
     RDKit          2D

  6  6  0  0  0  0  0  0  0  0999 V2000
    1.5000    0.0000    0.0000 C   0  0  0  0  0  0  0  0  0  0  0  0
    0.7500   -1.2990    0.0000 C   0  0  0  0  0  0  0  0  0  0  0  0
   -0.7500   -1.2990    0.0000 C   0  0  0  0  0  0  0  0  0  0  0  0
   -1.5000    0.0000    0.0000 C   0  0  0  0  0  0  0  0  0  0  0  0
   -0.7500    1.2990    0.0000 C   0  0  0  0  0  0  0  0  0  0  0  0
    0.7500    1.2990    0.0000 C   0  0  0  0  0  0  0  0  0  0  0  0
  1  2  2  0
  2  3  1  0
  3  4  2  0
  4  5  1  0
  5  6  2  0
  6  1  1  0
M  END
>  <Title>  (1) 
idAAAAgen7

$$$$

     RDKit          2D

  6  6  0  0  0  0  0  0  0  0999 V2000
    2.7760    0.0000    0.0000 O   0  0  0  0  0  0  0  0  0  0  0  0
    1.2760    0.0000    0.0000 C   0  0  0  0  0  0  0  0  0  0  0  0
    0.3943    1.2135    0.0000 C   0  0  0  0  0  0  0  0  0  0  0  0
   -1.0323    0.7500    0.0000 C   0  0  0  0  0  0  0  0  0  0  0  0
   -1.0323   -0.7500    0.0000 C   0  0  0  0  0  0  0  0  0  0  0  0
    0.3943   -1.2135    0.0000 C   0  0  0  0  0  0  0  0  0  0  0  0
  1  2  1  0
  2  3  2  0
  3  4  1  0
  4  5  2  0
  5  6  1  0
  6  2  1  0
M  END
>  <Title>  (2) 
idAAABgen7

$$$$

     RDKit          2D

  6  6  0  0  0  0  0  0  0  0999 V2000
    1.5000    0.0000    0.0000 C   0  0  0  0  0  0  0  0  0  0  0  0
    0.7500   -1.2990    0.0000 C   0  0  0  0  0  0  0  0  0  0  0  0
   -0.7500   -1.2990    0.0000 C   0  0  0  0  0  0  0  0  0  0  0  0
   -1.5000    0.0000    0.0000 C   0  0  0  0  0  0  0  0  0  0  0  0
   -0.7500    1.2990    0.0000 C   0  0  0  0  0  0  0  0  0  0  0  0
    0.7500    1.2990    0.0000 C   0  0  0  0  0  0  0  0  0  0  0  0
  1  2  2  0
  2  3  1  0
  3  4  2  0
  4  5  1  0
  5  6  2  0
  6  1  1  0
M  END
>  <Title>  (3) 
idAAACgen7

$$$$

     RDKit          2D

  7  7  0  0  0  0  0  0  0  0999 V2000
    4.2760   -0.0000    0.0000 N   0  0  0  0  0  0  0  0  0  0  0  0
    2.7760    0.0000    0.0000 C   0  0  0  0  0  0  0  0  0  0  0  0
    1.2760    0.0000    0.0000 C   0  0  0  0  0  0  0  0  0  0  0  0
    0.3943    1.2135    0.0000 C   0  0  0  0  0  0  0  0  0  0  0  0
   -1.0323    0.7500    0.0000 C   0  0  0  0  0  0  0  0  0  0  0  0
   -1.0323   -0.7500    0.0000 C   0  0  0  0  0  0  0  0  0  0  0  0
    0.3943   -1.2135    0.0000 C   0  0  0  0  0  0  0  0  0  0  0  0
  1  2  3  0
  2  3  1  0
  3  4  2  0
  4  5  1  0
  5  6  2  0
  6  7  1  0
  7  3  1  0
M  END
>  <Title>  (4) 
idAAADgen7

$$$$

     RDKit          2D

  6  6  0  0  0  0  0  0  0  0999 V2000
    1.5000    0.0000    0.0000 C   0  0  0  0  0  0  0  0  0  0  0  0
    0.7500   -1.2990    0.0000 C   0  0  0  0  0  0  0  0  0  0  0  0
   -0.7500   -1.2990    0.0000 C   0  0  0  0  0  0  0  0  0  0  0  0
   -1.5000    0.0000    0.0000 C   0  0  0  0  0  0  0  0  0  0  0  0
   -0.7500    1.2990    0.0000 C   0  0  0  0  0  0  0  0  0  0  0  0
    0.7500    1.2990    0.0000 C   0  0  0  0  0  0  0  0  0  0  0  0
  1  2  2  0
  2  3  1  0
  3  4  2  0
  4  5  1  0
  5  6  2  0
  6  1  1  0
M  END
>  <Title>  (5) 
idAAAEgen7

$$$$

     RDKit          2D

  7  7  0  0  0  0  0  0  0  0999 V2000
    3.0000    0.0000    0.0000 O   0  0  0  0  0  0  0  0  0  0  0  0
    1.5000    0.0000    0.0000 C   0  0  0  0  0  0  0  0  0  0  0  0
    0.7500   -1.2990    0.0000 C   0  0  0  0  0  0  0  0  0  0  0  0
   -0.7500   -1.2990    0.0000 C   0  0  0  0  0  0  0  0  0  0  0  0
   -1.5000    0.0000    0.0000 C   0  0  0  0  0  0  0  0  0  0  0  0
   -0.7500    1.2990    0.0000 C   0  0  0  0  0  0  0  0  0  0  0  0
    0.7500    1.2990    0.0000 C   0  0  0  0  0  0  0  0  0  0  0  0
  1  2  1  0
  2  3  2  0
  3  4  1  0
  4  5  2  0
  5  6  1  0
  6  7  2  0
  7  2  1  0
M  END
>  <Title>  (6) 
idAAAFgen7

$$$$

     RDKit          2D

 20 21  0  0  0  0  0  0  0  0999 V2000
    6.0000   -2.5981    0.0000 C   0  0  0  0  0  0  0  0  0  0  0  0
    5.2500   -1.2990    0.0000 C   0  0  0  0  0  0  0  0  0  0  0  0
    3.7500   -1.2990    0.0000 C   0  0  0  0  0  0  0  0  0  0  0  0
    3.0000   -2.5981    0.0000 O   0  0  0  0  0  0  0  0  0  0  0  0
    3.0000    0.0000    0.0000 N   0  0  0  0  0  0  0  0  0  0  0  0
    1.5000    0.0000    0.0000 C   0  0  0  0  0  0  0  0  0  0  0  0
    0.7500   -1.2990    0.0000 N   0  0  0  0  0  0  0  0  0  0  0  0
   -0.7500   -1.2990    0.0000 N   0  0  0  0  0  0  0  0  0  0  0  0
   -1.5000    0.0000    0.0000 C   0  0  0  0  0  0  0  0  0  0  0  0
   -3.0000    0.0000    0.0000 N   0  0  0  0  0  0  0  0  0  0  0  0
   -3.7500    1.2990    0.0000 C   0  0  0  0  0  0  0  0  0  0  0  0
   -3.0000    2.5981    0.0000 O   0  0  0  0  0  0  0  0  0  0  0  0
   -5.2500    1.2990    0.0000 C   0  0  0  0  0  0  0  0  0  0  0  0
   -6.0000    2.5981    0.0000 C   0  0  0  0  0  0  0  0  0  0  0  0
   -7.5000    2.5981    0.0000 C   0  0  0  0  0  0  0  0  0  0  0  0
   -8.2500    1.2990    0.0000 C   0  0  0  0  0  0  0  0  0  0  0  0
   -7.5000    0.0000    0.0000 C   0  0  0  0  0  0  0  0  0  0  0  0
   -6.0000    0.0000    0.0000 C   0  0  0  0  0  0  0  0  0  0  0  0
   -0.7500    1.2990    0.0000 C   0  0  0  0  0  0  0  0  0  0  0  0
    0.7500    1.2990    0.0000 C   0  0  0  0  0  0  0  0  0  0  0  0
  1  2  1  0
  2  3  1  0
  3  4  2  0
  3  5  1  0
  5  6  1  0
  6  7  2  0
  7  8  1  0
  8  9  2  0
  9 10  1  0
 10 11  1  0
 11 12  2  0
 11 13  1  0
 13 14  2  0
 14 15  1  0
 15 16  2  0
 16 17  1  0
 17 18  2  0
  9 19  1  0
 19 20  1  0
 20  6  1  0
 18 13  1  0
M  END
>  <Title>  (7) 
idAAAGgen7

$$$$

     RDKit          2D

  6  6  0  0  0  0  0  0  0  0999 V2000
    1.5000    0.0000    0.0000 C   0  0  0  0  0  0  0  0  0  0  0  0
    0.7500   -1.2990    0.0000 C   0  0  0  0  0  0  0  0  0  0  0  0
   -0.7500   -1.2990    0.0000 C   0  0  0  0  0  0  0  0  0  0  0  0
   -1.5000    0.0000    0.0000 C   0  0  0  0  0  0  0  0  0  0  0  0
   -0.7500    1.2990    0.0000 C   0  0  0  0  0  0  0  0  0  0  0  0
    0.7500    1.2990    0.0000 C   0  0  0  0  0  0  0  0  0  0  0  0
  1  2  2  0
  2  3  1  0
  3  4  2  0
  4  5  1  0
  5  6  2  0
  6  1  1  0
M  END
>  <Title>  (8) 
idAAAHgen7

$$$$

     RDKit          2D

  7  7  0  0  0  0  0  0  0  0999 V2000
    3.0000    0.0000    0.0000 O   0  0  0  0  0  0  0  0  0  0  0  0
    1.5000    0.0000    0.0000 C   0  0  0  0  0  0  0  0  0  0  0  0
    0.7500   -1.2990    0.0000 C   0  0  0  0  0  0  0  0  0  0  0  0
   -0.7500   -1.2990    0.0000 C   0  0  0  0  0  0  0  0  0  0  0  0
   -1.5000    0.0000    0.0000 C   0  0  0  0  0  0  0  0  0  0  0  0
   -0.7500    1.2990    0.0000 C   0  0  0  0  0  0  0  0  0  0  0  0
    0.7500    1.2990    0.0000 C   0  0  0  0  0  0  0  0  0  0  0  0
  1  2  1  0
  2  3  2  0
  3  4  1  0
  4  5  2  0
  5  6  1  0
  6  7  2  0
  7  2  1  0
M  END
>  <Title>  (9) 
idAAAIgen7

$$$$

     RDKit          2D

  6  6  0  0  0  0  0  0  0  0999 V2000
    1.5000    0.0000    0.0000 C   0  0  0  0  0  0  0  0  0  0  0  0
    0.7500   -1.2990    0.0000 C   0  0  0  0  0  0  0  0  0  0  0  0
   -0.7500   -1.2990    0.0000 C   0  0  0  0  0  0  0  0  0  0  0  0
   -1.5000    0.0000    0.0000 C   0  0  0  0  0  0  0  0  0  0  0  0
   -0.7500    1.2990    0.0000 C   0  0  0  0  0  0  0  0  0  0  0  0
    0.7500    1.2990    0.0000 C   0  0  0  0  0  0  0  0  0  0  0  0
  1  2  2  0
  2  3  1  0
  3  4  2  0
  4  5  1  0
  5  6  2  0
  6  1  1  0
M  END
>  <Title>  (10) 
idAAAJgen7

$$$$

     RDKit          2D

  7  7  0  0  0  0  0  0  0  0999 V2000
    3.0000    0.0000    0.0000 O   0  0  0  0  0  0  0  0  0  0  0  0
    1.5000    0.0000    0.0000 C   0  0  0  0  0  0  0  0  0  0  0  0
    0.7500   -1.2990    0.0000 C   0  0  0  0  0  0  0  0  0  0  0  0
   -0.7500   -1.2990    0.0000 C   0  0  0  0  0  0  0  0  0  0  0  0
   -1.5000    0.0000    0.0000 C   0  0  0  0  0  0  0  0  0  0  0  0
   -0.7500    1.2990    0.0000 C   0  0  0  0  0  0  0  0  0  0  0  0
    0.7500    1.2990    0.0000 C   0  0  0  0  0  0  0  0  0  0  0  0
  1  2  1  0
  2  3  2  0
  3  4  1  0
  4  5  2  0
  5  6  1  0
  6  7  2  0
  7  2  1  0
M  END
>  <Title>  (11) 
idAAAKgen7

$$$$

     RDKit          2D

  6  6  0  0  0  0  0  0  0  0999 V2000
    2.7760    0.0000    0.0000 O   0  0  0  0  0  0  0  0  0  0  0  0
    1.2760    0.0000    0.0000 C   0  0  0  0  0  0  0  0  0  0  0  0
    0.3943    1.2135    0.0000 C   0  0  0  0  0  0  0  0  0  0  0  0
   -1.0323    0.7500    0.0000 C   0  0  0  0  0  0  0  0  0  0  0  0
   -1.0323   -0.7500    0.0000 C   0  0  0  0  0  0  0  0  0  0  0  0
    0.3943   -1.2135    0.0000 C   0  0  0  0  0  0  0  0  0  0  0  0
  1  2  1  0
  2  3  2  0
  3  4  1  0
  4  5  2  0
  5  6  1  0
  6  2  1  0
M  END
>  <Title>  (12) 
idAAALgen7

$$$$

     RDKit          2D

  6  6  0  0  0  0  0  0  0  0999 V2000
    1.5000    0.0000    0.0000 C   0  0  0  0  0  0  0  0  0  0  0  0
    0.7500   -1.2990    0.0000 C   0  0  0  0  0  0  0  0  0  0  0  0
   -0.7500   -1.2990    0.0000 C   0  0  0  0  0  0  0  0  0  0  0  0
   -1.5000    0.0000    0.0000 C   0  0  0  0  0  0  0  0  0  0  0  0
   -0.7500    1.2990    0.0000 C   0  0  0  0  0  0  0  0  0  0  0  0
    0.7500    1.2990    0.0000 C   0  0  0  0  0  0  0  0  0  0  0  0
  1  2  2  0
  2  3  1  0
  3  4  2  0
  4  5  1  0
  5  6  2  0
  6  1  1  0
M  END
>  <Title>  (13) 
idAAAMgen7

$$$$

     RDKit          2D

 15 16  0  0  0  0  0  0  0  0999 V2000
    4.5000    0.0000    0.0000 C   0  0  0  0  0  0  0  0  0  0  0  0
    3.0000    0.0000    0.0000 C   0  0  0  0  0  0  0  0  0  0  0  0
    1.5000    0.0000    0.0000 C   0  0  0  0  0  0  0  0  0  0  0  0
    0.7500   -1.2990    0.0000 C   0  0  0  0  0  0  0  0  0  0  0  0
    1.5000   -2.5981    0.0000 N   0  0  0  0  0  0  0  0  0  0  0  0
    0.7500   -3.8971    0.0000 C   0  0  0  0  0  0  0  0  0  0  0  0
    1.5000   -5.1962    0.0000 C   0  0  0  0  0  0  0  0  0  0  0  0
    3.0000   -5.1962    0.0000 N   0  0  0  0  0  0  0  0  0  0  0  0
    3.7500   -6.4952    0.0000 C   0  0  0  0  0  0  0  0  0  0  0  0
    3.7500   -3.8971    0.0000 C   0  0  0  0  0  0  0  0  0  0  0  0
    3.0000   -2.5981    0.0000 C   0  0  0  0  0  0  0  0  0  0  0  0
   -0.7500   -1.2990    0.0000 C   0  0  0  0  0  0  0  0  0  0  0  0
   -1.5000    0.0000    0.0000 C   0  0  0  0  0  0  0  0  0  0  0  0
   -0.7500    1.2990    0.0000 C   0  0  0  0  0  0  0  0  0  0  0  0
    0.7500    1.2990    0.0000 C   0  0  0  0  0  0  0  0  0  0  0  0
  1  2  3  0
  2  3  1  0
  3  4  2  0
  4  5  1  0
  5  6  1  0
  6  7  1  0
  7  8  1  0
  8  9  1  0
  8 10  1  0
 10 11  1  0
  4 12  1  0
 12 13  1  0
 13 14  1  0
 14 15  2  0
 15  3  1  0
 11  5  1  0
M  END
>  <Title>  (14) 
idAAANgen7

$$$$

     RDKit          2D

  7  7  0  0  0  0  0  0  0  0999 V2000
    3.0000    0.0000    0.0000 O   0  0  0  0  0  0  0  0  0  0  0  0
    1.5000    0.0000    0.0000 C   0  0  0  0  0  0  0  0  0  0  0  0
    0.7500   -1.2990    0.0000 C   0  0  0  0  0  0  0  0  0  0  0  0
   -0.7500   -1.2990    0.0000 C   0  0  0  0  0  0  0  0  0  0  0  0
   -1.5000    0.0000    0.0000 C   0  0  0  0  0  0  0  0  0  0  0  0
   -0.7500    1.2990    0.0000 C   0  0  0  0  0  0  0  0  0  0  0  0
    0.7500    1.2990    0.0000 C   0  0  0  0  0  0  0  0  0  0  0  0
  1  2  1  0
  2  3  2  0
  3  4  1  0
  4  5  2  0
  5  6  1  0
  6  7  2  0
  7  2  1  0
M  END
>  <Title>  (15) 
idAAAOgen7

$$$$

     RDKit          2D

  9  9  0  0  0  0  0  0  0  0999 V2000
    4.2760   -0.0000    0.0000 N   0  0  0  0  0  0  0  0  0  0  0  0
    2.7760    0.0000    0.0000 C   0  0  0  0  0  0  0  0  0  0  0  0
    1.2760    0.0000    0.0000 C   0  0  0  0  0  0  0  0  0  0  0  0
    0.3943    1.2135    0.0000 C   0  0  0  0  0  0  0  0  0  0  0  0
   -1.0323    0.7500    0.0000 C   0  0  0  0  0  0  0  0  0  0  0  0
   -1.0323   -0.7500    0.0000 C   0  0  0  0  0  0  0  0  0  0  0  0
   -2.2458   -1.6317    0.0000 C   0  0  0  0  0  0  0  0  0  0  0  0
   -3.4593   -2.5134    0.0000 N   0  0  0  0  0  0  0  0  0  0  0  0
    0.3943   -1.2135    0.0000 C   0  0  0  0  0  0  0  0  0  0  0  0
  1  2  3  0
  2  3  1  0
  3  4  2  0
  4  5  1  0
  5  6  1  0
  6  7  1  0
  7  8  3  0
  6  9  1  0
  9  3  1  0
M  END
>  <Title>  (16) 
idAAAPgen7

$$$$

     RDKit          2D

  8  8  0  0  0  0  0  0  0  0999 V2000
    3.7500   -1.2990    0.0000 O   0  0  0  0  0  0  0  0  0  0  0  0
    3.0000    0.0000    0.0000 O   0  0  0  0  0  0  0  0  0  0  0  0
    1.5000    0.0000    0.0000 C   0  0  0  0  0  0  0  0  0  0  0  0
    0.7500   -1.2990    0.0000 C   0  0  0  0  0  0  0  0  0  0  0  0
   -0.7500   -1.2990    0.0000 C   0  0  0  0  0  0  0  0  0  0  0  0
   -1.5000    0.0000    0.0000 C   0  0  0  0  0  0  0  0  0  0  0  0
   -0.7500    1.2990    0.0000 C   0  0  0  0  0  0  0  0  0  0  0  0
    0.7500    1.2990    0.0000 C   0  0  0  0  0  0  0  0  0  0  0  0
  1  2  1  0
  2  3  1  0
  3  4  2  0
  4  5  1  0
  5  6  1  0
  6  7  2  0
  7  8  1  0
  8  3  1  0
M  END
>  <Title>  (17) 
idAAAQgen7

$$$$

     RDKit          2D

  3  2  0  0  0  0  0  0  0  0999 V2000
    0.0000    0.0000    0.0000 C   0  0  0  0  0  0  0  0  0  0  0  0
    1.2990    0.7500    0.0000 C   0  0  0  0  0  0  0  0  0  0  0  0
    2.5981   -0.0000    0.0000 C   0  0  0  0  0  0  0  0  0  0  0  0
  1  2  1  0
  2  3  1  0
M  END
>  <Title>  (18) 
idAAARgen7

$$$$

     RDKit          2D

 10 10  0  0  0  0  0  0  0  0999 V2000
    3.0000    0.0000    0.0000 C   0  0  0  0  0  0  0  0  0  0  0  0
    1.5000    0.0000    0.0000 C   0  0  0  0  0  0  0  0  0  0  0  0
    0.7500   -1.2990    0.0000 C   0  0  0  0  0  0  0  0  0  0  0  0
   -0.7500   -1.2990    0.0000 C   0  0  0  0  0  0  0  0  0  0  0  0
   -1.5000    0.0000    0.0000 C   0  0  0  0  0  0  0  0  0  0  0  0
   -3.0000    0.0000    0.0000 C   0  0  0  0  0  0  0  0  0  0  0  0
   -3.7500   -1.2990    0.0000 O   0  0  0  0  0  0  0  0  0  0  0  0
   -3.7500    1.2990    0.0000 O   0  0  0  0  0  0  0  0  0  0  0  0
   -0.7500    1.2990    0.0000 C   0  0  0  0  0  0  0  0  0  0  0  0
    0.7500    1.2990    0.0000 C   0  0  0  0  0  0  0  0  0  0  0  0
  1  2  1  0
  2  3  2  0
  3  4  1  0
  4  5  1  0
  5  6  1  0
  6  7  2  0
  6  8  1  0
  5  9  2  0
  9 10  1  0
 10  2  1  0
M  END
>  <Title>  (19) 
idAAASgen7

$$$$

     RDKit          2D

  3  2  0  0  0  0  0  0  0  0999 V2000
    0.0000    0.0000    0.0000 C   0  0  0  0  0  0  0  0  0  0  0  0
    1.2990    0.7500    0.0000 C   0  0  0  0  0  0  0  0  0  0  0  0
    2.5981   -0.0000    0.0000 C   0  0  0  0  0  0  0  0  0  0  0  0
  1  2  1  0
  2  3  1  0
M  END
>  <Title>  (20) 
idAAATgen7

$$$$

     RDKit          2D

 16 16  0  0  0  0  0  0  0  0999 V2000
    4.2760   -0.0000    0.0000 C   0  0  0  0  0  0  0  0  0  0  0  0
    2.7760    0.0000    0.0000 C   0  0  0  0  0  0  0  0  0  0  0  0
    1.2760    0.0000    0.0000 C   0  0  0  0  0  0  0  0  0  0  0  0
    0.3943    1.2135    0.0000 C   0  0  0  0  0  0  0  0  0  0  0  0
   -1.0323    0.7500    0.0000 C   0  0  0  0  0  0  0  0  0  0  0  0
   -1.0323   -0.7500    0.0000 N   0  0  0  0  0  0  0  0  0  0  0  0
   -2.2458   -1.6317    0.0000 C   0  0  0  0  0  0  0  0  0  0  0  0
   -2.0890   -3.1235    0.0000 O   0  0  0  0  0  0  0  0  0  0  0  0
   -3.6161   -1.0216    0.0000 C   0  0  0  0  0  0  0  0  0  0  0  0
   -4.8297   -1.9033    0.0000 C   0  0  0  0  0  0  0  0  0  0  0  0
   -6.2000   -1.2931    0.0000 C   0  0  0  0  0  0  0  0  0  0  0  0
   -4.6729   -3.3950    0.0000 C   0  0  0  0  0  0  0  0  0  0  0  0
   -5.8864   -4.2767    0.0000 C   0  0  0  0  0  0  0  0  0  0  0  0
   -5.7296   -5.7685    0.0000 C   0  0  0  0  0  0  0  0  0  0  0  0
    0.3943   -1.2135    0.0000 C   0  0  0  0  0  0  0  0  0  0  0  0
    0.8578   -2.6401    0.0000 O   0  0  0  0  0  0  0  0  0  0  0  0
  1  2  3  0
  2  3  1  0
  3  4  1  0
  4  5  1  0
  5  6  1  0
  6  7  1  0
  7  8  2  0
  7  9  1  0
  9 10  1  0
 10 11  1  0
 10 12  2  3
 12 13  1  0
 13 14  1  0
  6 15  1  0
 15 16  2  0
 15  3  1  0
M  END
>  <Title>  (21) 
idAAAUgen7

$$$$

     RDKit          2D

  7  7  0  0  0  0  0  0  0  0999 V2000
    4.2760   -0.0000    0.0000 N   0  0  0  0  0  0  0  0  0  0  0  0
    2.7760    0.0000    0.0000 C   0  0  0  0  0  0  0  0  0  0  0  0
    1.2760    0.0000    0.0000 C   0  0  0  0  0  0  0  0  0  0  0  0
    0.3943    1.2135    0.0000 C   0  0  0  0  0  0  0  0  0  0  0  0
   -1.0323    0.7500    0.0000 C   0  0  0  0  0  0  0  0  0  0  0  0
   -1.0323   -0.7500    0.0000 C   0  0  0  0  0  0  0  0  0  0  0  0
    0.3943   -1.2135    0.0000 C   0  0  0  0  0  0  0  0  0  0  0  0
  1  2  3  0
  2  3  1  0
  3  4  2  0
  4  5  1  0
  5  6  2  0
  6  7  1  0
  7  3  1  0
M  END
>  <Title>  (22) 
idAAAVgen7

$$$$

     RDKit          2D

 16 16  0  0  0  0  0  0  0  0999 V2000
    4.2760   -0.0000    0.0000 C   0  0  0  0  0  0  0  0  0  0  0  0
    2.7760    0.0000    0.0000 C   0  0  0  0  0  0  0  0  0  0  0  0
    1.2760    0.0000    0.0000 C   0  0  0  0  0  0  0  0  0  0  0  0
    0.3943    1.2135    0.0000 C   0  0  0  0  0  0  0  0  0  0  0  0
   -1.0323    0.7500    0.0000 C   0  0  0  0  0  0  0  0  0  0  0  0
   -1.0323   -0.7500    0.0000 N   0  0  0  0  0  0  0  0  0  0  0  0
   -2.2458   -1.6317    0.0000 C   0  0  0  0  0  0  0  0  0  0  0  0
   -2.0890   -3.1235    0.0000 O   0  0  0  0  0  0  0  0  0  0  0  0
   -3.6161   -1.0216    0.0000 C   0  0  0  0  0  0  0  0  0  0  0  0
   -4.8297   -1.9033    0.0000 C   0  0  0  0  0  0  0  0  0  0  0  0
   -6.2000   -1.2931    0.0000 C   0  0  0  0  0  0  0  0  0  0  0  0
   -4.6729   -3.3950    0.0000 C   0  0  0  0  0  0  0  0  0  0  0  0
   -5.8864   -4.2767    0.0000 C   0  0  0  0  0  0  0  0  0  0  0  0
   -5.7296   -5.7685    0.0000 C   0  0  0  0  0  0  0  0  0  0  0  0
    0.3943   -1.2135    0.0000 C   0  0  0  0  0  0  0  0  0  0  0  0
    0.8578   -2.6401    0.0000 O   0  0  0  0  0  0  0  0  0  0  0  0
  1  2  3  0
  2  3  1  0
  3  4  1  0
  4  5  1  0
  5  6  1  0
  6  7  1  0
  7  8  2  0
  7  9  1  0
  9 10  1  0
 10 11  1  0
 10 12  2  3
 12 13  1  0
 13 14  1  0
  6 15  1  0
 15 16  2  0
 15  3  1  0
M  END
>  <Title>  (23) 
idAAAWgen7

$$$$

     RDKit          2D

  5  5  0  0  0  0  0  0  0  0999 V2000
    1.2760    0.0000    0.0000 C   0  0  0  0  0  0  0  0  0  0  0  0
    0.3943    1.2135    0.0000 C   0  0  0  0  0  0  0  0  0  0  0  0
   -1.0323    0.7500    0.0000 C   0  0  0  0  0  0  0  0  0  0  0  0
   -1.0323   -0.7500    0.0000 C   0  0  0  0  0  0  0  0  0  0  0  0
    0.3943   -1.2135    0.0000 C   0  0  0  0  0  0  0  0  0  0  0  0
  1  2  2  0
  2  3  1  0
  3  4  1  0
  4  5  2  0
  5  1  1  0
M  END
>  <Title>  (24) 
idAAAXgen7

$$$$

     RDKit          2D

 10 10  0  0  0  0  0  0  0  0999 V2000
    7.5000    0.0000    0.0000 C   0  0  0  0  0  0  0  0  0  0  0  0
    6.0000    0.0000    0.0000 C   0  0  0  0  0  0  0  0  0  0  0  0
    4.5000    0.0000    0.0000 C   0  0  0  0  0  0  0  0  0  0  0  0
    3.0000    0.0000    0.0000 C   0  0  0  0  0  0  0  0  0  0  0  0
    1.5000    0.0000    0.0000 C   0  0  0  0  0  0  0  0  0  0  0  0
    0.7500   -1.2990    0.0000 C   0  0  0  0  0  0  0  0  0  0  0  0
   -0.7500   -1.2990    0.0000 C   0  0  0  0  0  0  0  0  0  0  0  0
   -1.5000    0.0000    0.0000 C   0  0  0  0  0  0  0  0  0  0  0  0
   -0.7500    1.2990    0.0000 C   0  0  0  0  0  0  0  0  0  0  0  0
    0.7500    1.2990    0.0000 C   0  0  0  0  0  0  0  0  0  0  0  0
  1  2  3  0
  2  3  1  0
  3  4  3  0
  4  5  1  0
  5  6  1  0
  6  7  2  0
  7  8  1  0
  8  9  2  0
  9 10  1  0
 10  5  1  0
M  END
>  <Title>  (25) 
idAAAYgen7

$$$$

     RDKit          2D

  5  5  0  0  0  0  0  0  0  0999 V2000
    1.2760    0.0000    0.0000 C   0  0  0  0  0  0  0  0  0  0  0  0
    0.3943    1.2135    0.0000 C   0  0  0  0  0  0  0  0  0  0  0  0
   -1.0323    0.7500    0.0000 C   0  0  0  0  0  0  0  0  0  0  0  0
   -1.0323   -0.7500    0.0000 C   0  0  0  0  0  0  0  0  0  0  0  0
    0.3943   -1.2135    0.0000 C   0  0  0  0  0  0  0  0  0  0  0  0
  1  2  2  0
  2  3  1  0
  3  4  1  0
  4  5  2  0
  5  1  1  0
M  END
>  <Title>  (26) 
idAAAZgen7

$$$$

     RDKit          2D

 12 12  0  0  0  0  0  0  0  0999 V2000
   10.5000    0.0000    0.0000 C   0  0  0  0  0  0  0  0  0  0  0  0
    9.0000    0.0000    0.0000 C   0  0  0  0  0  0  0  0  0  0  0  0
    7.5000    0.0000    0.0000 C   0  0  0  0  0  0  0  0  0  0  0  0
    6.0000    0.0000    0.0000 C   0  0  0  0  0  0  0  0  0  0  0  0
    4.5000    0.0000    0.0000 C   0  0  0  0  0  0  0  0  0  0  0  0
    3.0000    0.0000    0.0000 C   0  0  0  0  0  0  0  0  0  0  0  0
    1.5000    0.0000    0.0000 C   0  0  0  0  0  0  0  0  0  0  0  0
    0.7500   -1.2990    0.0000 C   0  0  0  0  0  0  0  0  0  0  0  0
   -0.7500   -1.2990    0.0000 C   0  0  0  0  0  0  0  0  0  0  0  0
   -1.5000    0.0000    0.0000 C   0  0  0  0  0  0  0  0  0  0  0  0
   -0.7500    1.2990    0.0000 C   0  0  0  0  0  0  0  0  0  0  0  0
    0.7500    1.2990    0.0000 C   0  0  0  0  0  0  0  0  0  0  0  0
  1  2  3  0
  2  3  1  0
  3  4  3  0
  4  5  1  0
  5  6  3  0
  6  7  1  0
  7  8  1  0
  8  9  2  0
  9 10  1  0
 10 11  2  0
 11 12  1  0
 12  7  1  0
M  END
>  <Title>  (27) 
idAABAgen7

$$$$

     RDKit          2D

  5  5  0  0  0  0  0  0  0  0999 V2000
    1.2760    0.0000    0.0000 C   0  0  0  0  0  0  0  0  0  0  0  0
    0.3943    1.2135    0.0000 C   0  0  0  0  0  0  0  0  0  0  0  0
   -1.0323    0.7500    0.0000 C   0  0  0  0  0  0  0  0  0  0  0  0
   -1.0323   -0.7500    0.0000 C   0  0  0  0  0  0  0  0  0  0  0  0
    0.3943   -1.2135    0.0000 C   0  0  0  0  0  0  0  0  0  0  0  0
  1  2  2  0
  2  3  1  0
  3  4  1  0
  4  5  2  0
  5  1  1  0
M  END
>  <Title>  (28) 
idAABBgen7

$$$$

     RDKit          2D

  7  7  0  0  0  0  0  0  0  0999 V2000
    3.0000    0.0000    0.0000 O   0  0  0  0  0  0  0  0  0  0  0  0
    1.5000    0.0000    0.0000 C   0  0  0  0  0  0  0  0  0  0  0  0
    0.7500   -1.2990    0.0000 C   0  0  0  0  0  0  0  0  0  0  0  0
   -0.7500   -1.2990    0.0000 C   0  0  0  0  0  0  0  0  0  0  0  0
   -1.5000    0.0000    0.0000 C   0  0  0  0  0  0  0  0  0  0  0  0
   -0.7500    1.2990    0.0000 C   0  0  0  0  0  0  0  0  0  0  0  0
    0.7500    1.2990    0.0000 C   0  0  0  0  0  0  0  0  0  0  0  0
  1  2  1  0
  2  3  2  0
  3  4  1  0
  4  5  1  0
  5  6  1  0
  6  7  2  0
  7  2  1  0
M  END
>  <Title>  (29) 
idAABCgen7

$$$$

     RDKit          2D

  7  7  0  0  0  0  0  0  0  0999 V2000
    4.2760   -0.0000    0.0000 C   0  0  0  0  0  0  0  0  0  0  0  0
    2.7760    0.0000    0.0000 C   0  0  0  0  0  0  0  0  0  0  0  0
    1.2760    0.0000    0.0000 C   0  0  0  0  0  0  0  0  0  0  0  0
    0.3943    1.2135    0.0000 C   0  0  0  0  0  0  0  0  0  0  0  0
   -1.0323    0.7500    0.0000 C   0  0  0  0  0  0  0  0  0  0  0  0
   -1.0323   -0.7500    0.0000 C   0  0  0  0  0  0  0  0  0  0  0  0
    0.3943   -1.2135    0.0000 C   0  0  0  0  0  0  0  0  0  0  0  0
  1  2  3  0
  2  3  1  0
  3  4  2  0
  4  5  1  0
  5  6  2  0
  6  7  1  0
  7  3  1  0
M  END
>  <Title>  (30) 
idAABDgen7

$$$$

     RDKit          2D

  7  7  0  0  0  0  0  0  0  0999 V2000
    2.7760    0.0000    0.0000 C   0  0  0  0  0  0  0  0  0  0  0  0
    1.2760    0.0000    0.0000 C   0  0  0  0  0  0  0  0  0  0  0  0
    0.3943    1.2135    0.0000 C   0  0  0  0  0  0  0  0  0  0  0  0
   -1.0323    0.7500    0.0000 C   0  0  0  0  0  0  0  0  0  0  0  0
   -2.2458    1.6317    0.0000 O   0  0  0  0  0  0  0  0  0  0  0  0
   -1.0323   -0.7500    0.0000 C   0  0  0  0  0  0  0  0  0  0  0  0
    0.3943   -1.2135    0.0000 C   0  0  0  0  0  0  0  0  0  0  0  0
  1  2  1  0
  2  3  2  0
  3  4  1  0
  4  5  1  0
  4  6  2  0
  6  7  1  0
  7  2  1  0
M  END
>  <Title>  (31) 
idAABEgen7

$$$$

     RDKit          2D

 11 11  0  0  0  0  0  0  0  0999 V2000
   10.2760   -0.0000    0.0000 C   0  0  0  0  0  0  0  0  0  0  0  0
    8.7760   -0.0000    0.0000 C   0  0  0  0  0  0  0  0  0  0  0  0
    7.2760   -0.0000    0.0000 C   0  0  0  0  0  0  0  0  0  0  0  0
    5.7760   -0.0000    0.0000 C   0  0  0  0  0  0  0  0  0  0  0  0
    4.2760   -0.0000    0.0000 C   0  0  0  0  0  0  0  0  0  0  0  0
    2.7760    0.0000    0.0000 C   0  0  0  0  0  0  0  0  0  0  0  0
    1.2760    0.0000    0.0000 C   0  0  0  0  0  0  0  0  0  0  0  0
    0.3943    1.2135    0.0000 C   0  0  0  0  0  0  0  0  0  0  0  0
   -1.0323    0.7500    0.0000 C   0  0  0  0  0  0  0  0  0  0  0  0
   -1.0323   -0.7500    0.0000 C   0  0  0  0  0  0  0  0  0  0  0  0
    0.3943   -1.2135    0.0000 C   0  0  0  0  0  0  0  0  0  0  0  0
  1  2  3  0
  2  3  1  0
  3  4  3  0
  4  5  1  0
  5  6  3  0
  6  7  1  0
  7  8  2  0
  8  9  1  0
  9 10  1  0
 10 11  2  0
 11  7  1  0
M  END
>  <Title>  (32) 
idAABFgen7

$$$$

     RDKit          2D

  8  8  0  0  0  0  0  0  0  0999 V2000
    4.5000    0.0000    0.0000 N   0  0  0  0  0  0  0  0  0  0  0  0
    3.0000    0.0000    0.0000 C   0  0  0  0  0  0  0  0  0  0  0  0
    1.5000    0.0000    0.0000 C   0  0  0  0  0  0  0  0  0  0  0  0
    0.7500   -1.2990    0.0000 C   0  0  0  0  0  0  0  0  0  0  0  0
   -0.7500   -1.2990    0.0000 C   0  0  0  0  0  0  0  0  0  0  0  0
   -1.5000    0.0000    0.0000 C   0  0  0  0  0  0  0  0  0  0  0  0
   -0.7500    1.2990    0.0000 C   0  0  0  0  0  0  0  0  0  0  0  0
    0.7500    1.2990    0.0000 C   0  0  0  0  0  0  0  0  0  0  0  0
  1  2  3  0
  2  3  1  0
  3  4  2  0
  4  5  1  0
  5  6  1  0
  6  7  1  0
  7  8  2  0
  8  3  1  0
M  END
>  <Title>  (33) 
idAABGgen7

$$$$

     RDKit          2D

 11 11  0  0  0  0  0  0  0  0999 V2000
    7.2760   -2.5981    0.0000 C   0  0  0  0  0  0  0  0  0  0  0  0
    5.7760   -2.5981    0.0000 C   0  0  0  0  0  0  0  0  0  0  0  0
    5.0260   -1.2990    0.0000 C   0  0  0  0  0  0  0  0  0  0  0  0
    3.5260   -1.2990    0.0000 C   0  0  0  0  0  0  0  0  0  0  0  0
    2.7760   -2.5981    0.0000 O   0  0  0  0  0  0  0  0  0  0  0  0
    2.7760    0.0000    0.0000 N   0  0  0  0  0  0  0  0  0  0  0  0
    1.2760    0.0000    0.0000 C   0  0  0  0  0  0  0  0  0  0  0  0
    0.3943    1.2135    0.0000 C   0  0  0  0  0  0  0  0  0  0  0  0
   -1.0323    0.7500    0.0000 C   0  0  0  0  0  0  0  0  0  0  0  0
   -1.0323   -0.7500    0.0000 C   0  0  0  0  0  0  0  0  0  0  0  0
    0.3943   -1.2135    0.0000 C   0  0  0  0  0  0  0  0  0  0  0  0
  1  2  1  0
  2  3  2  3
  3  4  1  0
  4  5  2  0
  4  6  1  0
  6  7  1  0
  7  8  2  0
  8  9  1  0
  9 10  2  0
 10 11  1  0
 11  7  1  0
M  END
>  <Title>  (34) 
idAABHgen7

$$$$

     RDKit          2D

  8  8  0  0  0  0  0  0  0  0999 V2000
    3.7500   -1.2990    0.0000 O   0  0  0  0  0  0  0  0  0  0  0  0
    3.0000    0.0000    0.0000 O   0  0  0  0  0  0  0  0  0  0  0  0
    1.5000    0.0000    0.0000 C   0  0  0  0  0  0  0  0  0  0  0  0
    0.7500   -1.2990    0.0000 C   0  0  0  0  0  0  0  0  0  0  0  0
   -0.7500   -1.2990    0.0000 C   0  0  0  0  0  0  0  0  0  0  0  0
   -1.5000    0.0000    0.0000 C   0  0  0  0  0  0  0  0  0  0  0  0
   -0.7500    1.2990    0.0000 C   0  0  0  0  0  0  0  0  0  0  0  0
    0.7500    1.2990    0.0000 C   0  0  0  0  0  0  0  0  0  0  0  0
  1  2  1  0
  2  3  1  0
  3  4  2  0
  4  5  1  0
  5  6  2  0
  6  7  1  0
  7  8  2  0
  8  3  1  0
M  END
>  <Title>  (35) 
idAABIgen7

$$$$

     RDKit          2D

  8  8  0  0  0  0  0  0  0  0999 V2000
    3.7500   -1.2990    0.0000 O   0  0  0  0  0  0  0  0  0  0  0  0
    3.0000    0.0000    0.0000 O   0  0  0  0  0  0  0  0  0  0  0  0
    1.5000    0.0000    0.0000 C   0  0  0  0  0  0  0  0  0  0  0  0
    0.7500   -1.2990    0.0000 C   0  0  0  0  0  0  0  0  0  0  0  0
   -0.7500   -1.2990    0.0000 C   0  0  0  0  0  0  0  0  0  0  0  0
   -1.5000    0.0000    0.0000 C   0  0  0  0  0  0  0  0  0  0  0  0
   -0.7500    1.2990    0.0000 C   0  0  0  0  0  0  0  0  0  0  0  0
    0.7500    1.2990    0.0000 C   0  0  0  0  0  0  0  0  0  0  0  0
  1  2  1  0
  2  3  1  0
  3  4  2  0
  4  5  1  0
  5  6  2  0
  6  7  1  0
  7  8  2  0
  8  3  1  0
M  END
>  <Title>  (36) 
idAABJgen7

$$$$

     RDKit          2D

  6  6  0  0  0  0  0  0  0  0999 V2000
    2.7760    0.0000    0.0000 O   0  0  0  0  0  0  0  0  0  0  0  0
    1.2760    0.0000    0.0000 C   0  0  0  0  0  0  0  0  0  0  0  0
    0.3943    1.2135    0.0000 C   0  0  0  0  0  0  0  0  0  0  0  0
   -1.0323    0.7500    0.0000 C   0  0  0  0  0  0  0  0  0  0  0  0
   -1.0323   -0.7500    0.0000 C   0  0  0  0  0  0  0  0  0  0  0  0
    0.3943   -1.2135    0.0000 C   0  0  0  0  0  0  0  0  0  0  0  0
  1  2  1  0
  2  3  2  0
  3  4  1  0
  4  5  2  0
  5  6  1  0
  6  2  1  0
M  END
>  <Title>  (37) 
idAABKgen7

$$$$

     RDKit          2D

  7  6  0  0  0  0  0  0  0  0999 V2000
    0.0000    0.0000    0.0000 C   0  0  0  0  0  0  0  0  0  0  0  0
    1.2990    0.7500    0.0000 C   0  0  0  0  0  0  0  0  0  0  0  0
    2.5981   -0.0000    0.0000 C   0  0  0  0  0  0  0  0  0  0  0  0
    3.8971    0.7500    0.0000 C   0  0  0  0  0  0  0  0  0  0  0  0
    3.8971    2.2500    0.0000 O   0  0  0  0  0  0  0  0  0  0  0  0
    5.1962   -0.0000    0.0000 C   0  0  0  0  0  0  0  0  0  0  0  0
    6.4952    0.7500    0.0000 C   0  0  0  0  0  0  0  0  0  0  0  0
  1  2  1  0
  2  3  2  3
  3  4  1  0
  4  5  2  0
  4  6  1  0
  6  7  1  0
M  END
>  <Title>  (38) 
idAABLgen7

$$$$

     RDKit          2D

  6  5  0  0  0  0  0  0  0  0999 V2000
    0.0000    0.0000    0.0000 C   0  0  0  0  0  0  0  0  0  0  0  0
    1.2990    0.7500    0.0000 C   0  0  0  0  0  0  0  0  0  0  0  0
    2.5981    1.5000    0.0000 C   0  0  0  0  0  0  0  0  0  0  0  0
    3.8971    2.2500    0.0000 C   0  0  0  0  0  0  0  0  0  0  0  0
    5.1962    1.5000    0.0000 C   0  0  0  0  0  0  0  0  0  0  0  0
    6.4952    2.2500    0.0000 C   0  0  0  0  0  0  0  0  0  0  0  0
  1  2  1  0
  2  3  3  0
  3  4  1  0
  4  5  2  3
  5  6  1  0
M  END
>  <Title>  (39) 
idAABMgen7

$$$$

     RDKit          2D

  7  7  0  0  0  0  0  0  0  0999 V2000
    4.2760   -0.0000    0.0000 C   0  0  0  0  0  0  0  0  0  0  0  0
    2.7760    0.0000    0.0000 C   0  0  0  0  0  0  0  0  0  0  0  0
    1.2760    0.0000    0.0000 C   0  0  0  0  0  0  0  0  0  0  0  0
    0.3943    1.2135    0.0000 C   0  0  0  0  0  0  0  0  0  0  0  0
   -1.0323    0.7500    0.0000 C   0  0  0  0  0  0  0  0  0  0  0  0
   -1.0323   -0.7500    0.0000 C   0  0  0  0  0  0  0  0  0  0  0  0
    0.3943   -1.2135    0.0000 C   0  0  0  0  0  0  0  0  0  0  0  0
  1  2  3  0
  2  3  1  0
  3  4  1  0
  4  5  1  0
  5  6  2  0
  6  7  1  0
  7  3  1  0
M  END
>  <Title>  (40) 
idAABNgen7

$$$$

     RDKit          2D

 28 30  0  0  0  0  0  0  0  0999 V2000
    3.0000    0.0000    0.0000 C   0  0  0  0  0  0  0  0  0  0  0  0
    1.5000    0.0000    0.0000 C   0  0  0  0  0  0  0  0  0  0  0  0
    0.7500   -1.2990    0.0000 C   0  0  0  0  0  0  0  0  0  0  0  0
   -0.7500   -1.2990    0.0000 C   0  0  0  0  0  0  0  0  0  0  0  0
   -1.5000   -2.5981    0.0000 C   0  0  0  0  0  0  0  0  0  0  0  0
   -2.7990   -1.8481    0.0000 C   0  0  0  0  0  0  0  0  0  0  0  0
   -0.2010   -3.3481    0.0000 C   0  0  0  0  0  0  0  0  0  0  0  0
   -2.2500   -3.8971    0.0000 C   0  0  0  0  0  0  0  0  0  0  0  0
   -1.5000    0.0000    0.0000 C   0  0  0  0  0  0  0  0  0  0  0  0
   -0.7500    1.2990    0.0000 C   0  0  0  0  0  0  0  0  0  0  0  0
    0.7500    1.2990    0.0000 C   0  0  0  0  0  0  0  0  0  0  0  0
    1.5000    2.5981    0.0000 C   0  0  0  0  0  0  0  0  0  0  0  0
    3.0000    2.5981    0.0000 O   0  0  0  0  0  0  0  0  0  0  0  0
    0.7500    3.8971    0.0000 N   0  0  0  0  0  0  0  0  0  0  0  0
    1.5000    5.1962    0.0000 C   0  0  0  0  0  0  0  0  0  0  0  0
    0.8899    6.5665    0.0000 C   0  0  0  0  0  0  0  0  0  0  0  0
    2.0046    7.5702    0.0000 C   0  0  0  0  0  0  0  0  0  0  0  0
    3.3037    6.8202    0.0000 C   0  0  0  0  0  0  0  0  0  0  0  0
    4.6740    7.4303    0.0000 C   0  0  0  0  0  0  0  0  0  0  0  0
    4.8308    8.9221    0.0000 O   0  0  0  0  0  0  0  0  0  0  0  0
    5.8875    6.5486    0.0000 N   0  0  0  0  0  0  0  0  0  0  0  0
    7.2578    7.1587    0.0000 C   0  0  0  0  0  0  0  0  0  0  0  0
    8.4713    6.2770    0.0000 N   0  0  0  0  0  0  0  0  0  0  0  0
    9.8417    6.8871    0.0000 N   0  0  0  0  0  0  0  0  0  0  0  0
    9.9984    8.3789    0.0000 N   0  0  0  0  0  0  0  0  0  0  0  0
    8.7849    9.2606    0.0000 N   0  0  0  0  0  0  0  0  0  0  0  0
    7.4146    8.6505    0.0000 N   0  0  0  0  0  0  0  0  0  0  0  0
    2.9918    5.3529    0.0000 C   0  0  0  0  0  0  0  0  0  0  0  0
  1  2  1  0
  2  3  1  0
  3  4  2  0
  4  5  1  0
  5  6  1  0
  5  7  1  0
  5  8  1  0
  4  9  1  0
  9 10  2  0
 10 11  1  0
 11 12  1  0
 12 13  2  0
 12 14  1  0
 14 15  1  0
 15 16  1  0
 16 17  1  0
 17 18  1  0
 18 19  1  0
 19 20  2  0
 19 21  1  0
 21 22  1  0
 22 23  2  0
 23 24  1  0
 24 25  2  0
 25 26  1  0
 26 27  2  0
 18 28  1  0
 11  2  1  0
 28 15  1  0
 27 22  1  0
M  END
>  <Title>  (41) 
idAABOgen7

$$$$

     RDKit          2D

  9  9  0  0  0  0  0  0  0  0999 V2000
    4.5000   -2.5981    0.0000 N   0  0  0  0  0  0  0  0  0  0  0  0
    3.7500   -1.2990    0.0000 C   0  0  0  0  0  0  0  0  0  0  0  0
    3.0000    0.0000    0.0000 O   0  0  0  0  0  0  0  0  0  0  0  0
    1.5000    0.0000    0.0000 C   0  0  0  0  0  0  0  0  0  0  0  0
    0.7500   -1.2990    0.0000 C   0  0  0  0  0  0  0  0  0  0  0  0
   -0.7500   -1.2990    0.0000 C   0  0  0  0  0  0  0  0  0  0  0  0
   -1.5000    0.0000    0.0000 C   0  0  0  0  0  0  0  0  0  0  0  0
   -0.7500    1.2990    0.0000 C   0  0  0  0  0  0  0  0  0  0  0  0
    0.7500    1.2990    0.0000 C   0  0  0  0  0  0  0  0  0  0  0  0
  1  2  3  0
  2  3  1  0
  3  4  1  0
  4  5  1  0
  5  6  2  0
  6  7  1  0
  7  8  2  0
  8  9  1  0
  9  4  1  0
M  END
>  <Title>  (42) 
idAABPgen7

$$$$

     RDKit          2D

  6  6  0  0  0  0  0  0  0  0999 V2000
    1.5000    0.0000    0.0000 C   0  0  0  0  0  0  0  0  0  0  0  0
    0.7500   -1.2990    0.0000 C   0  0  0  0  0  0  0  0  0  0  0  0
   -0.7500   -1.2990    0.0000 C   0  0  0  0  0  0  0  0  0  0  0  0
   -1.5000    0.0000    0.0000 C   0  0  0  0  0  0  0  0  0  0  0  0
   -0.7500    1.2990    0.0000 C   0  0  0  0  0  0  0  0  0  0  0  0
    0.7500    1.2990    0.0000 C   0  0  0  0  0  0  0  0  0  0  0  0
  1  2  2  0
  2  3  1  0
  3  4  2  0
  4  5  1  0
  5  6  2  0
  6  1  1  0
M  END
>  <Title>  (43) 
idAABQgen7

$$$$

     RDKit          2D

  6  6  0  0  0  0  0  0  0  0999 V2000
    2.7760    0.0000    0.0000 O   0  0  0  0  0  0  0  0  0  0  0  0
    1.2760    0.0000    0.0000 C   0  0  0  0  0  0  0  0  0  0  0  0
    0.3943    1.2135    0.0000 C   0  0  0  0  0  0  0  0  0  0  0  0
   -1.0323    0.7500    0.0000 C   0  0  0  0  0  0  0  0  0  0  0  0
   -1.0323   -0.7500    0.0000 C   0  0  0  0  0  0  0  0  0  0  0  0
    0.3943   -1.2135    0.0000 C   0  0  0  0  0  0  0  0  0  0  0  0
  1  2  1  0
  2  3  2  0
  3  4  1  0
  4  5  2  0
  5  6  1  0
  6  2  1  0
M  END
>  <Title>  (44) 
idAABRgen7

$$$$

     RDKit          2D

  6  6  0  0  0  0  0  0  0  0999 V2000
    1.5000    0.0000    0.0000 C   0  0  0  0  0  0  0  0  0  0  0  0
    0.7500   -1.2990    0.0000 C   0  0  0  0  0  0  0  0  0  0  0  0
   -0.7500   -1.2990    0.0000 C   0  0  0  0  0  0  0  0  0  0  0  0
   -1.5000    0.0000    0.0000 C   0  0  0  0  0  0  0  0  0  0  0  0
   -0.7500    1.2990    0.0000 C   0  0  0  0  0  0  0  0  0  0  0  0
    0.7500    1.2990    0.0000 C   0  0  0  0  0  0  0  0  0  0  0  0
  1  2  2  0
  2  3  1  0
  3  4  2  0
  4  5  1  0
  5  6  2  0
  6  1  1  0
M  END
>  <Title>  (45) 
idAABSgen7

$$$$

     RDKit          2D

  6  6  0  0  0  0  0  0  0  0999 V2000
    1.5000    0.0000    0.0000 C   0  0  0  0  0  0  0  0  0  0  0  0
    0.7500   -1.2990    0.0000 C   0  0  0  0  0  0  0  0  0  0  0  0
   -0.7500   -1.2990    0.0000 C   0  0  0  0  0  0  0  0  0  0  0  0
   -1.5000    0.0000    0.0000 C   0  0  0  0  0  0  0  0  0  0  0  0
   -0.7500    1.2990    0.0000 C   0  0  0  0  0  0  0  0  0  0  0  0
    0.7500    1.2990    0.0000 C   0  0  0  0  0  0  0  0  0  0  0  0
  1  2  2  0
  2  3  1  0
  3  4  2  0
  4  5  1  0
  5  6  2  0
  6  1  1  0
M  END
>  <Title>  (46) 
idAABTgen7

$$$$

     RDKit          2D

  8  8  0  0  0  0  0  0  0  0999 V2000
    2.7760    0.0000    0.0000 C   0  0  0  0  0  0  0  0  0  0  0  0
    1.2760    0.0000    0.0000 C   0  0  0  0  0  0  0  0  0  0  0  0
    0.3943    1.2135    0.0000 C   0  0  0  0  0  0  0  0  0  0  0  0
   -1.0323    0.7500    0.0000 C   0  0  0  0  0  0  0  0  0  0  0  0
   -1.0323   -0.7500    0.0000 C   0  0  0  0  0  0  0  0  0  0  0  0
   -2.2458   -1.6317    0.0000 O   0  0  0  0  0  0  0  0  0  0  0  0
    0.3943   -1.2135    0.0000 C   0  0  0  0  0  0  0  0  0  0  0  0
    0.8578   -2.6401    0.0000 C   0  0  0  0  0  0  0  0  0  0  0  0
  1  2  1  0
  2  3  1  0
  3  4  1  0
  4  5  1  0
  5  6  1  0
  5  7  1  0
  7  8  1  0
  7  2  1  0
M  END
>  <Title>  (47) 
idAAAAgen7

$$$$

     RDKit          2D

 75 75  0  0  0  0  0  0  0  0999 V2000
   19.1715    0.0000    0.0000 C   0  0  0  0  0  0  0  0  0  0  0  0
   17.6715    0.0000    0.0000 C   0  0  0  0  0  0  0  0  0  0  0  0
   17.6078   -1.4986    0.0000 C   0  0  0  0  0  0  0  0  0  0  0  0
   17.4173   -2.9865    0.0000 C   0  0  0  0  0  0  0  0  0  0  0  0
   17.1013   -4.4528    0.0000 C   0  0  0  0  0  0  0  0  0  0  0  0
   16.6621   -5.8871    0.0000 C   0  0  0  0  0  0  0  0  0  0  0  0
   16.1028   -7.2789    0.0000 C   0  0  0  0  0  0  0  0  0  0  0  0
   15.4275   -8.6183    0.0000 C   0  0  0  0  0  0  0  0  0  0  0  0
   14.6410   -9.8956    0.0000 C   0  0  0  0  0  0  0  0  0  0  0  0
   13.7491  -11.1016    0.0000 C   0  0  0  0  0  0  0  0  0  0  0  0
   12.7581  -12.2276    0.0000 C   0  0  0  0  0  0  0  0  0  0  0  0
   11.6751  -13.2655    0.0000 C   0  0  0  0  0  0  0  0  0  0  0  0
   10.5081  -14.2078    0.0000 C   0  0  0  0  0  0  0  0  0  0  0  0
    9.2653  -15.0478    0.0000 C   0  0  0  0  0  0  0  0  0  0  0  0
    7.9558  -15.7793    0.0000 C   0  0  0  0  0  0  0  0  0  0  0  0
    6.5889  -16.3972    0.0000 C   0  0  0  0  0  0  0  0  0  0  0  0
    5.1746  -16.8969    0.0000 C   0  0  0  0  0  0  0  0  0  0  0  0
    3.7230  -17.2749    0.0000 C   0  0  0  0  0  0  0  0  0  0  0  0
    2.2446  -17.5284    0.0000 C   0  0  0  0  0  0  0  0  0  0  0  0
    0.7500  -17.6556    0.0000 C   0  0  0  0  0  0  0  0  0  0  0  0
   -0.7500  -17.6556    0.0000 C   0  0  0  0  0  0  0  0  0  0  0  0
   -2.2446  -17.5284    0.0000 C   0  0  0  0  0  0  0  0  0  0  0  0
   -3.7230  -17.2749    0.0000 C   0  0  0  0  0  0  0  0  0  0  0  0
   -5.1746  -16.8969    0.0000 C   0  0  0  0  0  0  0  0  0  0  0  0
   -6.5889  -16.3972    0.0000 C   0  0  0  0  0  0  0  0  0  0  0  0
   -7.9558  -15.7793    0.0000 C   0  0  0  0  0  0  0  0  0  0  0  0
   -9.2653  -15.0478    0.0000 C   0  0  0  0  0  0  0  0  0  0  0  0
  -10.5081  -14.2078    0.0000 C   0  0  0  0  0  0  0  0  0  0  0  0
  -11.6751  -13.2655    0.0000 C   0  0  0  0  0  0  0  0  0  0  0  0
  -12.7581  -12.2276    0.0000 C   0  0  0  0  0  0  0  0  0  0  0  0
  -13.7491  -11.1016    0.0000 C   0  0  0  0  0  0  0  0  0  0  0  0
  -14.6410   -9.8956    0.0000 C   0  0  0  0  0  0  0  0  0  0  0  0
  -15.4275   -8.6183    0.0000 C   0  0  0  0  0  0  0  0  0  0  0  0
  -16.1028   -7.2789    0.0000 C   0  0  0  0  0  0  0  0  0  0  0  0
  -16.6621   -5.8871    0.0000 C   0  0  0  0  0  0  0  0  0  0  0  0
  -17.1013   -4.4528    0.0000 C   0  0  0  0  0  0  0  0  0  0  0  0
  -17.4173   -2.9865    0.0000 C   0  0  0  0  0  0  0  0  0  0  0  0
  -17.6078   -1.4986    0.0000 C   0  0  0  0  0  0  0  0  0  0  0  0
  -17.6715    0.0000    0.0000 C   0  0  0  0  0  0  0  0  0  0  0  0
  -17.6078    1.4986    0.0000 C   0  0  0  0  0  0  0  0  0  0  0  0
  -17.4173    2.9865    0.0000 C   0  0  0  0  0  0  0  0  0  0  0  0
  -17.1013    4.4528    0.0000 C   0  0  0  0  0  0  0  0  0  0  0  0
  -16.6621    5.8871    0.0000 C   0  0  0  0  0  0  0  0  0  0  0  0
  -16.1028    7.2789    0.0000 C   0  0  0  0  0  0  0  0  0  0  0  0
  -15.4275    8.6183    0.0000 C   0  0  0  0  0  0  0  0  0  0  0  0
  -14.6410    9.8956    0.0000 C   0  0  0  0  0  0  0  0  0  0  0  0
  -13.7491   11.1016    0.0000 C   0  0  0  0  0  0  0  0  0  0  0  0
  -12.7581   12.2276    0.0000 C   0  0  0  0  0  0  0  0  0  0  0  0
  -11.6751   13.2655    0.0000 C   0  0  0  0  0  0  0  0  0  0  0  0
  -10.5081   14.2078    0.0000 C   0  0  0  0  0  0  0  0  0  0  0  0
   -9.2653   15.0478    0.0000 C   0  0  0  0  0  0  0  0  0  0  0  0
   -7.9558   15.7793    0.0000 C   0  0  0  0  0  0  0  0  0  0  0  0
   -6.5889   16.3972    0.0000 C   0  0  0  0  0  0  0  0  0  0  0  0
   -5.1746   16.8969    0.0000 C   0  0  0  0  0  0  0  0  0  0  0  0
   -3.7230   17.2749    0.0000 C   0  0  0  0  0  0  0  0  0  0  0  0
   -2.2446   17.5284    0.0000 C   0  0  0  0  0  0  0  0  0  0  0  0
   -0.7500   17.6556    0.0000 C   0  0  0  0  0  0  0  0  0  0  0  0
    0.7500   17.6556    0.0000 C   0  0  0  0  0  0  0  0  0  0  0  0
    2.2446   17.5284    0.0000 C   0  0  0  0  0  0  0  0  0  0  0  0
    3.7230   17.2749    0.0000 C   0  0  0  0  0  0  0  0  0  0  0  0
    5.1746   16.8969    0.0000 C   0  0  0  0  0  0  0  0  0  0  0  0
    6.5889   16.3972    0.0000 C   0  0  0  0  0  0  0  0  0  0  0  0
    7.9558   15.7793    0.0000 C   0  0  0  0  0  0  0  0  0  0  0  0
    9.2653   15.0478    0.0000 C   0  0  0  0  0  0  0  0  0  0  0  0
   10.5081   14.2078    0.0000 C   0  0  0  0  0  0  0  0  0  0  0  0
   11.6751   13.2655    0.0000 C   0  0  0  0  0  0  0  0  0  0  0  0
   12.7581   12.2276    0.0000 C   0  0  0  0  0  0  0  0  0  0  0  0
   13.7491   11.1016    0.0000 C   0  0  0  0  0  0  0  0  0  0  0  0
   14.6410    9.8956    0.0000 C   0  0  0  0  0  0  0  0  0  0  0  0
   15.4275    8.6183    0.0000 C   0  0  0  0  0  0  0  0  0  0  0  0
   16.1028    7.2789    0.0000 C   0  0  0  0  0  0  0  0  0  0  0  0
   16.6621    5.8871    0.0000 C   0  0  0  0  0  0  0  0  0  0  0  0
   17.1013    4.4528    0.0000 C   0  0  0  0  0  0  0  0  0  0  0  0
   17.4173    2.9865    0.0000 C   0  0  0  0  0  0  0  0  0  0  0  0
   17.6078    1.4986    0.0000 C   0  0  0  0  0  0  0  0  0  0  0  0
  1  2  1  0
  2  3  1  0
  3  4  1  0
  4  5  1  0
  5  6  1  0
  6  7  1  0
  7  8  1  0
  8  9  1  0
  9 10  1  0
 10 11  1  0
 11 12  1  0
 12 13  1  0
 13 14  1  0
 14 15  1  0
 15 16  1  0
 16 17  1  0
 17 18  1  0
 18 19  1  0
 19 20  1  0
 20 21  1  0
 21 22  1  0
 22 23  1  0
 23 24  1  0
 24 25  1  0
 25 26  1  0
 26 27  1  0
 27 28  1  0
 28 29  1  0
 29 30  1  0
 30 31  1  0
 31 32  1  0
 32 33  1  0
 33 34  1  0
 34 35  1  0
 35 36  1  0
 36 37  1  0
 37 38  1  0
 38 39  1  0
 39 40  1  0
 40 41  1  0
 41 42  1  0
 42 43  1  0
 43 44  1  0
 44 45  1  0
 45 46  1  0
 46 47  1  0
 47 48  1  0
 48 49  1  0
 49 50  1  0
 50 51  1  0
 51 52  1  0
 52 53  1  0
 53 54  1  0
 54 55  1  0
 55 56  1  0
 56 57  1  0
 57 58  1  0
 58 59  1  0
 59 60  1  0
 60 61  1  0
 61 62  1  0
 62 63  1  0
 63 64  1  0
 64 65  1  0
 65 66  1  0
 66 67  1  0
 67 68  1  0
 68 69  1  0
 69 70  1  0
 70 71  1  0
 71 72  1  0
 72 73  1  0
 73 74  1  0
 74 75  1  0
 75  2  1  0
M  END
>  <Title>  (48) 
idAAABgen7

$$$$

     RDKit          2D

 84 87  0  0  0  0  0  0  0  0999 V2000
   -5.6459   -0.7306    0.0000 C   0  0  0  0  0  0  0  0  0  0  0  0
   -5.1553   -2.1481    0.0000 C   0  0  0  0  0  0  0  0  0  0  0  0
   -6.5479   -2.7056    0.0000 C   0  0  0  0  0  0  0  0  0  0  0  0
   -7.8811   -3.3929    0.0000 C   0  0  0  0  0  0  0  0  0  0  0  0
   -9.1430   -4.2039    0.0000 C   0  0  0  0  0  0  0  0  0  0  0  0
  -10.3221   -5.1311    0.0000 C   0  0  0  0  0  0  0  0  0  0  0  0
  -11.4077   -6.1662    0.0000 C   0  0  0  0  0  0  0  0  0  0  0  0
  -12.3900   -7.2999    0.0000 C   0  0  0  0  0  0  0  0  0  0  0  0
  -13.2601   -8.5217    0.0000 C   0  0  0  0  0  0  0  0  0  0  0  0
  -14.0101   -9.8208    0.0000 C   0  0  0  0  0  0  0  0  0  0  0  0
  -14.6332  -11.1852    0.0000 C   0  0  0  0  0  0  0  0  0  0  0  0
  -15.1238  -12.6027    0.0000 C   0  0  0  0  0  0  0  0  0  0  0  0
  -15.4774  -14.0604    0.0000 C   0  0  0  0  0  0  0  0  0  0  0  0
  -15.6909  -15.5452    0.0000 C   0  0  0  0  0  0  0  0  0  0  0  0
  -15.7623  -17.0435    0.0000 C   0  0  0  0  0  0  0  0  0  0  0  0
  -15.6909  -18.5418    0.0000 C   0  0  0  0  0  0  0  0  0  0  0  0
  -15.4774  -20.0265    0.0000 C   0  0  0  0  0  0  0  0  0  0  0  0
  -15.1238  -21.4842    0.0000 C   0  0  0  0  0  0  0  0  0  0  0  0
  -14.6332  -22.9017    0.0000 C   0  0  0  0  0  0  0  0  0  0  0  0
  -14.0101  -24.2662    0.0000 C   0  0  0  0  0  0  0  0  0  0  0  0
  -13.2601  -25.5652    0.0000 C   0  0  0  0  0  0  0  0  0  0  0  0
  -12.3900  -26.7871    0.0000 C   0  0  0  0  0  0  0  0  0  0  0  0
  -11.4077  -27.9207    0.0000 C   0  0  0  0  0  0  0  0  0  0  0  0
  -10.3221  -28.9558    0.0000 C   0  0  0  0  0  0  0  0  0  0  0  0
   -9.1430  -29.8831    0.0000 C   0  0  0  0  0  0  0  0  0  0  0  0
   -7.8811  -30.6940    0.0000 C   0  0  0  0  0  0  0  0  0  0  0  0
   -6.5479  -31.3814    0.0000 C   0  0  0  0  0  0  0  0  0  0  0  0
   -5.1553  -31.9389    0.0000 C   0  0  0  0  0  0  0  0  0  0  0  0
   -3.7161  -32.3615    0.0000 C   0  0  0  0  0  0  0  0  0  0  0  0
   -2.2432  -32.6453    0.0000 C   0  0  0  0  0  0  0  0  0  0  0  0
   -0.7500  -32.7879    0.0000 C   0  0  0  0  0  0  0  0  0  0  0  0
    0.7500  -32.7879    0.0000 C   0  0  0  0  0  0  0  0  0  0  0  0
    2.2432  -32.6453    0.0000 C   0  0  0  0  0  0  0  0  0  0  0  0
    3.7161  -32.3615    0.0000 C   0  0  0  0  0  0  0  0  0  0  0  0
    5.1553  -31.9389    0.0000 C   0  0  0  0  0  0  0  0  0  0  0  0
    6.5479  -31.3814    0.0000 C   0  0  0  0  0  0  0  0  0  0  0  0
    7.8811  -30.6940    0.0000 C   0  0  0  0  0  0  0  0  0  0  0  0
    9.1430  -29.8831    0.0000 C   0  0  0  0  0  0  0  0  0  0  0  0
   10.3221  -28.9558    0.0000 C   0  0  0  0  0  0  0  0  0  0  0  0
   11.4077  -27.9207    0.0000 C   0  0  0  0  0  0  0  0  0  0  0  0
   12.3900  -26.7871    0.0000 C   0  0  0  0  0  0  0  0  0  0  0  0
   13.2601  -25.5652    0.0000 C   0  0  0  0  0  0  0  0  0  0  0  0
   14.0101  -24.2662    0.0000 C   0  0  0  0  0  0  0  0  0  0  0  0
   14.6332  -22.9017    0.0000 C   0  0  0  0  0  0  0  0  0  0  0  0
   15.1238  -21.4842    0.0000 C   0  0  0  0  0  0  0  0  0  0  0  0
   15.4774  -20.0265    0.0000 C   0  0  0  0  0  0  0  0  0  0  0  0
   15.6909  -18.5418    0.0000 C   0  0  0  0  0  0  0  0  0  0  0  0
   15.7623  -17.0435    0.0000 C   0  0  0  0  0  0  0  0  0  0  0  0
   15.6909  -15.5452    0.0000 C   0  0  0  0  0  0  0  0  0  0  0  0
   15.4774  -14.0604    0.0000 C   0  0  0  0  0  0  0  0  0  0  0  0
   15.1238  -12.6027    0.0000 C   0  0  0  0  0  0  0  0  0  0  0  0
   14.6332  -11.1852    0.0000 C   0  0  0  0  0  0  0  0  0  0  0  0
   14.0101   -9.8208    0.0000 C   0  0  0  0  0  0  0  0  0  0  0  0
   13.2601   -8.5217    0.0000 C   0  0  0  0  0  0  0  0  0  0  0  0
   12.3900   -7.2999    0.0000 C   0  0  0  0  0  0  0  0  0  0  0  0
   11.4077   -6.1662    0.0000 C   0  0  0  0  0  0  0  0  0  0  0  0
   10.3221   -5.1311    0.0000 C   0  0  0  0  0  0  0  0  0  0  0  0
    9.1430   -4.2039    0.0000 C   0  0  0  0  0  0  0  0  0  0  0  0
    7.8811   -3.3929    0.0000 C   0  0  0  0  0  0  0  0  0  0  0  0
    6.5479   -2.7056    0.0000 C   0  0  0  0  0  0  0  0  0  0  0  0
    5.1553   -2.1481    0.0000 C   0  0  0  0  0  0  0  0  0  0  0  0
    3.7161   -1.7255    0.0000 C   0  0  0  0  0  0  0  0  0  0  0  0
    2.2432   -1.4416    0.0000 C   0  0  0  0  0  0  0  0  0  0  0  0
    2.4567    0.0431    0.0000 C   0  0  0  0  0  0  0  0  0  0  0  0
    1.6290    1.1096    0.0000 O   0  0  0  0  0  0  0  0  0  0  0  0
    3.8492    0.6006    0.0000 N   0  0  0  0  0  0  0  0  0  0  0  0
    4.0627    2.0853    0.0000 C   0  0  0  0  0  0  0  0  0  0  0  0
    5.4553    2.6428    0.0000 N   0  0  0  0  0  0  0  0  0  0  0  0
    5.6687    4.1276    0.0000 N   0  0  0  0  0  0  0  0  0  0  0  0
    4.4896    5.0548    0.0000 N   0  0  0  0  0  0  0  0  0  0  0  0
    3.0971    4.4973    0.0000 N   0  0  0  0  0  0  0  0  0  0  0  0
    2.8836    3.0126    0.0000 N   0  0  0  0  0  0  0  0  0  0  0  0
    0.7500   -1.2990    0.0000 C   0  0  0  0  0  0  0  0  0  0  0  0
    1.5000    0.0000    0.0000 C   0  0  0  0  0  0  0  0  0  0  0  0
    0.7500    1.2990    0.0000 C   0  0  0  0  0  0  0  0  0  0  0  0
   -0.7500    1.2990    0.0000 C   0  0  0  0  0  0  0  0  0  0  0  0
   -1.5000    0.0000    0.0000 C   0  0  0  0  0  0  0  0  0  0  0  0
   -0.7500   -1.2990    0.0000 C   0  0  0  0  0  0  0  0  0  0  0  0
   -2.2432   -1.4416    0.0000 C   0  0  0  0  0  0  0  0  0  0  0  0
   -1.2609   -2.5752    0.0000 C   0  0  0  0  0  0  0  0  0  0  0  0
   -1.7515   -3.9927    0.0000 C   0  0  0  0  0  0  0  0  0  0  0  0
   -3.2244   -4.2766    0.0000 C   0  0  0  0  0  0  0  0  0  0  0  0
   -4.2067   -3.1430    0.0000 C   0  0  0  0  0  0  0  0  0  0  0  0
   -3.7161   -1.7255    0.0000 C   0  0  0  0  0  0  0  0  0  0  0  0
  1  2  1  0
  2  3  1  0
  3  4  1  0
  4  5  1  0
  5  6  1  0
  6  7  1  0
  7  8  1  0
  8  9  1  0
  9 10  1  0
 10 11  1  0
 11 12  1  0
 12 13  1  0
 13 14  1  0
 14 15  1  0
 15 16  1  0
 16 17  1  0
 17 18  1  0
 18 19  1  0
 19 20  1  0
 20 21  1  0
 21 22  1  0
 22 23  1  0
 23 24  1  0
 24 25  1  0
 25 26  1  0
 26 27  1  0
 27 28  1  0
 28 29  1  0
 29 30  1  0
 30 31  1  0
 31 32  1  0
 32 33  1  0
 33 34  1  0
 34 35  1  0
 35 36  1  0
 36 37  1  0
 37 38  1  0
 38 39  1  0
 39 40  1  0
 40 41  1  0
 41 42  1  0
 42 43  1  0
 43 44  1  0
 44 45  1  0
 45 46  1  0
 46 47  1  0
 47 48  1  0
 48 49  1  0
 49 50  1  0
 50 51  1  0
 51 52  1  0
 52 53  1  0
 53 54  1  0
 54 55  1  0
 55 56  1  0
 56 57  1  0
 57 58  1  0
 58 59  1  0
 59 60  1  0
 60 61  1  0
 61 62  1  0
 62 63  1  0
 63 64  1  0
 64 65  2  0
 64 66  1  0
 66 67  1  0
 67 68  2  0
 68 69  1  0
 69 70  2  0
 70 71  1  0
 71 72  2  0
 63 73  1  0
 73 74  2  0
 74 75  1  0
 75 76  2  0
 76 77  1  0
 77 78  2  0
 78 79  1  0
 79 80  2  0
 80 81  1  0
 81 82  2  0
 82 83  1  0
 83 84  2  0
 84  2  1  0
 72 67  1  0
 78 73  1  0
 84 79  1  0
M  END
>  <Title>  (49) 
idAAACgen7

$$$$

     RDKit          2D

 18 18  0  0  0  0  0  0  0  0999 V2000
    5.5816    0.0000    0.0000 C   0  0  0  0  0  0  0  0  0  0  0  0
    4.0816    0.0000    0.0000 C   0  0  0  0  0  0  0  0  0  0  0  0
    3.8060    1.4745    0.0000 C   0  0  0  0  0  0  0  0  0  0  0  0
    3.0164    2.7498    0.0000 C   0  0  0  0  0  0  0  0  0  0  0  0
    1.8193    3.6537    0.0000 C   0  0  0  0  0  0  0  0  0  0  0  0
    0.3766    4.0642    0.0000 C   0  0  0  0  0  0  0  0  0  0  0  0
   -1.1170    3.9258    0.0000 C   0  0  0  0  0  0  0  0  0  0  0  0
   -2.4597    3.2572    0.0000 C   0  0  0  0  0  0  0  0  0  0  0  0
   -3.4703    2.1487    0.0000 C   0  0  0  0  0  0  0  0  0  0  0  0
   -4.0121    0.7500    0.0000 C   0  0  0  0  0  0  0  0  0  0  0  0
   -4.0121   -0.7500    0.0000 C   0  0  0  0  0  0  0  0  0  0  0  0
   -3.4703   -2.1487    0.0000 C   0  0  0  0  0  0  0  0  0  0  0  0
   -2.4597   -3.2572    0.0000 C   0  0  0  0  0  0  0  0  0  0  0  0
   -1.1170   -3.9258    0.0000 C   0  0  0  0  0  0  0  0  0  0  0  0
    0.3766   -4.0642    0.0000 C   0  0  0  0  0  0  0  0  0  0  0  0
    1.8193   -3.6537    0.0000 C   0  0  0  0  0  0  0  0  0  0  0  0
    3.0164   -2.7498    0.0000 C   0  0  0  0  0  0  0  0  0  0  0  0
    3.8060   -1.4745    0.0000 C   0  0  0  0  0  0  0  0  0  0  0  0
  1  2  1  0
  2  3  1  0
  3  4  1  0
  4  5  2  0
  5  6  1  0
  6  7  2  0
  7  8  1  0
  8  9  1  0
  9 10  1  0
 10 11  1  0
 11 12  1  0
 12 13  1  0
 13 14  1  0
 14 15  1  0
 15 16  1  0
 16 17  1  0
 17 18  1  0
 18  2  1  0
M  END
>  <Title>  (50) 
idAAADgen7

$$$$

     RDKit          2D

 16 17  0  0  0  0  0  0  0  0999 V2000
    5.2595    3.5757    0.0000 O   0  0  0  0  0  0  0  0  0  0  0  0
    4.2558    4.6904    0.0000 C   0  0  0  0  0  0  0  0  0  0  0  0
    2.7886    4.3786    0.0000 C   0  0  0  0  0  0  0  0  0  0  0  0
    2.3250    2.9520    0.0000 C   0  0  0  0  0  0  0  0  0  0  0  0
    0.8578    2.6401    0.0000 C   0  0  0  0  0  0  0  0  0  0  0  0
    0.3943    1.2135    0.0000 C   0  0  0  0  0  0  0  0  0  0  0  0
    1.2760    0.0000    0.0000 C   0  0  0  0  0  0  0  0  0  0  0  0
    0.3943   -1.2135    0.0000 C   0  0  0  0  0  0  0  0  0  0  0  0
   -1.0323   -0.7500    0.0000 C   0  0  0  0  0  0  0  0  0  0  0  0
   -1.0323    0.7500    0.0000 C   0  0  0  0  0  0  0  0  0  0  0  0
    4.7193    6.1170    0.0000 N   0  0  0  0  0  0  0  0  0  0  0  0
    6.1865    6.4289    0.0000 C   0  0  0  0  0  0  0  0  0  0  0  0
    6.7966    7.7992    0.0000 C   0  0  0  0  0  0  0  0  0  0  0  0
    8.2884    7.6424    0.0000 C   0  0  0  0  0  0  0  0  0  0  0  0
    8.6003    6.1752    0.0000 C   0  0  0  0  0  0  0  0  0  0  0  0
    7.3013    5.4252    0.0000 C   0  0  0  0  0  0  0  0  0  0  0  0
  1  2  2  0
  2  3  1  0
  3  4  1  0
  4  5  1  0
  5  6  1  0
  6  7  1  0
  7  8  2  0
  8  9  1  0
  9 10  2  0
  2 11  1  0
 11 12  1  0
 12 13  2  0
 13 14  1  0
 14 15  1  0
 15 16  2  0
 10  6  1  0
 16 12  1  0
M  END
>  <Title>  (51) 
idAAAEgen7

$$$$

     RDKit          2D

  5  5  0  0  0  0  0  0  0  0999 V2000
    2.5607    0.0000    0.0000 O   0  0  0  0  0  0  0  0  0  0  0  0
    1.0607    0.0000    0.0000 C   0  0  0  0  0  0  0  0  0  0  0  0
   -0.0000   -1.0607    0.0000 C   0  0  0  0  0  0  0  0  0  0  0  0
   -1.0607    0.0000    0.0000 C   0  0  0  0  0  0  0  0  0  0  0  0
    0.0000    1.0607    0.0000 C   0  0  0  0  0  0  0  0  0  0  0  0
  1  2  1  0
  2  3  2  0
  3  4  1  0
  4  5  1  0
  5  2  1  0
M  END
>  <Title>  (52) 
idAAAFgen7

$$$$

     RDKit          2D

111111  0  0  0  0  0  0  0  0999 V2000
   27.7641    0.0000    0.0000 C   0  0  0  0  0  0  0  0  0  0  0  0
   26.2641    0.0000    0.0000 C   0  0  0  0  0  0  0  0  0  0  0  0
   26.2213   -1.4994    0.0000 C   0  0  0  0  0  0  0  0  0  0  0  0
   26.0929   -2.9939    0.0000 C   0  0  0  0  0  0  0  0  0  0  0  0
   25.8795   -4.4786    0.0000 C   0  0  0  0  0  0  0  0  0  0  0  0
   25.5816   -5.9487    0.0000 C   0  0  0  0  0  0  0  0  0  0  0  0
   25.2003   -7.3995    0.0000 C   0  0  0  0  0  0  0  0  0  0  0  0
   24.7367   -8.8260    0.0000 C   0  0  0  0  0  0  0  0  0  0  0  0
   24.1925  -10.2238    0.0000 C   0  0  0  0  0  0  0  0  0  0  0  0
   23.5694  -11.5883    0.0000 C   0  0  0  0  0  0  0  0  0  0  0  0
   22.8694  -12.9149    0.0000 C   0  0  0  0  0  0  0  0  0  0  0  0
   22.0948  -14.1995    0.0000 C   0  0  0  0  0  0  0  0  0  0  0  0
   21.2481  -15.4377    0.0000 C   0  0  0  0  0  0  0  0  0  0  0  0
   20.3322  -16.6255    0.0000 C   0  0  0  0  0  0  0  0  0  0  0  0
   19.3499  -17.7591    0.0000 C   0  0  0  0  0  0  0  0  0  0  0  0
   18.3045  -18.8348    0.0000 C   0  0  0  0  0  0  0  0  0  0  0  0
   17.1994  -19.8491    0.0000 C   0  0  0  0  0  0  0  0  0  0  0  0
   16.0381  -20.7986    0.0000 C   0  0  0  0  0  0  0  0  0  0  0  0
   14.8246  -21.6803    0.0000 C   0  0  0  0  0  0  0  0  0  0  0  0
   13.5627  -22.4913    0.0000 C   0  0  0  0  0  0  0  0  0  0  0  0
   12.2566  -23.2289    0.0000 C   0  0  0  0  0  0  0  0  0  0  0  0
   10.9105  -23.8907    0.0000 C   0  0  0  0  0  0  0  0  0  0  0  0
    9.5288  -24.4746    0.0000 C   0  0  0  0  0  0  0  0  0  0  0  0
    8.1161  -24.9787    0.0000 C   0  0  0  0  0  0  0  0  0  0  0  0
    6.6768  -25.4013    0.0000 C   0  0  0  0  0  0  0  0  0  0  0  0
    5.2158  -25.7410    0.0000 C   0  0  0  0  0  0  0  0  0  0  0  0
    3.7378  -25.9968    0.0000 C   0  0  0  0  0  0  0  0  0  0  0  0
    2.2476  -26.1678    0.0000 C   0  0  0  0  0  0  0  0  0  0  0  0
    0.7500  -26.2534    0.0000 C   0  0  0  0  0  0  0  0  0  0  0  0
   -0.7500  -26.2534    0.0000 C   0  0  0  0  0  0  0  0  0  0  0  0
   -2.2476  -26.1678    0.0000 C   0  0  0  0  0  0  0  0  0  0  0  0
   -3.7378  -25.9968    0.0000 C   0  0  0  0  0  0  0  0  0  0  0  0
   -5.2158  -25.7410    0.0000 C   0  0  0  0  0  0  0  0  0  0  0  0
   -6.6768  -25.4013    0.0000 C   0  0  0  0  0  0  0  0  0  0  0  0
   -8.1161  -24.9787    0.0000 C   0  0  0  0  0  0  0  0  0  0  0  0
   -9.5288  -24.4746    0.0000 C   0  0  0  0  0  0  0  0  0  0  0  0
  -10.9105  -23.8907    0.0000 C   0  0  0  0  0  0  0  0  0  0  0  0
  -12.2566  -23.2289    0.0000 C   0  0  0  0  0  0  0  0  0  0  0  0
  -13.5627  -22.4913    0.0000 C   0  0  0  0  0  0  0  0  0  0  0  0
  -14.8246  -21.6803    0.0000 C   0  0  0  0  0  0  0  0  0  0  0  0
  -16.0381  -20.7986    0.0000 C   0  0  0  0  0  0  0  0  0  0  0  0
  -17.1994  -19.8491    0.0000 C   0  0  0  0  0  0  0  0  0  0  0  0
  -18.3045  -18.8348    0.0000 C   0  0  0  0  0  0  0  0  0  0  0  0
  -19.3499  -17.7591    0.0000 C   0  0  0  0  0  0  0  0  0  0  0  0
  -20.3322  -16.6255    0.0000 C   0  0  0  0  0  0  0  0  0  0  0  0
  -21.2481  -15.4377    0.0000 C   0  0  0  0  0  0  0  0  0  0  0  0
  -22.0948  -14.1995    0.0000 C   0  0  0  0  0  0  0  0  0  0  0  0
  -22.8694  -12.9149    0.0000 C   0  0  0  0  0  0  0  0  0  0  0  0
  -23.5694  -11.5883    0.0000 C   0  0  0  0  0  0  0  0  0  0  0  0
  -24.1925  -10.2238    0.0000 C   0  0  0  0  0  0  0  0  0  0  0  0
  -24.7367   -8.8260    0.0000 C   0  0  0  0  0  0  0  0  0  0  0  0
  -25.2003   -7.3995    0.0000 C   0  0  0  0  0  0  0  0  0  0  0  0
  -25.5816   -5.9487    0.0000 C   0  0  0  0  0  0  0  0  0  0  0  0
  -25.8795   -4.4786    0.0000 C   0  0  0  0  0  0  0  0  0  0  0  0
  -26.0929   -2.9939    0.0000 C   0  0  0  0  0  0  0  0  0  0  0  0
  -26.2213   -1.4994    0.0000 C   0  0  0  0  0  0  0  0  0  0  0  0
  -26.2641    0.0000    0.0000 C   0  0  0  0  0  0  0  0  0  0  0  0
  -26.2213    1.4994    0.0000 C   0  0  0  0  0  0  0  0  0  0  0  0
  -26.0929    2.9939    0.0000 C   0  0  0  0  0  0  0  0  0  0  0  0
  -25.8795    4.4786    0.0000 C   0  0  0  0  0  0  0  0  0  0  0  0
  -25.5816    5.9487    0.0000 C   0  0  0  0  0  0  0  0  0  0  0  0
  -25.2003    7.3995    0.0000 C   0  0  0  0  0  0  0  0  0  0  0  0
  -24.7367    8.8260    0.0000 C   0  0  0  0  0  0  0  0  0  0  0  0
  -24.1925   10.2238    0.0000 C   0  0  0  0  0  0  0  0  0  0  0  0
  -23.5694   11.5883    0.0000 C   0  0  0  0  0  0  0  0  0  0  0  0
  -22.8694   12.9149    0.0000 C   0  0  0  0  0  0  0  0  0  0  0  0
  -22.0948   14.1995    0.0000 C   0  0  0  0  0  0  0  0  0  0  0  0
  -21.2481   15.4377    0.0000 C   0  0  0  0  0  0  0  0  0  0  0  0
  -20.3322   16.6255    0.0000 C   0  0  0  0  0  0  0  0  0  0  0  0
  -19.3499   17.7591    0.0000 C   0  0  0  0  0  0  0  0  0  0  0  0
  -18.3045   18.8348    0.0000 C   0  0  0  0  0  0  0  0  0  0  0  0
  -17.1994   19.8491    0.0000 C   0  0  0  0  0  0  0  0  0  0  0  0
  -16.0381   20.7986    0.0000 C   0  0  0  0  0  0  0  0  0  0  0  0
  -14.8246   21.6803    0.0000 C   0  0  0  0  0  0  0  0  0  0  0  0
  -13.5627   22.4913    0.0000 C   0  0  0  0  0  0  0  0  0  0  0  0
  -12.2566   23.2289    0.0000 C   0  0  0  0  0  0  0  0  0  0  0  0
  -10.9105   23.8907    0.0000 C   0  0  0  0  0  0  0  0  0  0  0  0
   -9.5288   24.4746    0.0000 C   0  0  0  0  0  0  0  0  0  0  0  0
   -8.1161   24.9787    0.0000 C   0  0  0  0  0  0  0  0  0  0  0  0
   -6.6768   25.4013    0.0000 C   0  0  0  0  0  0  0  0  0  0  0  0
   -5.2158   25.7410    0.0000 C   0  0  0  0  0  0  0  0  0  0  0  0
   -3.7378   25.9968    0.0000 C   0  0  0  0  0  0  0  0  0  0  0  0
   -2.2476   26.1678    0.0000 C   0  0  0  0  0  0  0  0  0  0  0  0
   -0.7500   26.2534    0.0000 C   0  0  0  0  0  0  0  0  0  0  0  0
    0.7500   26.2534    0.0000 C   0  0  0  0  0  0  0  0  0  0  0  0
    2.2476   26.1678    0.0000 C   0  0  0  0  0  0  0  0  0  0  0  0
    3.7378   25.9968    0.0000 C   0  0  0  0  0  0  0  0  0  0  0  0
    5.2158   25.7410    0.0000 C   0  0  0  0  0  0  0  0  0  0  0  0
    6.6768   25.4013    0.0000 C   0  0  0  0  0  0  0  0  0  0  0  0
    8.1161   24.9787    0.0000 C   0  0  0  0  0  0  0  0  0  0  0  0
    9.5288   24.4746    0.0000 C   0  0  0  0  0  0  0  0  0  0  0  0
   10.9105   23.8907    0.0000 C   0  0  0  0  0  0  0  0  0  0  0  0
   12.2566   23.2289    0.0000 C   0  0  0  0  0  0  0  0  0  0  0  0
   13.5627   22.4913    0.0000 C   0  0  0  0  0  0  0  0  0  0  0  0
   14.8246   21.6803    0.0000 C   0  0  0  0  0  0  0  0  0  0  0  0
   16.0381   20.7986    0.0000 C   0  0  0  0  0  0  0  0  0  0  0  0
   17.1994   19.8491    0.0000 C   0  0  0  0  0  0  0  0  0  0  0  0
   18.3045   18.8348    0.0000 C   0  0  0  0  0  0  0  0  0  0  0  0
   19.3499   17.7591    0.0000 C   0  0  0  0  0  0  0  0  0  0  0  0
   20.3322   16.6255    0.0000 C   0  0  0  0  0  0  0  0  0  0  0  0
   21.2481   15.4377    0.0000 C   0  0  0  0  0  0  0  0  0  0  0  0
   22.0948   14.1995    0.0000 C   0  0  0  0  0  0  0  0  0  0  0  0
   22.8694   12.9149    0.0000 C   0  0  0  0  0  0  0  0  0  0  0  0
   23.5694   11.5883    0.0000 C   0  0  0  0  0  0  0  0  0  0  0  0
   24.1925   10.2238    0.0000 C   0  0  0  0  0  0  0  0  0  0  0  0
   24.7367    8.8260    0.0000 C   0  0  0  0  0  0  0  0  0  0  0  0
   25.2003    7.3995    0.0000 C   0  0  0  0  0  0  0  0  0  0  0  0
   25.5816    5.9487    0.0000 C   0  0  0  0  0  0  0  0  0  0  0  0
   25.8795    4.4786    0.0000 C   0  0  0  0  0  0  0  0  0  0  0  0
   26.0929    2.9939    0.0000 C   0  0  0  0  0  0  0  0  0  0  0  0
   26.2213    1.4994    0.0000 C   0  0  0  0  0  0  0  0  0  0  0  0
  1  2  1  0
  2  3  1  0
  3  4  1  0
  4  5  1  0
  5  6  2  0
  6  7  1  0
  7  8  1  0
  8  9  1  0
  9 10  1  0
 10 11  1  0
 11 12  1  0
 12 13  1  0
 13 14  1  0
 14 15  1  0
 15 16  1  0
 16 17  1  0
 17 18  1  0
 18 19  1  0
 19 20  1  0
 20 21  1  0
 21 22  1  0
 22 23  1  0
 23 24  1  0
 24 25  1  0
 25 26  1  0
 26 27  1  0
 27 28  1  0
 28 29  1  0
 29 30  1  0
 30 31  1  0
 31 32  1  0
 32 33  1  0
 33 34  1  0
 34 35  1  0
 35 36  1  0
 36 37  1  0
 37 38  1  0
 38 39  1  0
 39 40  1  0
 40 41  1  0
 41 42  1  0
 42 43  1  0
 43 44  1  0
 44 45  1  0
 45 46  1  0
 46 47  1  0
 47 48  1  0
 48 49  1  0
 49 50  1  0
 50 51  1  0
 51 52  1  0
 52 53  1  0
 53 54  1  0
 54 55  1  0
 55 56  1  0
 56 57  1  0
 57 58  1  0
 58 59  1  0
 59 60  1  0
 60 61  1  0
 61 62  1  0
 62 63  1  0
 63 64  1  0
 64 65  1  0
 65 66  1  0
 66 67  1  0
 67 68  1  0
 68 69  1  0
 69 70  1  0
 70 71  1  0
 71 72  1  0
 72 73  1  0
 73 74  1  0
 74 75  1  0
 75 76  1  0
 76 77  1  0
 77 78  1  0
 78 79  1  0
 79 80  1  0
 80 81  1  0
 81 82  1  0
 82 83  1  0
 83 84  1  0
 84 85  1  0
 85 86  1  0
 86 87  1  0
 87 88  1  0
 88 89  1  0
 89 90  1  0
 90 91  1  0
 91 92  1  0
 92 93  1  0
 93 94  1  0
 94 95  1  0
 95 96  1  0
 96 97  1  0
 97 98  1  0
 98 99  1  0
 99100  1  0
100101  1  0
101102  1  0
102103  1  0
103104  1  0
104105  1  0
105106  1  0
106107  1  0
107108  1  0
108109  1  0
109110  1  0
110111  1  0
111  2  1  0
M  END
>  <Title>  (53) 
idAAAGgen7

$$$$

     RDKit          2D

 15 15  0  0  0  0  0  0  0  0999 V2000
    3.5260    3.8971    0.0000 C   0  0  0  0  0  0  0  0  0  0  0  0
    2.7760    2.5981    0.0000 N   0  0  0  0  0  0  0  0  0  0  0  0
    3.5260    1.2990    0.0000 C   0  0  0  0  0  0  0  0  0  0  0  0
    5.0260    1.2990    0.0000 C   0  0  0  0  0  0  0  0  0  0  0  0
    2.7760    0.0000    0.0000 C   0  0  0  0  0  0  0  0  0  0  0  0
    3.5260   -1.2990    0.0000 O   0  0  0  0  0  0  0  0  0  0  0  0
    1.2760    0.0000    0.0000 N   0  0  0  0  0  0  0  0  0  0  0  0
    0.3943    1.2135    0.0000 C   0  0  0  0  0  0  0  0  0  0  0  0
   -1.0323    0.7500    0.0000 C   0  0  0  0  0  0  0  0  0  0  0  0
   -1.0323   -0.7500    0.0000 C   0  0  0  0  0  0  0  0  0  0  0  0
   -2.2458   -1.6317    0.0000 C   0  0  0  0  0  0  0  0  0  0  0  0
   -2.0890   -3.1235    0.0000 O   0  0  0  0  0  0  0  0  0  0  0  0
   -3.6161   -1.0216    0.0000 O   0  0  0  0  0  0  0  0  0  0  0  0
    0.3943   -1.2135    0.0000 C   0  0  0  0  0  0  0  0  0  0  0  0
    0.8578   -2.6401    0.0000 O   0  0  0  0  0  0  0  0  0  0  0  0
  1  2  1  0
  2  3  1  0
  3  4  1  0
  3  5  1  0
  5  6  2  0
  5  7  1  0
  7  8  1  0
  8  9  1  0
  9 10  1  0
 10 11  1  0
 11 12  2  0
 11 13  1  0
 10 14  1  0
 14 15  2  0
 14  7  1  0
M  END
>  <Title>  (54) 
idAAAHgen7

$$$$

     RDKit          2D

 24 26  0  0  0  0  0  0  0  0999 V2000
   -5.2500   -1.2990    0.0000 C   0  0  0  0  0  0  0  0  0  0  0  0
   -3.7500   -1.2990    0.0000 C   0  0  0  0  0  0  0  0  0  0  0  0
   -3.0000   -0.0000    0.0000 O   0  0  0  0  0  0  0  0  0  0  0  0
   -3.0000   -2.5981    0.0000 C   0  0  0  0  0  0  0  0  0  0  0  0
   -3.7500   -3.8971    0.0000 C   0  0  0  0  0  0  0  0  0  0  0  0
   -1.5000   -2.5981    0.0000 N   0  0  0  0  0  0  0  0  0  0  0  0
   -0.7500   -3.8971    0.0000 C   0  0  0  0  0  0  0  0  0  0  0  0
    0.7500   -3.8971    0.0000 C   0  0  0  0  0  0  0  0  0  0  0  0
    1.5000   -2.5981    0.0000 C   0  0  0  0  0  0  0  0  0  0  0  0
    3.0000   -2.5981    0.0000 C   0  0  0  0  0  0  0  0  0  0  0  0
    3.7500   -1.2990    0.0000 O   0  0  0  0  0  0  0  0  0  0  0  0
    3.7500   -3.8971    0.0000 N   0  0  0  0  0  0  0  0  0  0  0  0
    5.2500   -3.8971    0.0000 C   0  0  0  0  0  0  0  0  0  0  0  0
    6.0000   -5.1962    0.0000 N   0  0  0  0  0  0  0  0  0  0  0  0
    7.5000   -5.1962    0.0000 N   0  0  0  0  0  0  0  0  0  0  0  0
    8.2500   -3.8971    0.0000 N   0  0  0  0  0  0  0  0  0  0  0  0
    7.5000   -2.5981    0.0000 N   0  0  0  0  0  0  0  0  0  0  0  0
    6.0000   -2.5981    0.0000 N   0  0  0  0  0  0  0  0  0  0  0  0
    0.7500   -1.2990    0.0000 C   0  0  0  0  0  0  0  0  0  0  0  0
    1.5000    0.0000    0.0000 C   0  0  0  0  0  0  0  0  0  0  0  0
    0.7500    1.2990    0.0000 C   0  0  0  0  0  0  0  0  0  0  0  0
   -0.7500    1.2990    0.0000 C   0  0  0  0  0  0  0  0  0  0  0  0
   -1.5000    0.0000    0.0000 C   0  0  0  0  0  0  0  0  0  0  0  0
   -0.7500   -1.2990    0.0000 C   0  0  0  0  0  0  0  0  0  0  0  0
  1  2  1  0
  2  3  2  0
  2  4  1  0
  4  5  1  0
  4  6  1  0
  6  7  1  0
  7  8  1  0
  8  9  1  0
  9 10  1  0
 10 11  2  0
 10 12  1  0
 12 13  1  0
 13 14  2  0
 14 15  1  0
 15 16  2  0
 16 17  1  0
 17 18  2  0
  9 19  1  0
 19 20  2  0
 20 21  1  0
 21 22  2  0
 22 23  1  0
 23 24  2  0
 24  6  1  0
 18 13  1  0
 24 19  1  0
M  END
>  <Title>  (55) 
idAAAIgen7

$$$$

     RDKit          2D

 20 21  0  0  0  0  0  0  0  0999 V2000
    3.0000    0.0000    0.0000 C   0  0  0  0  0  0  0  0  0  0  0  0
    1.5000    0.0000    0.0000 C   0  0  0  0  0  0  0  0  0  0  0  0
    0.7500   -1.2990    0.0000 C   0  0  0  0  0  0  0  0  0  0  0  0
   -0.7500   -1.2990    0.0000 C   0  0  0  0  0  0  0  0  0  0  0  0
   -1.5000    0.0000    0.0000 C   0  0  0  0  0  0  0  0  0  0  0  0
   -3.0000    0.0000    0.0000 C   0  0  0  0  0  0  0  0  0  0  0  0
   -3.7500   -1.2990    0.0000 O   0  0  0  0  0  0  0  0  0  0  0  0
   -3.7500    1.2990    0.0000 N   0  0  0  0  0  0  0  0  0  0  0  0
   -5.2500    1.2990    0.0000 C   0  0  0  0  0  0  0  0  0  0  0  0
   -6.0000    2.5981    0.0000 N   0  0  0  0  0  0  0  0  0  0  0  0
   -7.5000    2.5981    0.0000 N   0  0  0  0  0  0  0  0  0  0  0  0
   -8.2500    1.2990    0.0000 N   0  0  0  0  0  0  0  0  0  0  0  0
   -7.5000    0.0000    0.0000 N   0  0  0  0  0  0  0  0  0  0  0  0
   -6.0000    0.0000    0.0000 N   0  0  0  0  0  0  0  0  0  0  0  0
   -0.7500    1.2990    0.0000 C   0  0  0  0  0  0  0  0  0  0  0  0
    0.7500    1.2990    0.0000 C   0  0  0  0  0  0  0  0  0  0  0  0
    1.5000    2.5981    0.0000 C   0  0  0  0  0  0  0  0  0  0  0  0
    0.7500    3.8971    0.0000 C   0  0  0  0  0  0  0  0  0  0  0  0
    1.5000    5.1962    0.0000 C   0  0  0  0  0  0  0  0  0  0  0  0
    0.7500    6.4952    0.0000 N   0  0  0  0  0  0  0  0  0  0  0  0
  1  2  1  0
  2  3  1  0
  3  4  1  0
  4  5  1  0
  5  6  1  0
  6  7  2  0
  6  8  1  0
  8  9  1  0
  9 10  2  0
 10 11  1  0
 11 12  2  0
 12 13  1  0
 13 14  2  0
  5 15  1  0
 15 16  2  0
 16 17  1  0
 17 18  1  0
 18 19  1  0
 19 20  1  0
 16  2  1  0
 14  9  1  0
M  END
>  <Title>  (56) 
idAAAJgen7

$$$$

     RDKit          2D

  6  6  0  0  0  0  0  0  0  0999 V2000
    2.7760    0.0000    0.0000 O   0  0  0  0  0  0  0  0  0  0  0  0
    1.2760    0.0000    0.0000 C   0  0  0  0  0  0  0  0  0  0  0  0
    0.3943    1.2135    0.0000 C   0  0  0  0  0  0  0  0  0  0  0  0
   -1.0323    0.7500    0.0000 C   0  0  0  0  0  0  0  0  0  0  0  0
   -1.0323   -0.7500    0.0000 C   0  0  0  0  0  0  0  0  0  0  0  0
    0.3943   -1.2135    0.0000 C   0  0  0  0  0  0  0  0  0  0  0  0
  1  2  1  0
  2  3  2  0
  3  4  1  0
  4  5  1  0
  5  6  1  0
  6  2  1  0
M  END
>  <Title>  (57) 
idAAAKgen7

$$$$

     RDKit          2D

 94 94  0  0  0  0  0  0  0  0999 V2000
   23.7063    0.0000    0.0000 C   0  0  0  0  0  0  0  0  0  0  0  0
   22.2063    0.0000    0.0000 C   0  0  0  0  0  0  0  0  0  0  0  0
   22.1557    1.4991    0.0000 C   0  0  0  0  0  0  0  0  0  0  0  0
   22.0039    2.9914    0.0000 C   0  0  0  0  0  0  0  0  0  0  0  0
   21.7518    4.4701    0.0000 C   0  0  0  0  0  0  0  0  0  0  0  0
   21.4004    5.9284    0.0000 C   0  0  0  0  0  0  0  0  0  0  0  0
   20.9513    7.3596    0.0000 C   0  0  0  0  0  0  0  0  0  0  0  0
   20.4067    8.7572    0.0000 C   0  0  0  0  0  0  0  0  0  0  0  0
   19.7689   10.1149    0.0000 C   0  0  0  0  0  0  0  0  0  0  0  0
   19.0410   11.4264    0.0000 C   0  0  0  0  0  0  0  0  0  0  0  0
   18.2262   12.6858    0.0000 C   0  0  0  0  0  0  0  0  0  0  0  0
   17.3282   13.8873    0.0000 C   0  0  0  0  0  0  0  0  0  0  0  0
   16.3511   15.0254    0.0000 C   0  0  0  0  0  0  0  0  0  0  0  0
   15.2994   16.0950    0.0000 C   0  0  0  0  0  0  0  0  0  0  0  0
   14.1780   17.0911    0.0000 C   0  0  0  0  0  0  0  0  0  0  0  0
   12.9918   18.0093    0.0000 C   0  0  0  0  0  0  0  0  0  0  0  0
   11.7464   18.8453    0.0000 C   0  0  0  0  0  0  0  0  0  0  0  0
   10.4473   19.5953    0.0000 C   0  0  0  0  0  0  0  0  0  0  0  0
    9.1006   20.2559    0.0000 C   0  0  0  0  0  0  0  0  0  0  0  0
    7.7124   20.8240    0.0000 C   0  0  0  0  0  0  0  0  0  0  0  0
    6.2890   21.2972    0.0000 C   0  0  0  0  0  0  0  0  0  0  0  0
    4.8368   21.6732    0.0000 C   0  0  0  0  0  0  0  0  0  0  0  0
    3.3627   21.9503    0.0000 C   0  0  0  0  0  0  0  0  0  0  0  0
    1.8731   22.1272    0.0000 C   0  0  0  0  0  0  0  0  0  0  0  0
    0.3751   22.2032    0.0000 C   0  0  0  0  0  0  0  0  0  0  0  0
   -1.1247   22.1778    0.0000 C   0  0  0  0  0  0  0  0  0  0  0  0
   -2.6194   22.0513    0.0000 C   0  0  0  0  0  0  0  0  0  0  0  0
   -4.1021   21.8242    0.0000 C   0  0  0  0  0  0  0  0  0  0  0  0
   -5.5661   21.4974    0.0000 C   0  0  0  0  0  0  0  0  0  0  0  0
   -7.0047   21.0726    0.0000 C   0  0  0  0  0  0  0  0  0  0  0  0
   -8.4113   20.5517    0.0000 C   0  0  0  0  0  0  0  0  0  0  0  0
   -9.7795   19.9370    0.0000 C   0  0  0  0  0  0  0  0  0  0  0  0
  -11.1032   19.2313    0.0000 C   0  0  0  0  0  0  0  0  0  0  0  0
  -12.3761   18.4378    0.0000 C   0  0  0  0  0  0  0  0  0  0  0  0
  -13.5926   17.5602    0.0000 C   0  0  0  0  0  0  0  0  0  0  0  0
  -14.7471   16.6025    0.0000 C   0  0  0  0  0  0  0  0  0  0  0  0
  -15.8343   15.5691    0.0000 C   0  0  0  0  0  0  0  0  0  0  0  0
  -16.8492   14.4646    0.0000 C   0  0  0  0  0  0  0  0  0  0  0  0
  -17.7873   13.2941    0.0000 C   0  0  0  0  0  0  0  0  0  0  0  0
  -18.6442   12.0630    0.0000 C   0  0  0  0  0  0  0  0  0  0  0  0
  -19.4160   10.7768    0.0000 C   0  0  0  0  0  0  0  0  0  0  0  0
  -20.0993    9.4414    0.0000 C   0  0  0  0  0  0  0  0  0  0  0  0
  -20.6908    8.0630    0.0000 C   0  0  0  0  0  0  0  0  0  0  0  0
  -21.1879    6.6478    0.0000 C   0  0  0  0  0  0  0  0  0  0  0  0
  -21.5884    5.2022    0.0000 C   0  0  0  0  0  0  0  0  0  0  0  0
  -21.8903    3.7329    0.0000 C   0  0  0  0  0  0  0  0  0  0  0  0
  -22.0924    2.2466    0.0000 C   0  0  0  0  0  0  0  0  0  0  0  0
  -22.1937    0.7500    0.0000 C   0  0  0  0  0  0  0  0  0  0  0  0
  -22.1937   -0.7500    0.0000 C   0  0  0  0  0  0  0  0  0  0  0  0
  -22.0924   -2.2466    0.0000 C   0  0  0  0  0  0  0  0  0  0  0  0
  -21.8903   -3.7329    0.0000 C   0  0  0  0  0  0  0  0  0  0  0  0
  -21.5884   -5.2022    0.0000 C   0  0  0  0  0  0  0  0  0  0  0  0
  -21.1879   -6.6478    0.0000 C   0  0  0  0  0  0  0  0  0  0  0  0
  -20.6908   -8.0630    0.0000 C   0  0  0  0  0  0  0  0  0  0  0  0
  -20.0993   -9.4414    0.0000 C   0  0  0  0  0  0  0  0  0  0  0  0
  -19.4160  -10.7768    0.0000 C   0  0  0  0  0  0  0  0  0  0  0  0
  -18.6442  -12.0630    0.0000 C   0  0  0  0  0  0  0  0  0  0  0  0
  -17.7873  -13.2941    0.0000 C   0  0  0  0  0  0  0  0  0  0  0  0
  -16.8492  -14.4646    0.0000 C   0  0  0  0  0  0  0  0  0  0  0  0
  -15.8343  -15.5691    0.0000 C   0  0  0  0  0  0  0  0  0  0  0  0
  -14.7471  -16.6025    0.0000 C   0  0  0  0  0  0  0  0  0  0  0  0
  -13.5926  -17.5602    0.0000 C   0  0  0  0  0  0  0  0  0  0  0  0
  -12.3761  -18.4378    0.0000 C   0  0  0  0  0  0  0  0  0  0  0  0
  -11.1032  -19.2313    0.0000 C   0  0  0  0  0  0  0  0  0  0  0  0
   -9.7795  -19.9370    0.0000 C   0  0  0  0  0  0  0  0  0  0  0  0
   -8.4113  -20.5517    0.0000 C   0  0  0  0  0  0  0  0  0  0  0  0
   -7.0047  -21.0726    0.0000 C   0  0  0  0  0  0  0  0  0  0  0  0
   -5.5661  -21.4974    0.0000 C   0  0  0  0  0  0  0  0  0  0  0  0
   -4.1021  -21.8242    0.0000 C   0  0  0  0  0  0  0  0  0  0  0  0
   -2.6194  -22.0513    0.0000 C   0  0  0  0  0  0  0  0  0  0  0  0
   -1.1247  -22.1778    0.0000 C   0  0  0  0  0  0  0  0  0  0  0  0
    0.3751  -22.2032    0.0000 C   0  0  0  0  0  0  0  0  0  0  0  0
    1.8731  -22.1272    0.0000 C   0  0  0  0  0  0  0  0  0  0  0  0
    3.3627  -21.9503    0.0000 C   0  0  0  0  0  0  0  0  0  0  0  0
    4.8368  -21.6732    0.0000 C   0  0  0  0  0  0  0  0  0  0  0  0
    6.2890  -21.2972    0.0000 C   0  0  0  0  0  0  0  0  0  0  0  0
    7.7124  -20.8240    0.0000 C   0  0  0  0  0  0  0  0  0  0  0  0
    9.1006  -20.2559    0.0000 C   0  0  0  0  0  0  0  0  0  0  0  0
   10.4473  -19.5953    0.0000 C   0  0  0  0  0  0  0  0  0  0  0  0
   11.7464  -18.8453    0.0000 C   0  0  0  0  0  0  0  0  0  0  0  0
   12.9918  -18.0093    0.0000 C   0  0  0  0  0  0  0  0  0  0  0  0
   14.1780  -17.0911    0.0000 C   0  0  0  0  0  0  0  0  0  0  0  0
   15.2994  -16.0950    0.0000 C   0  0  0  0  0  0  0  0  0  0  0  0
   16.3511  -15.0254    0.0000 C   0  0  0  0  0  0  0  0  0  0  0  0
   17.3282  -13.8873    0.0000 C   0  0  0  0  0  0  0  0  0  0  0  0
   18.2262  -12.6858    0.0000 C   0  0  0  0  0  0  0  0  0  0  0  0
   19.0410  -11.4264    0.0000 C   0  0  0  0  0  0  0  0  0  0  0  0
   19.7689  -10.1149    0.0000 C   0  0  0  0  0  0  0  0  0  0  0  0
   20.4067   -8.7572    0.0000 C   0  0  0  0  0  0  0  0  0  0  0  0
   20.9513   -7.3596    0.0000 C   0  0  0  0  0  0  0  0  0  0  0  0
   21.4004   -5.9284    0.0000 C   0  0  0  0  0  0  0  0  0  0  0  0
   21.7518   -4.4701    0.0000 C   0  0  0  0  0  0  0  0  0  0  0  0
   22.0039   -2.9914    0.0000 C   0  0  0  0  0  0  0  0  0  0  0  0
   22.1557   -1.4991    0.0000 C   0  0  0  0  0  0  0  0  0  0  0  0
  1  2  1  0
  2  3  1  0
  3  4  2  0
  4  5  1  0
  5  6  2  0
  6  7  1  0
  7  8  2  0
  8  9  1  0
  9 10  2  0
 10 11  1  0
 11 12  2  0
 12 13  1  0
 13 14  2  0
 14 15  1  0
 15 16  2  0
 16 17  1  0
 17 18  2  0
 18 19  1  0
 19 20  2  0
 20 21  1  0
 21 22  2  0
 22 23  1  0
 23 24  1  0
 24 25  1  0
 25 26  1  0
 26 27  1  0
 27 28  1  0
 28 29  1  0
 29 30  1  0
 30 31  1  0
 31 32  1  0
 32 33  1  0
 33 34  1  0
 34 35  1  0
 35 36  1  0
 36 37  1  0
 37 38  1  0
 38 39  1  0
 39 40  1  0
 40 41  1  0
 41 42  1  0
 42 43  1  0
 43 44  1  0
 44 45  1  0
 45 46  1  0
 46 47  1  0
 47 48  1  0
 48 49  1  0
 49 50  1  0
 50 51  1  0
 51 52  1  0
 52 53  1  0
 53 54  1  0
 54 55  1  0
 55 56  1  0
 56 57  1  0
 57 58  1  0
 58 59  1  0
 59 60  1  0
 60 61  1  0
 61 62  1  0
 62 63  1  0
 63 64  1  0
 64 65  1  0
 65 66  1  0
 66 67  1  0
 67 68  1  0
 68 69  1  0
 69 70  1  0
 70 71  1  0
 71 72  1  0
 72 73  1  0
 73 74  1  0
 74 75  1  0
 75 76  1  0
 76 77  1  0
 77 78  1  0
 78 79  1  0
 79 80  1  0
 80 81  1  0
 81 82  1  0
 82 83  1  0
 83 84  1  0
 84 85  1  0
 85 86  1  0
 86 87  1  0
 87 88  1  0
 88 89  1  0
 89 90  1  0
 90 91  1  0
 91 92  1  0
 92 93  1  0
 93 94  1  0
 94  2  1  0
M  END
>  <Title>  (58) 
idAAALgen7

$$$$

     RDKit          2D

111111  0  0  0  0  0  0  0  0999 V2000
   27.7641    0.0000    0.0000 C   0  0  0  0  0  0  0  0  0  0  0  0
   26.2641    0.0000    0.0000 C   0  0  0  0  0  0  0  0  0  0  0  0
   26.2213   -1.4994    0.0000 C   0  0  0  0  0  0  0  0  0  0  0  0
   26.0929   -2.9939    0.0000 C   0  0  0  0  0  0  0  0  0  0  0  0
   25.8795   -4.4786    0.0000 C   0  0  0  0  0  0  0  0  0  0  0  0
   25.5816   -5.9487    0.0000 C   0  0  0  0  0  0  0  0  0  0  0  0
   25.2003   -7.3995    0.0000 C   0  0  0  0  0  0  0  0  0  0  0  0
   24.7367   -8.8260    0.0000 C   0  0  0  0  0  0  0  0  0  0  0  0
   24.1925  -10.2238    0.0000 C   0  0  0  0  0  0  0  0  0  0  0  0
   23.5694  -11.5883    0.0000 C   0  0  0  0  0  0  0  0  0  0  0  0
   22.8694  -12.9149    0.0000 C   0  0  0  0  0  0  0  0  0  0  0  0
   22.0948  -14.1995    0.0000 C   0  0  0  0  0  0  0  0  0  0  0  0
   21.2481  -15.4377    0.0000 C   0  0  0  0  0  0  0  0  0  0  0  0
   20.3322  -16.6255    0.0000 C   0  0  0  0  0  0  0  0  0  0  0  0
   19.3499  -17.7591    0.0000 C   0  0  0  0  0  0  0  0  0  0  0  0
   18.3045  -18.8348    0.0000 C   0  0  0  0  0  0  0  0  0  0  0  0
   17.1994  -19.8491    0.0000 C   0  0  0  0  0  0  0  0  0  0  0  0
   16.0381  -20.7986    0.0000 C   0  0  0  0  0  0  0  0  0  0  0  0
   14.8246  -21.6803    0.0000 C   0  0  0  0  0  0  0  0  0  0  0  0
   13.5627  -22.4913    0.0000 C   0  0  0  0  0  0  0  0  0  0  0  0
   12.2566  -23.2289    0.0000 C   0  0  0  0  0  0  0  0  0  0  0  0
   10.9105  -23.8907    0.0000 C   0  0  0  0  0  0  0  0  0  0  0  0
    9.5288  -24.4746    0.0000 C   0  0  0  0  0  0  0  0  0  0  0  0
    8.1161  -24.9787    0.0000 C   0  0  0  0  0  0  0  0  0  0  0  0
    6.6768  -25.4013    0.0000 C   0  0  0  0  0  0  0  0  0  0  0  0
    5.2158  -25.7410    0.0000 C   0  0  0  0  0  0  0  0  0  0  0  0
    3.7378  -25.9968    0.0000 C   0  0  0  0  0  0  0  0  0  0  0  0
    2.2476  -26.1678    0.0000 C   0  0  0  0  0  0  0  0  0  0  0  0
    0.7500  -26.2534    0.0000 C   0  0  0  0  0  0  0  0  0  0  0  0
   -0.7500  -26.2534    0.0000 C   0  0  0  0  0  0  0  0  0  0  0  0
   -2.2476  -26.1678    0.0000 C   0  0  0  0  0  0  0  0  0  0  0  0
   -3.7378  -25.9968    0.0000 C   0  0  0  0  0  0  0  0  0  0  0  0
   -5.2158  -25.7410    0.0000 C   0  0  0  0  0  0  0  0  0  0  0  0
   -6.6768  -25.4013    0.0000 C   0  0  0  0  0  0  0  0  0  0  0  0
   -8.1161  -24.9787    0.0000 C   0  0  0  0  0  0  0  0  0  0  0  0
   -9.5288  -24.4746    0.0000 C   0  0  0  0  0  0  0  0  0  0  0  0
  -10.9105  -23.8907    0.0000 C   0  0  0  0  0  0  0  0  0  0  0  0
  -12.2566  -23.2289    0.0000 C   0  0  0  0  0  0  0  0  0  0  0  0
  -13.5627  -22.4913    0.0000 C   0  0  0  0  0  0  0  0  0  0  0  0
  -14.8246  -21.6803    0.0000 C   0  0  0  0  0  0  0  0  0  0  0  0
  -16.0381  -20.7986    0.0000 C   0  0  0  0  0  0  0  0  0  0  0  0
  -17.1994  -19.8491    0.0000 C   0  0  0  0  0  0  0  0  0  0  0  0
  -18.3045  -18.8348    0.0000 C   0  0  0  0  0  0  0  0  0  0  0  0
  -19.3499  -17.7591    0.0000 C   0  0  0  0  0  0  0  0  0  0  0  0
  -20.3322  -16.6255    0.0000 C   0  0  0  0  0  0  0  0  0  0  0  0
  -21.2481  -15.4377    0.0000 C   0  0  0  0  0  0  0  0  0  0  0  0
  -22.0948  -14.1995    0.0000 C   0  0  0  0  0  0  0  0  0  0  0  0
  -22.8694  -12.9149    0.0000 C   0  0  0  0  0  0  0  0  0  0  0  0
  -23.5694  -11.5883    0.0000 C   0  0  0  0  0  0  0  0  0  0  0  0
  -24.1925  -10.2238    0.0000 C   0  0  0  0  0  0  0  0  0  0  0  0
  -24.7367   -8.8260    0.0000 C   0  0  0  0  0  0  0  0  0  0  0  0
  -25.2003   -7.3995    0.0000 C   0  0  0  0  0  0  0  0  0  0  0  0
  -25.5816   -5.9487    0.0000 C   0  0  0  0  0  0  0  0  0  0  0  0
  -25.8795   -4.4786    0.0000 C   0  0  0  0  0  0  0  0  0  0  0  0
  -26.0929   -2.9939    0.0000 C   0  0  0  0  0  0  0  0  0  0  0  0
  -26.2213   -1.4994    0.0000 C   0  0  0  0  0  0  0  0  0  0  0  0
  -26.2641    0.0000    0.0000 C   0  0  0  0  0  0  0  0  0  0  0  0
  -26.2213    1.4994    0.0000 C   0  0  0  0  0  0  0  0  0  0  0  0
  -26.0929    2.9939    0.0000 C   0  0  0  0  0  0  0  0  0  0  0  0
  -25.8795    4.4786    0.0000 C   0  0  0  0  0  0  0  0  0  0  0  0
  -25.5816    5.9487    0.0000 C   0  0  0  0  0  0  0  0  0  0  0  0
  -25.2003    7.3995    0.0000 C   0  0  0  0  0  0  0  0  0  0  0  0
  -24.7367    8.8260    0.0000 C   0  0  0  0  0  0  0  0  0  0  0  0
  -24.1925   10.2238    0.0000 C   0  0  0  0  0  0  0  0  0  0  0  0
  -23.5694   11.5883    0.0000 C   0  0  0  0  0  0  0  0  0  0  0  0
  -22.8694   12.9149    0.0000 C   0  0  0  0  0  0  0  0  0  0  0  0
  -22.0948   14.1995    0.0000 C   0  0  0  0  0  0  0  0  0  0  0  0
  -21.2481   15.4377    0.0000 C   0  0  0  0  0  0  0  0  0  0  0  0
  -20.3322   16.6255    0.0000 C   0  0  0  0  0  0  0  0  0  0  0  0
  -19.3499   17.7591    0.0000 C   0  0  0  0  0  0  0  0  0  0  0  0
  -18.3045   18.8348    0.0000 C   0  0  0  0  0  0  0  0  0  0  0  0
  -17.1994   19.8491    0.0000 C   0  0  0  0  0  0  0  0  0  0  0  0
  -16.0381   20.7986    0.0000 C   0  0  0  0  0  0  0  0  0  0  0  0
  -14.8246   21.6803    0.0000 C   0  0  0  0  0  0  0  0  0  0  0  0
  -13.5627   22.4913    0.0000 C   0  0  0  0  0  0  0  0  0  0  0  0
  -12.2566   23.2289    0.0000 C   0  0  0  0  0  0  0  0  0  0  0  0
  -10.9105   23.8907    0.0000 C   0  0  0  0  0  0  0  0  0  0  0  0
   -9.5288   24.4746    0.0000 C   0  0  0  0  0  0  0  0  0  0  0  0
   -8.1161   24.9787    0.0000 C   0  0  0  0  0  0  0  0  0  0  0  0
   -6.6768   25.4013    0.0000 C   0  0  0  0  0  0  0  0  0  0  0  0
   -5.2158   25.7410    0.0000 C   0  0  0  0  0  0  0  0  0  0  0  0
   -3.7378   25.9968    0.0000 C   0  0  0  0  0  0  0  0  0  0  0  0
   -2.2476   26.1678    0.0000 C   0  0  0  0  0  0  0  0  0  0  0  0
   -0.7500   26.2534    0.0000 C   0  0  0  0  0  0  0  0  0  0  0  0
    0.7500   26.2534    0.0000 C   0  0  0  0  0  0  0  0  0  0  0  0
    2.2476   26.1678    0.0000 C   0  0  0  0  0  0  0  0  0  0  0  0
    3.7378   25.9968    0.0000 C   0  0  0  0  0  0  0  0  0  0  0  0
    5.2158   25.7410    0.0000 C   0  0  0  0  0  0  0  0  0  0  0  0
    6.6768   25.4013    0.0000 C   0  0  0  0  0  0  0  0  0  0  0  0
    8.1161   24.9787    0.0000 C   0  0  0  0  0  0  0  0  0  0  0  0
    9.5288   24.4746    0.0000 C   0  0  0  0  0  0  0  0  0  0  0  0
   10.9105   23.8907    0.0000 C   0  0  0  0  0  0  0  0  0  0  0  0
   12.2566   23.2289    0.0000 C   0  0  0  0  0  0  0  0  0  0  0  0
   13.5627   22.4913    0.0000 C   0  0  0  0  0  0  0  0  0  0  0  0
   14.8246   21.6803    0.0000 C   0  0  0  0  0  0  0  0  0  0  0  0
   16.0381   20.7986    0.0000 C   0  0  0  0  0  0  0  0  0  0  0  0
   17.1994   19.8491    0.0000 C   0  0  0  0  0  0  0  0  0  0  0  0
   18.3045   18.8348    0.0000 C   0  0  0  0  0  0  0  0  0  0  0  0
   19.3499   17.7591    0.0000 C   0  0  0  0  0  0  0  0  0  0  0  0
   20.3322   16.6255    0.0000 C   0  0  0  0  0  0  0  0  0  0  0  0
   21.2481   15.4377    0.0000 C   0  0  0  0  0  0  0  0  0  0  0  0
   22.0948   14.1995    0.0000 C   0  0  0  0  0  0  0  0  0  0  0  0
   22.8694   12.9149    0.0000 C   0  0  0  0  0  0  0  0  0  0  0  0
   23.5694   11.5883    0.0000 C   0  0  0  0  0  0  0  0  0  0  0  0
   24.1925   10.2238    0.0000 C   0  0  0  0  0  0  0  0  0  0  0  0
   24.7367    8.8260    0.0000 C   0  0  0  0  0  0  0  0  0  0  0  0
   25.2003    7.3995    0.0000 C   0  0  0  0  0  0  0  0  0  0  0  0
   25.5816    5.9487    0.0000 C   0  0  0  0  0  0  0  0  0  0  0  0
   25.8795    4.4786    0.0000 C   0  0  0  0  0  0  0  0  0  0  0  0
   26.0929    2.9939    0.0000 C   0  0  0  0  0  0  0  0  0  0  0  0
   26.2213    1.4994    0.0000 C   0  0  0  0  0  0  0  0  0  0  0  0
  1  2  1  0
  2  3  1  0
  3  4  1  0
  4  5  1  0
  5  6  1  0
  6  7  1  0
  7  8  1  0
  8  9  1  0
  9 10  1  0
 10 11  1  0
 11 12  1  0
 12 13  1  0
 13 14  1  0
 14 15  1  0
 15 16  1  0
 16 17  1  0
 17 18  1  0
 18 19  1  0
 19 20  1  0
 20 21  1  0
 21 22  1  0
 22 23  1  0
 23 24  1  0
 24 25  1  0
 25 26  1  0
 26 27  1  0
 27 28  1  0
 28 29  1  0
 29 30  1  0
 30 31  1  0
 31 32  1  0
 32 33  1  0
 33 34  1  0
 34 35  1  0
 35 36  1  0
 36 37  1  0
 37 38  1  0
 38 39  1  0
 39 40  1  0
 40 41  1  0
 41 42  1  0
 42 43  1  0
 43 44  1  0
 44 45  1  0
 45 46  1  0
 46 47  1  0
 47 48  1  0
 48 49  1  0
 49 50  1  0
 50 51  1  0
 51 52  1  0
 52 53  1  0
 53 54  1  0
 54 55  1  0
 55 56  1  0
 56 57  1  0
 57 58  1  0
 58 59  1  0
 59 60  1  0
 60 61  1  0
 61 62  1  0
 62 63  1  0
 63 64  1  0
 64 65  1  0
 65 66  1  0
 66 67  1  0
 67 68  1  0
 68 69  1  0
 69 70  1  0
 70 71  1  0
 71 72  1  0
 72 73  1  0
 73 74  1  0
 74 75  1  0
 75 76  1  0
 76 77  1  0
 77 78  1  0
 78 79  1  0
 79 80  1  0
 80 81  1  0
 81 82  1  0
 82 83  1  0
 83 84  1  0
 84 85  1  0
 85 86  1  0
 86 87  1  0
 87 88  1  0
 88 89  1  0
 89 90  1  0
 90 91  1  0
 91 92  1  0
 92 93  1  0
 93 94  1  0
 94 95  1  0
 95 96  1  0
 96 97  1  0
 97 98  1  0
 98 99  1  0
 99100  1  0
100101  1  0
101102  1  0
102103  1  0
103104  1  0
104105  1  0
105106  1  0
106107  1  0
107108  1  0
108109  1  0
109110  1  0
110111  1  0
111  2  1  0
M  END
>  <Title>  (59) 
idAAAMgen7

$$$$

     RDKit          2D

 38 43  0  0  0  0  0  0  0  0999 V2000
    3.7860   -5.5823    0.0000 C   0  0  0  0  0  0  0  0  0  0  0  0
    2.4215   -4.9592    0.0000 C   0  0  0  0  0  0  0  0  0  0  0  0
    2.6350   -3.4744    0.0000 C   0  0  0  0  0  0  0  0  0  0  0  0
    2.0119   -2.1100    0.0000 C   0  0  0  0  0  0  0  0  0  0  0  0
    3.1455   -1.1277    0.0000 C   0  0  0  0  0  0  0  0  0  0  0  0
    4.5630   -1.6183    0.0000 C   0  0  0  0  0  0  0  0  0  0  0  0
    4.8469   -3.0912    0.0000 O   0  0  0  0  0  0  0  0  0  0  0  0
    5.6966   -0.6360    0.0000 N   0  0  0  0  0  0  0  0  0  0  0  0
    7.1141   -1.1266    0.0000 C   0  0  0  0  0  0  0  0  0  0  0  0
    7.3980   -2.5995    0.0000 N   0  0  0  0  0  0  0  0  0  0  0  0
    8.8155   -3.0901    0.0000 N   0  0  0  0  0  0  0  0  0  0  0  0
    9.9491   -2.1078    0.0000 N   0  0  0  0  0  0  0  0  0  0  0  0
    9.6653   -0.6349    0.0000 N   0  0  0  0  0  0  0  0  0  0  0  0
    8.2478   -0.1443    0.0000 N   0  0  0  0  0  0  0  0  0  0  0  0
    0.7500   -1.2990    0.0000 C   0  0  0  0  0  0  0  0  0  0  0  0
    1.5000    0.0000    0.0000 C   0  0  0  0  0  0  0  0  0  0  0  0
    0.7500    1.2990    0.0000 C   0  0  0  0  0  0  0  0  0  0  0  0
   -0.7500    1.2990    0.0000 C   0  0  0  0  0  0  0  0  0  0  0  0
   -1.5000    0.0000    0.0000 C   0  0  0  0  0  0  0  0  0  0  0  0
   -0.7500   -1.2990    0.0000 C   0  0  0  0  0  0  0  0  0  0  0  0
   -2.0119   -2.1100    0.0000 C   0  0  0  0  0  0  0  0  0  0  0  0
   -2.8820   -0.8881    0.0000 C   0  0  0  0  0  0  0  0  0  0  0  0
   -4.3752   -1.0307    0.0000 C   0  0  0  0  0  0  0  0  0  0  0  0
   -4.9983   -2.3952    0.0000 C   0  0  0  0  0  0  0  0  0  0  0  0
   -4.1282   -3.6170    0.0000 C   0  0  0  0  0  0  0  0  0  0  0  0
   -2.6350   -3.4744    0.0000 C   0  0  0  0  0  0  0  0  0  0  0  0
   -2.4215   -4.9592    0.0000 C   0  0  0  0  0  0  0  0  0  0  0  0
   -3.8944   -5.2431    0.0000 C   0  0  0  0  0  0  0  0  0  0  0  0
   -4.3850   -6.6606    0.0000 C   0  0  0  0  0  0  0  0  0  0  0  0
   -3.4027   -7.7942    0.0000 C   0  0  0  0  0  0  0  0  0  0  0  0
   -1.9298   -7.5103    0.0000 C   0  0  0  0  0  0  0  0  0  0  0  0
   -1.4392   -6.0928    0.0000 C   0  0  0  0  0  0  0  0  0  0  0  0
   -0.0000   -6.5154    0.0000 C   0  0  0  0  0  0  0  0  0  0  0  0
   -0.3536   -7.9731    0.0000 C   0  0  0  0  0  0  0  0  0  0  0  0
    0.7320   -9.0082    0.0000 C   0  0  0  0  0  0  0  0  0  0  0  0
    2.1712   -8.5856    0.0000 C   0  0  0  0  0  0  0  0  0  0  0  0
    2.5248   -7.1279    0.0000 C   0  0  0  0  0  0  0  0  0  0  0  0
    1.4392   -6.0928    0.0000 C   0  0  0  0  0  0  0  0  0  0  0  0
  1  2  1  0
  2  3  1  0
  3  4  1  0
  4  5  1  0
  5  6  1  0
  6  7  2  0
  6  8  1  0
  8  9  1  0
  9 10  2  0
 10 11  1  0
 11 12  2  0
 12 13  1  0
 13 14  2  0
  4 15  1  0
 15 16  2  0
 16 17  1  0
 17 18  2  0
 18 19  1  0
 19 20  2  0
 20 21  1  0
 21 22  2  0
 22 23  1  0
 23 24  2  0
 24 25  1  0
 25 26  2  0
 26 27  1  0
 27 28  2  0
 28 29  1  0
 29 30  2  0
 30 31  1  0
 31 32  2  0
 32 33  1  0
 33 34  2  0
 34 35  1  0
 35 36  2  0
 36 37  1  0
 37 38  2  0
 38  2  1  0
 14  9  1  0
 20 15  1  0
 26 21  1  0
 32 27  1  0
 38 33  1  0
M  END
>  <Title>  (60) 
idAAANgen7

$$$$

     RDKit          2D

  8  7  0  0  0  0  0  0  0  0999 V2000
    0.0000    0.0000    0.0000 C   0  0  0  0  0  0  0  0  0  0  0  0
    1.2990    0.7500    0.0000 C   0  0  0  0  0  0  0  0  0  0  0  0
    2.5981   -0.0000    0.0000 C   0  0  0  0  0  0  0  0  0  0  0  0
    3.8971   -0.7500    0.0000 C   0  0  0  0  0  0  0  0  0  0  0  0
    5.1962   -1.5000    0.0000 C   0  0  0  0  0  0  0  0  0  0  0  0
    6.4952   -0.7500    0.0000 C   0  0  0  0  0  0  0  0  0  0  0  0
    7.7942   -1.5000    0.0000 C   0  0  0  0  0  0  0  0  0  0  0  0
    9.0933   -0.7500    0.0000 C   0  0  0  0  0  0  0  0  0  0  0  0
  1  2  1  0
  2  3  1  0
  3  4  3  0
  4  5  1  0
  5  6  2  3
  6  7  1  0
  7  8  1  0
M  END
>  <Title>  (61) 
idAAAOgen7

$$$$

     RDKit          2D

 21 21  0  0  0  0  0  0  0  0999 V2000
    5.0321    0.0000    0.0000 C   0  0  0  0  0  0  0  0  0  0  0  0
    4.8086    1.4832    0.0000 C   0  0  0  0  0  0  0  0  0  0  0  0
    4.1577    2.8347    0.0000 C   0  0  0  0  0  0  0  0  0  0  0  0
    3.1375    3.9343    0.0000 C   0  0  0  0  0  0  0  0  0  0  0  0
    1.8384    4.6843    0.0000 C   0  0  0  0  0  0  0  0  0  0  0  0
    0.3761    5.0181    0.0000 C   0  0  0  0  0  0  0  0  0  0  0  0
   -1.1198    4.9060    0.0000 C   0  0  0  0  0  0  0  0  0  0  0  0
   -2.5161    4.3580    0.0000 C   0  0  0  0  0  0  0  0  0  0  0  0
   -3.6888    3.4227    0.0000 C   0  0  0  0  0  0  0  0  0  0  0  0
   -4.5338    2.1834    0.0000 C   0  0  0  0  0  0  0  0  0  0  0  0
   -4.9759    0.7500    0.0000 C   0  0  0  0  0  0  0  0  0  0  0  0
   -4.9759   -0.7500    0.0000 C   0  0  0  0  0  0  0  0  0  0  0  0
   -4.5338   -2.1834    0.0000 C   0  0  0  0  0  0  0  0  0  0  0  0
   -3.6888   -3.4227    0.0000 C   0  0  0  0  0  0  0  0  0  0  0  0
   -2.5161   -4.3580    0.0000 C   0  0  0  0  0  0  0  0  0  0  0  0
   -1.1198   -4.9060    0.0000 C   0  0  0  0  0  0  0  0  0  0  0  0
    0.3761   -5.0181    0.0000 C   0  0  0  0  0  0  0  0  0  0  0  0
    1.8384   -4.6843    0.0000 C   0  0  0  0  0  0  0  0  0  0  0  0
    3.1375   -3.9343    0.0000 C   0  0  0  0  0  0  0  0  0  0  0  0
    4.1577   -2.8347    0.0000 C   0  0  0  0  0  0  0  0  0  0  0  0
    4.8086   -1.4832    0.0000 C   0  0  0  0  0  0  0  0  0  0  0  0
  1  2  1  0
  2  3  1  0
  3  4  1  0
  4  5  1  0
  5  6  1  0
  6  7  1  0
  7  8  1  0
  8  9  1  0
  9 10  1  0
 10 11  1  0
 11 12  1  0
 12 13  1  0
 13 14  1  0
 14 15  1  0
 15 16  1  0
 16 17  1  0
 17 18  1  0
 18 19  1  0
 19 20  1  0
 20 21  1  0
 21  1  1  0
M  END
>  <Title>  (62) 
idAAAPgen7

$$$$

     RDKit          2D

 41 41  0  0  0  0  0  0  0  0999 V2000
    9.7976    0.0000    0.0000 C   0  0  0  0  0  0  0  0  0  0  0  0
    9.6828    1.4956    0.0000 C   0  0  0  0  0  0  0  0  0  0  0  0
    9.3410    2.9561    0.0000 C   0  0  0  0  0  0  0  0  0  0  0  0
    8.7803    4.3474    0.0000 C   0  0  0  0  0  0  0  0  0  0  0  0
    8.0138    5.6367    0.0000 C   0  0  0  0  0  0  0  0  0  0  0  0
    7.0594    6.7940    0.0000 C   0  0  0  0  0  0  0  0  0  0  0  0
    5.9396    7.7920    0.0000 C   0  0  0  0  0  0  0  0  0  0  0  0
    4.6805    8.6073    0.0000 C   0  0  0  0  0  0  0  0  0  0  0  0
    3.3118    9.2209    0.0000 C   0  0  0  0  0  0  0  0  0  0  0  0
    1.8654    9.6184    0.0000 C   0  0  0  0  0  0  0  0  0  0  0  0
    0.3753    9.7904    0.0000 C   0  0  0  0  0  0  0  0  0  0  0  0
   -1.1236    9.7330    0.0000 C   0  0  0  0  0  0  0  0  0  0  0  0
   -2.5962    9.4474    0.0000 C   0  0  0  0  0  0  0  0  0  0  0  0
   -4.0079    8.9404    0.0000 C   0  0  0  0  0  0  0  0  0  0  0  0
   -5.3257    8.2238    0.0000 C   0  0  0  0  0  0  0  0  0  0  0  0
   -6.5186    7.3144    0.0000 C   0  0  0  0  0  0  0  0  0  0  0  0
   -7.5588    6.2337    0.0000 C   0  0  0  0  0  0  0  0  0  0  0  0
   -8.4217    5.0068    0.0000 C   0  0  0  0  0  0  0  0  0  0  0  0
   -9.0873    3.6625    0.0000 C   0  0  0  0  0  0  0  0  0  0  0  0
   -9.5399    2.2324    0.0000 C   0  0  0  0  0  0  0  0  0  0  0  0
   -9.7689    0.7500    0.0000 C   0  0  0  0  0  0  0  0  0  0  0  0
   -9.7689   -0.7500    0.0000 N   0  0  0  0  0  0  0  0  0  0  0  0
   -9.5399   -2.2324    0.0000 C   0  0  0  0  0  0  0  0  0  0  0  0
   -9.0873   -3.6625    0.0000 C   0  0  0  0  0  0  0  0  0  0  0  0
   -8.4217   -5.0068    0.0000 C   0  0  0  0  0  0  0  0  0  0  0  0
   -7.5588   -6.2337    0.0000 C   0  0  0  0  0  0  0  0  0  0  0  0
   -6.5186   -7.3144    0.0000 C   0  0  0  0  0  0  0  0  0  0  0  0
   -5.3257   -8.2238    0.0000 C   0  0  0  0  0  0  0  0  0  0  0  0
   -4.0079   -8.9404    0.0000 C   0  0  0  0  0  0  0  0  0  0  0  0
   -2.5962   -9.4474    0.0000 C   0  0  0  0  0  0  0  0  0  0  0  0
   -1.1236   -9.7330    0.0000 C   0  0  0  0  0  0  0  0  0  0  0  0
    0.3753   -9.7904    0.0000 C   0  0  0  0  0  0  0  0  0  0  0  0
    1.8654   -9.6184    0.0000 C   0  0  0  0  0  0  0  0  0  0  0  0
    3.3118   -9.2209    0.0000 C   0  0  0  0  0  0  0  0  0  0  0  0
    4.6805   -8.6073    0.0000 C   0  0  0  0  0  0  0  0  0  0  0  0
    5.9396   -7.7920    0.0000 C   0  0  0  0  0  0  0  0  0  0  0  0
    7.0594   -6.7940    0.0000 C   0  0  0  0  0  0  0  0  0  0  0  0
    8.0138   -5.6367    0.0000 C   0  0  0  0  0  0  0  0  0  0  0  0
    8.7803   -4.3474    0.0000 C   0  0  0  0  0  0  0  0  0  0  0  0
    9.3410   -2.9561    0.0000 C   0  0  0  0  0  0  0  0  0  0  0  0
    9.6828   -1.4956    0.0000 C   0  0  0  0  0  0  0  0  0  0  0  0
  1  2  1  0
  2  3  1  0
  3  4  1  0
  4  5  1  0
  5  6  1  0
  6  7  1  0
  7  8  1  0
  8  9  1  0
  9 10  1  0
 10 11  1  0
 11 12  1  0
 12 13  1  0
 13 14  1  0
 14 15  1  0
 15 16  1  0
 16 17  1  0
 17 18  1  0
 18 19  1  0
 19 20  1  0
 20 21  1  0
 21 22  1  0
 22 23  1  0
 23 24  1  0
 24 25  1  0
 25 26  1  0
 26 27  1  0
 27 28  1  0
 28 29  1  0
 29 30  1  0
 30 31  1  0
 31 32  1  0
 32 33  1  0
 33 34  1  0
 34 35  1  0
 35 36  1  0
 36 37  1  0
 37 38  1  0
 38 39  1  0
 39 40  1  0
 40 41  1  0
 41  1  1  0
M  END
>  <Title>  (63) 
idAAAQgen7

$$$$

     RDKit          2D

 78 79  0  0  0  0  0  0  0  0999 V2000
   -2.2145   -1.0648    0.0000 C   0  0  0  0  0  0  0  0  0  0  0  0
   -2.4930    0.4091    0.0000 C   0  0  0  0  0  0  0  0  0  0  0  0
   -3.9774    0.1934    0.0000 C   0  0  0  0  0  0  0  0  0  0  0  0
   -5.4748    0.1043    0.0000 C   0  0  0  0  0  0  0  0  0  0  0  0
   -6.9743    0.1425    0.0000 C   0  0  0  0  0  0  0  0  0  0  0  0
   -8.4652    0.3077    0.0000 C   0  0  0  0  0  0  0  0  0  0  0  0
   -9.9367    0.5988    0.0000 C   0  0  0  0  0  0  0  0  0  0  0  0
  -11.3782    1.0136    0.0000 C   0  0  0  0  0  0  0  0  0  0  0  0
  -12.7793    1.5492    0.0000 C   0  0  0  0  0  0  0  0  0  0  0  0
  -14.1300    2.2016    0.0000 C   0  0  0  0  0  0  0  0  0  0  0  0
  -15.4204    2.9663    0.0000 C   0  0  0  0  0  0  0  0  0  0  0  0
  -16.6414    3.8376    0.0000 C   0  0  0  0  0  0  0  0  0  0  0  0
  -17.7841    4.8094    0.0000 C   0  0  0  0  0  0  0  0  0  0  0  0
  -18.8402    5.8745    0.0000 C   0  0  0  0  0  0  0  0  0  0  0  0
  -19.8022    7.0254    0.0000 C   0  0  0  0  0  0  0  0  0  0  0  0
  -20.6632    8.2537    0.0000 C   0  0  0  0  0  0  0  0  0  0  0  0
  -21.4168    9.5506    0.0000 C   0  0  0  0  0  0  0  0  0  0  0  0
  -22.0578   10.9068    0.0000 C   0  0  0  0  0  0  0  0  0  0  0  0
  -22.5815   12.3124    0.0000 C   0  0  0  0  0  0  0  0  0  0  0  0
  -22.9840   13.7574    0.0000 C   0  0  0  0  0  0  0  0  0  0  0  0
  -23.2626   15.2313    0.0000 C   0  0  0  0  0  0  0  0  0  0  0  0
  -23.4152   16.7235    0.0000 C   0  0  0  0  0  0  0  0  0  0  0  0
  -23.4406   18.2233    0.0000 C   0  0  0  0  0  0  0  0  0  0  0  0
  -23.3388   19.7198    0.0000 C   0  0  0  0  0  0  0  0  0  0  0  0
  -23.1105   21.2024    0.0000 C   0  0  0  0  0  0  0  0  0  0  0  0
  -22.7572   22.6602    0.0000 C   0  0  0  0  0  0  0  0  0  0  0  0
  -22.2816   24.0828    0.0000 C   0  0  0  0  0  0  0  0  0  0  0  0
  -21.6870   25.4599    0.0000 C   0  0  0  0  0  0  0  0  0  0  0  0
  -20.9778   26.7817    0.0000 C   0  0  0  0  0  0  0  0  0  0  0  0
  -20.1591   28.0385    0.0000 C   0  0  0  0  0  0  0  0  0  0  0  0
  -19.2367   29.2214    0.0000 C   0  0  0  0  0  0  0  0  0  0  0  0
  -18.2174   30.3218    0.0000 C   0  0  0  0  0  0  0  0  0  0  0  0
  -17.1083   31.3318    0.0000 C   0  0  0  0  0  0  0  0  0  0  0  0
  -15.9177   32.2441    0.0000 C   0  0  0  0  0  0  0  0  0  0  0  0
  -14.6539   33.0521    0.0000 C   0  0  0  0  0  0  0  0  0  0  0  0
  -13.3262   33.7501    0.0000 C   0  0  0  0  0  0  0  0  0  0  0  0
  -11.9440   34.3329    0.0000 C   0  0  0  0  0  0  0  0  0  0  0  0
  -10.5175   34.7964    0.0000 C   0  0  0  0  0  0  0  0  0  0  0  0
   -9.0567   35.1373    0.0000 C   0  0  0  0  0  0  0  0  0  0  0  0
   -7.5723   35.3531    0.0000 C   0  0  0  0  0  0  0  0  0  0  0  0
   -6.0749   35.4422    0.0000 C   0  0  0  0  0  0  0  0  0  0  0  0
   -4.5754   35.4040    0.0000 C   0  0  0  0  0  0  0  0  0  0  0  0
   -3.0846   35.2387    0.0000 C   0  0  0  0  0  0  0  0  0  0  0  0
   -1.6131   34.9477    0.0000 C   0  0  0  0  0  0  0  0  0  0  0  0
   -0.1716   34.5329    0.0000 C   0  0  0  0  0  0  0  0  0  0  0  0
    1.2296   33.9973    0.0000 C   0  0  0  0  0  0  0  0  0  0  0  0
    2.5802   33.3448    0.0000 C   0  0  0  0  0  0  0  0  0  0  0  0
    3.8707   32.5802    0.0000 C   0  0  0  0  0  0  0  0  0  0  0  0
    5.0917   31.7088    0.0000 C   0  0  0  0  0  0  0  0  0  0  0  0
    6.2343   30.7371    0.0000 C   0  0  0  0  0  0  0  0  0  0  0  0
    7.2905   29.6719    0.0000 C   0  0  0  0  0  0  0  0  0  0  0  0
    8.2525   28.5210    0.0000 C   0  0  0  0  0  0  0  0  0  0  0  0
    9.1134   27.2927    0.0000 C   0  0  0  0  0  0  0  0  0  0  0  0
    9.8671   25.9958    0.0000 C   0  0  0  0  0  0  0  0  0  0  0  0
   10.5081   24.6396    0.0000 C   0  0  0  0  0  0  0  0  0  0  0  0
   11.0317   23.2340    0.0000 C   0  0  0  0  0  0  0  0  0  0  0  0
   11.4343   21.7890    0.0000 C   0  0  0  0  0  0  0  0  0  0  0  0
   11.7129   20.3151    0.0000 C   0  0  0  0  0  0  0  0  0  0  0  0
   11.8654   18.8229    0.0000 C   0  0  0  0  0  0  0  0  0  0  0  0
   11.8909   17.3231    0.0000 C   0  0  0  0  0  0  0  0  0  0  0  0
   11.7891   15.8266    0.0000 C   0  0  0  0  0  0  0  0  0  0  0  0
   11.5607   14.3441    0.0000 C   0  0  0  0  0  0  0  0  0  0  0  0
   11.2075   12.8863    0.0000 C   0  0  0  0  0  0  0  0  0  0  0  0
   10.7318   11.4637    0.0000 C   0  0  0  0  0  0  0  0  0  0  0  0
   10.1373   10.0865    0.0000 C   0  0  0  0  0  0  0  0  0  0  0  0
    9.4281    8.7648    0.0000 C   0  0  0  0  0  0  0  0  0  0  0  0
    8.6094    7.5079    0.0000 C   0  0  0  0  0  0  0  0  0  0  0  0
    7.6870    6.3250    0.0000 C   0  0  0  0  0  0  0  0  0  0  0  0
    6.6676    5.2246    0.0000 C   0  0  0  0  0  0  0  0  0  0  0  0
    5.5586    4.2147    0.0000 C   0  0  0  0  0  0  0  0  0  0  0  0
    4.3679    3.3024    0.0000 C   0  0  0  0  0  0  0  0  0  0  0  0
    3.1042    2.4943    0.0000 C   0  0  0  0  0  0  0  0  0  0  0  0
    1.7764    1.7964    0.0000 C   0  0  0  0  0  0  0  0  0  0  0  0
    0.3943    1.2135    0.0000 C   0  0  0  0  0  0  0  0  0  0  0  0
    1.2760    0.0000    0.0000 C   0  0  0  0  0  0  0  0  0  0  0  0
    0.3943   -1.2135    0.0000 C   0  0  0  0  0  0  0  0  0  0  0  0
   -1.0323   -0.7500    0.0000 C   0  0  0  0  0  0  0  0  0  0  0  0
   -1.0323    0.7500    0.0000 C   0  0  0  0  0  0  0  0  0  0  0  0
  1  2  1  0
  2  3  1  0
  3  4  2  0
  4  5  1  0
  5  6  1  0
  6  7  1  0
  7  8  1  0
  8  9  1  0
  9 10  1  0
 10 11  1  0
 11 12  1  0
 12 13  1  0
 13 14  1  0
 14 15  1  0
 15 16  1  0
 16 17  1  0
 17 18  1  0
 18 19  1  0
 19 20  1  0
 20 21  1  0
 21 22  1  0
 22 23  1  0
 23 24  1  0
 24 25  1  0
 25 26  1  0
 26 27  1  0
 27 28  1  0
 28 29  1  0
 29 30  1  0
 30 31  1  0
 31 32  1  0
 32 33  1  0
 33 34  1  0
 34 35  1  0
 35 36  1  0
 36 37  1  0
 37 38  1  0
 38 39  1  0
 39 40  1  0
 40 41  1  0
 41 42  1  0
 42 43  1  0
 43 44  1  0
 44 45  1  0
 45 46  1  0
 46 47  1  0
 47 48  1  0
 48 49  1  0
 49 50  2  0
 50 51  1  0
 51 52  2  0
 52 53  1  0
 53 54  2  0
 54 55  1  0
 55 56  2  0
 56 57  1  0
 57 58  2  0
 58 59  1  0
 59 60  2  0
 60 61  1  0
 61 62  2  0
 62 63  1  0
 63 64  2  0
 64 65  1  0
 65 66  2  0
 66 67  1  0
 67 68  2  0
 68 69  1  0
 69 70  2  0
 70 71  1  0
 71 72  2  0
 72 73  1  0
 73 74  2  0
 74 75  1  0
 75 76  2  0
 76 77  1  0
 77 78  2  0
 78  2  1  0
 78 74  1  0
M  END
>  <Title>  (64) 
idAAARgen7

$$$$

     RDKit          2D

  9  9  0  0  0  0  0  0  0  0999 V2000
    3.7500    1.2990    0.0000 O   0  0  0  0  0  0  0  0  0  0  0  0
    3.0000    0.0000    0.0000 C   0  0  0  0  0  0  0  0  0  0  0  0
    3.7500   -1.2990    0.0000 O   0  0  0  0  0  0  0  0  0  0  0  0
    1.5000    0.0000    0.0000 C   0  0  0  0  0  0  0  0  0  0  0  0
    0.7500   -1.2990    0.0000 C   0  0  0  0  0  0  0  0  0  0  0  0
   -0.7500   -1.2990    0.0000 C   0  0  0  0  0  0  0  0  0  0  0  0
   -1.5000    0.0000    0.0000 C   0  0  0  0  0  0  0  0  0  0  0  0
   -0.7500    1.2990    0.0000 C   0  0  0  0  0  0  0  0  0  0  0  0
    0.7500    1.2990    0.0000 C   0  0  0  0  0  0  0  0  0  0  0  0
  1  2  2  0
  2  3  1  0
  2  4  1  0
  4  5  1  0
  5  6  1  0
  6  7  1  0
  7  8  1  0
  8  9  1  0
  9  4  1  0
M  END
>  <Title>  (65) 
idAAASgen7

$$$$

     RDKit          2D

 32 36  0  0  0  0  0  0  0  0999 V2000
    1.2135   -7.3421    0.0000 C   0  0  0  0  0  0  0  0  0  0  0  0
    0.7500   -5.9156    0.0000 C   0  0  0  0  0  0  0  0  0  0  0  0
    1.9635   -5.0339    0.0000 C   0  0  0  0  0  0  0  0  0  0  0  0
    2.4271   -3.6073    0.0000 C   0  0  0  0  0  0  0  0  0  0  0  0
    1.9635   -2.1807    0.0000 C   0  0  0  0  0  0  0  0  0  0  0  0
    3.1771   -1.2990    0.0000 C   0  0  0  0  0  0  0  0  0  0  0  0
    3.0203    0.1927    0.0000 O   0  0  0  0  0  0  0  0  0  0  0  0
    4.5474   -1.9091    0.0000 C   0  0  0  0  0  0  0  0  0  0  0  0
    5.7609   -1.0275    0.0000 C   0  0  0  0  0  0  0  0  0  0  0  0
    7.1312   -1.6376    0.0000 N   0  0  0  0  0  0  0  0  0  0  0  0
    8.3447   -0.7559    0.0000 N   0  0  0  0  0  0  0  0  0  0  0  0
    8.1879    0.7359    0.0000 N   0  0  0  0  0  0  0  0  0  0  0  0
    6.8176    1.3460    0.0000 N   0  0  0  0  0  0  0  0  0  0  0  0
    5.6041    0.4643    0.0000 N   0  0  0  0  0  0  0  0  0  0  0  0
    0.7500   -1.2990    0.0000 C   0  0  0  0  0  0  0  0  0  0  0  0
    1.5000    0.0000    0.0000 C   0  0  0  0  0  0  0  0  0  0  0  0
    0.7500    1.2990    0.0000 C   0  0  0  0  0  0  0  0  0  0  0  0
   -0.7500    1.2990    0.0000 C   0  0  0  0  0  0  0  0  0  0  0  0
   -1.5000    0.0000    0.0000 C   0  0  0  0  0  0  0  0  0  0  0  0
   -0.7500   -1.2990    0.0000 C   0  0  0  0  0  0  0  0  0  0  0  0
   -1.9635   -2.1807    0.0000 C   0  0  0  0  0  0  0  0  0  0  0  0
   -2.9672   -1.0660    0.0000 C   0  0  0  0  0  0  0  0  0  0  0  0
   -4.4344   -1.3779    0.0000 C   0  0  0  0  0  0  0  0  0  0  0  0
   -4.8980   -2.8045    0.0000 C   0  0  0  0  0  0  0  0  0  0  0  0
   -3.8943   -3.9192    0.0000 C   0  0  0  0  0  0  0  0  0  0  0  0
   -2.4271   -3.6073    0.0000 C   0  0  0  0  0  0  0  0  0  0  0  0
   -1.9635   -5.0339    0.0000 C   0  0  0  0  0  0  0  0  0  0  0  0
   -3.3338   -5.6440    0.0000 C   0  0  0  0  0  0  0  0  0  0  0  0
   -3.4906   -7.1358    0.0000 C   0  0  0  0  0  0  0  0  0  0  0  0
   -2.2771   -8.0175    0.0000 C   0  0  0  0  0  0  0  0  0  0  0  0
   -0.9068   -7.4073    0.0000 C   0  0  0  0  0  0  0  0  0  0  0  0
   -0.7500   -5.9156    0.0000 C   0  0  0  0  0  0  0  0  0  0  0  0
  1  2  1  0
  2  3  2  0
  3  4  1  0
  4  5  1  0
  5  6  1  0
  6  7  2  0
  6  8  1  0
  8  9  1  0
  9 10  2  0
 10 11  1  0
 11 12  2  0
 12 13  1  0
 13 14  2  0
  5 15  1  0
 15 16  2  0
 16 17  1  0
 17 18  2  0
 18 19  1  0
 19 20  2  0
 20 21  1  0
 21 22  2  0
 22 23  1  0
 23 24  2  0
 24 25  1  0
 25 26  2  0
 26 27  1  0
 27 28  2  0
 28 29  1  0
 29 30  2  0
 30 31  1  0
 31 32  2  0
 32  2  1  0
 14  9  1  0
 20 15  1  0
 26 21  1  0
 32 27  1  0
M  END
>  <Title>  (66) 
idAAATgen7

$$$$

     RDKit          2D

 78 78  0  0  0  0  0  0  0  0999 V2000
   19.6488    0.0000    0.0000 C   0  0  0  0  0  0  0  0  0  0  0  0
   18.1488    0.0000    0.0000 C   0  0  0  0  0  0  0  0  0  0  0  0
   18.0868   -1.4987    0.0000 C   0  0  0  0  0  0  0  0  0  0  0  0
   17.9013   -2.9872    0.0000 C   0  0  0  0  0  0  0  0  0  0  0  0
   17.5935   -4.4553    0.0000 C   0  0  0  0  0  0  0  0  0  0  0  0
   17.1655   -5.8929    0.0000 C   0  0  0  0  0  0  0  0  0  0  0  0
   16.6202   -7.2903    0.0000 C   0  0  0  0  0  0  0  0  0  0  0  0
   15.9614   -8.6379    0.0000 C   0  0  0  0  0  0  0  0  0  0  0  0
   15.1936   -9.9265    0.0000 C   0  0  0  0  0  0  0  0  0  0  0  0
   14.3220  -11.1472    0.0000 C   0  0  0  0  0  0  0  0  0  0  0  0
   13.3525  -12.2919    0.0000 C   0  0  0  0  0  0  0  0  0  0  0  0
   12.2919  -13.3525    0.0000 C   0  0  0  0  0  0  0  0  0  0  0  0
   11.1472  -14.3220    0.0000 C   0  0  0  0  0  0  0  0  0  0  0  0
    9.9265  -15.1936    0.0000 C   0  0  0  0  0  0  0  0  0  0  0  0
    8.6379  -15.9614    0.0000 C   0  0  0  0  0  0  0  0  0  0  0  0
    7.2903  -16.6202    0.0000 C   0  0  0  0  0  0  0  0  0  0  0  0
    5.8929  -17.1655    0.0000 C   0  0  0  0  0  0  0  0  0  0  0  0
    4.4553  -17.5935    0.0000 C   0  0  0  0  0  0  0  0  0  0  0  0
    2.9872  -17.9013    0.0000 C   0  0  0  0  0  0  0  0  0  0  0  0
    1.4987  -18.0868    0.0000 C   0  0  0  0  0  0  0  0  0  0  0  0
   -0.0000  -18.1488    0.0000 C   0  0  0  0  0  0  0  0  0  0  0  0
   -1.4987  -18.0868    0.0000 C   0  0  0  0  0  0  0  0  0  0  0  0
   -2.9872  -17.9013    0.0000 C   0  0  0  0  0  0  0  0  0  0  0  0
   -4.4553  -17.5935    0.0000 C   0  0  0  0  0  0  0  0  0  0  0  0
   -5.8929  -17.1655    0.0000 C   0  0  0  0  0  0  0  0  0  0  0  0
   -7.2903  -16.6202    0.0000 C   0  0  0  0  0  0  0  0  0  0  0  0
   -8.6379  -15.9614    0.0000 C   0  0  0  0  0  0  0  0  0  0  0  0
   -9.9265  -15.1936    0.0000 C   0  0  0  0  0  0  0  0  0  0  0  0
  -11.1472  -14.3220    0.0000 C   0  0  0  0  0  0  0  0  0  0  0  0
  -12.2919  -13.3525    0.0000 C   0  0  0  0  0  0  0  0  0  0  0  0
  -13.3525  -12.2919    0.0000 C   0  0  0  0  0  0  0  0  0  0  0  0
  -14.3220  -11.1472    0.0000 C   0  0  0  0  0  0  0  0  0  0  0  0
  -15.1936   -9.9265    0.0000 C   0  0  0  0  0  0  0  0  0  0  0  0
  -15.9614   -8.6379    0.0000 C   0  0  0  0  0  0  0  0  0  0  0  0
  -16.6202   -7.2903    0.0000 C   0  0  0  0  0  0  0  0  0  0  0  0
  -17.1655   -5.8929    0.0000 C   0  0  0  0  0  0  0  0  0  0  0  0
  -17.5935   -4.4553    0.0000 C   0  0  0  0  0  0  0  0  0  0  0  0
  -17.9013   -2.9872    0.0000 C   0  0  0  0  0  0  0  0  0  0  0  0
  -18.0868   -1.4987    0.0000 C   0  0  0  0  0  0  0  0  0  0  0  0
  -18.1488    0.0000    0.0000 C   0  0  0  0  0  0  0  0  0  0  0  0
  -18.0868    1.4987    0.0000 C   0  0  0  0  0  0  0  0  0  0  0  0
  -17.9013    2.9872    0.0000 C   0  0  0  0  0  0  0  0  0  0  0  0
  -17.5935    4.4553    0.0000 C   0  0  0  0  0  0  0  0  0  0  0  0
  -17.1655    5.8929    0.0000 C   0  0  0  0  0  0  0  0  0  0  0  0
  -16.6202    7.2903    0.0000 C   0  0  0  0  0  0  0  0  0  0  0  0
  -15.9614    8.6379    0.0000 C   0  0  0  0  0  0  0  0  0  0  0  0
  -15.1936    9.9265    0.0000 C   0  0  0  0  0  0  0  0  0  0  0  0
  -14.3220   11.1472    0.0000 C   0  0  0  0  0  0  0  0  0  0  0  0
  -13.3525   12.2919    0.0000 C   0  0  0  0  0  0  0  0  0  0  0  0
  -12.2919   13.3525    0.0000 C   0  0  0  0  0  0  0  0  0  0  0  0
  -11.1472   14.3220    0.0000 C   0  0  0  0  0  0  0  0  0  0  0  0
   -9.9265   15.1936    0.0000 C   0  0  0  0  0  0  0  0  0  0  0  0
   -8.6379   15.9614    0.0000 C   0  0  0  0  0  0  0  0  0  0  0  0
   -7.2903   16.6202    0.0000 C   0  0  0  0  0  0  0  0  0  0  0  0
   -5.8929   17.1655    0.0000 C   0  0  0  0  0  0  0  0  0  0  0  0
   -4.4553   17.5935    0.0000 C   0  0  0  0  0  0  0  0  0  0  0  0
   -2.9872   17.9013    0.0000 C   0  0  0  0  0  0  0  0  0  0  0  0
   -1.4987   18.0868    0.0000 C   0  0  0  0  0  0  0  0  0  0  0  0
    0.0000   18.1488    0.0000 C   0  0  0  0  0  0  0  0  0  0  0  0
    1.4987   18.0868    0.0000 C   0  0  0  0  0  0  0  0  0  0  0  0
    2.9872   17.9013    0.0000 C   0  0  0  0  0  0  0  0  0  0  0  0
    4.4553   17.5935    0.0000 C   0  0  0  0  0  0  0  0  0  0  0  0
    5.8929   17.1655    0.0000 C   0  0  0  0  0  0  0  0  0  0  0  0
    7.2903   16.6202    0.0000 C   0  0  0  0  0  0  0  0  0  0  0  0
    8.6379   15.9614    0.0000 C   0  0  0  0  0  0  0  0  0  0  0  0
    9.9265   15.1936    0.0000 C   0  0  0  0  0  0  0  0  0  0  0  0
   11.1472   14.3220    0.0000 C   0  0  0  0  0  0  0  0  0  0  0  0
   12.2919   13.3525    0.0000 C   0  0  0  0  0  0  0  0  0  0  0  0
   13.3525   12.2919    0.0000 C   0  0  0  0  0  0  0  0  0  0  0  0
   14.3220   11.1472    0.0000 C   0  0  0  0  0  0  0  0  0  0  0  0
   15.1936    9.9265    0.0000 C   0  0  0  0  0  0  0  0  0  0  0  0
   15.9614    8.6379    0.0000 C   0  0  0  0  0  0  0  0  0  0  0  0
   17.2806    9.3518    0.0000 C   0  0  0  0  0  0  0  0  0  0  0  0
   16.6202    7.2903    0.0000 C   0  0  0  0  0  0  0  0  0  0  0  0
   17.1655    5.8929    0.0000 C   0  0  0  0  0  0  0  0  0  0  0  0
   17.5935    4.4553    0.0000 C   0  0  0  0  0  0  0  0  0  0  0  0
   17.9013    2.9872    0.0000 C   0  0  0  0  0  0  0  0  0  0  0  0
   18.0868    1.4987    0.0000 C   0  0  0  0  0  0  0  0  0  0  0  0
  1  2  1  0
  2  3  1  0
  3  4  1  0
  4  5  1  0
  5  6  1  0
  6  7  1  0
  7  8  1  0
  8  9  1  0
  9 10  1  0
 10 11  1  0
 11 12  1  0
 12 13  1  0
 13 14  1  0
 14 15  1  0
 15 16  1  0
 16 17  1  0
 17 18  1  0
 18 19  1  0
 19 20  1  0
 20 21  1  0
 21 22  1  0
 22 23  1  0
 23 24  1  0
 24 25  1  0
 25 26  1  0
 26 27  1  0
 27 28  1  0
 28 29  1  0
 29 30  1  0
 30 31  1  0
 31 32  1  0
 32 33  1  0
 33 34  1  0
 34 35  1  0
 35 36  1  0
 36 37  1  0
 37 38  1  0
 38 39  1  0
 39 40  1  0
 40 41  1  0
 41 42  1  0
 42 43  1  0
 43 44  1  0
 44 45  1  0
 45 46  1  0
 46 47  1  0
 47 48  1  0
 48 49  1  0
 49 50  1  0
 50 51  1  0
 51 52  1  0
 52 53  1  0
 53 54  1  0
 54 55  1  0
 55 56  1  0
 56 57  1  0
 57 58  1  0
 58 59  1  0
 59 60  1  0
 60 61  1  0
 61 62  1  0
 62 63  1  0
 63 64  1  0
 64 65  1  0
 65 66  1  0
 66 67  1  0
 67 68  1  0
 68 69  1  0
 69 70  1  0
 70 71  1  0
 71 72  1  0
 72 73  1  0
 72 74  1  0
 74 75  1  0
 75 76  1  0
 76 77  1  0
 77 78  1  0
 78  2  1  0
M  END
>  <Title>  (67) 
idAAAUgen7

$$$$

     RDKit          2D

 41 46  0  0  0  0  0  0  0  0999 V2000
   -1.1382   -8.3460    0.0000 C   0  0  0  0  0  0  0  0  0  0  0  0
   -0.7500   -6.8971    0.0000 C   0  0  0  0  0  0  0  0  0  0  0  0
    0.7500   -6.8971    0.0000 C   0  0  0  0  0  0  0  0  0  0  0  0
    2.0490   -6.1471    0.0000 C   0  0  0  0  0  0  0  0  0  0  0  0
    2.7990   -4.8481    0.0000 C   0  0  0  0  0  0  0  0  0  0  0  0
    4.2479   -5.2363    0.0000 C   0  0  0  0  0  0  0  0  0  0  0  0
    5.3086   -4.1756    0.0000 O   0  0  0  0  0  0  0  0  0  0  0  0
    4.6362   -6.6852    0.0000 N   0  0  0  0  0  0  0  0  0  0  0  0
    6.0850   -7.0734    0.0000 C   0  0  0  0  0  0  0  0  0  0  0  0
    7.2508   -6.1294    0.0000 N   0  0  0  0  0  0  0  0  0  0  0  0
    8.5088   -6.9464    0.0000 N   0  0  0  0  0  0  0  0  0  0  0  0
    8.1205   -8.3953    0.0000 N   0  0  0  0  0  0  0  0  0  0  0  0
    6.6226   -8.4738    0.0000 N   0  0  0  0  0  0  0  0  0  0  0  0
    5.8056   -9.7318    0.0000 C   0  0  0  0  0  0  0  0  0  0  0  0
    4.3077   -9.6533    0.0000 C   0  0  0  0  0  0  0  0  0  0  0  0
    3.4907  -10.9113    0.0000 C   0  0  0  0  0  0  0  0  0  0  0  0
    4.1717  -12.2478    0.0000 C   0  0  0  0  0  0  0  0  0  0  0  0
    5.6697  -12.3263    0.0000 C   0  0  0  0  0  0  0  0  0  0  0  0
    6.4866  -11.0683    0.0000 C   0  0  0  0  0  0  0  0  0  0  0  0
    7.9846  -11.1468    0.0000 O   0  0  0  0  0  0  0  0  0  0  0  0
    2.7990   -3.3481    0.0000 C   0  0  0  0  0  0  0  0  0  0  0  0
    4.2479   -2.9598    0.0000 O   0  0  0  0  0  0  0  0  0  0  0  0
    2.0490   -2.0490    0.0000 O   0  0  0  0  0  0  0  0  0  0  0  0
    0.7500   -1.2990    0.0000 C   0  0  0  0  0  0  0  0  0  0  0  0
    1.5000    0.0000    0.0000 C   0  0  0  0  0  0  0  0  0  0  0  0
    0.7500    1.2990    0.0000 C   0  0  0  0  0  0  0  0  0  0  0  0
   -0.7500    1.2990    0.0000 C   0  0  0  0  0  0  0  0  0  0  0  0
   -1.5000    0.0000    0.0000 C   0  0  0  0  0  0  0  0  0  0  0  0
   -0.7500   -1.2990    0.0000 C   0  0  0  0  0  0  0  0  0  0  0  0
   -2.0490   -2.0490    0.0000 C   0  0  0  0  0  0  0  0  0  0  0  0
   -2.7990   -0.7500    0.0000 C   0  0  0  0  0  0  0  0  0  0  0  0
   -4.2990   -0.7500    0.0000 C   0  0  0  0  0  0  0  0  0  0  0  0
   -5.0490   -2.0490    0.0000 C   0  0  0  0  0  0  0  0  0  0  0  0
   -4.2990   -3.3481    0.0000 C   0  0  0  0  0  0  0  0  0  0  0  0
   -2.7990   -3.3481    0.0000 C   0  0  0  0  0  0  0  0  0  0  0  0
   -2.7990   -4.8481    0.0000 C   0  0  0  0  0  0  0  0  0  0  0  0
   -4.2990   -4.8481    0.0000 C   0  0  0  0  0  0  0  0  0  0  0  0
   -5.0490   -6.1471    0.0000 C   0  0  0  0  0  0  0  0  0  0  0  0
   -4.2990   -7.4462    0.0000 C   0  0  0  0  0  0  0  0  0  0  0  0
   -2.7990   -7.4462    0.0000 C   0  0  0  0  0  0  0  0  0  0  0  0
   -2.0490   -6.1471    0.0000 C   0  0  0  0  0  0  0  0  0  0  0  0
  1  2  1  0
  2  3  1  0
  3  4  1  0
  4  5  1  0
  5  6  1  0
  6  7  2  0
  6  8  1  0
  8  9  1  0
  9 10  2  0
 10 11  1  0
 11 12  2  0
 12 13  1  0
 13 14  1  0
 14 15  2  0
 15 16  1  0
 16 17  2  0
 17 18  1  0
 18 19  2  0
 19 20  1  0
  5 21  1  0
 21 22  2  0
 21 23  1  0
 23 24  1  0
 24 25  2  0
 25 26  1  0
 26 27  2  0
 27 28  1  0
 28 29  2  0
 29 30  1  0
 30 31  2  0
 31 32  1  0
 32 33  2  0
 33 34  1  0
 34 35  2  0
 35 36  1  0
 36 37  2  0
 37 38  1  0
 38 39  2  0
 39 40  1  0
 40 41  2  0
 41  2  1  0
 13  9  1  0
 19 14  1  0
 29 24  1  0
 35 30  1  0
 41 36  1  0
M  END
>  <Title>  (68) 
idAAAVgen7

$$$$

     RDKit          2D

  9  9  0  0  0  0  0  0  0  0999 V2000
    3.5260   -1.2990    0.0000 C   0  0  0  0  0  0  0  0  0  0  0  0
    2.7760    0.0000    0.0000 C   0  0  0  0  0  0  0  0  0  0  0  0
    3.5260    1.2990    0.0000 O   0  0  0  0  0  0  0  0  0  0  0  0
    1.2760    0.0000    0.0000 C   0  0  0  0  0  0  0  0  0  0  0  0
    0.3943    1.2135    0.0000 C   0  0  0  0  0  0  0  0  0  0  0  0
   -1.0323    0.7500    0.0000 C   0  0  0  0  0  0  0  0  0  0  0  0
   -1.0323   -0.7500    0.0000 C   0  0  0  0  0  0  0  0  0  0  0  0
   -2.2458   -1.6317    0.0000 C   0  0  0  0  0  0  0  0  0  0  0  0
    0.3943   -1.2135    0.0000 N   0  0  0  0  0  0  0  0  0  0  0  0
  1  2  1  0
  2  3  2  0
  2  4  1  0
  4  5  2  0
  5  6  1  0
  6  7  2  0
  7  8  1  0
  7  9  1  0
  9  4  1  0
M  END
>  <Title>  (69) 
idAAAWgen7

$$$$

     RDKit          2D

 19 20  0  0  0  0  0  0  0  0999 V2000
    5.4786   -1.2990    0.0000 C   0  0  0  0  0  0  0  0  0  0  0  0
    3.9786   -1.2990    0.0000 C   0  0  0  0  0  0  0  0  0  0  0  0
    3.2286   -2.5981    0.0000 O   0  0  0  0  0  0  0  0  0  0  0  0
    3.2286   -0.0000    0.0000 N   0  0  0  0  0  0  0  0  0  0  0  0
    1.7286    0.0000    0.0000 C   0  0  0  0  0  0  0  0  0  0  0  0
    1.0777    1.3515    0.0000 C   0  0  0  0  0  0  0  0  0  0  0  0
   -0.3846    1.6852    0.0000 C   0  0  0  0  0  0  0  0  0  0  0  0
   -1.5574    0.7500    0.0000 C   0  0  0  0  0  0  0  0  0  0  0  0
   -2.9088    1.4008    0.0000 N   0  0  0  0  0  0  0  0  0  0  0  0
   -3.0209    2.8966    0.0000 C   0  0  0  0  0  0  0  0  0  0  0  0
   -1.7816    3.7416    0.0000 C   0  0  0  0  0  0  0  0  0  0  0  0
   -1.8937    5.2374    0.0000 C   0  0  0  0  0  0  0  0  0  0  0  0
   -3.2451    5.8882    0.0000 C   0  0  0  0  0  0  0  0  0  0  0  0
   -3.3572    7.3840    0.0000 C   0  0  0  0  0  0  0  0  0  0  0  0
   -4.4845    5.0433    0.0000 C   0  0  0  0  0  0  0  0  0  0  0  0
   -4.3724    3.5475    0.0000 C   0  0  0  0  0  0  0  0  0  0  0  0
   -1.5574   -0.7500    0.0000 C   0  0  0  0  0  0  0  0  0  0  0  0
   -0.3846   -1.6852    0.0000 C   0  0  0  0  0  0  0  0  0  0  0  0
    1.0777   -1.3515    0.0000 C   0  0  0  0  0  0  0  0  0  0  0  0
  1  2  1  0
  2  3  2  0
  2  4  1  0
  4  5  1  0
  5  6  2  0
  6  7  1  0
  7  8  2  0
  8  9  1  0
  9 10  2  3
 10 11  1  0
 11 12  1  0
 12 13  1  0
 13 14  1  0
 13 15  1  0
 15 16  1  0
  8 17  1  0
 17 18  1  0
 18 19  1  0
 19  5  1  0
 16 10  1  0
M  END
>  <Title>  (70) 
idAAAXgen7

$$$$

     RDKit          2D

  9  9  0  0  0  0  0  0  0  0999 V2000
    4.2760   -0.0000    0.0000 N   0  0  0  0  0  0  0  0  0  0  0  0
    2.7760    0.0000    0.0000 C   0  0  0  0  0  0  0  0  0  0  0  0
    1.2760    0.0000    0.0000 C   0  0  0  0  0  0  0  0  0  0  0  0
    0.3943    1.2135    0.0000 C   0  0  0  0  0  0  0  0  0  0  0  0
   -1.0323    0.7500    0.0000 C   0  0  0  0  0  0  0  0  0  0  0  0
   -1.0323   -0.7500    0.0000 C   0  0  0  0  0  0  0  0  0  0  0  0
   -2.2458   -1.6317    0.0000 C   0  0  0  0  0  0  0  0  0  0  0  0
   -3.4593   -2.5134    0.0000 N   0  0  0  0  0  0  0  0  0  0  0  0
    0.3943   -1.2135    0.0000 C   0  0  0  0  0  0  0  0  0  0  0  0
  1  2  3  0
  2  3  1  0
  3  4  2  0
  4  5  1  0
  5  6  1  0
  6  7  1  0
  7  8  3  0
  6  9  1  0
  9  3  1  0
M  END
>  <Title>  (71) 
idAAAYgen7

$$$$

     RDKit          2D

 33 37  0  0  0  0  0  0  0  0999 V2000
    2.2502   -7.3547    0.0000 C   0  0  0  0  0  0  0  0  0  0  0  0
    1.4392   -6.0928    0.0000 C   0  0  0  0  0  0  0  0  0  0  0  0
    2.4215   -4.9592    0.0000 C   0  0  0  0  0  0  0  0  0  0  0  0
    2.6350   -3.4744    0.0000 C   0  0  0  0  0  0  0  0  0  0  0  0
    2.0119   -2.1100    0.0000 C   0  0  0  0  0  0  0  0  0  0  0  0
    3.1455   -1.1277    0.0000 C   0  0  0  0  0  0  0  0  0  0  0  0
    2.8616    0.3452    0.0000 O   0  0  0  0  0  0  0  0  0  0  0  0
    4.5630   -1.6183    0.0000 N   0  0  0  0  0  0  0  0  0  0  0  0
    5.6966   -0.6360    0.0000 C   0  0  0  0  0  0  0  0  0  0  0  0
    7.1141   -1.1266    0.0000 N   0  0  0  0  0  0  0  0  0  0  0  0
    8.2478   -0.1443    0.0000 N   0  0  0  0  0  0  0  0  0  0  0  0
    7.9639    1.3286    0.0000 N   0  0  0  0  0  0  0  0  0  0  0  0
    6.5464    1.8192    0.0000 N   0  0  0  0  0  0  0  0  0  0  0  0
    5.4128    0.8369    0.0000 N   0  0  0  0  0  0  0  0  0  0  0  0
    0.7500   -1.2990    0.0000 C   0  0  0  0  0  0  0  0  0  0  0  0
    1.5000    0.0000    0.0000 C   0  0  0  0  0  0  0  0  0  0  0  0
    0.7500    1.2990    0.0000 C   0  0  0  0  0  0  0  0  0  0  0  0
   -0.7500    1.2990    0.0000 C   0  0  0  0  0  0  0  0  0  0  0  0
   -1.5000    0.0000    0.0000 C   0  0  0  0  0  0  0  0  0  0  0  0
   -0.7500   -1.2990    0.0000 C   0  0  0  0  0  0  0  0  0  0  0  0
   -2.0119   -2.1100    0.0000 C   0  0  0  0  0  0  0  0  0  0  0  0
   -2.8820   -0.8881    0.0000 C   0  0  0  0  0  0  0  0  0  0  0  0
   -4.3752   -1.0307    0.0000 C   0  0  0  0  0  0  0  0  0  0  0  0
   -4.9983   -2.3952    0.0000 C   0  0  0  0  0  0  0  0  0  0  0  0
   -4.1282   -3.6170    0.0000 C   0  0  0  0  0  0  0  0  0  0  0  0
   -2.6350   -3.4744    0.0000 C   0  0  0  0  0  0  0  0  0  0  0  0
   -2.4215   -4.9592    0.0000 C   0  0  0  0  0  0  0  0  0  0  0  0
   -3.8944   -5.2431    0.0000 C   0  0  0  0  0  0  0  0  0  0  0  0
   -4.3850   -6.6606    0.0000 C   0  0  0  0  0  0  0  0  0  0  0  0
   -3.4027   -7.7942    0.0000 C   0  0  0  0  0  0  0  0  0  0  0  0
   -1.9298   -7.5103    0.0000 C   0  0  0  0  0  0  0  0  0  0  0  0
   -1.4392   -6.0928    0.0000 C   0  0  0  0  0  0  0  0  0  0  0  0
   -0.0000   -6.5154    0.0000 C   0  0  0  0  0  0  0  0  0  0  0  0
  1  2  1  0
  2  3  2  0
  3  4  1  0
  4  5  1  0
  5  6  1  0
  6  7  2  0
  6  8  1  0
  8  9  1  0
  9 10  2  0
 10 11  1  0
 11 12  2  0
 12 13  1  0
 13 14  2  0
  5 15  1  0
 15 16  2  0
 16 17  1  0
 17 18  2  0
 18 19  1  0
 19 20  2  0
 20 21  1  0
 21 22  2  0
 22 23  1  0
 23 24  2  0
 24 25  1  0
 25 26  2  0
 26 27  1  0
 27 28  2  0
 28 29  1  0
 29 30  2  0
 30 31  1  0
 31 32  2  0
 32 33  1  0
 33  2  1  0
 14  9  1  0
 20 15  1  0
 26 21  1  0
 32 27  1  0
M  END
>  <Title>  (72) 
idAAAZgen7

$$$$

     RDKit          2D

 51 51  0  0  0  0  0  0  0  0999 V2000
   12.1831    0.0000    0.0000 C   0  0  0  0  0  0  0  0  0  0  0  0
   12.0907    1.4972    0.0000 C   0  0  0  0  0  0  0  0  0  0  0  0
   11.8151    2.9716    0.0000 C   0  0  0  0  0  0  0  0  0  0  0  0
   11.3604    4.4010    0.0000 C   0  0  0  0  0  0  0  0  0  0  0  0
   10.7334    5.7637    0.0000 C   0  0  0  0  0  0  0  0  0  0  0  0
    9.9438    7.0391    0.0000 C   0  0  0  0  0  0  0  0  0  0  0  0
    9.0034    8.2077    0.0000 C   0  0  0  0  0  0  0  0  0  0  0  0
    7.9265    9.2519    0.0000 C   0  0  0  0  0  0  0  0  0  0  0  0
    6.7295   10.1558    0.0000 C   0  0  0  0  0  0  0  0  0  0  0  0
    5.4305   10.9058    0.0000 C   0  0  0  0  0  0  0  0  0  0  0  0
    4.0491   11.4905    0.0000 C   0  0  0  0  0  0  0  0  0  0  0  0
    2.6064   11.9010    0.0000 C   0  0  0  0  0  0  0  0  0  0  0  0
    1.1241   12.1311    0.0000 C   0  0  0  0  0  0  0  0  0  0  0  0
   -0.3752   12.1773    0.0000 C   0  0  0  0  0  0  0  0  0  0  0  0
   -1.8688   12.0389    0.0000 C   0  0  0  0  0  0  0  0  0  0  0  0
   -3.3341   11.7180    0.0000 C   0  0  0  0  0  0  0  0  0  0  0  0
   -4.7488   11.2194    0.0000 C   0  0  0  0  0  0  0  0  0  0  0  0
   -6.0915   10.5508    0.0000 C   0  0  0  0  0  0  0  0  0  0  0  0
   -7.3419    9.7223    0.0000 C   0  0  0  0  0  0  0  0  0  0  0  0
   -8.4810    8.7464    0.0000 C   0  0  0  0  0  0  0  0  0  0  0  0
   -9.4916    7.6378    0.0000 C   0  0  0  0  0  0  0  0  0  0  0  0
  -10.3582    6.4136    0.0000 C   0  0  0  0  0  0  0  0  0  0  0  0
  -11.0679    5.0920    0.0000 C   0  0  0  0  0  0  0  0  0  0  0  0
  -11.6097    3.6933    0.0000 C   0  0  0  0  0  0  0  0  0  0  0  0
  -11.9756    2.2386    0.0000 C   0  0  0  0  0  0  0  0  0  0  0  0
  -12.1599    0.7500    0.0000 C   0  0  0  0  0  0  0  0  0  0  0  0
  -12.1599   -0.7500    0.0000 C   0  0  0  0  0  0  0  0  0  0  0  0
  -11.9756   -2.2386    0.0000 C   0  0  0  0  0  0  0  0  0  0  0  0
  -11.6097   -3.6933    0.0000 C   0  0  0  0  0  0  0  0  0  0  0  0
  -11.0679   -5.0920    0.0000 C   0  0  0  0  0  0  0  0  0  0  0  0
  -10.3582   -6.4136    0.0000 C   0  0  0  0  0  0  0  0  0  0  0  0
   -9.4916   -7.6378    0.0000 C   0  0  0  0  0  0  0  0  0  0  0  0
   -8.4810   -8.7464    0.0000 C   0  0  0  0  0  0  0  0  0  0  0  0
   -7.3419   -9.7223    0.0000 C   0  0  0  0  0  0  0  0  0  0  0  0
   -6.0915  -10.5508    0.0000 C   0  0  0  0  0  0  0  0  0  0  0  0
   -4.7488  -11.2194    0.0000 C   0  0  0  0  0  0  0  0  0  0  0  0
   -3.3341  -11.7180    0.0000 C   0  0  0  0  0  0  0  0  0  0  0  0
   -1.8688  -12.0389    0.0000 C   0  0  0  0  0  0  0  0  0  0  0  0
   -0.3752  -12.1773    0.0000 C   0  0  0  0  0  0  0  0  0  0  0  0
    1.1241  -12.1311    0.0000 C   0  0  0  0  0  0  0  0  0  0  0  0
    2.6064  -11.9010    0.0000 C   0  0  0  0  0  0  0  0  0  0  0  0
    4.0491  -11.4905    0.0000 C   0  0  0  0  0  0  0  0  0  0  0  0
    5.4305  -10.9058    0.0000 C   0  0  0  0  0  0  0  0  0  0  0  0
    6.7295  -10.1558    0.0000 C   0  0  0  0  0  0  0  0  0  0  0  0
    7.9265   -9.2519    0.0000 C   0  0  0  0  0  0  0  0  0  0  0  0
    9.0034   -8.2077    0.0000 C   0  0  0  0  0  0  0  0  0  0  0  0
    9.9438   -7.0391    0.0000 C   0  0  0  0  0  0  0  0  0  0  0  0
   10.7334   -5.7637    0.0000 C   0  0  0  0  0  0  0  0  0  0  0  0
   11.3604   -4.4010    0.0000 C   0  0  0  0  0  0  0  0  0  0  0  0
   11.8151   -2.9716    0.0000 C   0  0  0  0  0  0  0  0  0  0  0  0
   12.0907   -1.4972    0.0000 C   0  0  0  0  0  0  0  0  0  0  0  0
  1  2  1  0
  2  3  1  0
  3  4  1  0
  4  5  1  0
  5  6  1  0
  6  7  1  0
  7  8  1  0
  8  9  1  0
  9 10  1  0
 10 11  1  0
 11 12  1  0
 12 13  1  0
 13 14  1  0
 14 15  1  0
 15 16  1  0
 16 17  1  0
 17 18  1  0
 18 19  1  0
 19 20  1  0
 20 21  1  0
 21 22  1  0
 22 23  1  0
 23 24  1  0
 24 25  1  0
 25 26  1  0
 26 27  1  0
 27 28  1  0
 28 29  1  0
 29 30  1  0
 30 31  1  0
 31 32  1  0
 32 33  1  0
 33 34  1  0
 34 35  1  0
 35 36  1  0
 36 37  1  0
 37 38  1  0
 38 39  1  0
 39 40  1  0
 40 41  1  0
 41 42  1  0
 42 43  1  0
 43 44  1  0
 44 45  1  0
 45 46  1  0
 46 47  1  0
 47 48  1  0
 48 49  1  0
 49 50  1  0
 50 51  1  0
 51  1  1  0
M  END
>  <Title>  (73) 
idAABAgen7

$$$$

     RDKit          2D

  7  7  0  0  0  0  0  0  0  0999 V2000
    4.2760   -0.0000    0.0000 N   0  0  0  0  0  0  0  0  0  0  0  0
    2.7760    0.0000    0.0000 C   0  0  0  0  0  0  0  0  0  0  0  0
    1.2760    0.0000    0.0000 C   0  0  0  0  0  0  0  0  0  0  0  0
    0.3943    1.2135    0.0000 C   0  0  0  0  0  0  0  0  0  0  0  0
   -1.0323    0.7500    0.0000 C   0  0  0  0  0  0  0  0  0  0  0  0
   -1.0323   -0.7500    0.0000 C   0  0  0  0  0  0  0  0  0  0  0  0
    0.3943   -1.2135    0.0000 C   0  0  0  0  0  0  0  0  0  0  0  0
  1  2  3  0
  2  3  1  0
  3  4  1  0
  4  5  1  0
  5  6  2  0
  6  7  1  0
  7  3  1  0
M  END
>  <Title>  (74) 
idAABBgen7

$$$$

     RDKit          2D

 99 99  0  0  0  0  0  0  0  0999 V2000
   24.8998    0.0000    0.0000 C   0  0  0  0  0  0  0  0  0  0  0  0
   23.3998    0.0000    0.0000 C   0  0  0  0  0  0  0  0  0  0  0  0
   23.3517   -1.4992    0.0000 C   0  0  0  0  0  0  0  0  0  0  0  0
   23.2077   -2.9923    0.0000 C   0  0  0  0  0  0  0  0  0  0  0  0
   22.9683   -4.4731    0.0000 C   0  0  0  0  0  0  0  0  0  0  0  0
   22.6345   -5.9355    0.0000 C   0  0  0  0  0  0  0  0  0  0  0  0
   22.2077   -7.3735    0.0000 C   0  0  0  0  0  0  0  0  0  0  0  0
   21.6897   -8.7812    0.0000 C   0  0  0  0  0  0  0  0  0  0  0  0
   21.0825  -10.1528    0.0000 C   0  0  0  0  0  0  0  0  0  0  0  0
   20.3887  -11.4827    0.0000 C   0  0  0  0  0  0  0  0  0  0  0  0
   19.6111  -12.7654    0.0000 C   0  0  0  0  0  0  0  0  0  0  0  0
   18.7529  -13.9957    0.0000 C   0  0  0  0  0  0  0  0  0  0  0  0
   17.8177  -15.1684    0.0000 C   0  0  0  0  0  0  0  0  0  0  0  0
   16.8092  -16.2788    0.0000 C   0  0  0  0  0  0  0  0  0  0  0  0
   15.7317  -17.3223    0.0000 C   0  0  0  0  0  0  0  0  0  0  0  0
   14.5895  -18.2947    0.0000 C   0  0  0  0  0  0  0  0  0  0  0  0
   13.3874  -19.1919    0.0000 C   0  0  0  0  0  0  0  0  0  0  0  0
   12.1303  -20.0102    0.0000 C   0  0  0  0  0  0  0  0  0  0  0  0
   10.8233  -20.7462    0.0000 C   0  0  0  0  0  0  0  0  0  0  0  0
    9.4718  -21.3971    0.0000 C   0  0  0  0  0  0  0  0  0  0  0  0
    8.0815  -21.9600    0.0000 C   0  0  0  0  0  0  0  0  0  0  0  0
    6.6579  -22.4326    0.0000 C   0  0  0  0  0  0  0  0  0  0  0  0
    5.2069  -22.8131    0.0000 C   0  0  0  0  0  0  0  0  0  0  0  0
    3.7346  -23.0998    0.0000 C   0  0  0  0  0  0  0  0  0  0  0  0
    2.2469  -23.2917    0.0000 C   0  0  0  0  0  0  0  0  0  0  0  0
    0.7500  -23.3878    0.0000 C   0  0  0  0  0  0  0  0  0  0  0  0
   -0.7500  -23.3878    0.0000 C   0  0  0  0  0  0  0  0  0  0  0  0
   -2.2469  -23.2917    0.0000 C   0  0  0  0  0  0  0  0  0  0  0  0
   -3.7346  -23.0998    0.0000 C   0  0  0  0  0  0  0  0  0  0  0  0
   -5.2069  -22.8131    0.0000 C   0  0  0  0  0  0  0  0  0  0  0  0
   -6.6579  -22.4326    0.0000 C   0  0  0  0  0  0  0  0  0  0  0  0
   -8.0815  -21.9600    0.0000 C   0  0  0  0  0  0  0  0  0  0  0  0
   -9.4718  -21.3971    0.0000 C   0  0  0  0  0  0  0  0  0  0  0  0
  -10.8233  -20.7462    0.0000 C   0  0  0  0  0  0  0  0  0  0  0  0
  -12.1303  -20.0102    0.0000 C   0  0  0  0  0  0  0  0  0  0  0  0
  -13.3874  -19.1919    0.0000 C   0  0  0  0  0  0  0  0  0  0  0  0
  -14.5895  -18.2947    0.0000 C   0  0  0  0  0  0  0  0  0  0  0  0
  -15.7317  -17.3223    0.0000 C   0  0  0  0  0  0  0  0  0  0  0  0
  -16.8092  -16.2788    0.0000 C   0  0  0  0  0  0  0  0  0  0  0  0
  -17.8177  -15.1684    0.0000 C   0  0  0  0  0  0  0  0  0  0  0  0
  -18.7529  -13.9957    0.0000 C   0  0  0  0  0  0  0  0  0  0  0  0
  -19.6111  -12.7654    0.0000 C   0  0  0  0  0  0  0  0  0  0  0  0
  -20.3887  -11.4827    0.0000 C   0  0  0  0  0  0  0  0  0  0  0  0
  -21.0825  -10.1528    0.0000 C   0  0  0  0  0  0  0  0  0  0  0  0
  -21.6897   -8.7812    0.0000 C   0  0  0  0  0  0  0  0  0  0  0  0
  -22.2077   -7.3735    0.0000 C   0  0  0  0  0  0  0  0  0  0  0  0
  -22.6345   -5.9355    0.0000 C   0  0  0  0  0  0  0  0  0  0  0  0
  -22.9683   -4.4731    0.0000 C   0  0  0  0  0  0  0  0  0  0  0  0
  -23.2077   -2.9923    0.0000 C   0  0  0  0  0  0  0  0  0  0  0  0
  -23.3517   -1.4992    0.0000 C   0  0  0  0  0  0  0  0  0  0  0  0
  -23.3998    0.0000    0.0000 C   0  0  0  0  0  0  0  0  0  0  0  0
  -23.3517    1.4992    0.0000 C   0  0  0  0  0  0  0  0  0  0  0  0
  -23.2077    2.9923    0.0000 C   0  0  0  0  0  0  0  0  0  0  0  0
  -22.9683    4.4731    0.0000 C   0  0  0  0  0  0  0  0  0  0  0  0
  -22.6345    5.9355    0.0000 C   0  0  0  0  0  0  0  0  0  0  0  0
  -22.2077    7.3735    0.0000 C   0  0  0  0  0  0  0  0  0  0  0  0
  -21.6897    8.7812    0.0000 C   0  0  0  0  0  0  0  0  0  0  0  0
  -21.0825   10.1528    0.0000 C   0  0  0  0  0  0  0  0  0  0  0  0
  -20.3887   11.4827    0.0000 C   0  0  0  0  0  0  0  0  0  0  0  0
  -19.6111   12.7654    0.0000 C   0  0  0  0  0  0  0  0  0  0  0  0
  -18.7529   13.9957    0.0000 C   0  0  0  0  0  0  0  0  0  0  0  0
  -17.8177   15.1684    0.0000 C   0  0  0  0  0  0  0  0  0  0  0  0
  -16.8092   16.2788    0.0000 C   0  0  0  0  0  0  0  0  0  0  0  0
  -15.7317   17.3223    0.0000 C   0  0  0  0  0  0  0  0  0  0  0  0
  -14.5895   18.2947    0.0000 C   0  0  0  0  0  0  0  0  0  0  0  0
  -13.3874   19.1919    0.0000 C   0  0  0  0  0  0  0  0  0  0  0  0
  -12.1303   20.0102    0.0000 C   0  0  0  0  0  0  0  0  0  0  0  0
  -10.8233   20.7462    0.0000 C   0  0  0  0  0  0  0  0  0  0  0  0
   -9.4718   21.3971    0.0000 C   0  0  0  0  0  0  0  0  0  0  0  0
   -8.0815   21.9600    0.0000 C   0  0  0  0  0  0  0  0  0  0  0  0
   -6.6579   22.4326    0.0000 C   0  0  0  0  0  0  0  0  0  0  0  0
   -5.2069   22.8131    0.0000 C   0  0  0  0  0  0  0  0  0  0  0  0
   -3.7346   23.0998    0.0000 C   0  0  0  0  0  0  0  0  0  0  0  0
   -2.2469   23.2917    0.0000 C   0  0  0  0  0  0  0  0  0  0  0  0
   -0.7500   23.3878    0.0000 C   0  0  0  0  0  0  0  0  0  0  0  0
    0.7500   23.3878    0.0000 C   0  0  0  0  0  0  0  0  0  0  0  0
    2.2469   23.2917    0.0000 C   0  0  0  0  0  0  0  0  0  0  0  0
    3.7346   23.0998    0.0000 C   0  0  0  0  0  0  0  0  0  0  0  0
    5.2069   22.8131    0.0000 C   0  0  0  0  0  0  0  0  0  0  0  0
    6.6579   22.4326    0.0000 C   0  0  0  0  0  0  0  0  0  0  0  0
    8.0815   21.9600    0.0000 C   0  0  0  0  0  0  0  0  0  0  0  0
    9.4718   21.3971    0.0000 C   0  0  0  0  0  0  0  0  0  0  0  0
   10.8233   20.7462    0.0000 C   0  0  0  0  0  0  0  0  0  0  0  0
   12.1303   20.0102    0.0000 C   0  0  0  0  0  0  0  0  0  0  0  0
   13.3874   19.1919    0.0000 C   0  0  0  0  0  0  0  0  0  0  0  0
   14.5895   18.2947    0.0000 C   0  0  0  0  0  0  0  0  0  0  0  0
   15.7317   17.3223    0.0000 C   0  0  0  0  0  0  0  0  0  0  0  0
   16.8092   16.2788    0.0000 C   0  0  0  0  0  0  0  0  0  0  0  0
   17.8177   15.1684    0.0000 C   0  0  0  0  0  0  0  0  0  0  0  0
   18.7529   13.9957    0.0000 C   0  0  0  0  0  0  0  0  0  0  0  0
   19.6111   12.7654    0.0000 C   0  0  0  0  0  0  0  0  0  0  0  0
   20.3887   11.4827    0.0000 C   0  0  0  0  0  0  0  0  0  0  0  0
   21.0825   10.1528    0.0000 C   0  0  0  0  0  0  0  0  0  0  0  0
   21.6897    8.7812    0.0000 C   0  0  0  0  0  0  0  0  0  0  0  0
   22.2077    7.3735    0.0000 C   0  0  0  0  0  0  0  0  0  0  0  0
   22.6345    5.9355    0.0000 C   0  0  0  0  0  0  0  0  0  0  0  0
   22.9683    4.4731    0.0000 C   0  0  0  0  0  0  0  0  0  0  0  0
   23.2077    2.9923    0.0000 C   0  0  0  0  0  0  0  0  0  0  0  0
   23.3517    1.4992    0.0000 C   0  0  0  0  0  0  0  0  0  0  0  0
  1  2  1  0
  2  3  1  0
  3  4  2  0
  4  5  1  0
  5  6  2  0
  6  7  1  0
  7  8  2  0
  8  9  1  0
  9 10  2  0
 10 11  1  0
 11 12  2  0
 12 13  1  0
 13 14  2  0
 14 15  1  0
 15 16  1  0
 16 17  1  0
 17 18  1  0
 18 19  1  0
 19 20  1  0
 20 21  1  0
 21 22  1  0
 22 23  1  0
 23 24  1  0
 24 25  1  0
 25 26  1  0
 26 27  1  0
 27 28  1  0
 28 29  1  0
 29 30  1  0
 30 31  1  0
 31 32  1  0
 32 33  1  0
 33 34  1  0
 34 35  1  0
 35 36  1  0
 36 37  1  0
 37 38  1  0
 38 39  1  0
 39 40  1  0
 40 41  1  0
 41 42  1  0
 42 43  1  0
 43 44  1  0
 44 45  1  0
 45 46  1  0
 46 47  1  0
 47 48  1  0
 48 49  1  0
 49 50  1  0
 50 51  1  0
 51 52  1  0
 52 53  1  0
 53 54  1  0
 54 55  1  0
 55 56  1  0
 56 57  1  0
 57 58  1  0
 58 59  1  0
 59 60  1  0
 60 61  1  0
 61 62  1  0
 62 63  1  0
 63 64  1  0
 64 65  1  0
 65 66  1  0
 66 67  1  0
 67 68  1  0
 68 69  1  0
 69 70  1  0
 70 71  1  0
 71 72  1  0
 72 73  1  0
 73 74  1  0
 74 75  1  0
 75 76  1  0
 76 77  1  0
 77 78  1  0
 78 79  1  0
 79 80  1  0
 80 81  1  0
 81 82  1  0
 82 83  1  0
 83 84  1  0
 84 85  1  0
 85 86  1  0
 86 87  1  0
 87 88  1  0
 88 89  1  0
 89 90  1  0
 90 91  1  0
 91 92  1  0
 92 93  1  0
 93 94  1  0
 94 95  1  0
 95 96  1  0
 96 97  1  0
 97 98  1  0
 98 99  1  0
 99  2  1  0
M  END
>  <Title>  (75) 
idAABCgen7

$$$$

     RDKit          2D

 28 29  0  0  0  0  0  0  0  0999 V2000
    5.8191    0.0000    0.0000 C   0  0  0  0  0  0  0  0  0  0  0  0
    4.3191    0.0000    0.0000 C   0  0  0  0  0  0  0  0  0  0  0  0
    4.0586   -1.4772    0.0000 C   0  0  0  0  0  0  0  0  0  0  0  0
    3.3086   -2.7762    0.0000 C   0  0  0  0  0  0  0  0  0  0  0  0
    2.1595   -3.7404    0.0000 C   0  0  0  0  0  0  0  0  0  0  0  0
    0.7500   -4.2535    0.0000 C   0  0  0  0  0  0  0  0  0  0  0  0
   -0.7500   -4.2535    0.0000 C   0  0  0  0  0  0  0  0  0  0  0  0
   -2.1595   -3.7404    0.0000 C   0  0  0  0  0  0  0  0  0  0  0  0
   -3.3086   -2.7762    0.0000 C   0  0  0  0  0  0  0  0  0  0  0  0
   -4.0586   -1.4772    0.0000 C   0  0  0  0  0  0  0  0  0  0  0  0
   -4.3191    0.0000    0.0000 C   0  0  0  0  0  0  0  0  0  0  0  0
   -4.0586    1.4772    0.0000 C   0  0  0  0  0  0  0  0  0  0  0  0
   -3.3086    2.7762    0.0000 C   0  0  0  0  0  0  0  0  0  0  0  0
   -2.1595    3.7404    0.0000 C   0  0  0  0  0  0  0  0  0  0  0  0
   -0.7500    4.2535    0.0000 C   0  0  0  0  0  0  0  0  0  0  0  0
    0.7500    4.2535    0.0000 C   0  0  0  0  0  0  0  0  0  0  0  0
    2.1595    3.7404    0.0000 C   0  0  0  0  0  0  0  0  0  0  0  0
    3.3086    2.7762    0.0000 C   0  0  0  0  0  0  0  0  0  0  0  0
    4.4577    3.7404    0.0000 C   0  0  0  0  0  0  0  0  0  0  0  0
    4.1972    5.2176    0.0000 O   0  0  0  0  0  0  0  0  0  0  0  0
    5.8672    3.2274    0.0000 N   0  0  0  0  0  0  0  0  0  0  0  0
    7.0163    4.1916    0.0000 C   0  0  0  0  0  0  0  0  0  0  0  0
    8.4258    3.6786    0.0000 N   0  0  0  0  0  0  0  0  0  0  0  0
    9.5749    4.6427    0.0000 N   0  0  0  0  0  0  0  0  0  0  0  0
    9.3144    6.1199    0.0000 N   0  0  0  0  0  0  0  0  0  0  0  0
    7.9049    6.6330    0.0000 N   0  0  0  0  0  0  0  0  0  0  0  0
    6.7558    5.6688    0.0000 N   0  0  0  0  0  0  0  0  0  0  0  0
    4.0586    1.4772    0.0000 C   0  0  0  0  0  0  0  0  0  0  0  0
  1  2  1  0
  2  3  1  0
  3  4  1  0
  4  5  1  0
  5  6  1  0
  6  7  1  0
  7  8  1  0
  8  9  1  0
  9 10  1  0
 10 11  1  0
 11 12  1  0
 12 13  1  0
 13 14  1  0
 14 15  1  0
 15 16  1  0
 16 17  1  0
 17 18  1  0
 18 19  1  0
 19 20  2  0
 19 21  1  0
 21 22  1  0
 22 23  2  0
 23 24  1  0
 24 25  2  0
 25 26  1  0
 26 27  2  0
 18 28  1  0
 28  2  1  0
 27 22  1  0
M  END
>  <Title>  (76) 
idAABDgen7

$$$$

     RDKit          2D

 22 24  0  0  0  0  0  0  0  0999 V2000
   -2.5242   -4.8694    0.0000 C   0  0  0  0  0  0  0  0  0  0  0  0
   -1.3515   -3.9342    0.0000 C   0  0  0  0  0  0  0  0  0  0  0  0
   -0.0000   -4.5850    0.0000 C   0  0  0  0  0  0  0  0  0  0  0  0
    1.3515   -3.9342    0.0000 C   0  0  0  0  0  0  0  0  0  0  0  0
    1.6852   -2.4718    0.0000 C   0  0  0  0  0  0  0  0  0  0  0  0
    3.1476   -2.1380    0.0000 C   0  0  0  0  0  0  0  0  0  0  0  0
    3.5898   -0.7046    0.0000 O   0  0  0  0  0  0  0  0  0  0  0  0
    4.1679   -3.2376    0.0000 N   0  0  0  0  0  0  0  0  0  0  0  0
    5.6303   -2.9038    0.0000 C   0  0  0  0  0  0  0  0  0  0  0  0
    6.6505   -4.0034    0.0000 N   0  0  0  0  0  0  0  0  0  0  0  0
    8.1129   -3.6696    0.0000 N   0  0  0  0  0  0  0  0  0  0  0  0
    8.5551   -2.2362    0.0000 N   0  0  0  0  0  0  0  0  0  0  0  0
    7.5348   -1.1367    0.0000 N   0  0  0  0  0  0  0  0  0  0  0  0
    6.0724   -1.4704    0.0000 N   0  0  0  0  0  0  0  0  0  0  0  0
    0.7500   -1.2990    0.0000 C   0  0  0  0  0  0  0  0  0  0  0  0
    1.5000    0.0000    0.0000 C   0  0  0  0  0  0  0  0  0  0  0  0
    0.7500    1.2990    0.0000 C   0  0  0  0  0  0  0  0  0  0  0  0
   -0.7500    1.2990    0.0000 C   0  0  0  0  0  0  0  0  0  0  0  0
   -1.5000    0.0000    0.0000 C   0  0  0  0  0  0  0  0  0  0  0  0
   -0.7500   -1.2990    0.0000 C   0  0  0  0  0  0  0  0  0  0  0  0
   -1.6852   -2.4718    0.0000 C   0  0  0  0  0  0  0  0  0  0  0  0
   -3.1476   -2.1380    0.0000 O   0  0  0  0  0  0  0  0  0  0  0  0
  1  2  1  0
  2  3  1  0
  3  4  1  0
  4  5  1  0
  5  6  1  0
  6  7  2  0
  6  8  1  0
  8  9  1  0
  9 10  2  0
 10 11  1  0
 11 12  2  0
 12 13  1  0
 13 14  2  0
  5 15  1  0
 15 16  2  0
 16 17  1  0
 17 18  2  0
 18 19  1  0
 19 20  2  0
 20 21  1  0
 21 22  2  0
 21  2  1  0
 14  9  1  0
 20 15  1  0
M  END
>  <Title>  (77) 
idAABEgen7

$$$$

     RDKit          2D

 37 42  0  0  0  0  0  0  0  0999 V2000
   -1.1382   -8.3460    0.0000 C   0  0  0  0  0  0  0  0  0  0  0  0
   -0.7500   -6.8971    0.0000 C   0  0  0  0  0  0  0  0  0  0  0  0
    0.7500   -6.8971    0.0000 C   0  0  0  0  0  0  0  0  0  0  0  0
    2.0490   -6.1471    0.0000 C   0  0  0  0  0  0  0  0  0  0  0  0
    2.7990   -4.8481    0.0000 C   0  0  0  0  0  0  0  0  0  0  0  0
    4.2479   -5.2363    0.0000 C   0  0  0  0  0  0  0  0  0  0  0  0
    5.3086   -4.1756    0.0000 O   0  0  0  0  0  0  0  0  0  0  0  0
    4.6362   -6.6852    0.0000 N   0  0  0  0  0  0  0  0  0  0  0  0
    6.0850   -7.0734    0.0000 C   0  0  0  0  0  0  0  0  0  0  0  0
    6.4733   -8.5223    0.0000 N   0  0  0  0  0  0  0  0  0  0  0  0
    7.9222   -8.9105    0.0000 N   0  0  0  0  0  0  0  0  0  0  0  0
    8.9828   -7.8499    0.0000 N   0  0  0  0  0  0  0  0  0  0  0  0
    8.5946   -6.4010    0.0000 N   0  0  0  0  0  0  0  0  0  0  0  0
    7.1457   -6.0128    0.0000 N   0  0  0  0  0  0  0  0  0  0  0  0
    2.7990   -3.3481    0.0000 C   0  0  0  0  0  0  0  0  0  0  0  0
    4.2663   -3.0362    0.0000 C   0  0  0  0  0  0  0  0  0  0  0  0
    4.4231   -1.5444    0.0000 C   0  0  0  0  0  0  0  0  0  0  0  0
    3.0527   -0.9343    0.0000 C   0  0  0  0  0  0  0  0  0  0  0  0
    2.0490   -2.0490    0.0000 C   0  0  0  0  0  0  0  0  0  0  0  0
    0.7500   -1.2990    0.0000 C   0  0  0  0  0  0  0  0  0  0  0  0
    1.5000    0.0000    0.0000 C   0  0  0  0  0  0  0  0  0  0  0  0
    0.7500    1.2990    0.0000 C   0  0  0  0  0  0  0  0  0  0  0  0
   -0.7500    1.2990    0.0000 C   0  0  0  0  0  0  0  0  0  0  0  0
   -1.5000    0.0000    0.0000 C   0  0  0  0  0  0  0  0  0  0  0  0
   -0.7500   -1.2990    0.0000 C   0  0  0  0  0  0  0  0  0  0  0  0
   -2.0490   -2.0490    0.0000 C   0  0  0  0  0  0  0  0  0  0  0  0
   -2.7990   -0.7500    0.0000 C   0  0  0  0  0  0  0  0  0  0  0  0
   -4.2990   -0.7500    0.0000 C   0  0  0  0  0  0  0  0  0  0  0  0
   -5.0490   -2.0490    0.0000 C   0  0  0  0  0  0  0  0  0  0  0  0
   -4.2990   -3.3481    0.0000 C   0  0  0  0  0  0  0  0  0  0  0  0
   -2.7990   -3.3481    0.0000 C   0  0  0  0  0  0  0  0  0  0  0  0
   -2.7990   -4.8481    0.0000 C   0  0  0  0  0  0  0  0  0  0  0  0
   -4.2990   -4.8481    0.0000 C   0  0  0  0  0  0  0  0  0  0  0  0
   -5.0490   -6.1471    0.0000 C   0  0  0  0  0  0  0  0  0  0  0  0
   -4.2990   -7.4462    0.0000 C   0  0  0  0  0  0  0  0  0  0  0  0
   -2.7990   -7.4462    0.0000 C   0  0  0  0  0  0  0  0  0  0  0  0
   -2.0490   -6.1471    0.0000 C   0  0  0  0  0  0  0  0  0  0  0  0
  1  2  1  0
  2  3  1  0
  3  4  1  0
  4  5  1  0
  5  6  1  0
  6  7  2  0
  6  8  1  0
  8  9  1  0
  9 10  2  0
 10 11  1  0
 11 12  2  0
 12 13  1  0
 13 14  2  0
  5 15  1  0
 15 16  1  0
 16 17  1  0
 17 18  1  0
 18 19  2  0
 19 20  1  0
 20 21  2  0
 21 22  1  0
 22 23  2  0
 23 24  1  0
 24 25  2  0
 25 26  1  0
 26 27  2  0
 27 28  1  0
 28 29  2  0
 29 30  1  0
 30 31  2  0
 31 32  1  0
 32 33  2  0
 33 34  1  0
 34 35  2  0
 35 36  1  0
 36 37  2  0
 37  2  1  0
 14  9  1  0
 19 15  1  0
 25 20  1  0
 31 26  1  0
 37 32  1  0
M  END
>  <Title>  (78) 
idAABFgen7

$$$$

     RDKit          2D

 25 27  0  0  0  0  0  0  0  0999 V2000
   -0.7500   -3.8971    0.0000 O   0  0  0  0  0  0  0  0  0  0  0  0
    0.7500   -3.8971    0.0000 C   0  0  0  0  0  0  0  0  0  0  0  0
    1.5000   -5.1962    0.0000 N   0  0  0  0  0  0  0  0  0  0  0  0
    0.7500   -6.4952    0.0000 C   0  0  0  0  0  0  0  0  0  0  0  0
    1.3601   -7.8655    0.0000 C   0  0  0  0  0  0  0  0  0  0  0  0
    0.2454   -8.8692    0.0000 C   0  0  0  0  0  0  0  0  0  0  0  0
   -1.0537   -8.1192    0.0000 C   0  0  0  0  0  0  0  0  0  0  0  0
   -0.7418   -6.6520    0.0000 C   0  0  0  0  0  0  0  0  0  0  0  0
    1.5000   -2.5981    0.0000 C   0  0  0  0  0  0  0  0  0  0  0  0
    3.0000   -2.5981    0.0000 O   0  0  0  0  0  0  0  0  0  0  0  0
    0.7500   -1.2990    0.0000 N   0  0  0  0  0  0  0  0  0  0  0  0
    1.5000    0.0000    0.0000 C   0  0  0  0  0  0  0  0  0  0  0  0
    0.7500    1.2990    0.0000 C   0  0  0  0  0  0  0  0  0  0  0  0
   -0.7500    1.2990    0.0000 C   0  0  0  0  0  0  0  0  0  0  0  0
   -1.5000    2.5981    0.0000 C   0  0  0  0  0  0  0  0  0  0  0  0
   -3.0000    2.5981    0.0000 O   0  0  0  0  0  0  0  0  0  0  0  0
   -0.7500    3.8971    0.0000 N   0  0  0  0  0  0  0  0  0  0  0  0
   -1.5000    5.1962    0.0000 C   0  0  0  0  0  0  0  0  0  0  0  0
   -0.7500    6.4952    0.0000 C   0  0  0  0  0  0  0  0  0  0  0  0
   -1.5000    7.7942    0.0000 C   0  0  0  0  0  0  0  0  0  0  0  0
   -3.0000    7.7942    0.0000 C   0  0  0  0  0  0  0  0  0  0  0  0
   -3.7500    6.4952    0.0000 C   0  0  0  0  0  0  0  0  0  0  0  0
   -3.0000    5.1962    0.0000 C   0  0  0  0  0  0  0  0  0  0  0  0
   -1.5000    0.0000    0.0000 C   0  0  0  0  0  0  0  0  0  0  0  0
   -0.7500   -1.2990    0.0000 C   0  0  0  0  0  0  0  0  0  0  0  0
  1  2  2  0
  2  3  1  0
  3  4  1  0
  4  5  2  0
  5  6  1  0
  6  7  1  0
  7  8  1  0
  2  9  1  0
  9 10  2  0
  9 11  1  0
 11 12  1  0
 12 13  1  0
 13 14  1  0
 14 15  1  0
 15 16  2  0
 15 17  1  0
 17 18  1  0
 18 19  2  0
 19 20  1  0
 20 21  2  0
 21 22  1  0
 22 23  2  0
 14 24  1  0
 24 25  1  0
  8  4  1  0
 25 11  1  0
 23 18  1  0
M  END
>  <Title>  (79) 
idAABGgen7

$$$$

     RDKit          2D

 66 66  0  0  0  0  0  0  0  0999 V2000
   17.0237    0.0000    0.0000 C   0  0  0  0  0  0  0  0  0  0  0  0
   15.5237    0.0000    0.0000 C   0  0  0  0  0  0  0  0  0  0  0  0
   15.4512    1.4982    0.0000 C   0  0  0  0  0  0  0  0  0  0  0  0
   15.2344    2.9825    0.0000 C   0  0  0  0  0  0  0  0  0  0  0  0
   14.8755    4.4389    0.0000 C   0  0  0  0  0  0  0  0  0  0  0  0
   14.3776    5.8539    0.0000 C   0  0  0  0  0  0  0  0  0  0  0  0
   13.7455    7.2142    0.0000 C   0  0  0  0  0  0  0  0  0  0  0  0
   12.9851    8.5072    0.0000 C   0  0  0  0  0  0  0  0  0  0  0  0
   12.1034    9.7207    0.0000 C   0  0  0  0  0  0  0  0  0  0  0  0
   11.1087   10.8434    0.0000 C   0  0  0  0  0  0  0  0  0  0  0  0
   10.0103   11.8650    0.0000 C   0  0  0  0  0  0  0  0  0  0  0  0
    8.8184   12.7757    0.0000 C   0  0  0  0  0  0  0  0  0  0  0  0
    7.5442   13.5672    0.0000 C   0  0  0  0  0  0  0  0  0  0  0  0
    6.1996   14.2320    0.0000 C   0  0  0  0  0  0  0  0  0  0  0  0
    4.7971   14.7639    0.0000 C   0  0  0  0  0  0  0  0  0  0  0  0
    3.3498   15.1579    0.0000 C   0  0  0  0  0  0  0  0  0  0  0  0
    1.8712   15.4105    0.0000 C   0  0  0  0  0  0  0  0  0  0  0  0
    0.3751   15.5191    0.0000 C   0  0  0  0  0  0  0  0  0  0  0  0
   -1.1245   15.4829    0.0000 C   0  0  0  0  0  0  0  0  0  0  0  0
   -2.6135   15.3021    0.0000 C   0  0  0  0  0  0  0  0  0  0  0  0
   -4.0782   14.9784    0.0000 C   0  0  0  0  0  0  0  0  0  0  0  0
   -5.5048   14.5149    0.0000 C   0  0  0  0  0  0  0  0  0  0  0  0
   -6.8800   13.9158    0.0000 C   0  0  0  0  0  0  0  0  0  0  0  0
   -8.1909   13.1868    0.0000 C   0  0  0  0  0  0  0  0  0  0  0  0
   -9.4254   12.3347    0.0000 C   0  0  0  0  0  0  0  0  0  0  0  0
  -10.5719   11.3675    0.0000 C   0  0  0  0  0  0  0  0  0  0  0  0
  -11.6196   10.2941    0.0000 C   0  0  0  0  0  0  0  0  0  0  0  0
  -12.5589    9.1246    0.0000 C   0  0  0  0  0  0  0  0  0  0  0  0
  -13.3809    7.8699    0.0000 C   0  0  0  0  0  0  0  0  0  0  0  0
  -14.0780    6.5417    0.0000 C   0  0  0  0  0  0  0  0  0  0  0  0
  -14.6436    5.1524    0.0000 C   0  0  0  0  0  0  0  0  0  0  0  0
  -15.0726    3.7151    0.0000 C   0  0  0  0  0  0  0  0  0  0  0  0
  -15.3608    2.2430    0.0000 C   0  0  0  0  0  0  0  0  0  0  0  0
  -15.5055    0.7500    0.0000 C   0  0  0  0  0  0  0  0  0  0  0  0
  -15.5055   -0.7500    0.0000 C   0  0  0  0  0  0  0  0  0  0  0  0
  -15.3608   -2.2430    0.0000 C   0  0  0  0  0  0  0  0  0  0  0  0
  -15.0726   -3.7151    0.0000 C   0  0  0  0  0  0  0  0  0  0  0  0
  -14.6436   -5.1524    0.0000 C   0  0  0  0  0  0  0  0  0  0  0  0
  -14.0780   -6.5417    0.0000 C   0  0  0  0  0  0  0  0  0  0  0  0
  -13.3809   -7.8699    0.0000 C   0  0  0  0  0  0  0  0  0  0  0  0
  -12.5589   -9.1246    0.0000 C   0  0  0  0  0  0  0  0  0  0  0  0
  -11.6196  -10.2941    0.0000 C   0  0  0  0  0  0  0  0  0  0  0  0
  -10.5719  -11.3675    0.0000 C   0  0  0  0  0  0  0  0  0  0  0  0
   -9.4254  -12.3347    0.0000 C   0  0  0  0  0  0  0  0  0  0  0  0
   -8.1909  -13.1868    0.0000 C   0  0  0  0  0  0  0  0  0  0  0  0
   -6.8800  -13.9158    0.0000 C   0  0  0  0  0  0  0  0  0  0  0  0
   -5.5048  -14.5149    0.0000 C   0  0  0  0  0  0  0  0  0  0  0  0
   -4.0782  -14.9784    0.0000 C   0  0  0  0  0  0  0  0  0  0  0  0
   -2.6135  -15.3021    0.0000 C   0  0  0  0  0  0  0  0  0  0  0  0
   -1.1245  -15.4829    0.0000 C   0  0  0  0  0  0  0  0  0  0  0  0
    0.3751  -15.5191    0.0000 C   0  0  0  0  0  0  0  0  0  0  0  0
    1.8712  -15.4105    0.0000 C   0  0  0  0  0  0  0  0  0  0  0  0
    3.3498  -15.1579    0.0000 C   0  0  0  0  0  0  0  0  0  0  0  0
    4.7971  -14.7639    0.0000 C   0  0  0  0  0  0  0  0  0  0  0  0
    6.1996  -14.2320    0.0000 C   0  0  0  0  0  0  0  0  0  0  0  0
    7.5442  -13.5672    0.0000 C   0  0  0  0  0  0  0  0  0  0  0  0
    8.8184  -12.7757    0.0000 C   0  0  0  0  0  0  0  0  0  0  0  0
   10.0103  -11.8650    0.0000 C   0  0  0  0  0  0  0  0  0  0  0  0
   11.1087  -10.8434    0.0000 C   0  0  0  0  0  0  0  0  0  0  0  0
   12.1034   -9.7207    0.0000 C   0  0  0  0  0  0  0  0  0  0  0  0
   12.9851   -8.5072    0.0000 C   0  0  0  0  0  0  0  0  0  0  0  0
   13.7455   -7.2142    0.0000 C   0  0  0  0  0  0  0  0  0  0  0  0
   14.3776   -5.8539    0.0000 C   0  0  0  0  0  0  0  0  0  0  0  0
   14.8755   -4.4389    0.0000 C   0  0  0  0  0  0  0  0  0  0  0  0
   15.2344   -2.9825    0.0000 C   0  0  0  0  0  0  0  0  0  0  0  0
   15.4512   -1.4982    0.0000 C   0  0  0  0  0  0  0  0  0  0  0  0
  1  2  1  0
  2  3  1  0
  3  4  1  0
  4  5  1  0
  5  6  1  0
  6  7  1  0
  7  8  1  0
  8  9  1  0
  9 10  1  0
 10 11  1  0
 11 12  1  0
 12 13  1  0
 13 14  1  0
 14 15  1  0
 15 16  1  0
 16 17  1  0
 17 18  1  0
 18 19  1  0
 19 20  1  0
 20 21  1  0
 21 22  1  0
 22 23  1  0
 23 24  1  0
 24 25  1  0
 25 26  1  0
 26 27  1  0
 27 28  1  0
 28 29  1  0
 29 30  1  0
 30 31  1  0
 31 32  1  0
 32 33  1  0
 33 34  1  0
 34 35  1  0
 35 36  1  0
 36 37  1  0
 37 38  1  0
 38 39  1  0
 39 40  1  0
 40 41  1  0
 41 42  1  0
 42 43  1  0
 43 44  1  0
 44 45  1  0
 45 46  1  0
 46 47  1  0
 47 48  1  0
 48 49  1  0
 49 50  1  0
 50 51  1  0
 51 52  1  0
 52 53  1  0
 53 54  1  0
 54 55  1  0
 55 56  1  0
 56 57  1  0
 57 58  1  0
 58 59  1  0
 59 60  1  0
 60 61  1  0
 61 62  1  0
 62 63  1  0
 63 64  1  0
 64 65  1  0
 65 66  1  0
 66  2  1  0
M  END
>  <Title>  (80) 
idAABHgen7

$$$$

     RDKit          2D

 10 10  0  0  0  0  0  0  0  0999 V2000
    3.2286   -0.0000    0.0000 C   0  0  0  0  0  0  0  0  0  0  0  0
    1.7286    0.0000    0.0000 C   0  0  0  0  0  0  0  0  0  0  0  0
    1.0777    1.3515    0.0000 C   0  0  0  0  0  0  0  0  0  0  0  0
   -0.3846    1.6852    0.0000 C   0  0  0  0  0  0  0  0  0  0  0  0
   -1.5574    0.7500    0.0000 C   0  0  0  0  0  0  0  0  0  0  0  0
   -1.5574   -0.7500    0.0000 C   0  0  0  0  0  0  0  0  0  0  0  0
   -2.9088   -1.4008    0.0000 C   0  0  0  0  0  0  0  0  0  0  0  0
   -4.2603   -2.0517    0.0000 N   0  0  0  0  0  0  0  0  0  0  0  0
   -0.3846   -1.6852    0.0000 C   0  0  0  0  0  0  0  0  0  0  0  0
    1.0777   -1.3515    0.0000 C   0  0  0  0  0  0  0  0  0  0  0  0
  1  2  1  0
  2  3  1  0
  3  4  2  0
  4  5  1  0
  5  6  1  0
  6  7  1  0
  7  8  3  0
  6  9  1  0
  9 10  1  0
 10  2  1  0
M  END
>  <Title>  (81) 
idAABIgen7

$$$$

     RDKit          2D

 12 12  0  0  0  0  0  0  0  0999 V2000
    2.7760    0.0000    0.0000 C   0  0  0  0  0  0  0  0  0  0  0  0
    1.2760    0.0000    0.0000 C   0  0  0  0  0  0  0  0  0  0  0  0
    0.3943    1.2135    0.0000 C   0  0  0  0  0  0  0  0  0  0  0  0
   -1.0323    0.7500    0.0000 C   0  0  0  0  0  0  0  0  0  0  0  0
   -1.0323   -0.7500    0.0000 C   0  0  0  0  0  0  0  0  0  0  0  0
   -2.2458   -1.6317    0.0000 C   0  0  0  0  0  0  0  0  0  0  0  0
   -3.6161   -1.0216    0.0000 C   0  0  0  0  0  0  0  0  0  0  0  0
   -4.8297   -1.9033    0.0000 N   0  0  0  0  0  0  0  0  0  0  0  0
   -6.2000   -1.2931    0.0000 C   0  0  0  0  0  0  0  0  0  0  0  0
   -7.4135   -2.1748    0.0000 C   0  0  0  0  0  0  0  0  0  0  0  0
   -8.7838   -1.5647    0.0000 O   0  0  0  0  0  0  0  0  0  0  0  0
    0.3943   -1.2135    0.0000 C   0  0  0  0  0  0  0  0  0  0  0  0
  1  2  1  0
  2  3  2  0
  3  4  1  0
  4  5  2  0
  5  6  1  0
  6  7  1  0
  7  8  1  0
  8  9  1  0
  9 10  1  0
 10 11  2  0
  5 12  1  0
 12  2  1  0
M  END
>  <Title>  (82) 
idAABJgen7

$$$$

     RDKit          2D

 51 58  0  0  0  0  0  0  0  0999 V2000
    4.9965   -7.7991    0.0000 C   0  0  0  0  0  0  0  0  0  0  0  0
    3.6537   -7.1305    0.0000 C   0  0  0  0  0  0  0  0  0  0  0  0
    4.0642   -5.6878    0.0000 C   0  0  0  0  0  0  0  0  0  0  0  0
    3.9258   -4.1942    0.0000 C   0  0  0  0  0  0  0  0  0  0  0  0
    3.2572   -2.8514    0.0000 C   0  0  0  0  0  0  0  0  0  0  0  0
    2.1487   -1.8409    0.0000 C   0  0  0  0  0  0  0  0  0  0  0  0
    2.9384   -0.5656    0.0000 C   0  0  0  0  0  0  0  0  0  0  0  0
    2.2287    0.7559    0.0000 O   0  0  0  0  0  0  0  0  0  0  0  0
    4.4376   -0.6118    0.0000 N   0  0  0  0  0  0  0  0  0  0  0  0
    5.2273    0.6636    0.0000 C   0  0  0  0  0  0  0  0  0  0  0  0
    6.7266    0.6174    0.0000 N   0  0  0  0  0  0  0  0  0  0  0  0
    7.5162    1.8927    0.0000 N   0  0  0  0  0  0  0  0  0  0  0  0
    6.8066    3.2142    0.0000 N   0  0  0  0  0  0  0  0  0  0  0  0
    5.3073    3.2604    0.0000 N   0  0  0  0  0  0  0  0  0  0  0  0
    4.5177    1.9851    0.0000 N   0  0  0  0  0  0  0  0  0  0  0  0
    0.7500   -1.2990    0.0000 C   0  0  0  0  0  0  0  0  0  0  0  0
    1.5000    0.0000    0.0000 C   0  0  0  0  0  0  0  0  0  0  0  0
    0.7500    1.2990    0.0000 C   0  0  0  0  0  0  0  0  0  0  0  0
   -0.7500    1.2990    0.0000 C   0  0  0  0  0  0  0  0  0  0  0  0
   -1.5000    0.0000    0.0000 C   0  0  0  0  0  0  0  0  0  0  0  0
   -0.7500   -1.2990    0.0000 C   0  0  0  0  0  0  0  0  0  0  0  0
   -2.1487   -1.8409    0.0000 C   0  0  0  0  0  0  0  0  0  0  0  0
   -2.4696   -0.3756    0.0000 C   0  0  0  0  0  0  0  0  0  0  0  0
   -3.8990    0.0791    0.0000 C   0  0  0  0  0  0  0  0  0  0  0  0
   -5.0075   -0.9314    0.0000 C   0  0  0  0  0  0  0  0  0  0  0  0
   -4.6866   -2.3967    0.0000 C   0  0  0  0  0  0  0  0  0  0  0  0
   -3.2572   -2.8514    0.0000 C   0  0  0  0  0  0  0  0  0  0  0  0
   -3.9258   -4.1942    0.0000 C   0  0  0  0  0  0  0  0  0  0  0  0
   -5.1501   -3.3275    0.0000 C   0  0  0  0  0  0  0  0  0  0  0  0
   -6.5128   -3.9545    0.0000 C   0  0  0  0  0  0  0  0  0  0  0  0
   -6.6512   -5.4481    0.0000 C   0  0  0  0  0  0  0  0  0  0  0  0
   -5.4269   -6.3147    0.0000 C   0  0  0  0  0  0  0  0  0  0  0  0
   -4.0642   -5.6878    0.0000 C   0  0  0  0  0  0  0  0  0  0  0  0
   -3.6537   -7.1305    0.0000 C   0  0  0  0  0  0  0  0  0  0  0  0
   -5.1424   -7.3149    0.0000 C   0  0  0  0  0  0  0  0  0  0  0  0
   -5.7270   -8.6962    0.0000 C   0  0  0  0  0  0  0  0  0  0  0  0
   -4.8231   -9.8932    0.0000 C   0  0  0  0  0  0  0  0  0  0  0  0
   -3.3345   -9.7089    0.0000 C   0  0  0  0  0  0  0  0  0  0  0  0
   -2.7498   -8.3276    0.0000 C   0  0  0  0  0  0  0  0  0  0  0  0
   -1.4745   -9.1172    0.0000 C   0  0  0  0  0  0  0  0  0  0  0  0
   -2.4504  -10.2563    0.0000 C   0  0  0  0  0  0  0  0  0  0  0  0
   -1.9519  -11.6710    0.0000 C   0  0  0  0  0  0  0  0  0  0  0  0
   -0.4774  -11.9467    0.0000 C   0  0  0  0  0  0  0  0  0  0  0  0
    0.4985  -10.8076    0.0000 C   0  0  0  0  0  0  0  0  0  0  0  0
   -0.0000   -9.3928    0.0000 C   0  0  0  0  0  0  0  0  0  0  0  0
    1.4745   -9.1172    0.0000 C   0  0  0  0  0  0  0  0  0  0  0  0
    1.5207  -10.6165    0.0000 C   0  0  0  0  0  0  0  0  0  0  0  0
    2.8422  -11.3261    0.0000 C   0  0  0  0  0  0  0  0  0  0  0  0
    4.1175  -10.5365    0.0000 C   0  0  0  0  0  0  0  0  0  0  0  0
    4.0713   -9.0372    0.0000 C   0  0  0  0  0  0  0  0  0  0  0  0
    2.7498   -8.3276    0.0000 C   0  0  0  0  0  0  0  0  0  0  0  0
  1  2  1  0
  2  3  2  0
  3  4  1  0
  4  5  1  0
  5  6  1  0
  6  7  1  0
  7  8  2  0
  7  9  1  0
  9 10  1  0
 10 11  2  0
 11 12  1  0
 12 13  2  0
 13 14  1  0
 14 15  2  0
  6 16  1  0
 16 17  2  0
 17 18  1  0
 18 19  2  0
 19 20  1  0
 20 21  2  0
 21 22  1  0
 22 23  2  0
 23 24  1  0
 24 25  2  0
 25 26  1  0
 26 27  2  0
 27 28  1  0
 28 29  2  0
 29 30  1  0
 30 31  2  0
 31 32  1  0
 32 33  2  0
 33 34  1  0
 34 35  2  0
 35 36  1  0
 36 37  2  0
 37 38  1  0
 38 39  2  0
 39 40  1  0
 40 41  2  0
 41 42  1  0
 42 43  2  0
 43 44  1  0
 44 45  2  0
 45 46  1  0
 46 47  2  0
 47 48  1  0
 48 49  2  0
 49 50  1  0
 50 51  2  0
 51  2  1  0
 15 10  1  0
 21 16  1  0
 27 22  1  0
 33 28  1  0
 39 34  1  0
 45 40  1  0
 51 46  1  0
M  END
>  <Title>  (83) 
idAABKgen7

$$$$

     RDKit          2D

 32 36  0  0  0  0  0  0  0  0999 V2000
   -1.3240   -6.3062    0.0000 C   0  0  0  0  0  0  0  0  0  0  0  0
   -0.7500   -4.9204    0.0000 C   0  0  0  0  0  0  0  0  0  0  0  0
    0.7500   -4.9204    0.0000 C   0  0  0  0  0  0  0  0  0  0  0  0
    1.8107   -3.8597    0.0000 C   0  0  0  0  0  0  0  0  0  0  0  0
    1.8107   -2.3597    0.0000 C   0  0  0  0  0  0  0  0  0  0  0  0
    3.1965   -1.7857    0.0000 C   0  0  0  0  0  0  0  0  0  0  0  0
    3.3923   -0.2985    0.0000 O   0  0  0  0  0  0  0  0  0  0  0  0
    4.3865   -2.6988    0.0000 N   0  0  0  0  0  0  0  0  0  0  0  0
    5.7723   -2.1248    0.0000 C   0  0  0  0  0  0  0  0  0  0  0  0
    6.1225   -0.6662    0.0000 N   0  0  0  0  0  0  0  0  0  0  0  0
    7.6179   -0.5485    0.0000 N   0  0  0  0  0  0  0  0  0  0  0  0
    8.1919   -1.9344    0.0000 N   0  0  0  0  0  0  0  0  0  0  0  0
    7.0513   -2.9085    0.0000 N   0  0  0  0  0  0  0  0  0  0  0  0
    7.1690   -4.4039    0.0000 N   0  0  0  0  0  0  0  0  0  0  0  0
    5.9328   -5.2535    0.0000 C   0  0  0  0  0  0  0  0  0  0  0  0
    6.0505   -6.7489    0.0000 C   0  0  0  0  0  0  0  0  0  0  0  0
    7.4044   -7.3947    0.0000 C   0  0  0  0  0  0  0  0  0  0  0  0
    7.5220   -8.8900    0.0000 Cl  0  0  0  0  0  0  0  0  0  0  0  0
    8.6405   -6.5451    0.0000 C   0  0  0  0  0  0  0  0  0  0  0  0
    8.5229   -5.0497    0.0000 C   0  0  0  0  0  0  0  0  0  0  0  0
    0.7500   -1.2990    0.0000 C   0  0  0  0  0  0  0  0  0  0  0  0
    1.5000    0.0000    0.0000 C   0  0  0  0  0  0  0  0  0  0  0  0
    0.7500    1.2990    0.0000 C   0  0  0  0  0  0  0  0  0  0  0  0
   -0.7500    1.2990    0.0000 C   0  0  0  0  0  0  0  0  0  0  0  0
   -1.5000    0.0000    0.0000 C   0  0  0  0  0  0  0  0  0  0  0  0
   -0.7500   -1.2990    0.0000 C   0  0  0  0  0  0  0  0  0  0  0  0
   -1.8107   -2.3597    0.0000 C   0  0  0  0  0  0  0  0  0  0  0  0
   -3.1097   -1.6097    0.0000 C   0  0  0  0  0  0  0  0  0  0  0  0
   -4.4087   -2.3597    0.0000 C   0  0  0  0  0  0  0  0  0  0  0  0
   -4.4087   -3.8597    0.0000 C   0  0  0  0  0  0  0  0  0  0  0  0
   -3.1097   -4.6097    0.0000 C   0  0  0  0  0  0  0  0  0  0  0  0
   -1.8107   -3.8597    0.0000 C   0  0  0  0  0  0  0  0  0  0  0  0
  1  2  1  0
  2  3  1  0
  3  4  1  0
  4  5  1  0
  5  6  1  0
  6  7  2  0
  6  8  1  0
  8  9  1  0
  9 10  2  0
 10 11  1  0
 11 12  2  0
 12 13  1  0
 13 14  1  0
 14 15  1  0
 15 16  1  0
 16 17  1  0
 17 18  1  0
 17 19  1  0
 19 20  1  0
  5 21  1  0
 21 22  2  0
 22 23  1  0
 23 24  2  0
 24 25  1  0
 25 26  2  0
 26 27  1  0
 27 28  2  0
 28 29  1  0
 29 30  2  0
 30 31  1  0
 31 32  2  0
 32  2  1  0
 13  9  1  0
 20 14  1  0
 26 21  1  0
 32 27  1  0
M  END
>  <Title>  (84) 
idAABLgen7

$$$$

     RDKit          2D

 93 93  0  0  0  0  0  0  0  0999 V2000
   23.4677   -0.0000    0.0000 C   0  0  0  0  0  0  0  0  0  0  0  0
   21.9677    0.0000    0.0000 C   0  0  0  0  0  0  0  0  0  0  0  0
   21.9164   -1.4991    0.0000 C   0  0  0  0  0  0  0  0  0  0  0  0
   21.7630   -2.9913    0.0000 C   0  0  0  0  0  0  0  0  0  0  0  0
   21.5082   -4.4695    0.0000 C   0  0  0  0  0  0  0  0  0  0  0  0
   21.1530   -5.9268    0.0000 C   0  0  0  0  0  0  0  0  0  0  0  0
   20.6993   -7.3565    0.0000 C   0  0  0  0  0  0  0  0  0  0  0  0
   20.1490   -8.7519    0.0000 C   0  0  0  0  0  0  0  0  0  0  0  0
   19.5048  -10.1065    0.0000 C   0  0  0  0  0  0  0  0  0  0  0  0
   18.7696  -11.4140    0.0000 C   0  0  0  0  0  0  0  0  0  0  0  0
   17.9469  -12.6683    0.0000 C   0  0  0  0  0  0  0  0  0  0  0  0
   17.0406  -13.8635    0.0000 C   0  0  0  0  0  0  0  0  0  0  0  0
   16.0547  -14.9941    0.0000 C   0  0  0  0  0  0  0  0  0  0  0  0
   14.9941  -16.0547    0.0000 C   0  0  0  0  0  0  0  0  0  0  0  0
   13.8635  -17.0406    0.0000 C   0  0  0  0  0  0  0  0  0  0  0  0
   12.6683  -17.9469    0.0000 C   0  0  0  0  0  0  0  0  0  0  0  0
   11.4140  -18.7696    0.0000 C   0  0  0  0  0  0  0  0  0  0  0  0
   10.1065  -19.5048    0.0000 C   0  0  0  0  0  0  0  0  0  0  0  0
    8.7519  -20.1490    0.0000 C   0  0  0  0  0  0  0  0  0  0  0  0
    7.3565  -20.6993    0.0000 C   0  0  0  0  0  0  0  0  0  0  0  0
    5.9268  -21.1530    0.0000 C   0  0  0  0  0  0  0  0  0  0  0  0
    4.4695  -21.5082    0.0000 C   0  0  0  0  0  0  0  0  0  0  0  0
    2.9913  -21.7630    0.0000 C   0  0  0  0  0  0  0  0  0  0  0  0
    1.4991  -21.9164    0.0000 C   0  0  0  0  0  0  0  0  0  0  0  0
   -0.0000  -21.9677    0.0000 C   0  0  0  0  0  0  0  0  0  0  0  0
   -1.4991  -21.9164    0.0000 C   0  0  0  0  0  0  0  0  0  0  0  0
   -2.9913  -21.7630    0.0000 C   0  0  0  0  0  0  0  0  0  0  0  0
   -4.4695  -21.5082    0.0000 C   0  0  0  0  0  0  0  0  0  0  0  0
   -5.9268  -21.1530    0.0000 C   0  0  0  0  0  0  0  0  0  0  0  0
   -7.3565  -20.6993    0.0000 C   0  0  0  0  0  0  0  0  0  0  0  0
   -8.7519  -20.1490    0.0000 C   0  0  0  0  0  0  0  0  0  0  0  0
  -10.1065  -19.5048    0.0000 C   0  0  0  0  0  0  0  0  0  0  0  0
  -11.4140  -18.7696    0.0000 C   0  0  0  0  0  0  0  0  0  0  0  0
  -12.6683  -17.9469    0.0000 C   0  0  0  0  0  0  0  0  0  0  0  0
  -13.8635  -17.0406    0.0000 C   0  0  0  0  0  0  0  0  0  0  0  0
  -14.9941  -16.0547    0.0000 C   0  0  0  0  0  0  0  0  0  0  0  0
  -16.0547  -14.9941    0.0000 C   0  0  0  0  0  0  0  0  0  0  0  0
  -17.0406  -13.8635    0.0000 C   0  0  0  0  0  0  0  0  0  0  0  0
  -17.9469  -12.6683    0.0000 C   0  0  0  0  0  0  0  0  0  0  0  0
  -18.7696  -11.4140    0.0000 C   0  0  0  0  0  0  0  0  0  0  0  0
  -19.5048  -10.1065    0.0000 C   0  0  0  0  0  0  0  0  0  0  0  0
  -20.1490   -8.7519    0.0000 C   0  0  0  0  0  0  0  0  0  0  0  0
  -20.6993   -7.3565    0.0000 C   0  0  0  0  0  0  0  0  0  0  0  0
  -21.1530   -5.9268    0.0000 C   0  0  0  0  0  0  0  0  0  0  0  0
  -21.5082   -4.4695    0.0000 C   0  0  0  0  0  0  0  0  0  0  0  0
  -21.7630   -2.9913    0.0000 C   0  0  0  0  0  0  0  0  0  0  0  0
  -21.9164   -1.4991    0.0000 C   0  0  0  0  0  0  0  0  0  0  0  0
  -21.9677    0.0000    0.0000 C   0  0  0  0  0  0  0  0  0  0  0  0
  -21.9164    1.4991    0.0000 C   0  0  0  0  0  0  0  0  0  0  0  0
  -21.7630    2.9913    0.0000 C   0  0  0  0  0  0  0  0  0  0  0  0
  -21.5082    4.4695    0.0000 C   0  0  0  0  0  0  0  0  0  0  0  0
  -21.1530    5.9268    0.0000 C   0  0  0  0  0  0  0  0  0  0  0  0
  -20.6993    7.3565    0.0000 C   0  0  0  0  0  0  0  0  0  0  0  0
  -20.1490    8.7519    0.0000 C   0  0  0  0  0  0  0  0  0  0  0  0
  -19.5048   10.1065    0.0000 C   0  0  0  0  0  0  0  0  0  0  0  0
  -18.7696   11.4140    0.0000 C   0  0  0  0  0  0  0  0  0  0  0  0
  -17.9469   12.6683    0.0000 C   0  0  0  0  0  0  0  0  0  0  0  0
  -17.0406   13.8635    0.0000 C   0  0  0  0  0  0  0  0  0  0  0  0
  -16.0547   14.9941    0.0000 C   0  0  0  0  0  0  0  0  0  0  0  0
  -14.9941   16.0547    0.0000 C   0  0  0  0  0  0  0  0  0  0  0  0
  -13.8635   17.0406    0.0000 C   0  0  0  0  0  0  0  0  0  0  0  0
  -12.6683   17.9469    0.0000 C   0  0  0  0  0  0  0  0  0  0  0  0
  -11.4140   18.7696    0.0000 C   0  0  0  0  0  0  0  0  0  0  0  0
  -10.1065   19.5048    0.0000 C   0  0  0  0  0  0  0  0  0  0  0  0
   -8.7519   20.1490    0.0000 C   0  0  0  0  0  0  0  0  0  0  0  0
   -7.3565   20.6993    0.0000 C   0  0  0  0  0  0  0  0  0  0  0  0
   -5.9268   21.1530    0.0000 C   0  0  0  0  0  0  0  0  0  0  0  0
   -4.4695   21.5082    0.0000 C   0  0  0  0  0  0  0  0  0  0  0  0
   -2.9913   21.7630    0.0000 C   0  0  0  0  0  0  0  0  0  0  0  0
   -1.4991   21.9164    0.0000 C   0  0  0  0  0  0  0  0  0  0  0  0
    0.0000   21.9677    0.0000 C   0  0  0  0  0  0  0  0  0  0  0  0
    1.4991   21.9164    0.0000 C   0  0  0  0  0  0  0  0  0  0  0  0
    2.9913   21.7630    0.0000 C   0  0  0  0  0  0  0  0  0  0  0  0
    4.4695   21.5082    0.0000 C   0  0  0  0  0  0  0  0  0  0  0  0
    5.9268   21.1530    0.0000 C   0  0  0  0  0  0  0  0  0  0  0  0
    7.3565   20.6993    0.0000 C   0  0  0  0  0  0  0  0  0  0  0  0
    8.7519   20.1490    0.0000 C   0  0  0  0  0  0  0  0  0  0  0  0
   10.1065   19.5048    0.0000 C   0  0  0  0  0  0  0  0  0  0  0  0
   11.4140   18.7696    0.0000 C   0  0  0  0  0  0  0  0  0  0  0  0
   12.6683   17.9469    0.0000 C   0  0  0  0  0  0  0  0  0  0  0  0
   13.8635   17.0406    0.0000 C   0  0  0  0  0  0  0  0  0  0  0  0
   14.9941   16.0547    0.0000 C   0  0  0  0  0  0  0  0  0  0  0  0
   16.0547   14.9941    0.0000 C   0  0  0  0  0  0  0  0  0  0  0  0
   17.0406   13.8635    0.0000 C   0  0  0  0  0  0  0  0  0  0  0  0
   17.9469   12.6683    0.0000 C   0  0  0  0  0  0  0  0  0  0  0  0
   18.7696   11.4140    0.0000 C   0  0  0  0  0  0  0  0  0  0  0  0
   19.5048   10.1065    0.0000 C   0  0  0  0  0  0  0  0  0  0  0  0
   20.1490    8.7519    0.0000 C   0  0  0  0  0  0  0  0  0  0  0  0
   20.6993    7.3565    0.0000 C   0  0  0  0  0  0  0  0  0  0  0  0
   21.1530    5.9268    0.0000 C   0  0  0  0  0  0  0  0  0  0  0  0
   21.5082    4.4695    0.0000 C   0  0  0  0  0  0  0  0  0  0  0  0
   21.7630    2.9913    0.0000 C   0  0  0  0  0  0  0  0  0  0  0  0
   21.9164    1.4991    0.0000 C   0  0  0  0  0  0  0  0  0  0  0  0
  1  2  1  0
  2  3  1  0
  3  4  1  0
  4  5  1  0
  5  6  1  0
  6  7  1  0
  7  8  1  0
  8  9  1  0
  9 10  1  0
 10 11  1  0
 11 12  1  0
 12 13  1  0
 13 14  1  0
 14 15  1  0
 15 16  1  0
 16 17  1  0
 17 18  1  0
 18 19  1  0
 19 20  1  0
 20 21  1  0
 21 22  1  0
 22 23  1  0
 23 24  1  0
 24 25  1  0
 25 26  1  0
 26 27  1  0
 27 28  1  0
 28 29  1  0
 29 30  1  0
 30 31  1  0
 31 32  1  0
 32 33  1  0
 33 34  1  0
 34 35  1  0
 35 36  1  0
 36 37  1  0
 37 38  1  0
 38 39  1  0
 39 40  1  0
 40 41  1  0
 41 42  1  0
 42 43  1  0
 43 44  1  0
 44 45  1  0
 45 46  1  0
 46 47  1  0
 47 48  1  0
 48 49  1  0
 49 50  1  0
 50 51  1  0
 51 52  1  0
 52 53  1  0
 53 54  1  0
 54 55  1  0
 55 56  1  0
 56 57  1  0
 57 58  1  0
 58 59  1  0
 59 60  1  0
 60 61  1  0
 61 62  1  0
 62 63  1  0
 63 64  1  0
 64 65  1  0
 65 66  1  0
 66 67  1  0
 67 68  1  0
 68 69  1  0
 69 70  1  0
 70 71  1  0
 71 72  1  0
 72 73  1  0
 73 74  1  0
 74 75  1  0
 75 76  1  0
 76 77  1  0
 77 78  1  0
 78 79  1  0
 79 80  1  0
 80 81  1  0
 81 82  1  0
 82 83  1  0
 83 84  1  0
 84 85  1  0
 85 86  1  0
 86 87  1  0
 87 88  1  0
 88 89  1  0
 89 90  1  0
 90 91  1  0
 91 92  1  0
 92 93  1  0
 93  2  1  0
M  END
>  <Title>  (85) 
idAABMgen7

$$$$

     RDKit          2D

114114  0  0  0  0  0  0  0  0999 V2000
   27.2189    0.0000    0.0000 C   0  0  0  0  0  0  0  0  0  0  0  0
   27.1776   -1.4994    0.0000 C   0  0  0  0  0  0  0  0  0  0  0  0
   27.0537   -2.9943    0.0000 C   0  0  0  0  0  0  0  0  0  0  0  0
   26.8477   -4.4801    0.0000 C   0  0  0  0  0  0  0  0  0  0  0  0
   26.5601   -5.9523    0.0000 C   0  0  0  0  0  0  0  0  0  0  0  0
   26.1919   -7.4064    0.0000 C   0  0  0  0  0  0  0  0  0  0  0  0
   25.7441   -8.8380    0.0000 C   0  0  0  0  0  0  0  0  0  0  0  0
   25.2182  -10.2427    0.0000 C   0  0  0  0  0  0  0  0  0  0  0  0
   24.6156  -11.6164    0.0000 C   0  0  0  0  0  0  0  0  0  0  0  0
   23.9383  -12.9548    0.0000 C   0  0  0  0  0  0  0  0  0  0  0  0
   23.1883  -14.2538    0.0000 C   0  0  0  0  0  0  0  0  0  0  0  0
   22.3679  -15.5096    0.0000 C   0  0  0  0  0  0  0  0  0  0  0  0
   21.4796  -16.7182    0.0000 C   0  0  0  0  0  0  0  0  0  0  0  0
   20.5260  -17.8761    0.0000 C   0  0  0  0  0  0  0  0  0  0  0  0
   19.5101  -18.9797    0.0000 C   0  0  0  0  0  0  0  0  0  0  0  0
   18.4349  -20.0256    0.0000 C   0  0  0  0  0  0  0  0  0  0  0  0
   17.3037  -21.0108    0.0000 C   0  0  0  0  0  0  0  0  0  0  0  0
   16.1200  -21.9321    0.0000 C   0  0  0  0  0  0  0  0  0  0  0  0
   14.8873  -22.7868    0.0000 C   0  0  0  0  0  0  0  0  0  0  0  0
   13.6095  -23.5723    0.0000 C   0  0  0  0  0  0  0  0  0  0  0  0
   12.2903  -24.2862    0.0000 C   0  0  0  0  0  0  0  0  0  0  0  0
   10.9337  -24.9264    0.0000 C   0  0  0  0  0  0  0  0  0  0  0  0
    9.5440  -25.4908    0.0000 C   0  0  0  0  0  0  0  0  0  0  0  0
    8.1253  -25.9779    0.0000 C   0  0  0  0  0  0  0  0  0  0  0  0
    6.6819  -26.3860    0.0000 C   0  0  0  0  0  0  0  0  0  0  0  0
    5.2182  -26.7141    0.0000 C   0  0  0  0  0  0  0  0  0  0  0  0
    3.7386  -26.9610    0.0000 C   0  0  0  0  0  0  0  0  0  0  0  0
    2.2477  -27.1260    0.0000 C   0  0  0  0  0  0  0  0  0  0  0  0
    0.7500  -27.2086    0.0000 C   0  0  0  0  0  0  0  0  0  0  0  0
   -0.7500  -27.2086    0.0000 C   0  0  0  0  0  0  0  0  0  0  0  0
   -2.2477  -27.1260    0.0000 C   0  0  0  0  0  0  0  0  0  0  0  0
   -3.7386  -26.9610    0.0000 C   0  0  0  0  0  0  0  0  0  0  0  0
   -5.2182  -26.7141    0.0000 C   0  0  0  0  0  0  0  0  0  0  0  0
   -6.6819  -26.3860    0.0000 C   0  0  0  0  0  0  0  0  0  0  0  0
   -8.1253  -25.9779    0.0000 C   0  0  0  0  0  0  0  0  0  0  0  0
   -9.5440  -25.4908    0.0000 C   0  0  0  0  0  0  0  0  0  0  0  0
  -10.9337  -24.9264    0.0000 C   0  0  0  0  0  0  0  0  0  0  0  0
  -12.2903  -24.2862    0.0000 C   0  0  0  0  0  0  0  0  0  0  0  0
  -13.6095  -23.5723    0.0000 C   0  0  0  0  0  0  0  0  0  0  0  0
  -14.8873  -22.7868    0.0000 C   0  0  0  0  0  0  0  0  0  0  0  0
  -16.1200  -21.9321    0.0000 C   0  0  0  0  0  0  0  0  0  0  0  0
  -17.3037  -21.0108    0.0000 C   0  0  0  0  0  0  0  0  0  0  0  0
  -18.4349  -20.0256    0.0000 C   0  0  0  0  0  0  0  0  0  0  0  0
  -19.5101  -18.9797    0.0000 C   0  0  0  0  0  0  0  0  0  0  0  0
  -20.5260  -17.8761    0.0000 C   0  0  0  0  0  0  0  0  0  0  0  0
  -21.4796  -16.7182    0.0000 C   0  0  0  0  0  0  0  0  0  0  0  0
  -22.3679  -15.5096    0.0000 C   0  0  0  0  0  0  0  0  0  0  0  0
  -23.1883  -14.2538    0.0000 C   0  0  0  0  0  0  0  0  0  0  0  0
  -23.9383  -12.9548    0.0000 C   0  0  0  0  0  0  0  0  0  0  0  0
  -24.6156  -11.6164    0.0000 C   0  0  0  0  0  0  0  0  0  0  0  0
  -25.2182  -10.2427    0.0000 C   0  0  0  0  0  0  0  0  0  0  0  0
  -25.7441   -8.8380    0.0000 C   0  0  0  0  0  0  0  0  0  0  0  0
  -26.1919   -7.4064    0.0000 C   0  0  0  0  0  0  0  0  0  0  0  0
  -26.5601   -5.9523    0.0000 C   0  0  0  0  0  0  0  0  0  0  0  0
  -26.8477   -4.4801    0.0000 C   0  0  0  0  0  0  0  0  0  0  0  0
  -27.0537   -2.9943    0.0000 C   0  0  0  0  0  0  0  0  0  0  0  0
  -27.1776   -1.4994    0.0000 C   0  0  0  0  0  0  0  0  0  0  0  0
  -27.2189    0.0000    0.0000 C   0  0  0  0  0  0  0  0  0  0  0  0
  -27.1776    1.4994    0.0000 C   0  0  0  0  0  0  0  0  0  0  0  0
  -27.0537    2.9943    0.0000 C   0  0  0  0  0  0  0  0  0  0  0  0
  -26.8477    4.4801    0.0000 C   0  0  0  0  0  0  0  0  0  0  0  0
  -26.5601    5.9523    0.0000 C   0  0  0  0  0  0  0  0  0  0  0  0
  -26.1919    7.4064    0.0000 C   0  0  0  0  0  0  0  0  0  0  0  0
  -25.7441    8.8380    0.0000 C   0  0  0  0  0  0  0  0  0  0  0  0
  -25.2182   10.2427    0.0000 C   0  0  0  0  0  0  0  0  0  0  0  0
  -24.6156   11.6164    0.0000 C   0  0  0  0  0  0  0  0  0  0  0  0
  -23.9383   12.9548    0.0000 C   0  0  0  0  0  0  0  0  0  0  0  0
  -23.1883   14.2538    0.0000 C   0  0  0  0  0  0  0  0  0  0  0  0
  -22.3679   15.5096    0.0000 C   0  0  0  0  0  0  0  0  0  0  0  0
  -21.4796   16.7182    0.0000 C   0  0  0  0  0  0  0  0  0  0  0  0
  -20.5260   17.8761    0.0000 C   0  0  0  0  0  0  0  0  0  0  0  0
  -19.5101   18.9797    0.0000 C   0  0  0  0  0  0  0  0  0  0  0  0
  -18.4349   20.0256    0.0000 C   0  0  0  0  0  0  0  0  0  0  0  0
  -17.3037   21.0108    0.0000 C   0  0  0  0  0  0  0  0  0  0  0  0
  -16.1200   21.9321    0.0000 C   0  0  0  0  0  0  0  0  0  0  0  0
  -14.8873   22.7868    0.0000 C   0  0  0  0  0  0  0  0  0  0  0  0
  -13.6095   23.5723    0.0000 C   0  0  0  0  0  0  0  0  0  0  0  0
  -12.2903   24.2862    0.0000 C   0  0  0  0  0  0  0  0  0  0  0  0
  -10.9337   24.9264    0.0000 C   0  0  0  0  0  0  0  0  0  0  0  0
   -9.5440   25.4908    0.0000 C   0  0  0  0  0  0  0  0  0  0  0  0
   -8.1253   25.9779    0.0000 C   0  0  0  0  0  0  0  0  0  0  0  0
   -6.6819   26.3860    0.0000 C   0  0  0  0  0  0  0  0  0  0  0  0
   -5.2182   26.7141    0.0000 C   0  0  0  0  0  0  0  0  0  0  0  0
   -3.7386   26.9610    0.0000 C   0  0  0  0  0  0  0  0  0  0  0  0
   -2.2477   27.1260    0.0000 C   0  0  0  0  0  0  0  0  0  0  0  0
   -0.7500   27.2086    0.0000 C   0  0  0  0  0  0  0  0  0  0  0  0
    0.7500   27.2086    0.0000 C   0  0  0  0  0  0  0  0  0  0  0  0
    2.2477   27.1260    0.0000 C   0  0  0  0  0  0  0  0  0  0  0  0
    3.7386   26.9610    0.0000 C   0  0  0  0  0  0  0  0  0  0  0  0
    5.2182   26.7141    0.0000 C   0  0  0  0  0  0  0  0  0  0  0  0
    6.6819   26.3860    0.0000 C   0  0  0  0  0  0  0  0  0  0  0  0
    8.1253   25.9779    0.0000 C   0  0  0  0  0  0  0  0  0  0  0  0
    9.5440   25.4908    0.0000 C   0  0  0  0  0  0  0  0  0  0  0  0
   10.9337   24.9264    0.0000 C   0  0  0  0  0  0  0  0  0  0  0  0
   12.2903   24.2862    0.0000 C   0  0  0  0  0  0  0  0  0  0  0  0
   13.6095   23.5723    0.0000 C   0  0  0  0  0  0  0  0  0  0  0  0
   14.8873   22.7868    0.0000 C   0  0  0  0  0  0  0  0  0  0  0  0
   16.1200   21.9321    0.0000 C   0  0  0  0  0  0  0  0  0  0  0  0
   17.3037   21.0108    0.0000 C   0  0  0  0  0  0  0  0  0  0  0  0
   18.4349   20.0256    0.0000 C   0  0  0  0  0  0  0  0  0  0  0  0
   19.5101   18.9797    0.0000 C   0  0  0  0  0  0  0  0  0  0  0  0
   20.5260   17.8761    0.0000 C   0  0  0  0  0  0  0  0  0  0  0  0
   21.4796   16.7182    0.0000 C   0  0  0  0  0  0  0  0  0  0  0  0
   22.3679   15.5096    0.0000 C   0  0  0  0  0  0  0  0  0  0  0  0
   23.1883   14.2538    0.0000 C   0  0  0  0  0  0  0  0  0  0  0  0
   23.9383   12.9548    0.0000 C   0  0  0  0  0  0  0  0  0  0  0  0
   24.6156   11.6164    0.0000 C   0  0  0  0  0  0  0  0  0  0  0  0
   25.2182   10.2427    0.0000 C   0  0  0  0  0  0  0  0  0  0  0  0
   25.7441    8.8380    0.0000 C   0  0  0  0  0  0  0  0  0  0  0  0
   26.1919    7.4064    0.0000 C   0  0  0  0  0  0  0  0  0  0  0  0
   26.5601    5.9523    0.0000 C   0  0  0  0  0  0  0  0  0  0  0  0
   26.8477    4.4801    0.0000 C   0  0  0  0  0  0  0  0  0  0  0  0
   27.0537    2.9943    0.0000 C   0  0  0  0  0  0  0  0  0  0  0  0
   27.1776    1.4994    0.0000 C   0  0  0  0  0  0  0  0  0  0  0  0
  1  2  1  0
  2  3  1  0
  3  4  1  0
  4  5  1  0
  5  6  1  0
  6  7  1  0
  7  8  1  0
  8  9  1  0
  9 10  1  0
 10 11  1  0
 11 12  1  0
 12 13  1  0
 13 14  1  0
 14 15  1  0
 15 16  1  0
 16 17  1  0
 17 18  1  0
 18 19  1  0
 19 20  1  0
 20 21  1  0
 21 22  1  0
 22 23  1  0
 23 24  1  0
 24 25  1  0
 25 26  1  0
 26 27  1  0
 27 28  1  0
 28 29  1  0
 29 30  1  0
 30 31  1  0
 31 32  1  0
 32 33  1  0
 33 34  1  0
 34 35  1  0
 35 36  1  0
 36 37  1  0
 37 38  1  0
 38 39  1  0
 39 40  1  0
 40 41  1  0
 41 42  1  0
 42 43  1  0
 43 44  1  0
 44 45  1  0
 45 46  1  0
 46 47  1  0
 47 48  1  0
 48 49  1  0
 49 50  1  0
 50 51  1  0
 51 52  1  0
 52 53  1  0
 53 54  1  0
 54 55  1  0
 55 56  1  0
 56 57  1  0
 57 58  1  0
 58 59  1  0
 59 60  1  0
 60 61  1  0
 61 62  1  0
 62 63  1  0
 63 64  1  0
 64 65  1  0
 65 66  1  0
 66 67  1  0
 67 68  1  0
 68 69  1  0
 69 70  1  0
 70 71  1  0
 71 72  1  0
 72 73  1  0
 73 74  1  0
 74 75  1  0
 75 76  1  0
 76 77  1  0
 77 78  1  0
 78 79  1  0
 79 80  1  0
 80 81  1  0
 81 82  1  0
 82 83  1  0
 83 84  1  0
 84 85  1  0
 85 86  1  0
 86 87  1  0
 87 88  1  0
 88 89  1  0
 89 90  1  0
 90 91  1  0
 91 92  1  0
 92 93  1  0
 93 94  1  0
 94 95  1  0
 95 96  1  0
 96 97  1  0
 97 98  1  0
 98 99  1  0
 99100  1  0
100101  1  0
101102  1  0
102103  1  0
103104  1  0
104105  1  0
105106  1  0
106107  1  0
107108  1  0
108109  1  0
109110  1  0
110111  1  0
111112  1  0
112113  1  0
113114  1  0
114  1  1  0
M  END
>  <Title>  (86) 
idAABNgen7

$$$$

     RDKit          2D

 20 22  0  0  0  0  0  0  0  0999 V2000
   -3.0000   -2.5981    0.0000 C   0  0  0  0  0  0  0  0  0  0  0  0
   -1.5000   -2.5981    0.0000 C   0  0  0  0  0  0  0  0  0  0  0  0
   -0.7500   -3.8971    0.0000 C   0  0  0  0  0  0  0  0  0  0  0  0
    0.7500   -3.8971    0.0000 C   0  0  0  0  0  0  0  0  0  0  0  0
    1.5000   -2.5981    0.0000 C   0  0  0  0  0  0  0  0  0  0  0  0
    3.0000   -2.5981    0.0000 C   0  0  0  0  0  0  0  0  0  0  0  0
    3.7500   -1.2990    0.0000 O   0  0  0  0  0  0  0  0  0  0  0  0
    3.7500   -3.8971    0.0000 N   0  0  0  0  0  0  0  0  0  0  0  0
    5.2500   -3.8971    0.0000 C   0  0  0  0  0  0  0  0  0  0  0  0
    6.0000   -5.1962    0.0000 N   0  0  0  0  0  0  0  0  0  0  0  0
    7.5000   -5.1962    0.0000 N   0  0  0  0  0  0  0  0  0  0  0  0
    8.2500   -3.8971    0.0000 N   0  0  0  0  0  0  0  0  0  0  0  0
    7.5000   -2.5981    0.0000 N   0  0  0  0  0  0  0  0  0  0  0  0
    6.0000   -2.5981    0.0000 N   0  0  0  0  0  0  0  0  0  0  0  0
    0.7500   -1.2990    0.0000 C   0  0  0  0  0  0  0  0  0  0  0  0
    1.5000    0.0000    0.0000 C   0  0  0  0  0  0  0  0  0  0  0  0
    0.7500    1.2990    0.0000 C   0  0  0  0  0  0  0  0  0  0  0  0
   -0.7500    1.2990    0.0000 C   0  0  0  0  0  0  0  0  0  0  0  0
   -1.5000    0.0000    0.0000 C   0  0  0  0  0  0  0  0  0  0  0  0
   -0.7500   -1.2990    0.0000 C   0  0  0  0  0  0  0  0  0  0  0  0
  1  2  1  0
  2  3  1  0
  3  4  1  0
  4  5  1  0
  5  6  1  0
  6  7  2  0
  6  8  1  0
  8  9  1  0
  9 10  2  0
 10 11  1  0
 11 12  2  0
 12 13  1  0
 13 14  2  0
  5 15  1  0
 15 16  2  0
 16 17  1  0
 17 18  2  0
 18 19  1  0
 19 20  1  0
 20  2  1  0
 14  9  1  0
 20 15  1  0
M  END
>  <Title>  (87) 
idAABOgen7

$$$$

     RDKit          2D

  8  8  0  0  0  0  0  0  0  0999 V2000
    4.2760   -2.5981    0.0000 N   0  0  0  0  0  0  0  0  0  0  0  0
    3.5260   -1.2990    0.0000 C   0  0  0  0  0  0  0  0  0  0  0  0
    2.7760    0.0000    0.0000 C   0  0  0  0  0  0  0  0  0  0  0  0
    1.2760    0.0000    0.0000 C   0  0  0  0  0  0  0  0  0  0  0  0
    0.3943    1.2135    0.0000 C   0  0  0  0  0  0  0  0  0  0  0  0
   -1.0323    0.7500    0.0000 C   0  0  0  0  0  0  0  0  0  0  0  0
   -1.0323   -0.7500    0.0000 C   0  0  0  0  0  0  0  0  0  0  0  0
    0.3943   -1.2135    0.0000 C   0  0  0  0  0  0  0  0  0  0  0  0
  1  2  3  0
  2  3  1  0
  3  4  1  0
  4  5  2  0
  5  6  1  0
  6  7  1  0
  7  8  2  0
  8  4  1  0
M  END
>  <Title>  (88) 
idAABPgen7

$$$$

     RDKit          2D

 36 36  0  0  0  0  0  0  0  0999 V2000
    8.6053    0.0000    0.0000 C   0  0  0  0  0  0  0  0  0  0  0  0
    8.4746   -1.4943    0.0000 C   0  0  0  0  0  0  0  0  0  0  0  0
    8.0863   -2.9432    0.0000 C   0  0  0  0  0  0  0  0  0  0  0  0
    7.4524   -4.3026    0.0000 C   0  0  0  0  0  0  0  0  0  0  0  0
    6.5920   -5.5314    0.0000 C   0  0  0  0  0  0  0  0  0  0  0  0
    5.5314   -6.5920    0.0000 C   0  0  0  0  0  0  0  0  0  0  0  0
    4.3026   -7.4524    0.0000 C   0  0  0  0  0  0  0  0  0  0  0  0
    2.9432   -8.0863    0.0000 C   0  0  0  0  0  0  0  0  0  0  0  0
    1.4943   -8.4746    0.0000 C   0  0  0  0  0  0  0  0  0  0  0  0
   -0.0000   -8.6053    0.0000 C   0  0  0  0  0  0  0  0  0  0  0  0
   -1.4943   -8.4746    0.0000 C   0  0  0  0  0  0  0  0  0  0  0  0
   -2.9432   -8.0863    0.0000 C   0  0  0  0  0  0  0  0  0  0  0  0
   -4.3026   -7.4524    0.0000 C   0  0  0  0  0  0  0  0  0  0  0  0
   -5.5314   -6.5920    0.0000 C   0  0  0  0  0  0  0  0  0  0  0  0
   -6.5920   -5.5314    0.0000 C   0  0  0  0  0  0  0  0  0  0  0  0
   -7.4524   -4.3026    0.0000 C   0  0  0  0  0  0  0  0  0  0  0  0
   -8.0863   -2.9432    0.0000 C   0  0  0  0  0  0  0  0  0  0  0  0
   -8.4746   -1.4943    0.0000 C   0  0  0  0  0  0  0  0  0  0  0  0
   -8.6053    0.0000    0.0000 C   0  0  0  0  0  0  0  0  0  0  0  0
   -8.4746    1.4943    0.0000 C   0  0  0  0  0  0  0  0  0  0  0  0
   -8.0863    2.9432    0.0000 C   0  0  0  0  0  0  0  0  0  0  0  0
   -7.4524    4.3026    0.0000 C   0  0  0  0  0  0  0  0  0  0  0  0
   -6.5920    5.5314    0.0000 C   0  0  0  0  0  0  0  0  0  0  0  0
   -5.5314    6.5920    0.0000 C   0  0  0  0  0  0  0  0  0  0  0  0
   -4.3026    7.4524    0.0000 C   0  0  0  0  0  0  0  0  0  0  0  0
   -2.9432    8.0863    0.0000 C   0  0  0  0  0  0  0  0  0  0  0  0
   -1.4943    8.4746    0.0000 C   0  0  0  0  0  0  0  0  0  0  0  0
    0.0000    8.6053    0.0000 C   0  0  0  0  0  0  0  0  0  0  0  0
    1.4943    8.4746    0.0000 C   0  0  0  0  0  0  0  0  0  0  0  0
    2.9432    8.0863    0.0000 C   0  0  0  0  0  0  0  0  0  0  0  0
    4.3026    7.4524    0.0000 C   0  0  0  0  0  0  0  0  0  0  0  0
    5.5314    6.5920    0.0000 C   0  0  0  0  0  0  0  0  0  0  0  0
    6.5920    5.5314    0.0000 C   0  0  0  0  0  0  0  0  0  0  0  0
    7.4524    4.3026    0.0000 C   0  0  0  0  0  0  0  0  0  0  0  0
    8.0863    2.9432    0.0000 C   0  0  0  0  0  0  0  0  0  0  0  0
    8.4746    1.4943    0.0000 C   0  0  0  0  0  0  0  0  0  0  0  0
  1  2  1  0
  2  3  1  0
  3  4  1  0
  4  5  1  0
  5  6  1  0
  6  7  1  0
  7  8  1  0
  8  9  1  0
  9 10  1  0
 10 11  1  0
 11 12  1  0
 12 13  1  0
 13 14  1  0
 14 15  1  0
 15 16  1  0
 16 17  1  0
 17 18  1  0
 18 19  1  0
 19 20  1  0
 20 21  1  0
 21 22  1  0
 22 23  1  0
 23 24  1  0
 24 25  1  0
 25 26  1  0
 26 27  1  0
 27 28  1  0
 28 29  1  0
 29 30  1  0
 30 31  1  0
 31 32  1  0
 32 33  1  0
 33 34  1  0
 34 35  1  0
 35 36  1  0
 36  1  1  0
M  END
>  <Title>  (89) 
idAABQgen7

$$$$

     RDKit          2D

118118  0  0  0  0  0  0  0  0999 V2000
   29.4350    0.0000    0.0000 C   0  0  0  0  0  0  0  0  0  0  0  0
   27.9350    0.0000    0.0000 C   0  0  0  0  0  0  0  0  0  0  0  0
   27.8948    1.4995    0.0000 C   0  0  0  0  0  0  0  0  0  0  0  0
   27.7741    2.9946    0.0000 C   0  0  0  0  0  0  0  0  0  0  0  0
   27.5733    4.4811    0.0000 C   0  0  0  0  0  0  0  0  0  0  0  0
   27.2930    5.9547    0.0000 C   0  0  0  0  0  0  0  0  0  0  0  0
   26.9340    7.4111    0.0000 C   0  0  0  0  0  0  0  0  0  0  0  0
   26.4974    8.8461    0.0000 C   0  0  0  0  0  0  0  0  0  0  0  0
   25.9844   10.2557    0.0000 C   0  0  0  0  0  0  0  0  0  0  0  0
   25.3964   11.6356    0.0000 C   0  0  0  0  0  0  0  0  0  0  0  0
   24.7353   12.9821    0.0000 C   0  0  0  0  0  0  0  0  0  0  0  0
   24.0028   14.2911    0.0000 C   0  0  0  0  0  0  0  0  0  0  0  0
   23.2011   15.5588    0.0000 C   0  0  0  0  0  0  0  0  0  0  0  0
   22.3325   16.7818    0.0000 C   0  0  0  0  0  0  0  0  0  0  0  0
   21.3995   17.9563    0.0000 C   0  0  0  0  0  0  0  0  0  0  0  0
   20.4048   19.0791    0.0000 C   0  0  0  0  0  0  0  0  0  0  0  0
   19.3513   20.1468    0.0000 C   0  0  0  0  0  0  0  0  0  0  0  0
   18.2420   21.1565    0.0000 C   0  0  0  0  0  0  0  0  0  0  0  0
   17.0801   22.1052    0.0000 C   0  0  0  0  0  0  0  0  0  0  0  0
   15.8689   22.9901    0.0000 C   0  0  0  0  0  0  0  0  0  0  0  0
   14.6120   23.8087    0.0000 C   0  0  0  0  0  0  0  0  0  0  0  0
   13.3130   24.5587    0.0000 C   0  0  0  0  0  0  0  0  0  0  0  0
   11.9755   25.2379    0.0000 C   0  0  0  0  0  0  0  0  0  0  0  0
   10.6036   25.8444    0.0000 C   0  0  0  0  0  0  0  0  0  0  0  0
    9.2011   26.3763    0.0000 C   0  0  0  0  0  0  0  0  0  0  0  0
    7.7720   26.8321    0.0000 C   0  0  0  0  0  0  0  0  0  0  0  0
    6.3206   27.2106    0.0000 C   0  0  0  0  0  0  0  0  0  0  0  0
    4.8509   27.5107    0.0000 C   0  0  0  0  0  0  0  0  0  0  0  0
    3.3672   27.7314    0.0000 C   0  0  0  0  0  0  0  0  0  0  0  0
    1.8738   27.8721    0.0000 C   0  0  0  0  0  0  0  0  0  0  0  0
    0.3750   27.9325    0.0000 C   0  0  0  0  0  0  0  0  0  0  0  0
   -1.1248   27.9124    0.0000 C   0  0  0  0  0  0  0  0  0  0  0  0
   -2.6215   27.8118    0.0000 C   0  0  0  0  0  0  0  0  0  0  0  0
   -4.1105   27.6310    0.0000 C   0  0  0  0  0  0  0  0  0  0  0  0
   -5.5877   27.3705    0.0000 C   0  0  0  0  0  0  0  0  0  0  0  0
   -7.0488   27.0311    0.0000 C   0  0  0  0  0  0  0  0  0  0  0  0
   -8.4896   26.6138    0.0000 C   0  0  0  0  0  0  0  0  0  0  0  0
   -9.9059   26.1197    0.0000 C   0  0  0  0  0  0  0  0  0  0  0  0
  -11.2936   25.5504    0.0000 C   0  0  0  0  0  0  0  0  0  0  0  0
  -12.6488   24.9073    0.0000 C   0  0  0  0  0  0  0  0  0  0  0  0
  -13.9675   24.1925    0.0000 C   0  0  0  0  0  0  0  0  0  0  0  0
  -15.2460   23.4079    0.0000 C   0  0  0  0  0  0  0  0  0  0  0  0
  -16.4804   22.5558    0.0000 C   0  0  0  0  0  0  0  0  0  0  0  0
  -17.6674   21.6386    0.0000 C   0  0  0  0  0  0  0  0  0  0  0  0
  -18.8034   20.6591    0.0000 C   0  0  0  0  0  0  0  0  0  0  0  0
  -19.8852   19.6200    0.0000 C   0  0  0  0  0  0  0  0  0  0  0  0
  -20.9097   18.5244    0.0000 C   0  0  0  0  0  0  0  0  0  0  0  0
  -21.8739   17.3753    0.0000 C   0  0  0  0  0  0  0  0  0  0  0  0
  -22.7750   16.1761    0.0000 C   0  0  0  0  0  0  0  0  0  0  0  0
  -23.6104   14.9303    0.0000 C   0  0  0  0  0  0  0  0  0  0  0  0
  -24.3778   13.6415    0.0000 C   0  0  0  0  0  0  0  0  0  0  0  0
  -25.0749   12.3133    0.0000 C   0  0  0  0  0  0  0  0  0  0  0  0
  -25.6997   10.9496    0.0000 C   0  0  0  0  0  0  0  0  0  0  0  0
  -26.2504    9.5543    0.0000 C   0  0  0  0  0  0  0  0  0  0  0  0
  -26.7254    8.1315    0.0000 C   0  0  0  0  0  0  0  0  0  0  0  0
  -27.1233    6.6853    0.0000 C   0  0  0  0  0  0  0  0  0  0  0  0
  -27.4430    5.2198    0.0000 C   0  0  0  0  0  0  0  0  0  0  0  0
  -27.6837    3.7392    0.0000 C   0  0  0  0  0  0  0  0  0  0  0  0
  -27.8445    2.2478    0.0000 C   0  0  0  0  0  0  0  0  0  0  0  0
  -27.9250    0.7500    0.0000 C   0  0  0  0  0  0  0  0  0  0  0  0
  -27.9250   -0.7500    0.0000 C   0  0  0  0  0  0  0  0  0  0  0  0
  -27.8445   -2.2478    0.0000 C   0  0  0  0  0  0  0  0  0  0  0  0
  -27.6837   -3.7392    0.0000 C   0  0  0  0  0  0  0  0  0  0  0  0
  -27.4430   -5.2198    0.0000 C   0  0  0  0  0  0  0  0  0  0  0  0
  -27.1233   -6.6853    0.0000 C   0  0  0  0  0  0  0  0  0  0  0  0
  -26.7254   -8.1315    0.0000 C   0  0  0  0  0  0  0  0  0  0  0  0
  -26.2504   -9.5543    0.0000 C   0  0  0  0  0  0  0  0  0  0  0  0
  -25.6997  -10.9496    0.0000 C   0  0  0  0  0  0  0  0  0  0  0  0
  -25.0749  -12.3133    0.0000 C   0  0  0  0  0  0  0  0  0  0  0  0
  -24.3778  -13.6415    0.0000 C   0  0  0  0  0  0  0  0  0  0  0  0
  -23.6104  -14.9303    0.0000 C   0  0  0  0  0  0  0  0  0  0  0  0
  -22.7750  -16.1761    0.0000 C   0  0  0  0  0  0  0  0  0  0  0  0
  -21.8739  -17.3753    0.0000 C   0  0  0  0  0  0  0  0  0  0  0  0
  -20.9097  -18.5244    0.0000 C   0  0  0  0  0  0  0  0  0  0  0  0
  -19.8852  -19.6200    0.0000 C   0  0  0  0  0  0  0  0  0  0  0  0
  -18.8034  -20.6591    0.0000 C   0  0  0  0  0  0  0  0  0  0  0  0
  -17.6674  -21.6386    0.0000 C   0  0  0  0  0  0  0  0  0  0  0  0
  -16.4804  -22.5558    0.0000 C   0  0  0  0  0  0  0  0  0  0  0  0
  -15.2460  -23.4079    0.0000 C   0  0  0  0  0  0  0  0  0  0  0  0
  -13.9675  -24.1925    0.0000 C   0  0  0  0  0  0  0  0  0  0  0  0
  -12.6488  -24.9073    0.0000 C   0  0  0  0  0  0  0  0  0  0  0  0
  -11.2936  -25.5504    0.0000 C   0  0  0  0  0  0  0  0  0  0  0  0
   -9.9059  -26.1197    0.0000 C   0  0  0  0  0  0  0  0  0  0  0  0
   -8.4896  -26.6138    0.0000 C   0  0  0  0  0  0  0  0  0  0  0  0
   -7.0488  -27.0311    0.0000 C   0  0  0  0  0  0  0  0  0  0  0  0
   -5.5877  -27.3705    0.0000 C   0  0  0  0  0  0  0  0  0  0  0  0
   -4.1105  -27.6310    0.0000 C   0  0  0  0  0  0  0  0  0  0  0  0
   -2.6215  -27.8118    0.0000 C   0  0  0  0  0  0  0  0  0  0  0  0
   -1.1248  -27.9124    0.0000 C   0  0  0  0  0  0  0  0  0  0  0  0
    0.3750  -27.9325    0.0000 C   0  0  0  0  0  0  0  0  0  0  0  0
    1.8738  -27.8721    0.0000 C   0  0  0  0  0  0  0  0  0  0  0  0
    3.3672  -27.7314    0.0000 C   0  0  0  0  0  0  0  0  0  0  0  0
    4.8509  -27.5107    0.0000 C   0  0  0  0  0  0  0  0  0  0  0  0
    6.3206  -27.2106    0.0000 C   0  0  0  0  0  0  0  0  0  0  0  0
    7.7720  -26.8321    0.0000 C   0  0  0  0  0  0  0  0  0  0  0  0
    9.2011  -26.3763    0.0000 C   0  0  0  0  0  0  0  0  0  0  0  0
   10.6036  -25.8444    0.0000 C   0  0  0  0  0  0  0  0  0  0  0  0
   11.9755  -25.2379    0.0000 C   0  0  0  0  0  0  0  0  0  0  0  0
   13.3130  -24.5587    0.0000 C   0  0  0  0  0  0  0  0  0  0  0  0
   14.6120  -23.8087    0.0000 C   0  0  0  0  0  0  0  0  0  0  0  0
   15.8689  -22.9901    0.0000 C   0  0  0  0  0  0  0  0  0  0  0  0
   17.0801  -22.1052    0.0000 C   0  0  0  0  0  0  0  0  0  0  0  0
   18.2420  -21.1565    0.0000 C   0  0  0  0  0  0  0  0  0  0  0  0
   19.3513  -20.1468    0.0000 C   0  0  0  0  0  0  0  0  0  0  0  0
   20.4048  -19.0791    0.0000 C   0  0  0  0  0  0  0  0  0  0  0  0
   21.3995  -17.9563    0.0000 C   0  0  0  0  0  0  0  0  0  0  0  0
   22.3325  -16.7818    0.0000 C   0  0  0  0  0  0  0  0  0  0  0  0
   23.2011  -15.5588    0.0000 C   0  0  0  0  0  0  0  0  0  0  0  0
   24.0028  -14.2911    0.0000 C   0  0  0  0  0  0  0  0  0  0  0  0
   24.7353  -12.9821    0.0000 C   0  0  0  0  0  0  0  0  0  0  0  0
   25.3964  -11.6356    0.0000 C   0  0  0  0  0  0  0  0  0  0  0  0
   25.9844  -10.2557    0.0000 C   0  0  0  0  0  0  0  0  0  0  0  0
   26.4974   -8.8461    0.0000 C   0  0  0  0  0  0  0  0  0  0  0  0
   26.9340   -7.4111    0.0000 C   0  0  0  0  0  0  0  0  0  0  0  0
   27.2930   -5.9547    0.0000 C   0  0  0  0  0  0  0  0  0  0  0  0
   27.5733   -4.4811    0.0000 N   0  0  0  0  0  0  0  0  0  0  0  0
   27.7741   -2.9946    0.0000 C   0  0  0  0  0  0  0  0  0  0  0  0
   27.8948   -1.4995    0.0000 C   0  0  0  0  0  0  0  0  0  0  0  0
  1  2  1  0
  2  3  1  0
  3  4  1  0
  4  5  1  0
  5  6  1  0
  6  7  1  0
  7  8  1  0
  8  9  1  0
  9 10  1  0
 10 11  1  0
 11 12  1  0
 12 13  1  0
 13 14  1  0
 14 15  1  0
 15 16  1  0
 16 17  1  0
 17 18  1  0
 18 19  1  0
 19 20  1  0
 20 21  1  0
 21 22  1  0
 22 23  1  0
 23 24  1  0
 24 25  1  0
 25 26  1  0
 26 27  1  0
 27 28  1  0
 28 29  1  0
 29 30  1  0
 30 31  1  0
 31 32  1  0
 32 33  1  0
 33 34  1  0
 34 35  1  0
 35 36  1  0
 36 37  1  0
 37 38  1  0
 38 39  1  0
 39 40  1  0
 40 41  1  0
 41 42  1  0
 42 43  1  0
 43 44  1  0
 44 45  1  0
 45 46  1  0
 46 47  1  0
 47 48  1  0
 48 49  1  0
 49 50  1  0
 50 51  1  0
 51 52  1  0
 52 53  1  0
 53 54  1  0
 54 55  1  0
 55 56  1  0
 56 57  1  0
 57 58  1  0
 58 59  1  0
 59 60  1  0
 60 61  1  0
 61 62  1  0
 62 63  1  0
 63 64  1  0
 64 65  1  0
 65 66  1  0
 66 67  1  0
 67 68  1  0
 68 69  1  0
 69 70  1  0
 70 71  1  0
 71 72  1  0
 72 73  1  0
 73 74  1  0
 74 75  1  0
 75 76  1  0
 76 77  1  0
 77 78  1  0
 78 79  1  0
 79 80  1  0
 80 81  1  0
 81 82  1  0
 82 83  1  0
 83 84  1  0
 84 85  1  0
 85 86  1  0
 86 87  1  0
 87 88  1  0
 88 89  1  0
 89 90  1  0
 90 91  1  0
 91 92  1  0
 92 93  1  0
 93 94  1  0
 94 95  1  0
 95 96  1  0
 96 97  1  0
 97 98  1  0
 98 99  1  0
 99100  1  0
100101  1  0
101102  1  0
102103  1  0
103104  1  0
104105  1  0
105106  1  0
106107  1  0
107108  1  0
108109  1  0
109110  1  0
110111  1  0
111112  1  0
112113  1  0
113114  1  0
114115  1  0
115116  1  0
116117  1  0
117118  1  0
118  2  1  0
M  END
>  <Title>  (90) 
idAABRgen7

$$$$

     RDKit          2D

 11 11  0  0  0  0  0  0  0  0999 V2000
    3.2286   -0.0000    0.0000 C   0  0  0  0  0  0  0  0  0  0  0  0
    1.7286    0.0000    0.0000 C   0  0  0  0  0  0  0  0  0  0  0  0
    1.0777    1.3515    0.0000 C   0  0  0  0  0  0  0  0  0  0  0  0
   -0.3846    1.6852    0.0000 C   0  0  0  0  0  0  0  0  0  0  0  0
   -1.5574    0.7500    0.0000 C   0  0  0  0  0  0  0  0  0  0  0  0
   -1.5574   -0.7500    0.0000 C   0  0  0  0  0  0  0  0  0  0  0  0
   -0.3846   -1.6852    0.0000 C   0  0  0  0  0  0  0  0  0  0  0  0
   -0.7184   -3.1476    0.0000 C   0  0  0  0  0  0  0  0  0  0  0  0
   -2.1518   -3.5898    0.0000 C   0  0  0  0  0  0  0  0  0  0  0  0
    0.3812   -4.1679    0.0000 O   0  0  0  0  0  0  0  0  0  0  0  0
    1.0777   -1.3515    0.0000 C   0  0  0  0  0  0  0  0  0  0  0  0
  1  2  1  0
  2  3  1  0
  3  4  1  0
  4  5  1  0
  5  6  1  0
  6  7  1  0
  7  8  1  0
  8  9  1  0
  8 10  1  0
  7 11  1  0
 11  2  1  0
M  END
>  <Title>  (91) 
idAABSgen7

$$$$

     RDKit          2D

 17 17  0  0  0  0  0  0  0  0999 V2000
    6.6478   -1.2990    0.0000 C   0  0  0  0  0  0  0  0  0  0  0  0
    5.1478   -1.2990    0.0000 C   0  0  0  0  0  0  0  0  0  0  0  0
    4.3978   -2.5981    0.0000 O   0  0  0  0  0  0  0  0  0  0  0  0
    4.3978    0.0000    0.0000 C   0  0  0  0  0  0  0  0  0  0  0  0
    5.1478    1.2990    0.0000 O   0  0  0  0  0  0  0  0  0  0  0  0
    2.8978    0.0000    0.0000 C   0  0  0  0  0  0  0  0  0  0  0  0
    2.5095   -1.4489    0.0000 C   0  0  0  0  0  0  0  0  0  0  0  0
    1.4489   -2.5095    0.0000 C   0  0  0  0  0  0  0  0  0  0  0  0
   -0.0000   -2.8978    0.0000 C   0  0  0  0  0  0  0  0  0  0  0  0
   -1.4489   -2.5095    0.0000 C   0  0  0  0  0  0  0  0  0  0  0  0
   -2.5095   -1.4489    0.0000 C   0  0  0  0  0  0  0  0  0  0  0  0
   -2.8978    0.0000    0.0000 C   0  0  0  0  0  0  0  0  0  0  0  0
   -2.5095    1.4489    0.0000 C   0  0  0  0  0  0  0  0  0  0  0  0
   -1.4489    2.5095    0.0000 C   0  0  0  0  0  0  0  0  0  0  0  0
    0.0000    2.8978    0.0000 C   0  0  0  0  0  0  0  0  0  0  0  0
    1.4489    2.5095    0.0000 C   0  0  0  0  0  0  0  0  0  0  0  0
    2.5095    1.4489    0.0000 C   0  0  0  0  0  0  0  0  0  0  0  0
  1  2  1  0
  2  3  2  0
  2  4  1  0
  4  5  2  0
  4  6  1  0
  6  7  1  0
  7  8  1  0
  8  9  1  0
  9 10  1  0
 10 11  1  0
 11 12  1  0
 12 13  1  0
 13 14  1  0
 14 15  1  0
 15 16  1  0
 16 17  1  0
 17  6  1  0
M  END
>  <Title>  (92) 
idAABTgen7

$$$$

     RDKit          2D

 36 36  0  0  0  0  0  0  0  0999 V2000
    9.8669    0.0000    0.0000 C   0  0  0  0  0  0  0  0  0  0  0  0
    8.3669    0.0000    0.0000 C   0  0  0  0  0  0  0  0  0  0  0  0
    8.2324    1.4940    0.0000 C   0  0  0  0  0  0  0  0  0  0  0  0
    7.8334    2.9399    0.0000 C   0  0  0  0  0  0  0  0  0  0  0  0
    7.1825    4.2914    0.0000 C   0  0  0  0  0  0  0  0  0  0  0  0
    6.3008    5.5049    0.0000 C   0  0  0  0  0  0  0  0  0  0  0  0
    5.2167    6.5415    0.0000 C   0  0  0  0  0  0  0  0  0  0  0  0
    3.9648    7.3678    0.0000 C   0  0  0  0  0  0  0  0  0  0  0  0
    2.5855    7.9574    0.0000 C   0  0  0  0  0  0  0  0  0  0  0  0
    1.1231    8.2911    0.0000 C   0  0  0  0  0  0  0  0  0  0  0  0
   -0.3754    8.3584    0.0000 C   0  0  0  0  0  0  0  0  0  0  0  0
   -1.8618    8.1571    0.0000 C   0  0  0  0  0  0  0  0  0  0  0  0
   -3.2884    7.6936    0.0000 C   0  0  0  0  0  0  0  0  0  0  0  0
   -4.6093    6.9828    0.0000 C   0  0  0  0  0  0  0  0  0  0  0  0
   -5.7820    6.0475    0.0000 C   0  0  0  0  0  0  0  0  0  0  0  0
   -6.7689    4.9179    0.0000 C   0  0  0  0  0  0  0  0  0  0  0  0
   -7.5383    3.6302    0.0000 C   0  0  0  0  0  0  0  0  0  0  0  0
   -8.0653    2.2259    0.0000 C   0  0  0  0  0  0  0  0  0  0  0  0
   -8.3332    0.7500    0.0000 C   0  0  0  0  0  0  0  0  0  0  0  0
   -8.3332   -0.7500    0.0000 C   0  0  0  0  0  0  0  0  0  0  0  0
   -8.0653   -2.2259    0.0000 C   0  0  0  0  0  0  0  0  0  0  0  0
   -7.5383   -3.6302    0.0000 C   0  0  0  0  0  0  0  0  0  0  0  0
   -6.7689   -4.9179    0.0000 C   0  0  0  0  0  0  0  0  0  0  0  0
   -5.7820   -6.0475    0.0000 C   0  0  0  0  0  0  0  0  0  0  0  0
   -4.6093   -6.9828    0.0000 C   0  0  0  0  0  0  0  0  0  0  0  0
   -3.2884   -7.6936    0.0000 C   0  0  0  0  0  0  0  0  0  0  0  0
   -1.8618   -8.1571    0.0000 C   0  0  0  0  0  0  0  0  0  0  0  0
   -0.3754   -8.3584    0.0000 C   0  0  0  0  0  0  0  0  0  0  0  0
    1.1231   -8.2911    0.0000 C   0  0  0  0  0  0  0  0  0  0  0  0
    2.5855   -7.9574    0.0000 C   0  0  0  0  0  0  0  0  0  0  0  0
    3.9648   -7.3678    0.0000 C   0  0  0  0  0  0  0  0  0  0  0  0
    5.2167   -6.5415    0.0000 C   0  0  0  0  0  0  0  0  0  0  0  0
    6.3008   -5.5049    0.0000 C   0  0  0  0  0  0  0  0  0  0  0  0
    7.1825   -4.2914    0.0000 C   0  0  0  0  0  0  0  0  0  0  0  0
    7.8334   -2.9399    0.0000 C   0  0  0  0  0  0  0  0  0  0  0  0
    8.2324   -1.4940    0.0000 C   0  0  0  0  0  0  0  0  0  0  0  0
  1  2  1  0
  2  3  1  0
  3  4  1  0
  4  5  1  0
  5  6  1  0
  6  7  1  0
  7  8  1  0
  8  9  1  0
  9 10  1  0
 10 11  1  0
 11 12  1  0
 12 13  1  0
 13 14  1  0
 14 15  1  0
 15 16  1  0
 16 17  1  0
 17 18  1  0
 18 19  1  0
 19 20  1  0
 20 21  1  0
 21 22  1  0
 22 23  1  0
 23 24  1  0
 24 25  1  0
 25 26  1  0
 26 27  1  0
 27 28  1  0
 28 29  1  0
 29 30  1  0
 30 31  1  0
 31 32  1  0
 32 33  1  0
 33 34  1  0
 34 35  1  0
 35 36  1  0
 36  2  1  0
M  END
>  <Title>  (93) 
idAABUgen7

$$$$

     RDKit          2D

  9  9  0  0  0  0  0  0  0  0999 V2000
    3.0000    0.0000    0.0000 C   0  0  0  0  0  0  0  0  0  0  0  0
    1.5000    0.0000    0.0000 C   0  0  0  0  0  0  0  0  0  0  0  0
    0.7500   -1.2990    0.0000 C   0  0  0  0  0  0  0  0  0  0  0  0
   -0.7500   -1.2990    0.0000 C   0  0  0  0  0  0  0  0  0  0  0  0
   -1.5000    0.0000    0.0000 C   0  0  0  0  0  0  0  0  0  0  0  0
   -3.0000    0.0000    0.0000 C   0  0  0  0  0  0  0  0  0  0  0  0
   -4.5000    0.0000    0.0000 N   0  0  0  0  0  0  0  0  0  0  0  0
   -0.7500    1.2990    0.0000 C   0  0  0  0  0  0  0  0  0  0  0  0
    0.7500    1.2990    0.0000 C   0  0  0  0  0  0  0  0  0  0  0  0
  1  2  1  0
  2  3  1  0
  3  4  1  0
  4  5  2  0
  5  6  1  0
  6  7  3  0
  5  8  1  0
  8  9  1  0
  9  2  1  0
M  END
>  <Title>  (94) 
idAABVgen7

$$$$

     RDKit          2D

  8  7  0  0  0  0  0  0  0  0999 V2000
    0.0000    0.0000    0.0000 C   0  0  0  0  0  0  0  0  0  0  0  0
   -0.0000   -1.5000    0.0000 C   0  0  0  0  0  0  0  0  0  0  0  0
   -0.0000   -3.0000    0.0000 C   0  0  0  0  0  0  0  0  0  0  0  0
   -0.0000   -4.5000    0.0000 C   0  0  0  0  0  0  0  0  0  0  0  0
   -0.0000   -6.0000    0.0000 C   0  0  0  0  0  0  0  0  0  0  0  0
   -0.0000   -7.5000    0.0000 C   0  0  0  0  0  0  0  0  0  0  0  0
   -0.0000   -9.0000    0.0000 C   0  0  0  0  0  0  0  0  0  0  0  0
   -0.0000  -10.5000    0.0000 C   0  0  0  0  0  0  0  0  0  0  0  0
  1  2  3  0
  2  3  1  0
  3  4  3  0
  4  5  1  0
  5  6  3  0
  6  7  1  0
  7  8  3  0
M  END
>  <Title>  (95) 
idAABWgen7

$$$$

     RDKit          2D

 95 95  0  0  0  0  0  0  0  0999 V2000
   22.6837    0.0000    0.0000 C   0  0  0  0  0  0  0  0  0  0  0  0
   22.6341    1.4992    0.0000 C   0  0  0  0  0  0  0  0  0  0  0  0
   22.4856    2.9918    0.0000 C   0  0  0  0  0  0  0  0  0  0  0  0
   22.2387    4.4713    0.0000 C   0  0  0  0  0  0  0  0  0  0  0  0
   21.8945    5.9313    0.0000 C   0  0  0  0  0  0  0  0  0  0  0  0
   21.4546    7.3654    0.0000 C   0  0  0  0  0  0  0  0  0  0  0  0
   20.9210    8.7672    0.0000 C   0  0  0  0  0  0  0  0  0  0  0  0
   20.2958   10.1307    0.0000 C   0  0  0  0  0  0  0  0  0  0  0  0
   19.5819   11.4500    0.0000 C   0  0  0  0  0  0  0  0  0  0  0  0
   18.7823   12.7191    0.0000 C   0  0  0  0  0  0  0  0  0  0  0  0
   17.9006   13.9326    0.0000 C   0  0  0  0  0  0  0  0  0  0  0  0
   16.9407   15.0852    0.0000 C   0  0  0  0  0  0  0  0  0  0  0  0
   15.9067   16.1719    0.0000 C   0  0  0  0  0  0  0  0  0  0  0  0
   14.8031   17.1878    0.0000 C   0  0  0  0  0  0  0  0  0  0  0  0
   13.6348   18.1286    0.0000 C   0  0  0  0  0  0  0  0  0  0  0  0
   12.4068   18.9900    0.0000 C   0  0  0  0  0  0  0  0  0  0  0  0
   11.1246   19.7685    0.0000 C   0  0  0  0  0  0  0  0  0  0  0  0
    9.7938   20.4605    0.0000 C   0  0  0  0  0  0  0  0  0  0  0  0
    8.4201   21.0631    0.0000 C   0  0  0  0  0  0  0  0  0  0  0  0
    7.0097   21.5735    0.0000 C   0  0  0  0  0  0  0  0  0  0  0  0
    5.5685   21.9896    0.0000 C   0  0  0  0  0  0  0  0  0  0  0  0
    4.1030   22.3095    0.0000 C   0  0  0  0  0  0  0  0  0  0  0  0
    2.6196   22.5319    0.0000 C   0  0  0  0  0  0  0  0  0  0  0  0
    1.1247   22.6558    0.0000 C   0  0  0  0  0  0  0  0  0  0  0  0
   -0.3751   22.6806    0.0000 C   0  0  0  0  0  0  0  0  0  0  0  0
   -1.8732   22.6062    0.0000 C   0  0  0  0  0  0  0  0  0  0  0  0
   -3.3632   22.4330    0.0000 C   0  0  0  0  0  0  0  0  0  0  0  0
   -4.8384   22.1617    0.0000 C   0  0  0  0  0  0  0  0  0  0  0  0
   -6.2925   21.7935    0.0000 C   0  0  0  0  0  0  0  0  0  0  0  0
   -7.7191   21.3299    0.0000 C   0  0  0  0  0  0  0  0  0  0  0  0
   -9.1119   20.7731    0.0000 C   0  0  0  0  0  0  0  0  0  0  0  0
  -10.4649   20.1255    0.0000 C   0  0  0  0  0  0  0  0  0  0  0  0
  -11.7722   19.3899    0.0000 C   0  0  0  0  0  0  0  0  0  0  0  0
  -13.0279   18.5695    0.0000 C   0  0  0  0  0  0  0  0  0  0  0  0
  -14.2267   17.6678    0.0000 C   0  0  0  0  0  0  0  0  0  0  0  0
  -15.3633   16.6890    0.0000 C   0  0  0  0  0  0  0  0  0  0  0  0
  -16.4327   15.6371    0.0000 C   0  0  0  0  0  0  0  0  0  0  0  0
  -17.4302   14.5169    0.0000 C   0  0  0  0  0  0  0  0  0  0  0  0
  -18.3515   13.3332    0.0000 C   0  0  0  0  0  0  0  0  0  0  0  0
  -19.1926   12.0911    0.0000 C   0  0  0  0  0  0  0  0  0  0  0  0
  -19.9497   10.7963    0.0000 C   0  0  0  0  0  0  0  0  0  0  0  0
  -20.6196    9.4542    0.0000 C   0  0  0  0  0  0  0  0  0  0  0  0
  -21.1994    8.0707    0.0000 C   0  0  0  0  0  0  0  0  0  0  0  0
  -21.6864    6.6520    0.0000 C   0  0  0  0  0  0  0  0  0  0  0  0
  -22.0787    5.2042    0.0000 C   0  0  0  0  0  0  0  0  0  0  0  0
  -22.3743    3.7336    0.0000 C   0  0  0  0  0  0  0  0  0  0  0  0
  -22.5722    2.2467    0.0000 C   0  0  0  0  0  0  0  0  0  0  0  0
  -22.6713    0.7500    0.0000 C   0  0  0  0  0  0  0  0  0  0  0  0
  -22.6713   -0.7500    0.0000 C   0  0  0  0  0  0  0  0  0  0  0  0
  -22.5722   -2.2467    0.0000 C   0  0  0  0  0  0  0  0  0  0  0  0
  -22.3743   -3.7336    0.0000 C   0  0  0  0  0  0  0  0  0  0  0  0
  -22.0787   -5.2042    0.0000 C   0  0  0  0  0  0  0  0  0  0  0  0
  -21.6864   -6.6520    0.0000 C   0  0  0  0  0  0  0  0  0  0  0  0
  -21.1994   -8.0707    0.0000 C   0  0  0  0  0  0  0  0  0  0  0  0
  -20.6196   -9.4542    0.0000 C   0  0  0  0  0  0  0  0  0  0  0  0
  -19.9497  -10.7963    0.0000 C   0  0  0  0  0  0  0  0  0  0  0  0
  -19.1926  -12.0911    0.0000 C   0  0  0  0  0  0  0  0  0  0  0  0
  -18.3515  -13.3332    0.0000 C   0  0  0  0  0  0  0  0  0  0  0  0
  -17.4302  -14.5169    0.0000 C   0  0  0  0  0  0  0  0  0  0  0  0
  -16.4327  -15.6371    0.0000 C   0  0  0  0  0  0  0  0  0  0  0  0
  -15.3633  -16.6890    0.0000 C   0  0  0  0  0  0  0  0  0  0  0  0
  -14.2267  -17.6678    0.0000 C   0  0  0  0  0  0  0  0  0  0  0  0
  -13.0279  -18.5695    0.0000 C   0  0  0  0  0  0  0  0  0  0  0  0
  -11.7722  -19.3899    0.0000 C   0  0  0  0  0  0  0  0  0  0  0  0
  -10.4649  -20.1255    0.0000 C   0  0  0  0  0  0  0  0  0  0  0  0
   -9.1119  -20.7731    0.0000 C   0  0  0  0  0  0  0  0  0  0  0  0
   -7.7191  -21.3299    0.0000 C   0  0  0  0  0  0  0  0  0  0  0  0
   -6.2925  -21.7935    0.0000 C   0  0  0  0  0  0  0  0  0  0  0  0
   -4.8384  -22.1617    0.0000 C   0  0  0  0  0  0  0  0  0  0  0  0
   -3.3632  -22.4330    0.0000 C   0  0  0  0  0  0  0  0  0  0  0  0
   -1.8732  -22.6062    0.0000 C   0  0  0  0  0  0  0  0  0  0  0  0
   -0.3751  -22.6806    0.0000 C   0  0  0  0  0  0  0  0  0  0  0  0
    1.1247  -22.6558    0.0000 C   0  0  0  0  0  0  0  0  0  0  0  0
    2.6196  -22.5319    0.0000 C   0  0  0  0  0  0  0  0  0  0  0  0
    4.1030  -22.3095    0.0000 C   0  0  0  0  0  0  0  0  0  0  0  0
    5.5685  -21.9896    0.0000 C   0  0  0  0  0  0  0  0  0  0  0  0
    7.0097  -21.5735    0.0000 C   0  0  0  0  0  0  0  0  0  0  0  0
    8.4201  -21.0631    0.0000 C   0  0  0  0  0  0  0  0  0  0  0  0
    9.7938  -20.4605    0.0000 C   0  0  0  0  0  0  0  0  0  0  0  0
   11.1246  -19.7685    0.0000 C   0  0  0  0  0  0  0  0  0  0  0  0
   12.4068  -18.9900    0.0000 C   0  0  0  0  0  0  0  0  0  0  0  0
   13.6348  -18.1286    0.0000 C   0  0  0  0  0  0  0  0  0  0  0  0
   14.8031  -17.1878    0.0000 C   0  0  0  0  0  0  0  0  0  0  0  0
   15.9067  -16.1719    0.0000 C   0  0  0  0  0  0  0  0  0  0  0  0
   16.9407  -15.0852    0.0000 C   0  0  0  0  0  0  0  0  0  0  0  0
   17.9006  -13.9326    0.0000 C   0  0  0  0  0  0  0  0  0  0  0  0
   18.7823  -12.7191    0.0000 C   0  0  0  0  0  0  0  0  0  0  0  0
   19.5819  -11.4500    0.0000 C   0  0  0  0  0  0  0  0  0  0  0  0
   20.2958  -10.1307    0.0000 C   0  0  0  0  0  0  0  0  0  0  0  0
   20.9210   -8.7672    0.0000 C   0  0  0  0  0  0  0  0  0  0  0  0
   21.4546   -7.3654    0.0000 C   0  0  0  0  0  0  0  0  0  0  0  0
   21.8945   -5.9313    0.0000 C   0  0  0  0  0  0  0  0  0  0  0  0
   22.2387   -4.4713    0.0000 C   0  0  0  0  0  0  0  0  0  0  0  0
   22.4856   -2.9918    0.0000 C   0  0  0  0  0  0  0  0  0  0  0  0
   22.6341   -1.4992    0.0000 C   0  0  0  0  0  0  0  0  0  0  0  0
  1  2  1  0
  2  3  1  0
  3  4  1  0
  4  5  1  0
  5  6  1  0
  6  7  1  0
  7  8  1  0
  8  9  1  0
  9 10  1  0
 10 11  1  0
 11 12  1  0
 12 13  1  0
 13 14  1  0
 14 15  1  0
 15 16  1  0
 16 17  1  0
 17 18  1  0
 18 19  1  0
 19 20  1  0
 20 21  1  0
 21 22  1  0
 22 23  1  0
 23 24  1  0
 24 25  1  0
 25 26  1  0
 26 27  1  0
 27 28  1  0
 28 29  1  0
 29 30  1  0
 30 31  1  0
 31 32  1  0
 32 33  1  0
 33 34  1  0
 34 35  1  0
 35 36  1  0
 36 37  1  0
 37 38  1  0
 38 39  1  0
 39 40  1  0
 40 41  1  0
 41 42  1  0
 42 43  1  0
 43 44  1  0
 44 45  1  0
 45 46  1  0
 46 47  1  0
 47 48  1  0
 48 49  1  0
 49 50  1  0
 50 51  1  0
 51 52  1  0
 52 53  1  0
 53 54  1  0
 54 55  1  0
 55 56  1  0
 56 57  1  0
 57 58  1  0
 58 59  1  0
 59 60  1  0
 60 61  1  0
 61 62  1  0
 62 63  1  0
 63 64  1  0
 64 65  1  0
 65 66  1  0
 66 67  1  0
 67 68  1  0
 68 69  1  0
 69 70  1  0
 70 71  1  0
 71 72  1  0
 72 73  1  0
 73 74  1  0
 74 75  1  0
 75 76  1  0
 76 77  1  0
 77 78  1  0
 78 79  1  0
 79 80  1  0
 80 81  1  0
 81 82  1  0
 82 83  1  0
 83 84  1  0
 84 85  1  0
 85 86  1  0
 86 87  1  0
 87 88  1  0
 88 89  1  0
 89 90  1  0
 90 91  1  0
 91 92  1  0
 92 93  1  0
 93 94  1  0
 94 95  1  0
 95  1  1  0
M  END
>  <Title>  (96) 
idAABXgen7

$$$$

     RDKit          2D

 11 10  0  0  0  0  0  0  0  0999 V2000
    0.0000    0.0000    0.0000 C   0  0  0  0  0  0  0  0  0  0  0  0
    1.2990    0.7500    0.0000 C   0  0  0  0  0  0  0  0  0  0  0  0
    2.5981   -0.0000    0.0000 C   0  0  0  0  0  0  0  0  0  0  0  0
    3.8971    0.7500    0.0000 C   0  0  0  0  0  0  0  0  0  0  0  0
    5.1962   -0.0000    0.0000 C   0  0  0  0  0  0  0  0  0  0  0  0
    6.4952    0.7500    0.0000 C   0  0  0  0  0  0  0  0  0  0  0  0
    7.7942   -0.0000    0.0000 C   0  0  0  0  0  0  0  0  0  0  0  0
    9.0933    0.7500    0.0000 C   0  0  0  0  0  0  0  0  0  0  0  0
   10.3923   -0.0000    0.0000 C   0  0  0  0  0  0  0  0  0  0  0  0
   11.6913    0.7500    0.0000 C   0  0  0  0  0  0  0  0  0  0  0  0
   12.9904   -0.0000    0.0000 C   0  0  0  0  0  0  0  0  0  0  0  0
  1  2  2  0
  2  3  1  0
  3  4  1  0
  4  5  1  0
  5  6  1  0
  6  7  1  0
  7  8  1  0
  8  9  1  0
  9 10  1  0
 10 11  1  0
M  END
>  <Title>  (97) 
idAABYgen7

$$$$

     RDKit          2D

 38 43  0  0  0  0  0  0  0  0999 V2000
    3.1097   -7.2078    0.0000 C   0  0  0  0  0  0  0  0  0  0  0  0
    2.0490   -6.1471    0.0000 C   0  0  0  0  0  0  0  0  0  0  0  0
    2.7990   -4.8481    0.0000 C   0  0  0  0  0  0  0  0  0  0  0  0
    2.7990   -3.3481    0.0000 C   0  0  0  0  0  0  0  0  0  0  0  0
    2.0490   -2.0490    0.0000 C   0  0  0  0  0  0  0  0  0  0  0  0
    3.1097   -0.9884    0.0000 C   0  0  0  0  0  0  0  0  0  0  0  0
    2.7215    0.4605    0.0000 O   0  0  0  0  0  0  0  0  0  0  0  0
    4.5586   -1.3766    0.0000 N   0  0  0  0  0  0  0  0  0  0  0  0
    5.6192   -0.3159    0.0000 C   0  0  0  0  0  0  0  0  0  0  0  0
    7.0681   -0.7042    0.0000 N   0  0  0  0  0  0  0  0  0  0  0  0
    8.1288    0.3565    0.0000 N   0  0  0  0  0  0  0  0  0  0  0  0
    7.7406    1.8054    0.0000 N   0  0  0  0  0  0  0  0  0  0  0  0
    6.2917    2.1936    0.0000 N   0  0  0  0  0  0  0  0  0  0  0  0
    5.2310    1.1329    0.0000 N   0  0  0  0  0  0  0  0  0  0  0  0
    0.7500   -1.2990    0.0000 C   0  0  0  0  0  0  0  0  0  0  0  0
    1.5000    0.0000    0.0000 C   0  0  0  0  0  0  0  0  0  0  0  0
    0.7500    1.2990    0.0000 C   0  0  0  0  0  0  0  0  0  0  0  0
   -0.7500    1.2990    0.0000 C   0  0  0  0  0  0  0  0  0  0  0  0
   -1.5000    0.0000    0.0000 C   0  0  0  0  0  0  0  0  0  0  0  0
   -0.7500   -1.2990    0.0000 C   0  0  0  0  0  0  0  0  0  0  0  0
   -2.0490   -2.0490    0.0000 C   0  0  0  0  0  0  0  0  0  0  0  0
   -2.7990   -0.7500    0.0000 C   0  0  0  0  0  0  0  0  0  0  0  0
   -4.2990   -0.7500    0.0000 C   0  0  0  0  0  0  0  0  0  0  0  0
   -5.0490   -2.0490    0.0000 C   0  0  0  0  0  0  0  0  0  0  0  0
   -4.2990   -3.3481    0.0000 C   0  0  0  0  0  0  0  0  0  0  0  0
   -2.7990   -3.3481    0.0000 C   0  0  0  0  0  0  0  0  0  0  0  0
   -2.7990   -4.8481    0.0000 C   0  0  0  0  0  0  0  0  0  0  0  0
   -4.2990   -4.8481    0.0000 C   0  0  0  0  0  0  0  0  0  0  0  0
   -5.0490   -6.1471    0.0000 C   0  0  0  0  0  0  0  0  0  0  0  0
   -4.2990   -7.4462    0.0000 C   0  0  0  0  0  0  0  0  0  0  0  0
   -2.7990   -7.4462    0.0000 C   0  0  0  0  0  0  0  0  0  0  0  0
   -2.0490   -6.1471    0.0000 C   0  0  0  0  0  0  0  0  0  0  0  0
   -0.7500   -6.8971    0.0000 C   0  0  0  0  0  0  0  0  0  0  0  0
   -1.5000   -8.1962    0.0000 C   0  0  0  0  0  0  0  0  0  0  0  0
   -0.7500   -9.4952    0.0000 C   0  0  0  0  0  0  0  0  0  0  0  0
    0.7500   -9.4952    0.0000 C   0  0  0  0  0  0  0  0  0  0  0  0
    1.5000   -8.1962    0.0000 C   0  0  0  0  0  0  0  0  0  0  0  0
    0.7500   -6.8971    0.0000 C   0  0  0  0  0  0  0  0  0  0  0  0
  1  2  1  0
  2  3  1  0
  3  4  1  0
  4  5  1  0
  5  6  1  0
  6  7  2  0
  6  8  1  0
  8  9  1  0
  9 10  2  0
 10 11  1  0
 11 12  2  0
 12 13  1  0
 13 14  2  0
  5 15  1  0
 15 16  2  0
 16 17  1  0
 17 18  2  0
 18 19  1  0
 19 20  2  0
 20 21  1  0
 21 22  2  0
 22 23  1  0
 23 24  2  0
 24 25  1  0
 25 26  2  0
 26 27  1  0
 27 28  2  0
 28 29  1  0
 29 30  2  0
 30 31  1  0
 31 32  2  0
 32 33  1  0
 33 34  2  0
 34 35  1  0
 35 36  2  0
 36 37  1  0
 37 38  2  0
 38  2  1  0
 14  9  1  0
 20 15  1  0
 26 21  1  0
 32 27  1  0
 38 33  1  0
M  END
>  <Title>  (98) 
idAABZgen7

$$$$

     RDKit          2D

  9  8  0  0  0  0  0  0  0  0999 V2000
    0.0000    0.0000    0.0000 C   0  0  0  0  0  0  0  0  0  0  0  0
    1.2990    0.7500    0.0000 C   0  0  0  0  0  0  0  0  0  0  0  0
    2.5981   -0.0000    0.0000 C   0  0  0  0  0  0  0  0  0  0  0  0
    3.8971   -0.7500    0.0000 C   0  0  0  0  0  0  0  0  0  0  0  0
    5.1962   -1.5000    0.0000 C   0  0  0  0  0  0  0  0  0  0  0  0
    6.4952   -2.2500    0.0000 C   0  0  0  0  0  0  0  0  0  0  0  0
    7.7942   -3.0000    0.0000 C   0  0  0  0  0  0  0  0  0  0  0  0
    9.0933   -2.2500    0.0000 C   0  0  0  0  0  0  0  0  0  0  0  0
   10.3923   -3.0000    0.0000 C   0  0  0  0  0  0  0  0  0  0  0  0
  1  2  1  0
  2  3  1  0
  3  4  3  0
  4  5  1  0
  5  6  3  0
  6  7  1  0
  7  8  1  0
  8  9  1  0
M  END
>  <Title>  (99) 
idAACAgen7

$$$$

     RDKit          2D

  6  5  0  0  0  0  0  0  0  0999 V2000
    0.0000    0.0000    0.0000 C   0  0  0  0  0  0  0  0  0  0  0  0
    1.2990    0.7500    0.0000 C   0  0  0  0  0  0  0  0  0  0  0  0
    2.5981    1.5000    0.0000 C   0  0  0  0  0  0  0  0  0  0  0  0
    3.8971    2.2500    0.0000 C   0  0  0  0  0  0  0  0  0  0  0  0
    5.1962    1.5000    0.0000 C   0  0  0  0  0  0  0  0  0  0  0  0
    3.8971    3.7500    0.0000 C   0  0  0  0  0  0  0  0  0  0  0  0
  1  2  1  0
  2  3  3  0
  3  4  1  0
  4  5  1  0
  4  6  1  0
M  END
>  <Title>  (100) 
idAACBgen7

$$$$

     RDKit          2D

 32 36  0  0  0  0  0  0  0  0999 V2000
    1.2135   -7.3421    0.0000 C   0  0  0  0  0  0  0  0  0  0  0  0
    0.7500   -5.9156    0.0000 C   0  0  0  0  0  0  0  0  0  0  0  0
    1.9635   -5.0339    0.0000 C   0  0  0  0  0  0  0  0  0  0  0  0
    2.4271   -3.6073    0.0000 C   0  0  0  0  0  0  0  0  0  0  0  0
    1.9635   -2.1807    0.0000 C   0  0  0  0  0  0  0  0  0  0  0  0
    3.1771   -1.2990    0.0000 C   0  0  0  0  0  0  0  0  0  0  0  0
    3.0203    0.1927    0.0000 O   0  0  0  0  0  0  0  0  0  0  0  0
    4.5474   -1.9091    0.0000 N   0  0  0  0  0  0  0  0  0  0  0  0
    5.7609   -1.0275    0.0000 C   0  0  0  0  0  0  0  0  0  0  0  0
    7.1312   -1.6376    0.0000 N   0  0  0  0  0  0  0  0  0  0  0  0
    8.3447   -0.7559    0.0000 N   0  0  0  0  0  0  0  0  0  0  0  0
    8.1879    0.7359    0.0000 N   0  0  0  0  0  0  0  0  0  0  0  0
    6.8176    1.3460    0.0000 N   0  0  0  0  0  0  0  0  0  0  0  0
    5.6041    0.4643    0.0000 N   0  0  0  0  0  0  0  0  0  0  0  0
    0.7500   -1.2990    0.0000 C   0  0  0  0  0  0  0  0  0  0  0  0
    1.5000    0.0000    0.0000 C   0  0  0  0  0  0  0  0  0  0  0  0
    0.7500    1.2990    0.0000 C   0  0  0  0  0  0  0  0  0  0  0  0
   -0.7500    1.2990    0.0000 C   0  0  0  0  0  0  0  0  0  0  0  0
   -1.5000    0.0000    0.0000 C   0  0  0  0  0  0  0  0  0  0  0  0
   -0.7500   -1.2990    0.0000 C   0  0  0  0  0  0  0  0  0  0  0  0
   -1.9635   -2.1807    0.0000 C   0  0  0  0  0  0  0  0  0  0  0  0
   -2.9672   -1.0660    0.0000 C   0  0  0  0  0  0  0  0  0  0  0  0
   -4.4344   -1.3779    0.0000 C   0  0  0  0  0  0  0  0  0  0  0  0
   -4.8980   -2.8045    0.0000 C   0  0  0  0  0  0  0  0  0  0  0  0
   -3.8943   -3.9192    0.0000 C   0  0  0  0  0  0  0  0  0  0  0  0
   -2.4271   -3.6073    0.0000 C   0  0  0  0  0  0  0  0  0  0  0  0
   -1.9635   -5.0339    0.0000 C   0  0  0  0  0  0  0  0  0  0  0  0
   -3.3338   -5.6440    0.0000 C   0  0  0  0  0  0  0  0  0  0  0  0
   -3.4906   -7.1358    0.0000 C   0  0  0  0  0  0  0  0  0  0  0  0
   -2.2771   -8.0175    0.0000 C   0  0  0  0  0  0  0  0  0  0  0  0
   -0.9068   -7.4073    0.0000 C   0  0  0  0  0  0  0  0  0  0  0  0
   -0.7500   -5.9156    0.0000 C   0  0  0  0  0  0  0  0  0  0  0  0
  1  2  1  0
  2  3  1  0
  3  4  1  0
  4  5  2  0
  5  6  1  0
  6  7  2  0
  6  8  1  0
  8  9  1  0
  9 10  2  0
 10 11  1  0
 11 12  2  0
 12 13  1  0
 13 14  2  0
  5 15  1  0
 15 16  2  0
 16 17  1  0
 17 18  2  0
 18 19  1  0
 19 20  2  0
 20 21  1  0
 21 22  2  0
 22 23  1  0
 23 24  2  0
 24 25  1  0
 25 26  2  0
 26 27  1  0
 27 28  2  0
 28 29  1  0
 29 30  2  0
 30 31  1  0
 31 32  2  0
 32  2  1  0
 14  9  1  0
 20 15  1  0
 26 21  1  0
 32 27  1  0
M  END
>  <Title>  (101) 
idAACCgen7

$$$$

     RDKit          2D

  8  8  0  0  0  0  0  0  0  0999 V2000
    2.7760    0.0000    0.0000 C   0  0  0  0  0  0  0  0  0  0  0  0
    1.2760    0.0000    0.0000 C   0  0  0  0  0  0  0  0  0  0  0  0
    0.3943    1.2135    0.0000 C   0  0  0  0  0  0  0  0  0  0  0  0
   -1.0323    0.7500    0.0000 C   0  0  0  0  0  0  0  0  0  0  0  0
   -2.2458    1.6317    0.0000 C   0  0  0  0  0  0  0  0  0  0  0  0
   -3.4593    2.5134    0.0000 N   0  0  0  0  0  0  0  0  0  0  0  0
   -1.0323   -0.7500    0.0000 C   0  0  0  0  0  0  0  0  0  0  0  0
    0.3943   -1.2135    0.0000 C   0  0  0  0  0  0  0  0  0  0  0  0
  1  2  1  0
  2  3  1  0
  3  4  2  0
  4  5  1  0
  5  6  3  0
  4  7  1  0
  7  8  1  0
  8  2  1  0
M  END
>  <Title>  (102) 
idAACDgen7

$$$$

     RDKit          2D

110113  0  0  0  0  0  0  0  0999 V2000
  -10.0792   -1.9407    0.0000 C   0  0  0  0  0  0  0  0  0  0  0  0
   -9.4661   -3.3097    0.0000 C   0  0  0  0  0  0  0  0  0  0  0  0
  -10.8146   -3.9667    0.0000 C   0  0  0  0  0  0  0  0  0  0  0  0
  -12.1176   -4.7097    0.0000 C   0  0  0  0  0  0  0  0  0  0  0  0
  -13.3699   -5.5355    0.0000 C   0  0  0  0  0  0  0  0  0  0  0  0
  -14.5660   -6.4406    0.0000 C   0  0  0  0  0  0  0  0  0  0  0  0
  -15.7011   -7.4212    0.0000 C   0  0  0  0  0  0  0  0  0  0  0  0
  -16.7703   -8.4732    0.0000 C   0  0  0  0  0  0  0  0  0  0  0  0
  -17.7692   -9.5923    0.0000 C   0  0  0  0  0  0  0  0  0  0  0  0
  -18.6935  -10.7736    0.0000 C   0  0  0  0  0  0  0  0  0  0  0  0
  -19.5395  -12.0123    0.0000 C   0  0  0  0  0  0  0  0  0  0  0  0
  -20.3034  -13.3032    0.0000 C   0  0  0  0  0  0  0  0  0  0  0  0
  -20.9823  -14.6408    0.0000 C   0  0  0  0  0  0  0  0  0  0  0  0
  -21.5731  -16.0195    0.0000 C   0  0  0  0  0  0  0  0  0  0  0  0
  -22.0734  -17.4336    0.0000 C   0  0  0  0  0  0  0  0  0  0  0  0
  -22.4812  -18.8772    0.0000 C   0  0  0  0  0  0  0  0  0  0  0  0
  -22.7946  -20.3440    0.0000 C   0  0  0  0  0  0  0  0  0  0  0  0
  -23.0124  -21.8281    0.0000 C   0  0  0  0  0  0  0  0  0  0  0  0
  -23.1338  -23.3232    0.0000 C   0  0  0  0  0  0  0  0  0  0  0  0
  -23.1581  -24.8230    0.0000 C   0  0  0  0  0  0  0  0  0  0  0  0
  -23.0852  -26.3213    0.0000 C   0  0  0  0  0  0  0  0  0  0  0  0
  -22.9155  -27.8116    0.0000 C   0  0  0  0  0  0  0  0  0  0  0  0
  -22.6498  -29.2879    0.0000 C   0  0  0  0  0  0  0  0  0  0  0  0
  -22.2890  -30.7439    0.0000 C   0  0  0  0  0  0  0  0  0  0  0  0
  -21.8347  -32.1734    0.0000 C   0  0  0  0  0  0  0  0  0  0  0  0
  -21.2888  -33.5706    0.0000 C   0  0  0  0  0  0  0  0  0  0  0  0
  -20.6537  -34.9295    0.0000 C   0  0  0  0  0  0  0  0  0  0  0  0
  -19.9319  -36.2444    0.0000 C   0  0  0  0  0  0  0  0  0  0  0  0
  -19.1265  -37.5098    0.0000 C   0  0  0  0  0  0  0  0  0  0  0  0
  -18.2409  -38.7205    0.0000 C   0  0  0  0  0  0  0  0  0  0  0  0
  -17.2788  -39.8713    0.0000 C   0  0  0  0  0  0  0  0  0  0  0  0
  -16.2442  -40.9574    0.0000 C   0  0  0  0  0  0  0  0  0  0  0  0
  -15.1415  -41.9743    0.0000 C   0  0  0  0  0  0  0  0  0  0  0  0
  -13.9753  -42.9176    0.0000 C   0  0  0  0  0  0  0  0  0  0  0  0
  -12.7504  -43.7835    0.0000 C   0  0  0  0  0  0  0  0  0  0  0  0
  -11.4721  -44.5683    0.0000 C   0  0  0  0  0  0  0  0  0  0  0  0
  -10.1457  -45.2687    0.0000 C   0  0  0  0  0  0  0  0  0  0  0  0
   -8.7767  -45.8818    0.0000 C   0  0  0  0  0  0  0  0  0  0  0  0
   -7.3709  -46.4049    0.0000 C   0  0  0  0  0  0  0  0  0  0  0  0
   -5.9341  -46.8360    0.0000 C   0  0  0  0  0  0  0  0  0  0  0  0
   -4.4725  -47.1731    0.0000 C   0  0  0  0  0  0  0  0  0  0  0  0
   -2.9921  -47.4150    0.0000 C   0  0  0  0  0  0  0  0  0  0  0  0
   -1.4992  -47.5605    0.0000 C   0  0  0  0  0  0  0  0  0  0  0  0
   -0.0000  -47.6091    0.0000 C   0  0  0  0  0  0  0  0  0  0  0  0
    1.4992  -47.5605    0.0000 C   0  0  0  0  0  0  0  0  0  0  0  0
    2.9921  -47.4150    0.0000 C   0  0  0  0  0  0  0  0  0  0  0  0
    4.4725  -47.1731    0.0000 C   0  0  0  0  0  0  0  0  0  0  0  0
    5.9341  -46.8360    0.0000 C   0  0  0  0  0  0  0  0  0  0  0  0
    7.3709  -46.4049    0.0000 C   0  0  0  0  0  0  0  0  0  0  0  0
    8.7767  -45.8818    0.0000 C   0  0  0  0  0  0  0  0  0  0  0  0
   10.1457  -45.2687    0.0000 C   0  0  0  0  0  0  0  0  0  0  0  0
   11.4721  -44.5683    0.0000 C   0  0  0  0  0  0  0  0  0  0  0  0
   12.7504  -43.7835    0.0000 C   0  0  0  0  0  0  0  0  0  0  0  0
   13.9753  -42.9176    0.0000 C   0  0  0  0  0  0  0  0  0  0  0  0
   15.1415  -41.9743    0.0000 C   0  0  0  0  0  0  0  0  0  0  0  0
   16.2442  -40.9574    0.0000 C   0  0  0  0  0  0  0  0  0  0  0  0
   17.2788  -39.8713    0.0000 C   0  0  0  0  0  0  0  0  0  0  0  0
   18.2409  -38.7205    0.0000 C   0  0  0  0  0  0  0  0  0  0  0  0
   19.1265  -37.5098    0.0000 C   0  0  0  0  0  0  0  0  0  0  0  0
   19.9319  -36.2444    0.0000 C   0  0  0  0  0  0  0  0  0  0  0  0
   20.6537  -34.9295    0.0000 C   0  0  0  0  0  0  0  0  0  0  0  0
   21.2888  -33.5706    0.0000 C   0  0  0  0  0  0  0  0  0  0  0  0
   21.8347  -32.1734    0.0000 C   0  0  0  0  0  0  0  0  0  0  0  0
   22.2890  -30.7439    0.0000 C   0  0  0  0  0  0  0  0  0  0  0  0
   22.6498  -29.2879    0.0000 C   0  0  0  0  0  0  0  0  0  0  0  0
   22.9155  -27.8116    0.0000 C   0  0  0  0  0  0  0  0  0  0  0  0
   23.0852  -26.3213    0.0000 C   0  0  0  0  0  0  0  0  0  0  0  0
   23.1581  -24.8230    0.0000 C   0  0  0  0  0  0  0  0  0  0  0  0
   23.1338  -23.3232    0.0000 C   0  0  0  0  0  0  0  0  0  0  0  0
   23.0124  -21.8281    0.0000 C   0  0  0  0  0  0  0  0  0  0  0  0
   22.7946  -20.3440    0.0000 C   0  0  0  0  0  0  0  0  0  0  0  0
   22.4812  -18.8772    0.0000 C   0  0  0  0  0  0  0  0  0  0  0  0
   22.0734  -17.4336    0.0000 C   0  0  0  0  0  0  0  0  0  0  0  0
   21.5731  -16.0195    0.0000 C   0  0  0  0  0  0  0  0  0  0  0  0
   20.9823  -14.6408    0.0000 C   0  0  0  0  0  0  0  0  0  0  0  0
   20.3034  -13.3032    0.0000 C   0  0  0  0  0  0  0  0  0  0  0  0
   19.5395  -12.0123    0.0000 C   0  0  0  0  0  0  0  0  0  0  0  0
   18.6935  -10.7736    0.0000 C   0  0  0  0  0  0  0  0  0  0  0  0
   17.7692   -9.5923    0.0000 C   0  0  0  0  0  0  0  0  0  0  0  0
   16.7703   -8.4732    0.0000 C   0  0  0  0  0  0  0  0  0  0  0  0
   15.7011   -7.4212    0.0000 C   0  0  0  0  0  0  0  0  0  0  0  0
   14.5660   -6.4406    0.0000 C   0  0  0  0  0  0  0  0  0  0  0  0
   13.3699   -5.5355    0.0000 C   0  0  0  0  0  0  0  0  0  0  0  0
   12.1176   -4.7097    0.0000 C   0  0  0  0  0  0  0  0  0  0  0  0
   10.8146   -3.9667    0.0000 C   0  0  0  0  0  0  0  0  0  0  0  0
    9.4661   -3.3097    0.0000 C   0  0  0  0  0  0  0  0  0  0  0  0
    8.0780   -2.7413    0.0000 C   0  0  0  0  0  0  0  0  0  0  0  0
    6.6560   -2.2639    0.0000 C   0  0  0  0  0  0  0  0  0  0  0  0
    5.2061   -1.8796    0.0000 C   0  0  0  0  0  0  0  0  0  0  0  0
    3.7343   -1.5899    0.0000 C   0  0  0  0  0  0  0  0  0  0  0  0
    2.2469   -1.3961    0.0000 C   0  0  0  0  0  0  0  0  0  0  0  0
    0.7500   -1.2990    0.0000 C   0  0  0  0  0  0  0  0  0  0  0  0
    1.5000    0.0000    0.0000 C   0  0  0  0  0  0  0  0  0  0  0  0
    0.7500    1.2990    0.0000 C   0  0  0  0  0  0  0  0  0  0  0  0
   -0.7500    1.2990    0.0000 C   0  0  0  0  0  0  0  0  0  0  0  0
   -1.5000    0.0000    0.0000 C   0  0  0  0  0  0  0  0  0  0  0  0
   -0.7500   -1.2990    0.0000 C   0  0  0  0  0  0  0  0  0  0  0  0
   -2.2469   -1.3961    0.0000 C   0  0  0  0  0  0  0  0  0  0  0  0
   -1.3353   -2.5874    0.0000 C   0  0  0  0  0  0  0  0  0  0  0  0
   -1.9112   -3.9724    0.0000 C   0  0  0  0  0  0  0  0  0  0  0  0
   -3.3986   -4.1662    0.0000 C   0  0  0  0  0  0  0  0  0  0  0  0
   -4.3102   -2.9750    0.0000 C   0  0  0  0  0  0  0  0  0  0  0  0
   -3.7343   -1.5899    0.0000 C   0  0  0  0  0  0  0  0  0  0  0  0
   -5.2061   -1.8796    0.0000 C   0  0  0  0  0  0  0  0  0  0  0  0
   -4.8139   -0.4317    0.0000 C   0  0  0  0  0  0  0  0  0  0  0  0
   -5.8717    0.6318    0.0000 C   0  0  0  0  0  0  0  0  0  0  0  0
   -7.3216    0.2475    0.0000 C   0  0  0  0  0  0  0  0  0  0  0  0
   -7.7138   -1.2004    0.0000 C   0  0  0  0  0  0  0  0  0  0  0  0
   -6.6560   -2.2639    0.0000 C   0  0  0  0  0  0  0  0  0  0  0  0
   -8.0780   -2.7413    0.0000 C   0  0  0  0  0  0  0  0  0  0  0  0
  1  2  1  0
  2  3  1  0
  3  4  1  0
  4  5  1  0
  5  6  1  0
  6  7  1  0
  7  8  1  0
  8  9  1  0
  9 10  1  0
 10 11  1  0
 11 12  1  0
 12 13  1  0
 13 14  1  0
 14 15  1  0
 15 16  1  0
 16 17  1  0
 17 18  1  0
 18 19  1  0
 19 20  1  0
 20 21  1  0
 21 22  1  0
 22 23  1  0
 23 24  1  0
 24 25  1  0
 25 26  1  0
 26 27  1  0
 27 28  1  0
 28 29  1  0
 29 30  1  0
 30 31  1  0
 31 32  1  0
 32 33  1  0
 33 34  1  0
 34 35  1  0
 35 36  1  0
 36 37  1  0
 37 38  1  0
 38 39  1  0
 39 40  1  0
 40 41  1  0
 41 42  1  0
 42 43  1  0
 43 44  1  0
 44 45  1  0
 45 46  1  0
 46 47  1  0
 47 48  1  0
 48 49  1  0
 49 50  1  0
 50 51  1  0
 51 52  1  0
 52 53  1  0
 53 54  1  0
 54 55  1  0
 55 56  1  0
 56 57  1  0
 57 58  1  0
 58 59  1  0
 59 60  1  0
 60 61  1  0
 61 62  1  0
 62 63  1  0
 63 64  1  0
 64 65  1  0
 65 66  1  0
 66 67  1  0
 67 68  1  0
 68 69  1  0
 69 70  1  0
 70 71  1  0
 71 72  1  0
 72 73  1  0
 73 74  1  0
 74 75  1  0
 75 76  1  0
 76 77  1  0
 77 78  1  0
 78 79  1  0
 79 80  1  0
 80 81  1  0
 81 82  1  0
 82 83  1  0
 83 84  1  0
 84 85  1  0
 85 86  1  0
 86 87  1  0
 87 88  1  0
 88 89  1  0
 89 90  1  0
 90 91  1  0
 91 92  1  0
 92 93  2  0
 93 94  1  0
 94 95  2  0
 95 96  1  0
 96 97  2  0
 97 98  1  0
 98 99  2  0
 99100  1  0
100101  2  0
101102  1  0
102103  2  0
103104  1  0
104105  2  0
105106  1  0
106107  2  0
107108  1  0
108109  2  0
109110  1  0
110  2  1  0
 97 92  1  0
103 98  1  0
109104  1  0
M  END
>  <Title>  (103) 
idAACEgen7

$$$$

     RDKit          2D

 18 19  0  0  0  0  0  0  0  0999 V2000
    0.3207  -11.1638    0.0000 C   0  0  0  0  0  0  0  0  0  0  0  0
    0.4775   -9.6721    0.0000 C   0  0  0  0  0  0  0  0  0  0  0  0
   -0.7360   -8.7904    0.0000 O   0  0  0  0  0  0  0  0  0  0  0  0
    1.8478   -9.0619    0.0000 N   0  0  0  0  0  0  0  0  0  0  0  0
    2.0046   -7.5702    0.0000 C   0  0  0  0  0  0  0  0  0  0  0  0
    3.3037   -6.8202    0.0000 C   0  0  0  0  0  0  0  0  0  0  0  0
    2.9918   -5.3529    0.0000 C   0  0  0  0  0  0  0  0  0  0  0  0
    1.5000   -5.1962    0.0000 C   0  0  0  0  0  0  0  0  0  0  0  0
    0.7500   -3.8971    0.0000 C   0  0  0  0  0  0  0  0  0  0  0  0
   -0.7500   -3.8971    0.0000 O   0  0  0  0  0  0  0  0  0  0  0  0
    1.5000   -2.5981    0.0000 N   0  0  0  0  0  0  0  0  0  0  0  0
    0.7500   -1.2990    0.0000 C   0  0  0  0  0  0  0  0  0  0  0  0
    1.5000    0.0000    0.0000 N   0  0  0  0  0  0  0  0  0  0  0  0
    0.7500    1.2990    0.0000 N   0  0  0  0  0  0  0  0  0  0  0  0
   -0.7500    1.2990    0.0000 N   0  0  0  0  0  0  0  0  0  0  0  0
   -1.5000    0.0000    0.0000 N   0  0  0  0  0  0  0  0  0  0  0  0
   -0.7500   -1.2990    0.0000 N   0  0  0  0  0  0  0  0  0  0  0  0
    0.8899   -6.5665    0.0000 C   0  0  0  0  0  0  0  0  0  0  0  0
  1  2  1  0
  2  3  2  0
  2  4  1  0
  4  5  1  0
  5  6  1  0
  6  7  1  0
  7  8  1  0
  8  9  1  0
  9 10  2  0
  9 11  1  0
 11 12  1  0
 12 13  2  0
 13 14  1  0
 14 15  2  0
 15 16  1  0
 16 17  2  0
  8 18  1  0
 18  5  1  0
 17 12  1  0
M  END
>  <Title>  (104) 
idAACFgen7

$$$$

     RDKit          2D

 47 47  0  0  0  0  0  0  0  0999 V2000
   11.2288    0.0000    0.0000 C   0  0  0  0  0  0  0  0  0  0  0  0
   11.1286    1.4967    0.0000 C   0  0  0  0  0  0  0  0  0  0  0  0
   10.8298    2.9666    0.0000 C   0  0  0  0  0  0  0  0  0  0  0  0
   10.3378    4.3836    0.0000 C   0  0  0  0  0  0  0  0  0  0  0  0
    9.6613    5.7224    0.0000 C   0  0  0  0  0  0  0  0  0  0  0  0
    8.8123    6.9590    0.0000 C   0  0  0  0  0  0  0  0  0  0  0  0
    7.8062    8.0715    0.0000 C   0  0  0  0  0  0  0  0  0  0  0  0
    6.6607    9.0400    0.0000 C   0  0  0  0  0  0  0  0  0  0  0  0
    5.3963    9.8471    0.0000 C   0  0  0  0  0  0  0  0  0  0  0  0
    4.0357   10.4785    0.0000 C   0  0  0  0  0  0  0  0  0  0  0  0
    2.6031   10.9229    0.0000 C   0  0  0  0  0  0  0  0  0  0  0  0
    1.1240   11.1724    0.0000 C   0  0  0  0  0  0  0  0  0  0  0  0
   -0.3752   11.2225    0.0000 C   0  0  0  0  0  0  0  0  0  0  0  0
   -1.8677   11.0724    0.0000 C   0  0  0  0  0  0  0  0  0  0  0  0
   -3.3268   10.7246    0.0000 C   0  0  0  0  0  0  0  0  0  0  0  0
   -4.7266   10.1855    0.0000 C   0  0  0  0  0  0  0  0  0  0  0  0
   -6.0420    9.4647    0.0000 C   0  0  0  0  0  0  0  0  0  0  0  0
   -7.2496    8.5749    0.0000 C   0  0  0  0  0  0  0  0  0  0  0  0
   -8.3279    7.5321    0.0000 C   0  0  0  0  0  0  0  0  0  0  0  0
   -9.2575    6.3549    0.0000 C   0  0  0  0  0  0  0  0  0  0  0  0
  -10.0219    5.0643    0.0000 C   0  0  0  0  0  0  0  0  0  0  0  0
  -10.6075    3.6833    0.0000 C   0  0  0  0  0  0  0  0  0  0  0  0
  -11.0038    2.2366    0.0000 C   0  0  0  0  0  0  0  0  0  0  0  0
  -11.2037    0.7500    0.0000 C   0  0  0  0  0  0  0  0  0  0  0  0
  -11.2037   -0.7500    0.0000 C   0  0  0  0  0  0  0  0  0  0  0  0
  -11.0038   -2.2366    0.0000 C   0  0  0  0  0  0  0  0  0  0  0  0
  -10.6075   -3.6833    0.0000 C   0  0  0  0  0  0  0  0  0  0  0  0
  -10.0219   -5.0643    0.0000 C   0  0  0  0  0  0  0  0  0  0  0  0
   -9.2575   -6.3549    0.0000 C   0  0  0  0  0  0  0  0  0  0  0  0
   -8.3279   -7.5321    0.0000 C   0  0  0  0  0  0  0  0  0  0  0  0
   -7.2496   -8.5749    0.0000 C   0  0  0  0  0  0  0  0  0  0  0  0
   -6.0420   -9.4647    0.0000 C   0  0  0  0  0  0  0  0  0  0  0  0
   -4.7266  -10.1855    0.0000 C   0  0  0  0  0  0  0  0  0  0  0  0
   -3.3268  -10.7246    0.0000 C   0  0  0  0  0  0  0  0  0  0  0  0
   -1.8677  -11.0724    0.0000 C   0  0  0  0  0  0  0  0  0  0  0  0
   -0.3752  -11.2225    0.0000 C   0  0  0  0  0  0  0  0  0  0  0  0
    1.1240  -11.1724    0.0000 C   0  0  0  0  0  0  0  0  0  0  0  0
    2.6031  -10.9229    0.0000 C   0  0  0  0  0  0  0  0  0  0  0  0
    4.0357  -10.4785    0.0000 C   0  0  0  0  0  0  0  0  0  0  0  0
    5.3963   -9.8471    0.0000 C   0  0  0  0  0  0  0  0  0  0  0  0
    6.6607   -9.0400    0.0000 C   0  0  0  0  0  0  0  0  0  0  0  0
    7.8062   -8.0715    0.0000 C   0  0  0  0  0  0  0  0  0  0  0  0
    8.8123   -6.9590    0.0000 C   0  0  0  0  0  0  0  0  0  0  0  0
    9.6613   -5.7224    0.0000 C   0  0  0  0  0  0  0  0  0  0  0  0
   10.3378   -4.3836    0.0000 C   0  0  0  0  0  0  0  0  0  0  0  0
   10.8298   -2.9666    0.0000 C   0  0  0  0  0  0  0  0  0  0  0  0
   11.1286   -1.4967    0.0000 C   0  0  0  0  0  0  0  0  0  0  0  0
  1  2  1  0
  2  3  1  0
  3  4  1  0
  4  5  1  0
  5  6  1  0
  6  7  1  0
  7  8  1  0
  8  9  1  0
  9 10  1  0
 10 11  1  0
 11 12  1  0
 12 13  1  0
 13 14  1  0
 14 15  1  0
 15 16  1  0
 16 17  1  0
 17 18  1  0
 18 19  1  0
 19 20  1  0
 20 21  1  0
 21 22  1  0
 22 23  1  0
 23 24  1  0
 24 25  1  0
 25 26  1  0
 26 27  1  0
 27 28  1  0
 28 29  1  0
 29 30  1  0
 30 31  1  0
 31 32  1  0
 32 33  1  0
 33 34  1  0
 34 35  1  0
 35 36  1  0
 36 37  1  0
 37 38  1  0
 38 39  1  0
 39 40  1  0
 40 41  1  0
 41 42  1  0
 42 43  1  0
 43 44  1  0
 44 45  1  0
 45 46  1  0
 46 47  1  0
 47  1  1  0
M  END
>  <Title>  (105) 
idAACGgen7

$$$$

     RDKit          2D

 12 12  0  0  0  0  0  0  0  0999 V2000
    4.1621    0.0000    0.0000 C   0  0  0  0  0  0  0  0  0  0  0  0
    2.6621    0.0000    0.0000 C   0  0  0  0  0  0  0  0  0  0  0  0
    2.2395    1.4392    0.0000 C   0  0  0  0  0  0  0  0  0  0  0  0
    1.1059    2.4215    0.0000 C   0  0  0  0  0  0  0  0  0  0  0  0
   -0.3789    2.6350    0.0000 C   0  0  0  0  0  0  0  0  0  0  0  0
   -1.7433    2.0119    0.0000 C   0  0  0  0  0  0  0  0  0  0  0  0
   -2.5543    0.7500    0.0000 C   0  0  0  0  0  0  0  0  0  0  0  0
   -2.5543   -0.7500    0.0000 C   0  0  0  0  0  0  0  0  0  0  0  0
   -1.7433   -2.0119    0.0000 C   0  0  0  0  0  0  0  0  0  0  0  0
   -0.3789   -2.6350    0.0000 C   0  0  0  0  0  0  0  0  0  0  0  0
    1.1059   -2.4215    0.0000 C   0  0  0  0  0  0  0  0  0  0  0  0
    2.2395   -1.4392    0.0000 C   0  0  0  0  0  0  0  0  0  0  0  0
  1  2  1  0
  2  3  1  0
  3  4  1  0
  4  5  2  0
  5  6  1  0
  6  7  2  0
  7  8  1  0
  8  9  1  0
  9 10  1  0
 10 11  1  0
 11 12  1  0
 12  2  1  0
M  END
>  <Title>  (106) 
idAACHgen7

$$$$

     RDKit          2D

 10 10  0  0  0  0  0  0  0  0999 V2000
    7.5000    0.0000    0.0000 C   0  0  0  0  0  0  0  0  0  0  0  0
    6.0000    0.0000    0.0000 C   0  0  0  0  0  0  0  0  0  0  0  0
    4.5000    0.0000    0.0000 C   0  0  0  0  0  0  0  0  0  0  0  0
    3.0000    0.0000    0.0000 C   0  0  0  0  0  0  0  0  0  0  0  0
    1.5000    0.0000    0.0000 C   0  0  0  0  0  0  0  0  0  0  0  0
    0.7500   -1.2990    0.0000 C   0  0  0  0  0  0  0  0  0  0  0  0
   -0.7500   -1.2990    0.0000 C   0  0  0  0  0  0  0  0  0  0  0  0
   -1.5000    0.0000    0.0000 C   0  0  0  0  0  0  0  0  0  0  0  0
   -0.7500    1.2990    0.0000 C   0  0  0  0  0  0  0  0  0  0  0  0
    0.7500    1.2990    0.0000 C   0  0  0  0  0  0  0  0  0  0  0  0
  1  2  3  0
  2  3  1  0
  3  4  3  0
  4  5  1  0
  5  6  1  0
  6  7  1  0
  7  8  1  0
  8  9  1  0
  9 10  1  0
 10  5  1  0
M  END
>  <Title>  (107) 
idAACIgen7

$$$$

     RDKit          2D

  9  9  0  0  0  0  0  0  0  0999 V2000
    2.7760   -2.5981    0.0000 O   0  0  0  0  0  0  0  0  0  0  0  0
    3.5260   -1.2990    0.0000 C   0  0  0  0  0  0  0  0  0  0  0  0
    5.0260   -1.2990    0.0000 O   0  0  0  0  0  0  0  0  0  0  0  0
    2.7760    0.0000    0.0000 N   0  0  0  0  0  0  0  0  0  0  0  0
    1.2760    0.0000    0.0000 C   0  0  0  0  0  0  0  0  0  0  0  0
    0.3943    1.2135    0.0000 C   0  0  0  0  0  0  0  0  0  0  0  0
   -1.0323    0.7500    0.0000 C   0  0  0  0  0  0  0  0  0  0  0  0
   -1.0323   -0.7500    0.0000 C   0  0  0  0  0  0  0  0  0  0  0  0
    0.3943   -1.2135    0.0000 C   0  0  0  0  0  0  0  0  0  0  0  0
  1  2  2  0
  2  3  1  0
  2  4  1  0
  4  5  1  0
  5  6  2  0
  6  7  1  0
  7  8  1  0
  8  9  2  0
  9  5  1  0
M  END
>  <Title>  (108) 
idAACJgen7

$$$$

     RDKit          2D

123123  0  0  0  0  0  0  0  0999 V2000
   29.3673    0.0000    0.0000 C   0  0  0  0  0  0  0  0  0  0  0  0
   29.3290    1.4995    0.0000 C   0  0  0  0  0  0  0  0  0  0  0  0
   29.2141    2.9951    0.0000 C   0  0  0  0  0  0  0  0  0  0  0  0
   29.0231    4.4829    0.0000 C   0  0  0  0  0  0  0  0  0  0  0  0
   28.7563    5.9590    0.0000 C   0  0  0  0  0  0  0  0  0  0  0  0
   28.4146    7.4195    0.0000 C   0  0  0  0  0  0  0  0  0  0  0  0
   27.9987    8.8607    0.0000 C   0  0  0  0  0  0  0  0  0  0  0  0
   27.5097   10.2788    0.0000 C   0  0  0  0  0  0  0  0  0  0  0  0
   26.9490   11.6700    0.0000 C   0  0  0  0  0  0  0  0  0  0  0  0
   26.3179   13.0308    0.0000 C   0  0  0  0  0  0  0  0  0  0  0  0
   25.6183   14.3577    0.0000 C   0  0  0  0  0  0  0  0  0  0  0  0
   24.8517   15.6470    0.0000 C   0  0  0  0  0  0  0  0  0  0  0  0
   24.0204   16.8955    0.0000 C   0  0  0  0  0  0  0  0  0  0  0  0
   23.1263   18.1000    0.0000 C   0  0  0  0  0  0  0  0  0  0  0  0
   22.1720   19.2572    0.0000 C   0  0  0  0  0  0  0  0  0  0  0  0
   21.1598   20.3642    0.0000 C   0  0  0  0  0  0  0  0  0  0  0  0
   20.0923   21.4181    0.0000 C   0  0  0  0  0  0  0  0  0  0  0  0
   18.9725   22.4161    0.0000 C   0  0  0  0  0  0  0  0  0  0  0  0
   17.8032   23.3556    0.0000 C   0  0  0  0  0  0  0  0  0  0  0  0
   16.5874   24.2342    0.0000 C   0  0  0  0  0  0  0  0  0  0  0  0
   15.3284   25.0495    0.0000 C   0  0  0  0  0  0  0  0  0  0  0  0
   14.0293   25.7995    0.0000 C   0  0  0  0  0  0  0  0  0  0  0  0
   12.6937   26.4822    0.0000 C   0  0  0  0  0  0  0  0  0  0  0  0
   11.3249   27.0958    0.0000 C   0  0  0  0  0  0  0  0  0  0  0  0
    9.9266   27.6387    0.0000 C   0  0  0  0  0  0  0  0  0  0  0  0
    8.5024   28.1095    0.0000 C   0  0  0  0  0  0  0  0  0  0  0  0
    7.0561   28.5070    0.0000 C   0  0  0  0  0  0  0  0  0  0  0  0
    5.5913   28.8301    0.0000 C   0  0  0  0  0  0  0  0  0  0  0  0
    4.1119   29.0780    0.0000 C   0  0  0  0  0  0  0  0  0  0  0  0
    2.6218   29.2500    0.0000 C   0  0  0  0  0  0  0  0  0  0  0  0
    1.1248   29.3457    0.0000 C   0  0  0  0  0  0  0  0  0  0  0  0
   -0.3750   29.3649    0.0000 C   0  0  0  0  0  0  0  0  0  0  0  0
   -1.8739   29.3074    0.0000 C   0  0  0  0  0  0  0  0  0  0  0  0
   -3.3679   29.1735    0.0000 C   0  0  0  0  0  0  0  0  0  0  0  0
   -4.8532   28.9635    0.0000 C   0  0  0  0  0  0  0  0  0  0  0  0
   -6.3257   28.6779    0.0000 C   0  0  0  0  0  0  0  0  0  0  0  0
   -7.7818   28.3175    0.0000 C   0  0  0  0  0  0  0  0  0  0  0  0
   -9.2175   27.8832    0.0000 C   0  0  0  0  0  0  0  0  0  0  0  0
  -10.6293   27.3762    0.0000 C   0  0  0  0  0  0  0  0  0  0  0  0
  -12.0132   26.7977    0.0000 C   0  0  0  0  0  0  0  0  0  0  0  0
  -13.3659   26.1494    0.0000 C   0  0  0  0  0  0  0  0  0  0  0  0
  -14.6836   25.4328    0.0000 C   0  0  0  0  0  0  0  0  0  0  0  0
  -15.9631   24.6499    0.0000 C   0  0  0  0  0  0  0  0  0  0  0  0
  -17.2009   23.8026    0.0000 C   0  0  0  0  0  0  0  0  0  0  0  0
  -18.3939   22.8933    0.0000 C   0  0  0  0  0  0  0  0  0  0  0  0
  -19.5388   21.9242    0.0000 C   0  0  0  0  0  0  0  0  0  0  0  0
  -20.6328   20.8980    0.0000 C   0  0  0  0  0  0  0  0  0  0  0  0
  -21.6729   19.8172    0.0000 C   0  0  0  0  0  0  0  0  0  0  0  0
  -22.6565   18.6847    0.0000 C   0  0  0  0  0  0  0  0  0  0  0  0
  -23.5810   17.5035    0.0000 C   0  0  0  0  0  0  0  0  0  0  0  0
  -24.4440   16.2766    0.0000 C   0  0  0  0  0  0  0  0  0  0  0  0
  -25.2432   15.0072    0.0000 C   0  0  0  0  0  0  0  0  0  0  0  0
  -25.9766   13.6987    0.0000 C   0  0  0  0  0  0  0  0  0  0  0  0
  -26.6422   12.3545    0.0000 C   0  0  0  0  0  0  0  0  0  0  0  0
  -27.2382   10.9780    0.0000 C   0  0  0  0  0  0  0  0  0  0  0  0
  -27.7632    9.5729    0.0000 C   0  0  0  0  0  0  0  0  0  0  0  0
  -28.2158    8.1428    0.0000 C   0  0  0  0  0  0  0  0  0  0  0  0
  -28.5948    6.6914    0.0000 C   0  0  0  0  0  0  0  0  0  0  0  0
  -28.8992    5.2226    0.0000 C   0  0  0  0  0  0  0  0  0  0  0  0
  -29.1281    3.7402    0.0000 C   0  0  0  0  0  0  0  0  0  0  0  0
  -29.2811    2.2480    0.0000 C   0  0  0  0  0  0  0  0  0  0  0  0
  -29.3577    0.7500    0.0000 C   0  0  0  0  0  0  0  0  0  0  0  0
  -29.3577   -0.7500    0.0000 C   0  0  0  0  0  0  0  0  0  0  0  0
  -29.2811   -2.2480    0.0000 C   0  0  0  0  0  0  0  0  0  0  0  0
  -29.1281   -3.7402    0.0000 C   0  0  0  0  0  0  0  0  0  0  0  0
  -28.8992   -5.2226    0.0000 C   0  0  0  0  0  0  0  0  0  0  0  0
  -28.5948   -6.6914    0.0000 C   0  0  0  0  0  0  0  0  0  0  0  0
  -28.2158   -8.1428    0.0000 C   0  0  0  0  0  0  0  0  0  0  0  0
  -27.7632   -9.5729    0.0000 C   0  0  0  0  0  0  0  0  0  0  0  0
  -27.2382  -10.9780    0.0000 C   0  0  0  0  0  0  0  0  0  0  0  0
  -26.6422  -12.3545    0.0000 C   0  0  0  0  0  0  0  0  0  0  0  0
  -25.9766  -13.6987    0.0000 C   0  0  0  0  0  0  0  0  0  0  0  0
  -25.2432  -15.0072    0.0000 C   0  0  0  0  0  0  0  0  0  0  0  0
  -24.4440  -16.2766    0.0000 C   0  0  0  0  0  0  0  0  0  0  0  0
  -23.5810  -17.5035    0.0000 C   0  0  0  0  0  0  0  0  0  0  0  0
  -22.6565  -18.6847    0.0000 C   0  0  0  0  0  0  0  0  0  0  0  0
  -21.6729  -19.8172    0.0000 C   0  0  0  0  0  0  0  0  0  0  0  0
  -20.6328  -20.8980    0.0000 C   0  0  0  0  0  0  0  0  0  0  0  0
  -19.5388  -21.9242    0.0000 C   0  0  0  0  0  0  0  0  0  0  0  0
  -18.3939  -22.8933    0.0000 C   0  0  0  0  0  0  0  0  0  0  0  0
  -17.2009  -23.8026    0.0000 C   0  0  0  0  0  0  0  0  0  0  0  0
  -15.9631  -24.6499    0.0000 C   0  0  0  0  0  0  0  0  0  0  0  0
  -14.6836  -25.4328    0.0000 C   0  0  0  0  0  0  0  0  0  0  0  0
  -13.3659  -26.1494    0.0000 C   0  0  0  0  0  0  0  0  0  0  0  0
  -12.0132  -26.7977    0.0000 C   0  0  0  0  0  0  0  0  0  0  0  0
  -10.6293  -27.3762    0.0000 C   0  0  0  0  0  0  0  0  0  0  0  0
   -9.2175  -27.8832    0.0000 C   0  0  0  0  0  0  0  0  0  0  0  0
   -7.7818  -28.3175    0.0000 C   0  0  0  0  0  0  0  0  0  0  0  0
   -6.3257  -28.6779    0.0000 C   0  0  0  0  0  0  0  0  0  0  0  0
   -4.8532  -28.9635    0.0000 C   0  0  0  0  0  0  0  0  0  0  0  0
   -3.3679  -29.1735    0.0000 C   0  0  0  0  0  0  0  0  0  0  0  0
   -1.8739  -29.3074    0.0000 C   0  0  0  0  0  0  0  0  0  0  0  0
   -0.3750  -29.3649    0.0000 C   0  0  0  0  0  0  0  0  0  0  0  0
    1.1248  -29.3457    0.0000 C   0  0  0  0  0  0  0  0  0  0  0  0
    2.6218  -29.2500    0.0000 C   0  0  0  0  0  0  0  0  0  0  0  0
    4.1119  -29.0780    0.0000 C   0  0  0  0  0  0  0  0  0  0  0  0
    5.5913  -28.8301    0.0000 C   0  0  0  0  0  0  0  0  0  0  0  0
    7.0561  -28.5070    0.0000 C   0  0  0  0  0  0  0  0  0  0  0  0
    8.5024  -28.1095    0.0000 C   0  0  0  0  0  0  0  0  0  0  0  0
    9.9266  -27.6387    0.0000 C   0  0  0  0  0  0  0  0  0  0  0  0
   11.3249  -27.0958    0.0000 C   0  0  0  0  0  0  0  0  0  0  0  0
   12.6937  -26.4822    0.0000 C   0  0  0  0  0  0  0  0  0  0  0  0
   14.0293  -25.7995    0.0000 C   0  0  0  0  0  0  0  0  0  0  0  0
   15.3284  -25.0495    0.0000 C   0  0  0  0  0  0  0  0  0  0  0  0
   16.5874  -24.2342    0.0000 C   0  0  0  0  0  0  0  0  0  0  0  0
   17.8032  -23.3556    0.0000 C   0  0  0  0  0  0  0  0  0  0  0  0
   18.9725  -22.4161    0.0000 C   0  0  0  0  0  0  0  0  0  0  0  0
   20.0923  -21.4181    0.0000 C   0  0  0  0  0  0  0  0  0  0  0  0
   21.1598  -20.3642    0.0000 C   0  0  0  0  0  0  0  0  0  0  0  0
   22.1720  -19.2572    0.0000 C   0  0  0  0  0  0  0  0  0  0  0  0
   23.1263  -18.1000    0.0000 C   0  0  0  0  0  0  0  0  0  0  0  0
   24.0204  -16.8955    0.0000 C   0  0  0  0  0  0  0  0  0  0  0  0
   24.8517  -15.6470    0.0000 C   0  0  0  0  0  0  0  0  0  0  0  0
   25.6183  -14.3577    0.0000 C   0  0  0  0  0  0  0  0  0  0  0  0
   26.3179  -13.0308    0.0000 C   0  0  0  0  0  0  0  0  0  0  0  0
   26.9490  -11.6700    0.0000 C   0  0  0  0  0  0  0  0  0  0  0  0
   27.5097  -10.2788    0.0000 C   0  0  0  0  0  0  0  0  0  0  0  0
   27.9987   -8.8607    0.0000 C   0  0  0  0  0  0  0  0  0  0  0  0
   28.4146   -7.4195    0.0000 C   0  0  0  0  0  0  0  0  0  0  0  0
   28.7563   -5.9590    0.0000 C   0  0  0  0  0  0  0  0  0  0  0  0
   29.0231   -4.4829    0.0000 C   0  0  0  0  0  0  0  0  0  0  0  0
   29.2141   -2.9951    0.0000 C   0  0  0  0  0  0  0  0  0  0  0  0
   29.3290   -1.4995    0.0000 C   0  0  0  0  0  0  0  0  0  0  0  0
  1  2  2  0
  2  3  1  0
  3  4  2  0
  4  5  1  0
  5  6  1  0
  6  7  1  0
  7  8  1  0
  8  9  1  0
  9 10  1  0
 10 11  1  0
 11 12  1  0
 12 13  1  0
 13 14  1  0
 14 15  1  0
 15 16  1  0
 16 17  1  0
 17 18  1  0
 18 19  1  0
 19 20  1  0
 20 21  1  0
 21 22  1  0
 22 23  1  0
 23 24  1  0
 24 25  1  0
 25 26  1  0
 26 27  1  0
 27 28  1  0
 28 29  1  0
 29 30  1  0
 30 31  1  0
 31 32  1  0
 32 33  1  0
 33 34  1  0
 34 35  1  0
 35 36  1  0
 36 37  1  0
 37 38  1  0
 38 39  1  0
 39 40  1  0
 40 41  1  0
 41 42  1  0
 42 43  1  0
 43 44  1  0
 44 45  1  0
 45 46  1  0
 46 47  1  0
 47 48  1  0
 48 49  1  0
 49 50  1  0
 50 51  1  0
 51 52  1  0
 52 53  1  0
 53 54  1  0
 54 55  1  0
 55 56  1  0
 56 57  1  0
 57 58  1  0
 58 59  1  0
 59 60  1  0
 60 61  1  0
 61 62  1  0
 62 63  1  0
 63 64  1  0
 64 65  1  0
 65 66  1  0
 66 67  1  0
 67 68  1  0
 68 69  1  0
 69 70  1  0
 70 71  1  0
 71 72  1  0
 72 73  1  0
 73 74  1  0
 74 75  1  0
 75 76  1  0
 76 77  1  0
 77 78  1  0
 78 79  1  0
 79 80  1  0
 80 81  1  0
 81 82  1  0
 82 83  1  0
 83 84  1  0
 84 85  1  0
 85 86  1  0
 86 87  1  0
 87 88  1  0
 88 89  1  0
 89 90  1  0
 90 91  1  0
 91 92  1  0
 92 93  1  0
 93 94  1  0
 94 95  1  0
 95 96  1  0
 96 97  1  0
 97 98  1  0
 98 99  1  0
 99100  1  0
100101  1  0
101102  1  0
102103  1  0
103104  1  0
104105  1  0
105106  1  0
106107  1  0
107108  1  0
108109  1  0
109110  1  0
110111  1  0
111112  1  0
112113  1  0
113114  1  0
114115  1  0
115116  1  0
116117  1  0
117118  1  0
118119  1  0
119120  1  0
120121  1  0
121122  1  0
122123  2  0
123  1  1  0
M  END
>  <Title>  (109) 
idAACKgen7

$$$$

     RDKit          2D

  8  8  0  0  0  0  0  0  0  0999 V2000
    2.3907    1.0037    0.0000 C   0  0  0  0  0  0  0  0  0  0  0  0
    1.2760    0.0000    0.0000 C   0  0  0  0  0  0  0  0  0  0  0  0
    2.3907   -1.0037    0.0000 C   0  0  0  0  0  0  0  0  0  0  0  0
    0.3943    1.2135    0.0000 C   0  0  0  0  0  0  0  0  0  0  0  0
   -1.0323    0.7500    0.0000 C   0  0  0  0  0  0  0  0  0  0  0  0
   -1.0323   -0.7500    0.0000 C   0  0  0  0  0  0  0  0  0  0  0  0
    0.3943   -1.2135    0.0000 C   0  0  0  0  0  0  0  0  0  0  0  0
    0.8578   -2.6401    0.0000 O   0  0  0  0  0  0  0  0  0  0  0  0
  1  2  1  0
  2  3  1  0
  2  4  1  0
  4  5  1  0
  5  6  2  0
  6  7  1  0
  7  8  2  0
  7  2  1  0
M  END
>  <Title>  (110) 
idAACLgen7

$$$$

     RDKit          2D

 65 65  0  0  0  0  0  0  0  0999 V2000
   16.5464    0.0000    0.0000 C   0  0  0  0  0  0  0  0  0  0  0  0
   15.0464    0.0000    0.0000 C   0  0  0  0  0  0  0  0  0  0  0  0
   14.9716    1.4981    0.0000 C   0  0  0  0  0  0  0  0  0  0  0  0
   14.7480    2.9814    0.0000 C   0  0  0  0  0  0  0  0  0  0  0  0
   14.3779    4.4350    0.0000 C   0  0  0  0  0  0  0  0  0  0  0  0
   13.8649    5.8445    0.0000 C   0  0  0  0  0  0  0  0  0  0  0  0
   13.2141    7.1960    0.0000 C   0  0  0  0  0  0  0  0  0  0  0  0
   12.4319    8.4759    0.0000 C   0  0  0  0  0  0  0  0  0  0  0  0
   11.5262    9.6716    0.0000 C   0  0  0  0  0  0  0  0  0  0  0  0
   10.5059   10.7712    0.0000 C   0  0  0  0  0  0  0  0  0  0  0  0
    9.3813   11.7637    0.0000 C   0  0  0  0  0  0  0  0  0  0  0  0
    8.1634   12.6393    0.0000 C   0  0  0  0  0  0  0  0  0  0  0  0
    6.8643   13.3893    0.0000 C   0  0  0  0  0  0  0  0  0  0  0  0
    5.4971   14.0063    0.0000 C   0  0  0  0  0  0  0  0  0  0  0  0
    4.0752   14.4840    0.0000 C   0  0  0  0  0  0  0  0  0  0  0  0
    2.6128   14.8178    0.0000 C   0  0  0  0  0  0  0  0  0  0  0  0
    1.1244   15.0043    0.0000 C   0  0  0  0  0  0  0  0  0  0  0  0
   -0.3751   15.0417    0.0000 C   0  0  0  0  0  0  0  0  0  0  0  0
   -1.8709   14.9296    0.0000 C   0  0  0  0  0  0  0  0  0  0  0  0
   -3.3481   14.6691    0.0000 C   0  0  0  0  0  0  0  0  0  0  0  0
   -4.7921   14.2629    0.0000 C   0  0  0  0  0  0  0  0  0  0  0  0
   -6.1884   13.7149    0.0000 C   0  0  0  0  0  0  0  0  0  0  0  0
   -7.5232   13.0305    0.0000 C   0  0  0  0  0  0  0  0  0  0  0  0
   -8.7832   12.2167    0.0000 C   0  0  0  0  0  0  0  0  0  0  0  0
   -9.9560   11.2815    0.0000 C   0  0  0  0  0  0  0  0  0  0  0  0
  -11.0298   10.2341    0.0000 C   0  0  0  0  0  0  0  0  0  0  0  0
  -11.9940    9.0851    0.0000 C   0  0  0  0  0  0  0  0  0  0  0  0
  -12.8389    7.8457    0.0000 C   0  0  0  0  0  0  0  0  0  0  0  0
  -13.5563    6.5284    0.0000 C   0  0  0  0  0  0  0  0  0  0  0  0
  -14.1390    5.1462    0.0000 C   0  0  0  0  0  0  0  0  0  0  0  0
  -14.5811    3.7128    0.0000 C   0  0  0  0  0  0  0  0  0  0  0  0
  -14.8783    2.2425    0.0000 C   0  0  0  0  0  0  0  0  0  0  0  0
  -15.0277    0.7500    0.0000 C   0  0  0  0  0  0  0  0  0  0  0  0
  -15.0277   -0.7500    0.0000 C   0  0  0  0  0  0  0  0  0  0  0  0
  -14.8783   -2.2425    0.0000 C   0  0  0  0  0  0  0  0  0  0  0  0
  -14.5811   -3.7128    0.0000 C   0  0  0  0  0  0  0  0  0  0  0  0
  -14.1390   -5.1462    0.0000 C   0  0  0  0  0  0  0  0  0  0  0  0
  -13.5563   -6.5284    0.0000 C   0  0  0  0  0  0  0  0  0  0  0  0
  -12.8389   -7.8457    0.0000 C   0  0  0  0  0  0  0  0  0  0  0  0
  -11.9940   -9.0851    0.0000 C   0  0  0  0  0  0  0  0  0  0  0  0
  -11.0298  -10.2341    0.0000 C   0  0  0  0  0  0  0  0  0  0  0  0
   -9.9560  -11.2815    0.0000 C   0  0  0  0  0  0  0  0  0  0  0  0
   -8.7832  -12.2167    0.0000 C   0  0  0  0  0  0  0  0  0  0  0  0
   -7.5232  -13.0305    0.0000 C   0  0  0  0  0  0  0  0  0  0  0  0
   -6.1884  -13.7149    0.0000 C   0  0  0  0  0  0  0  0  0  0  0  0
   -4.7921  -14.2629    0.0000 C   0  0  0  0  0  0  0  0  0  0  0  0
   -3.3481  -14.6691    0.0000 C   0  0  0  0  0  0  0  0  0  0  0  0
   -1.8709  -14.9296    0.0000 C   0  0  0  0  0  0  0  0  0  0  0  0
   -0.3751  -15.0417    0.0000 C   0  0  0  0  0  0  0  0  0  0  0  0
    1.1244  -15.0043    0.0000 C   0  0  0  0  0  0  0  0  0  0  0  0
    2.6128  -14.8178    0.0000 C   0  0  0  0  0  0  0  0  0  0  0  0
    4.0752  -14.4840    0.0000 C   0  0  0  0  0  0  0  0  0  0  0  0
    5.4971  -14.0063    0.0000 C   0  0  0  0  0  0  0  0  0  0  0  0
    6.8643  -13.3893    0.0000 C   0  0  0  0  0  0  0  0  0  0  0  0
    8.1634  -12.6393    0.0000 C   0  0  0  0  0  0  0  0  0  0  0  0
    9.3813  -11.7637    0.0000 C   0  0  0  0  0  0  0  0  0  0  0  0
   10.5059  -10.7712    0.0000 C   0  0  0  0  0  0  0  0  0  0  0  0
   11.5262   -9.6716    0.0000 C   0  0  0  0  0  0  0  0  0  0  0  0
   12.4319   -8.4759    0.0000 C   0  0  0  0  0  0  0  0  0  0  0  0
   13.2141   -7.1960    0.0000 C   0  0  0  0  0  0  0  0  0  0  0  0
   13.8649   -5.8445    0.0000 C   0  0  0  0  0  0  0  0  0  0  0  0
   14.3779   -4.4350    0.0000 C   0  0  0  0  0  0  0  0  0  0  0  0
   14.7480   -2.9814    0.0000 C   0  0  0  0  0  0  0  0  0  0  0  0
   16.2183   -3.2786    0.0000 C   0  0  0  0  0  0  0  0  0  0  0  0
   14.9716   -1.4981    0.0000 C   0  0  0  0  0  0  0  0  0  0  0  0
  1  2  1  0
  2  3  1  0
  3  4  1  0
  4  5  1  0
  5  6  1  0
  6  7  1  0
  7  8  1  0
  8  9  2  0
  9 10  1  0
 10 11  2  0
 11 12  1  0
 12 13  2  0
 13 14  1  0
 14 15  1  0
 15 16  1  0
 16 17  1  0
 17 18  1  0
 18 19  1  0
 19 20  1  0
 20 21  1  0
 21 22  1  0
 22 23  1  0
 23 24  1  0
 24 25  1  0
 25 26  1  0
 26 27  1  0
 27 28  1  0
 28 29  1  0
 29 30  1  0
 30 31  1  0
 31 32  1  0
 32 33  1  0
 33 34  1  0
 34 35  1  0
 35 36  1  0
 36 37  1  0
 37 38  1  0
 38 39  1  0
 39 40  1  0
 40 41  1  0
 41 42  1  0
 42 43  1  0
 43 44  1  0
 44 45  1  0
 45 46  1  0
 46 47  1  0
 47 48  1  0
 48 49  1  0
 49 50  1  0
 50 51  1  0
 51 52  1  0
 52 53  1  0
 53 54  1  0
 54 55  1  0
 55 56  1  0
 56 57  1  0
 57 58  1  0
 58 59  1  0
 59 60  1  0
 60 61  1  0
 61 62  1  0
 62 63  1  0
 63 64  1  0
 63 65  1  0
 65  2  1  0
M  END
>  <Title>  (111) 
idAACMgen7

$$$$

     RDKit          2D

120120  0  0  0  0  0  0  0  0999 V2000
   29.9125    0.0000    0.0000 C   0  0  0  0  0  0  0  0  0  0  0  0
   28.4125    0.0000    0.0000 C   0  0  0  0  0  0  0  0  0  0  0  0
   28.3729    1.4995    0.0000 C   0  0  0  0  0  0  0  0  0  0  0  0
   28.2542    2.9948    0.0000 C   0  0  0  0  0  0  0  0  0  0  0  0
   28.0568    4.4817    0.0000 C   0  0  0  0  0  0  0  0  0  0  0  0
   27.7811    5.9562    0.0000 C   0  0  0  0  0  0  0  0  0  0  0  0
   27.4281    7.4140    0.0000 C   0  0  0  0  0  0  0  0  0  0  0  0
   26.9986    8.8512    0.0000 C   0  0  0  0  0  0  0  0  0  0  0  0
   26.4938   10.2638    0.0000 C   0  0  0  0  0  0  0  0  0  0  0  0
   25.9152   11.6477    0.0000 C   0  0  0  0  0  0  0  0  0  0  0  0
   25.2644   12.9991    0.0000 C   0  0  0  0  0  0  0  0  0  0  0  0
   24.5432   14.3144    0.0000 C   0  0  0  0  0  0  0  0  0  0  0  0
   23.7535   15.5897    0.0000 C   0  0  0  0  0  0  0  0  0  0  0  0
   22.8977   16.8216    0.0000 C   0  0  0  0  0  0  0  0  0  0  0  0
   21.9780   18.0065    0.0000 C   0  0  0  0  0  0  0  0  0  0  0  0
   20.9971   19.1413    0.0000 C   0  0  0  0  0  0  0  0  0  0  0  0
   19.9576   20.2228    0.0000 C   0  0  0  0  0  0  0  0  0  0  0  0
   18.8625   21.2479    0.0000 C   0  0  0  0  0  0  0  0  0  0  0  0
   17.7149   22.2138    0.0000 C   0  0  0  0  0  0  0  0  0  0  0  0
   16.5179   23.1177    0.0000 C   0  0  0  0  0  0  0  0  0  0  0  0
   15.2748   23.9572    0.0000 C   0  0  0  0  0  0  0  0  0  0  0  0
   13.9892   24.7300    0.0000 C   0  0  0  0  0  0  0  0  0  0  0  0
   12.6645   25.4338    0.0000 C   0  0  0  0  0  0  0  0  0  0  0  0
   11.3046   26.0667    0.0000 C   0  0  0  0  0  0  0  0  0  0  0  0
    9.9132   26.6270    0.0000 C   0  0  0  0  0  0  0  0  0  0  0  0
    8.4941   27.1131    0.0000 C   0  0  0  0  0  0  0  0  0  0  0  0
    7.0514   27.5236    0.0000 C   0  0  0  0  0  0  0  0  0  0  0  0
    5.5890   27.8573    0.0000 C   0  0  0  0  0  0  0  0  0  0  0  0
    4.1110   28.1135    0.0000 C   0  0  0  0  0  0  0  0  0  0  0  0
    2.6216   28.2913    0.0000 C   0  0  0  0  0  0  0  0  0  0  0  0
    1.1248   28.3902    0.0000 C   0  0  0  0  0  0  0  0  0  0  0  0
   -0.3750   28.4100    0.0000 C   0  0  0  0  0  0  0  0  0  0  0  0
   -1.8739   28.3506    0.0000 C   0  0  0  0  0  0  0  0  0  0  0  0
   -3.3675   28.2122    0.0000 C   0  0  0  0  0  0  0  0  0  0  0  0
   -4.8517   27.9952    0.0000 C   0  0  0  0  0  0  0  0  0  0  0  0
   -6.3224   27.7001    0.0000 C   0  0  0  0  0  0  0  0  0  0  0  0
   -7.7754   27.3278    0.0000 C   0  0  0  0  0  0  0  0  0  0  0  0
   -9.2068   26.8794    0.0000 C   0  0  0  0  0  0  0  0  0  0  0  0
  -10.6126   26.3560    0.0000 C   0  0  0  0  0  0  0  0  0  0  0  0
  -11.9887   25.7592    0.0000 C   0  0  0  0  0  0  0  0  0  0  0  0
  -13.3315   25.0906    0.0000 C   0  0  0  0  0  0  0  0  0  0  0  0
  -14.6371   24.3521    0.0000 C   0  0  0  0  0  0  0  0  0  0  0  0
  -15.9019   23.5457    0.0000 C   0  0  0  0  0  0  0  0  0  0  0  0
  -17.1223   22.6736    0.0000 C   0  0  0  0  0  0  0  0  0  0  0  0
  -18.2951   21.7384    0.0000 C   0  0  0  0  0  0  0  0  0  0  0  0
  -19.4168   20.7426    0.0000 C   0  0  0  0  0  0  0  0  0  0  0  0
  -20.4845   19.6889    0.0000 C   0  0  0  0  0  0  0  0  0  0  0  0
  -21.4950   18.5804    0.0000 C   0  0  0  0  0  0  0  0  0  0  0  0
  -22.4456   17.4201    0.0000 C   0  0  0  0  0  0  0  0  0  0  0  0
  -23.3337   16.2113    0.0000 C   0  0  0  0  0  0  0  0  0  0  0  0
  -24.1568   14.9572    0.0000 C   0  0  0  0  0  0  0  0  0  0  0  0
  -24.9125   13.6615    0.0000 C   0  0  0  0  0  0  0  0  0  0  0  0
  -25.5987   12.3277    0.0000 C   0  0  0  0  0  0  0  0  0  0  0  0
  -26.2137   10.9595    0.0000 C   0  0  0  0  0  0  0  0  0  0  0  0
  -26.7555    9.5608    0.0000 C   0  0  0  0  0  0  0  0  0  0  0  0
  -27.2228    8.1355    0.0000 C   0  0  0  0  0  0  0  0  0  0  0  0
  -27.6142    6.6874    0.0000 C   0  0  0  0  0  0  0  0  0  0  0  0
  -27.9287    5.2208    0.0000 C   0  0  0  0  0  0  0  0  0  0  0  0
  -28.1653    3.7396    0.0000 C   0  0  0  0  0  0  0  0  0  0  0  0
  -28.3234    2.2479    0.0000 C   0  0  0  0  0  0  0  0  0  0  0  0
  -28.4026    0.7500    0.0000 C   0  0  0  0  0  0  0  0  0  0  0  0
  -28.4026   -0.7500    0.0000 C   0  0  0  0  0  0  0  0  0  0  0  0
  -28.3234   -2.2479    0.0000 C   0  0  0  0  0  0  0  0  0  0  0  0
  -28.1653   -3.7396    0.0000 C   0  0  0  0  0  0  0  0  0  0  0  0
  -27.9287   -5.2208    0.0000 C   0  0  0  0  0  0  0  0  0  0  0  0
  -27.6142   -6.6874    0.0000 C   0  0  0  0  0  0  0  0  0  0  0  0
  -27.2228   -8.1355    0.0000 C   0  0  0  0  0  0  0  0  0  0  0  0
  -26.7555   -9.5608    0.0000 C   0  0  0  0  0  0  0  0  0  0  0  0
  -26.2137  -10.9595    0.0000 C   0  0  0  0  0  0  0  0  0  0  0  0
  -25.5987  -12.3277    0.0000 C   0  0  0  0  0  0  0  0  0  0  0  0
  -24.9125  -13.6615    0.0000 C   0  0  0  0  0  0  0  0  0  0  0  0
  -24.1568  -14.9572    0.0000 C   0  0  0  0  0  0  0  0  0  0  0  0
  -23.3337  -16.2113    0.0000 C   0  0  0  0  0  0  0  0  0  0  0  0
  -22.4456  -17.4201    0.0000 C   0  0  0  0  0  0  0  0  0  0  0  0
  -21.4950  -18.5804    0.0000 C   0  0  0  0  0  0  0  0  0  0  0  0
  -20.4845  -19.6889    0.0000 C   0  0  0  0  0  0  0  0  0  0  0  0
  -19.4168  -20.7426    0.0000 C   0  0  0  0  0  0  0  0  0  0  0  0
  -18.2951  -21.7384    0.0000 C   0  0  0  0  0  0  0  0  0  0  0  0
  -17.1223  -22.6736    0.0000 C   0  0  0  0  0  0  0  0  0  0  0  0
  -15.9019  -23.5457    0.0000 C   0  0  0  0  0  0  0  0  0  0  0  0
  -14.6371  -24.3521    0.0000 C   0  0  0  0  0  0  0  0  0  0  0  0
  -13.3315  -25.0906    0.0000 C   0  0  0  0  0  0  0  0  0  0  0  0
  -11.9887  -25.7592    0.0000 C   0  0  0  0  0  0  0  0  0  0  0  0
  -10.6126  -26.3560    0.0000 C   0  0  0  0  0  0  0  0  0  0  0  0
   -9.2068  -26.8794    0.0000 C   0  0  0  0  0  0  0  0  0  0  0  0
   -7.7754  -27.3278    0.0000 C   0  0  0  0  0  0  0  0  0  0  0  0
   -6.3224  -27.7001    0.0000 C   0  0  0  0  0  0  0  0  0  0  0  0
   -4.8517  -27.9952    0.0000 C   0  0  0  0  0  0  0  0  0  0  0  0
   -3.3675  -28.2122    0.0000 C   0  0  0  0  0  0  0  0  0  0  0  0
   -1.8739  -28.3506    0.0000 C   0  0  0  0  0  0  0  0  0  0  0  0
   -0.3750  -28.4100    0.0000 C   0  0  0  0  0  0  0  0  0  0  0  0
    1.1248  -28.3902    0.0000 C   0  0  0  0  0  0  0  0  0  0  0  0
    2.6216  -28.2913    0.0000 C   0  0  0  0  0  0  0  0  0  0  0  0
    4.1110  -28.1135    0.0000 C   0  0  0  0  0  0  0  0  0  0  0  0
    5.5890  -27.8573    0.0000 C   0  0  0  0  0  0  0  0  0  0  0  0
    7.0514  -27.5236    0.0000 C   0  0  0  0  0  0  0  0  0  0  0  0
    8.4941  -27.1131    0.0000 C   0  0  0  0  0  0  0  0  0  0  0  0
    9.9132  -26.6270    0.0000 C   0  0  0  0  0  0  0  0  0  0  0  0
   11.3046  -26.0667    0.0000 C   0  0  0  0  0  0  0  0  0  0  0  0
   12.6645  -25.4338    0.0000 C   0  0  0  0  0  0  0  0  0  0  0  0
   13.9892  -24.7300    0.0000 C   0  0  0  0  0  0  0  0  0  0  0  0
   15.2748  -23.9572    0.0000 C   0  0  0  0  0  0  0  0  0  0  0  0
   16.5179  -23.1177    0.0000 C   0  0  0  0  0  0  0  0  0  0  0  0
   17.7149  -22.2138    0.0000 C   0  0  0  0  0  0  0  0  0  0  0  0
   18.8625  -21.2479    0.0000 C   0  0  0  0  0  0  0  0  0  0  0  0
   19.9576  -20.2228    0.0000 C   0  0  0  0  0  0  0  0  0  0  0  0
   20.9971  -19.1413    0.0000 C   0  0  0  0  0  0  0  0  0  0  0  0
   21.9780  -18.0065    0.0000 C   0  0  0  0  0  0  0  0  0  0  0  0
   22.8977  -16.8216    0.0000 C   0  0  0  0  0  0  0  0  0  0  0  0
   23.7535  -15.5897    0.0000 C   0  0  0  0  0  0  0  0  0  0  0  0
   24.5432  -14.3144    0.0000 C   0  0  0  0  0  0  0  0  0  0  0  0
   25.2644  -12.9991    0.0000 C   0  0  0  0  0  0  0  0  0  0  0  0
   25.9152  -11.6477    0.0000 C   0  0  0  0  0  0  0  0  0  0  0  0
   26.4938  -10.2638    0.0000 C   0  0  0  0  0  0  0  0  0  0  0  0
   26.9986   -8.8512    0.0000 C   0  0  0  0  0  0  0  0  0  0  0  0
   27.4281   -7.4140    0.0000 C   0  0  0  0  0  0  0  0  0  0  0  0
   27.7811   -5.9562    0.0000 C   0  0  0  0  0  0  0  0  0  0  0  0
   28.0568   -4.4817    0.0000 C   0  0  0  0  0  0  0  0  0  0  0  0
   28.2542   -2.9948    0.0000 C   0  0  0  0  0  0  0  0  0  0  0  0
   28.3729   -1.4995    0.0000 C   0  0  0  0  0  0  0  0  0  0  0  0
  1  2  1  0
  2  3  1  0
  3  4  2  0
  4  5  1  0
  5  6  2  0
  6  7  1  0
  7  8  1  0
  8  9  1  0
  9 10  1  0
 10 11  1  0
 11 12  1  0
 12 13  1  0
 13 14  1  0
 14 15  1  0
 15 16  1  0
 16 17  1  0
 17 18  1  0
 18 19  1  0
 19 20  1  0
 20 21  1  0
 21 22  1  0
 22 23  1  0
 23 24  1  0
 24 25  1  0
 25 26  1  0
 26 27  1  0
 27 28  1  0
 28 29  1  0
 29 30  1  0
 30 31  1  0
 31 32  1  0
 32 33  1  0
 33 34  1  0
 34 35  1  0
 35 36  1  0
 36 37  1  0
 37 38  1  0
 38 39  1  0
 39 40  1  0
 40 41  1  0
 41 42  1  0
 42 43  1  0
 43 44  1  0
 44 45  1  0
 45 46  1  0
 46 47  1  0
 47 48  1  0
 48 49  1  0
 49 50  1  0
 50 51  1  0
 51 52  1  0
 52 53  1  0
 53 54  1  0
 54 55  1  0
 55 56  1  0
 56 57  1  0
 57 58  1  0
 58 59  1  0
 59 60  1  0
 60 61  1  0
 61 62  1  0
 62 63  1  0
 63 64  1  0
 64 65  1  0
 65 66  1  0
 66 67  1  0
 67 68  1  0
 68 69  1  0
 69 70  1  0
 70 71  1  0
 71 72  1  0
 72 73  1  0
 73 74  1  0
 74 75  1  0
 75 76  1  0
 76 77  1  0
 77 78  1  0
 78 79  1  0
 79 80  1  0
 80 81  1  0
 81 82  1  0
 82 83  1  0
 83 84  1  0
 84 85  1  0
 85 86  1  0
 86 87  1  0
 87 88  1  0
 88 89  1  0
 89 90  1  0
 90 91  1  0
 91 92  1  0
 92 93  1  0
 93 94  1  0
 94 95  1  0
 95 96  1  0
 96 97  1  0
 97 98  1  0
 98 99  1  0
 99100  1  0
100101  1  0
101102  1  0
102103  1  0
103104  1  0
104105  1  0
105106  1  0
106107  1  0
107108  1  0
108109  1  0
109110  1  0
110111  1  0
111112  1  0
112113  1  0
113114  1  0
114115  1  0
115116  1  0
116117  1  0
117118  1  0
118119  1  0
119120  1  0
120  2  1  0
M  END
>  <Title>  (112) 
idAACNgen7

$$$$

     RDKit          2D

  7  7  0  0  0  0  0  0  0  0999 V2000
    3.5260   -1.2990    0.0000 O   0  0  0  0  0  0  0  0  0  0  0  0
    2.7760    0.0000    0.0000 C   0  0  0  0  0  0  0  0  0  0  0  0
    1.2760    0.0000    0.0000 C   0  0  0  0  0  0  0  0  0  0  0  0
    0.3943    1.2135    0.0000 C   0  0  0  0  0  0  0  0  0  0  0  0
   -1.0323    0.7500    0.0000 C   0  0  0  0  0  0  0  0  0  0  0  0
   -1.0323   -0.7500    0.0000 C   0  0  0  0  0  0  0  0  0  0  0  0
    0.3943   -1.2135    0.0000 C   0  0  0  0  0  0  0  0  0  0  0  0
  1  2  1  0
  2  3  1  0
  3  4  2  0
  4  5  1  0
  5  6  1  0
  6  7  1  0
  7  3  1  0
M  END
>  <Title>  (113) 
idAACOgen7

$$$$

     RDKit          2D

 87 87  0  0  0  0  0  0  0  0999 V2000
   23.2969   -0.0000    0.0000 N   0  0  0  0  0  0  0  0  0  0  0  0
   21.7969    0.0000    0.0000 C   0  0  0  0  0  0  0  0  0  0  0  0
   20.2969    0.0000    0.0000 C   0  0  0  0  0  0  0  0  0  0  0  0
   20.2414    1.4990    0.0000 C   0  0  0  0  0  0  0  0  0  0  0  0
   20.0755    2.9898    0.0000 C   0  0  0  0  0  0  0  0  0  0  0  0
   19.7998    4.4642    0.0000 C   0  0  0  0  0  0  0  0  0  0  0  0
   19.4161    5.9143    0.0000 C   0  0  0  0  0  0  0  0  0  0  0  0
   18.9263    7.3321    0.0000 C   0  0  0  0  0  0  0  0  0  0  0  0
   18.3331    8.7098    0.0000 C   0  0  0  0  0  0  0  0  0  0  0  0
   17.6398   10.0400    0.0000 C   0  0  0  0  0  0  0  0  0  0  0  0
   16.8501   11.3153    0.0000 C   0  0  0  0  0  0  0  0  0  0  0  0
   15.9685   12.5288    0.0000 C   0  0  0  0  0  0  0  0  0  0  0  0
   14.9996   13.6739    0.0000 C   0  0  0  0  0  0  0  0  0  0  0  0
   13.9488   14.7443    0.0000 C   0  0  0  0  0  0  0  0  0  0  0  0
   12.8218   15.7342    0.0000 C   0  0  0  0  0  0  0  0  0  0  0  0
   11.6247   16.6382    0.0000 C   0  0  0  0  0  0  0  0  0  0  0  0
   10.3642   17.4513    0.0000 C   0  0  0  0  0  0  0  0  0  0  0  0
    9.0471   18.1690    0.0000 C   0  0  0  0  0  0  0  0  0  0  0  0
    7.6806   18.7876    0.0000 C   0  0  0  0  0  0  0  0  0  0  0  0
    6.2721   19.3035    0.0000 C   0  0  0  0  0  0  0  0  0  0  0  0
    4.8293   19.7140    0.0000 C   0  0  0  0  0  0  0  0  0  0  0  0
    3.3602   20.0168    0.0000 C   0  0  0  0  0  0  0  0  0  0  0  0
    1.8728   20.2103    0.0000 C   0  0  0  0  0  0  0  0  0  0  0  0
    0.3751   20.2934    0.0000 C   0  0  0  0  0  0  0  0  0  0  0  0
   -1.1247   20.2657    0.0000 C   0  0  0  0  0  0  0  0  0  0  0  0
   -2.6183   20.1273    0.0000 C   0  0  0  0  0  0  0  0  0  0  0  0
   -4.0976   19.8790    0.0000 C   0  0  0  0  0  0  0  0  0  0  0  0
   -5.5545   19.5221    0.0000 C   0  0  0  0  0  0  0  0  0  0  0  0
   -6.9811   19.0585    0.0000 C   0  0  0  0  0  0  0  0  0  0  0  0
   -8.3695   18.4909    0.0000 C   0  0  0  0  0  0  0  0  0  0  0  0
   -9.7123   17.8223    0.0000 C   0  0  0  0  0  0  0  0  0  0  0  0
  -11.0020   17.0564    0.0000 C   0  0  0  0  0  0  0  0  0  0  0  0
  -12.2316   16.1973    0.0000 C   0  0  0  0  0  0  0  0  0  0  0  0
  -13.3944   15.2497    0.0000 C   0  0  0  0  0  0  0  0  0  0  0  0
  -14.4841   14.2188    0.0000 C   0  0  0  0  0  0  0  0  0  0  0  0
  -15.4946   13.1103    0.0000 C   0  0  0  0  0  0  0  0  0  0  0  0
  -16.4205   11.9302    0.0000 C   0  0  0  0  0  0  0  0  0  0  0  0
  -17.2568   10.6849    0.0000 C   0  0  0  0  0  0  0  0  0  0  0  0
  -17.9987    9.3813    0.0000 C   0  0  0  0  0  0  0  0  0  0  0  0
  -18.6424    8.0264    0.0000 C   0  0  0  0  0  0  0  0  0  0  0  0
  -19.1843    6.6277    0.0000 C   0  0  0  0  0  0  0  0  0  0  0  0
  -19.6214    5.1928    0.0000 C   0  0  0  0  0  0  0  0  0  0  0  0
  -19.9513    3.7295    0.0000 C   0  0  0  0  0  0  0  0  0  0  0  0
  -20.1722    2.2459    0.0000 C   0  0  0  0  0  0  0  0  0  0  0  0
  -20.2830    0.7500    0.0000 C   0  0  0  0  0  0  0  0  0  0  0  0
  -20.2830   -0.7500    0.0000 C   0  0  0  0  0  0  0  0  0  0  0  0
  -20.1722   -2.2459    0.0000 C   0  0  0  0  0  0  0  0  0  0  0  0
  -19.9513   -3.7295    0.0000 C   0  0  0  0  0  0  0  0  0  0  0  0
  -19.6214   -5.1928    0.0000 C   0  0  0  0  0  0  0  0  0  0  0  0
  -19.1843   -6.6277    0.0000 C   0  0  0  0  0  0  0  0  0  0  0  0
  -18.6424   -8.0264    0.0000 C   0  0  0  0  0  0  0  0  0  0  0  0
  -17.9987   -9.3813    0.0000 C   0  0  0  0  0  0  0  0  0  0  0  0
  -17.2568  -10.6849    0.0000 C   0  0  0  0  0  0  0  0  0  0  0  0
  -16.4205  -11.9302    0.0000 C   0  0  0  0  0  0  0  0  0  0  0  0
  -15.4946  -13.1103    0.0000 C   0  0  0  0  0  0  0  0  0  0  0  0
  -14.4841  -14.2188    0.0000 C   0  0  0  0  0  0  0  0  0  0  0  0
  -13.3944  -15.2497    0.0000 C   0  0  0  0  0  0  0  0  0  0  0  0
  -12.2316  -16.1973    0.0000 C   0  0  0  0  0  0  0  0  0  0  0  0
  -11.0020  -17.0564    0.0000 C   0  0  0  0  0  0  0  0  0  0  0  0
   -9.7123  -17.8223    0.0000 C   0  0  0  0  0  0  0  0  0  0  0  0
   -8.3695  -18.4909    0.0000 C   0  0  0  0  0  0  0  0  0  0  0  0
   -6.9811  -19.0585    0.0000 C   0  0  0  0  0  0  0  0  0  0  0  0
   -5.5545  -19.5221    0.0000 C   0  0  0  0  0  0  0  0  0  0  0  0
   -4.0976  -19.8790    0.0000 C   0  0  0  0  0  0  0  0  0  0  0  0
   -2.6183  -20.1273    0.0000 C   0  0  0  0  0  0  0  0  0  0  0  0
   -1.1247  -20.2657    0.0000 C   0  0  0  0  0  0  0  0  0  0  0  0
    0.3751  -20.2934    0.0000 C   0  0  0  0  0  0  0  0  0  0  0  0
    1.8728  -20.2103    0.0000 C   0  0  0  0  0  0  0  0  0  0  0  0
    3.3602  -20.0168    0.0000 C   0  0  0  0  0  0  0  0  0  0  0  0
    4.8293  -19.7140    0.0000 C   0  0  0  0  0  0  0  0  0  0  0  0
    6.2721  -19.3035    0.0000 C   0  0  0  0  0  0  0  0  0  0  0  0
    7.6806  -18.7876    0.0000 C   0  0  0  0  0  0  0  0  0  0  0  0
    9.0471  -18.1690    0.0000 C   0  0  0  0  0  0  0  0  0  0  0  0
   10.3642  -17.4513    0.0000 C   0  0  0  0  0  0  0  0  0  0  0  0
   11.6247  -16.6382    0.0000 C   0  0  0  0  0  0  0  0  0  0  0  0
   12.8218  -15.7342    0.0000 C   0  0  0  0  0  0  0  0  0  0  0  0
   13.9488  -14.7443    0.0000 C   0  0  0  0  0  0  0  0  0  0  0  0
   14.9996  -13.6739    0.0000 C   0  0  0  0  0  0  0  0  0  0  0  0
   15.9685  -12.5288    0.0000 C   0  0  0  0  0  0  0  0  0  0  0  0
   16.8501  -11.3153    0.0000 C   0  0  0  0  0  0  0  0  0  0  0  0
   17.6398  -10.0400    0.0000 C   0  0  0  0  0  0  0  0  0  0  0  0
   18.3331   -8.7098    0.0000 C   0  0  0  0  0  0  0  0  0  0  0  0
   18.9263   -7.3321    0.0000 C   0  0  0  0  0  0  0  0  0  0  0  0
   19.4161   -5.9143    0.0000 C   0  0  0  0  0  0  0  0  0  0  0  0
   19.7998   -4.4642    0.0000 C   0  0  0  0  0  0  0  0  0  0  0  0
   20.0755   -2.9898    0.0000 C   0  0  0  0  0  0  0  0  0  0  0  0
   20.2414   -1.4990    0.0000 C   0  0  0  0  0  0  0  0  0  0  0  0
  1  2  3  0
  2  3  1  0
  3  4  1  0
  4  5  1  0
  5  6  1  0
  6  7  1  0
  7  8  1  0
  8  9  1  0
  9 10  1  0
 10 11  1  0
 11 12  1  0
 12 13  1  0
 13 14  1  0
 14 15  1  0
 15 16  1  0
 16 17  1  0
 17 18  1  0
 18 19  1  0
 19 20  1  0
 20 21  1  0
 21 22  1  0
 22 23  1  0
 23 24  1  0
 24 25  1  0
 25 26  1  0
 26 27  1  0
 27 28  1  0
 28 29  1  0
 29 30  1  0
 30 31  1  0
 31 32  1  0
 32 33  1  0
 33 34  1  0
 34 35  1  0
 35 36  1  0
 36 37  1  0
 37 38  1  0
 38 39  1  0
 39 40  1  0
 40 41  1  0
 41 42  1  0
 42 43  1  0
 43 44  1  0
 44 45  1  0
 45 46  1  0
 46 47  1  0
 47 48  1  0
 48 49  1  0
 49 50  1  0
 50 51  1  0
 51 52  1  0
 52 53  1  0
 53 54  1  0
 54 55  1  0
 55 56  1  0
 56 57  1  0
 57 58  1  0
 58 59  1  0
 59 60  1  0
 60 61  1  0
 61 62  1  0
 62 63  1  0
 63 64  1  0
 64 65  1  0
 65 66  1  0
 66 67  1  0
 67 68  1  0
 68 69  1  0
 69 70  1  0
 70 71  1  0
 71 72  1  0
 72 73  1  0
 73 74  1  0
 74 75  1  0
 75 76  1  0
 76 77  1  0
 77 78  1  0
 78 79  1  0
 79 80  1  0
 80 81  1  0
 81 82  1  0
 82 83  1  0
 83 84  1  0
 84 85  1  0
 85 86  1  0
 86 87  1  0
 87  3  1  0
M  END
>  <Title>  (114) 
idAACPgen7

$$$$

     RDKit          2D

 31 31  0  0  0  0  0  0  0  0999 V2000
    7.7222    0.0000    0.0000 C   0  0  0  0  0  0  0  0  0  0  0  0
    6.2222    0.0000    0.0000 C   0  0  0  0  0  0  0  0  0  0  0  0
    6.0414   -1.4891    0.0000 C   0  0  0  0  0  0  0  0  0  0  0  0
    5.5095   -2.8916    0.0000 C   0  0  0  0  0  0  0  0  0  0  0  0
    4.6574   -4.1261    0.0000 C   0  0  0  0  0  0  0  0  0  0  0  0
    3.5346   -5.1207    0.0000 C   0  0  0  0  0  0  0  0  0  0  0  0
    2.2064   -5.8178    0.0000 C   0  0  0  0  0  0  0  0  0  0  0  0
    0.7500   -6.1768    0.0000 C   0  0  0  0  0  0  0  0  0  0  0  0
   -0.7500   -6.1768    0.0000 C   0  0  0  0  0  0  0  0  0  0  0  0
   -2.2064   -5.8178    0.0000 C   0  0  0  0  0  0  0  0  0  0  0  0
   -3.5346   -5.1207    0.0000 C   0  0  0  0  0  0  0  0  0  0  0  0
   -4.6574   -4.1261    0.0000 C   0  0  0  0  0  0  0  0  0  0  0  0
   -5.5095   -2.8916    0.0000 C   0  0  0  0  0  0  0  0  0  0  0  0
   -6.0414   -1.4891    0.0000 C   0  0  0  0  0  0  0  0  0  0  0  0
   -6.2222    0.0000    0.0000 C   0  0  0  0  0  0  0  0  0  0  0  0
   -6.0414    1.4891    0.0000 C   0  0  0  0  0  0  0  0  0  0  0  0
   -5.5095    2.8916    0.0000 C   0  0  0  0  0  0  0  0  0  0  0  0
   -4.6574    4.1261    0.0000 C   0  0  0  0  0  0  0  0  0  0  0  0
   -3.5346    5.1207    0.0000 C   0  0  0  0  0  0  0  0  0  0  0  0
   -2.2064    5.8178    0.0000 C   0  0  0  0  0  0  0  0  0  0  0  0
   -0.7500    6.1768    0.0000 C   0  0  0  0  0  0  0  0  0  0  0  0
    0.7500    6.1768    0.0000 C   0  0  0  0  0  0  0  0  0  0  0  0
    2.2064    5.8178    0.0000 C   0  0  0  0  0  0  0  0  0  0  0  0
    3.5346    5.1207    0.0000 C   0  0  0  0  0  0  0  0  0  0  0  0
    4.3867    6.3552    0.0000 C   0  0  0  0  0  0  0  0  0  0  0  0
    5.8818    6.2345    0.0000 C   0  0  0  0  0  0  0  0  0  0  0  0
    3.7437    7.7104    0.0000 C   0  0  0  0  0  0  0  0  0  0  0  0
    4.6574    4.1261    0.0000 C   0  0  0  0  0  0  0  0  0  0  0  0
    5.7801    5.1207    0.0000 O   0  0  0  0  0  0  0  0  0  0  0  0
    5.5095    2.8916    0.0000 C   0  0  0  0  0  0  0  0  0  0  0  0
    6.0414    1.4891    0.0000 C   0  0  0  0  0  0  0  0  0  0  0  0
  1  2  1  0
  2  3  1  0
  3  4  1  0
  4  5  1  0
  5  6  1  0
  6  7  1  0
  7  8  1  0
  8  9  1  0
  9 10  1  0
 10 11  1  0
 11 12  1  0
 12 13  1  0
 13 14  1  0
 14 15  1  0
 15 16  1  0
 16 17  1  0
 17 18  1  0
 18 19  1  0
 19 20  1  0
 20 21  1  0
 21 22  1  0
 22 23  1  0
 23 24  1  0
 24 25  1  0
 25 26  1  0
 25 27  1  0
 24 28  1  0
 28 29  2  0
 28 30  1  0
 30 31  1  0
 31  2  1  0
M  END
>  <Title>  (115) 
idAACQgen7

$$$$

     RDKit          2D

 89 90  0  0  0  0  0  0  0  0999 V2000
    0.3223    3.2412    0.0000 C   0  0  0  0  0  0  0  0  0  0  0  0
    1.6367    3.9638    0.0000 C   0  0  0  0  0  0  0  0  0  0  0  0
    0.9698    5.3074    0.0000 C   0  0  0  0  0  0  0  0  0  0  0  0
    0.4176    6.7020    0.0000 C   0  0  0  0  0  0  0  0  0  0  0  0
   -0.0160    8.1380    0.0000 C   0  0  0  0  0  0  0  0  0  0  0  0
   -0.3278    9.6052    0.0000 C   0  0  0  0  0  0  0  0  0  0  0  0
   -0.5158   11.0934    0.0000 C   0  0  0  0  0  0  0  0  0  0  0  0
   -0.5787   12.5921    0.0000 C   0  0  0  0  0  0  0  0  0  0  0  0
   -0.5158   14.0908    0.0000 C   0  0  0  0  0  0  0  0  0  0  0  0
   -0.3278   15.5789    0.0000 C   0  0  0  0  0  0  0  0  0  0  0  0
   -0.0160   17.0462    0.0000 C   0  0  0  0  0  0  0  0  0  0  0  0
    0.4176   18.4821    0.0000 C   0  0  0  0  0  0  0  0  0  0  0  0
    0.9698   19.8768    0.0000 C   0  0  0  0  0  0  0  0  0  0  0  0
    1.6367   21.2204    0.0000 C   0  0  0  0  0  0  0  0  0  0  0  0
    2.4138   22.5034    0.0000 C   0  0  0  0  0  0  0  0  0  0  0  0
    3.2954   23.7169    0.0000 C   0  0  0  0  0  0  0  0  0  0  0  0
    4.2756   24.8524    0.0000 C   0  0  0  0  0  0  0  0  0  0  0  0
    5.3473   25.9019    0.0000 C   0  0  0  0  0  0  0  0  0  0  0  0
    6.5030   26.8581    0.0000 C   0  0  0  0  0  0  0  0  0  0  0  0
    7.7348   27.7141    0.0000 C   0  0  0  0  0  0  0  0  0  0  0  0
    9.0338   28.4641    0.0000 C   0  0  0  0  0  0  0  0  0  0  0  0
   10.3910   29.1028    0.0000 C   0  0  0  0  0  0  0  0  0  0  0  0
   11.7970   29.6257    0.0000 C   0  0  0  0  0  0  0  0  0  0  0  0
   13.2417   30.0290    0.0000 C   0  0  0  0  0  0  0  0  0  0  0  0
   14.7151   30.3101    0.0000 C   0  0  0  0  0  0  0  0  0  0  0  0
   16.2069   30.4669    0.0000 C   0  0  0  0  0  0  0  0  0  0  0  0
   17.7066   30.4983    0.0000 C   0  0  0  0  0  0  0  0  0  0  0  0
   19.2036   30.4041    0.0000 C   0  0  0  0  0  0  0  0  0  0  0  0
   20.6875   30.1850    0.0000 C   0  0  0  0  0  0  0  0  0  0  0  0
   22.1479   29.8425    0.0000 C   0  0  0  0  0  0  0  0  0  0  0  0
   23.5745   29.3790    0.0000 C   0  0  0  0  0  0  0  0  0  0  0  0
   24.9573   28.7977    0.0000 C   0  0  0  0  0  0  0  0  0  0  0  0
   26.2866   28.1027    0.0000 C   0  0  0  0  0  0  0  0  0  0  0  0
   27.5531   27.2990    0.0000 C   0  0  0  0  0  0  0  0  0  0  0  0
   28.7479   26.3921    0.0000 C   0  0  0  0  0  0  0  0  0  0  0  0
   29.8626   25.3884    0.0000 C   0  0  0  0  0  0  0  0  0  0  0  0
   30.8894   24.2950    0.0000 C   0  0  0  0  0  0  0  0  0  0  0  0
   31.8211   23.1194    0.0000 C   0  0  0  0  0  0  0  0  0  0  0  0
   32.6512   21.8700    0.0000 C   0  0  0  0  0  0  0  0  0  0  0  0
   33.3739   20.5556    0.0000 C   0  0  0  0  0  0  0  0  0  0  0  0
   33.9840   19.1853    0.0000 C   0  0  0  0  0  0  0  0  0  0  0  0
   34.4773   17.7687    0.0000 C   0  0  0  0  0  0  0  0  0  0  0  0
   34.8503   16.3158    0.0000 C   0  0  0  0  0  0  0  0  0  0  0  0
   35.1005   14.8368    0.0000 C   0  0  0  0  0  0  0  0  0  0  0  0
   35.2260   13.3421    0.0000 C   0  0  0  0  0  0  0  0  0  0  0  0
   35.2260   11.8421    0.0000 C   0  0  0  0  0  0  0  0  0  0  0  0
   35.1005   10.3473    0.0000 C   0  0  0  0  0  0  0  0  0  0  0  0
   34.8503    8.8683    0.0000 C   0  0  0  0  0  0  0  0  0  0  0  0
   34.4773    7.4155    0.0000 C   0  0  0  0  0  0  0  0  0  0  0  0
   33.9840    5.9989    0.0000 C   0  0  0  0  0  0  0  0  0  0  0  0
   33.3739    4.6286    0.0000 C   0  0  0  0  0  0  0  0  0  0  0  0
   32.6512    3.3141    0.0000 C   0  0  0  0  0  0  0  0  0  0  0  0
   31.8211    2.0647    0.0000 C   0  0  0  0  0  0  0  0  0  0  0  0
   30.8894    0.8892    0.0000 C   0  0  0  0  0  0  0  0  0  0  0  0
   29.8626   -0.2042    0.0000 C   0  0  0  0  0  0  0  0  0  0  0  0
   28.7479   -1.2079    0.0000 C   0  0  0  0  0  0  0  0  0  0  0  0
   27.5531   -2.1148    0.0000 C   0  0  0  0  0  0  0  0  0  0  0  0
   26.2866   -2.9186    0.0000 C   0  0  0  0  0  0  0  0  0  0  0  0
   24.9573   -3.6135    0.0000 C   0  0  0  0  0  0  0  0  0  0  0  0
   23.5745   -4.1948    0.0000 C   0  0  0  0  0  0  0  0  0  0  0  0
   22.1479   -4.6583    0.0000 C   0  0  0  0  0  0  0  0  0  0  0  0
   20.6875   -5.0008    0.0000 C   0  0  0  0  0  0  0  0  0  0  0  0
   19.2036   -5.2200    0.0000 C   0  0  0  0  0  0  0  0  0  0  0  0
   17.7066   -5.3142    0.0000 C   0  0  0  0  0  0  0  0  0  0  0  0
   16.2069   -5.2827    0.0000 C   0  0  0  0  0  0  0  0  0  0  0  0
   14.7151   -5.1260    0.0000 C   0  0  0  0  0  0  0  0  0  0  0  0
   13.2417   -4.8449    0.0000 C   0  0  0  0  0  0  0  0  0  0  0  0
   11.7970   -4.4415    0.0000 C   0  0  0  0  0  0  0  0  0  0  0  0
   10.3910   -3.9186    0.0000 C   0  0  0  0  0  0  0  0  0  0  0  0
    9.0338   -3.2800    0.0000 C   0  0  0  0  0  0  0  0  0  0  0  0
    7.7348   -2.5300    0.0000 C   0  0  0  0  0  0  0  0  0  0  0  0
    6.5030   -1.6739    0.0000 C   0  0  0  0  0  0  0  0  0  0  0  0
    5.3473   -0.7178    0.0000 C   0  0  0  0  0  0  0  0  0  0  0  0
    4.2756    0.3317    0.0000 C   0  0  0  0  0  0  0  0  0  0  0  0
    3.2954    1.4672    0.0000 C   0  0  0  0  0  0  0  0  0  0  0  0
    3.6073    0.0000    0.0000 C   0  0  0  0  0  0  0  0  0  0  0  0
    3.2954   -1.4672    0.0000 C   0  0  0  0  0  0  0  0  0  0  0  0
    2.4138   -2.6807    0.0000 C   0  0  0  0  0  0  0  0  0  0  0  0
    1.1147   -3.4307    0.0000 C   0  0  0  0  0  0  0  0  0  0  0  0
   -0.3771   -3.5875    0.0000 C   0  0  0  0  0  0  0  0  0  0  0  0
   -1.8037   -3.1240    0.0000 C   0  0  0  0  0  0  0  0  0  0  0  0
   -2.9184   -2.1203    0.0000 C   0  0  0  0  0  0  0  0  0  0  0  0
   -3.5285   -0.7500    0.0000 C   0  0  0  0  0  0  0  0  0  0  0  0
   -3.5285    0.7500    0.0000 C   0  0  0  0  0  0  0  0  0  0  0  0
   -2.9184    2.1203    0.0000 C   0  0  0  0  0  0  0  0  0  0  0  0
   -1.8037    3.1240    0.0000 C   0  0  0  0  0  0  0  0  0  0  0  0
   -0.3771    3.5875    0.0000 C   0  0  0  0  0  0  0  0  0  0  0  0
    1.1147    3.4307    0.0000 C   0  0  0  0  0  0  0  0  0  0  0  0
    2.4138    2.6807    0.0000 C   0  0  0  0  0  0  0  0  0  0  0  0
  1  2  1  0
  2  3  1  0
  3  4  1  0
  4  5  1  0
  5  6  1  0
  6  7  1  0
  7  8  1  0
  8  9  1  0
  9 10  1  0
 10 11  1  0
 11 12  1  0
 12 13  1  0
 13 14  1  0
 14 15  1  0
 15 16  1  0
 16 17  1  0
 17 18  1  0
 18 19  1  0
 19 20  1  0
 20 21  1  0
 21 22  1  0
 22 23  1  0
 23 24  1  0
 24 25  1  0
 25 26  1  0
 26 27  1  0
 27 28  1  0
 28 29  1  0
 29 30  1  0
 30 31  1  0
 31 32  1  0
 32 33  1  0
 33 34  1  0
 34 35  1  0
 35 36  1  0
 36 37  1  0
 37 38  1  0
 38 39  1  0
 39 40  1  0
 40 41  1  0
 41 42  1  0
 42 43  1  0
 43 44  1  0
 44 45  1  0
 45 46  1  0
 46 47  2  0
 47 48  1  0
 48 49  2  0
 49 50  1  0
 50 51  2  0
 51 52  1  0
 52 53  2  0
 53 54  1  0
 54 55  2  0
 55 56  1  0
 56 57  2  0
 57 58  1  0
 58 59  2  0
 59 60  1  0
 60 61  2  0
 61 62  1  0
 62 63  2  0
 63 64  1  0
 64 65  2  0
 65 66  1  0
 66 67  2  0
 67 68  1  0
 68 69  2  0
 69 70  1  0
 70 71  2  0
 71 72  1  0
 72 73  2  0
 73 74  1  0
 74 75  2  0
 75 76  1  0
 76 77  1  0
 77 78  1  0
 78 79  2  0
 79 80  1  0
 80 81  2  0
 81 82  1  0
 82 83  2  0
 83 84  1  0
 84 85  2  0
 85 86  1  0
 86 87  2  0
 87 88  1  0
 88 89  2  0
 89  2  1  0
 89 75  1  0
M  END
>  <Title>  (116) 
idAACRgen7

$$$$

     RDKit          2D

 68 75  0  0  0  0  0  0  0  0999 V2000
    7.8371   18.8508    0.0000 C   0  0  0  0  0  0  0  0  0  0  0  0
    7.0352   17.5832    0.0000 C   0  0  0  0  0  0  0  0  0  0  0  0
    8.2303   16.6767    0.0000 C   0  0  0  0  0  0  0  0  0  0  0  0
    9.2550   15.5812    0.0000 C   0  0  0  0  0  0  0  0  0  0  0  0
   10.0798   14.3283    0.0000 C   0  0  0  0  0  0  0  0  0  0  0  0
   10.6810   12.9541    0.0000 C   0  0  0  0  0  0  0  0  0  0  0  0
   11.0414   11.4980    0.0000 C   0  0  0  0  0  0  0  0  0  0  0  0
   11.1504   10.0020    0.0000 C   0  0  0  0  0  0  0  0  0  0  0  0
   11.0051    8.5091    0.0000 C   0  0  0  0  0  0  0  0  0  0  0  0
   10.6096    7.0622    0.0000 C   0  0  0  0  0  0  0  0  0  0  0  0
    9.9752    5.7029    0.0000 C   0  0  0  0  0  0  0  0  0  0  0  0
    9.1202    4.4704    0.0000 C   0  0  0  0  0  0  0  0  0  0  0  0
    8.0692    3.4002    0.0000 C   0  0  0  0  0  0  0  0  0  0  0  0
    6.8525    2.5229    0.0000 C   0  0  0  0  0  0  0  0  0  0  0  0
    5.5050    1.8639    0.0000 C   0  0  0  0  0  0  0  0  0  0  0  0
    4.0656    1.4421    0.0000 C   0  0  0  0  0  0  0  0  0  0  0  0
    2.5755    1.2696    0.0000 C   0  0  0  0  0  0  0  0  0  0  0  0
    1.0777    1.3515    0.0000 C   0  0  0  0  0  0  0  0  0  0  0  0
    1.7286    0.0000    0.0000 C   0  0  0  0  0  0  0  0  0  0  0  0
    1.0777   -1.3515    0.0000 C   0  0  0  0  0  0  0  0  0  0  0  0
   -0.3846   -1.6852    0.0000 C   0  0  0  0  0  0  0  0  0  0  0  0
   -1.5574   -0.7500    0.0000 C   0  0  0  0  0  0  0  0  0  0  0  0
   -1.5574    0.7500    0.0000 C   0  0  0  0  0  0  0  0  0  0  0  0
   -0.3846    1.6852    0.0000 C   0  0  0  0  0  0  0  0  0  0  0  0
   -1.7696    2.2614    0.0000 C   0  0  0  0  0  0  0  0  0  0  0  0
   -3.0373    3.0633    0.0000 C   0  0  0  0  0  0  0  0  0  0  0  0
   -3.9438    1.8682    0.0000 C   0  0  0  0  0  0  0  0  0  0  0  0
   -4.8503    0.6731    0.0000 N   0  0  0  0  0  0  0  0  0  0  0  0
   -4.1512    4.0679    0.0000 C   0  0  0  0  0  0  0  0  0  0  0  0
   -5.0793    5.2463    0.0000 C   0  0  0  0  0  0  0  0  0  0  0  0
   -5.7949    6.5645    0.0000 C   0  0  0  0  0  0  0  0  0  0  0  0
   -6.2774    7.9848    0.0000 C   0  0  0  0  0  0  0  0  0  0  0  0
   -6.5129    9.4662    0.0000 C   0  0  0  0  0  0  0  0  0  0  0  0
   -6.4947   10.9661    0.0000 C   0  0  0  0  0  0  0  0  0  0  0  0
   -7.9816   10.7684    0.0000 C   0  0  0  0  0  0  0  0  0  0  0  0
   -8.6292   12.1214    0.0000 C   0  0  0  0  0  0  0  0  0  0  0  0
   -7.5425   13.1553    0.0000 C   0  0  0  0  0  0  0  0  0  0  0  0
   -6.2233   12.4413    0.0000 C   0  0  0  0  0  0  0  0  0  0  0  0
   -5.7065   13.8495    0.0000 C   0  0  0  0  0  0  0  0  0  0  0  0
   -7.2065   13.8465    0.0000 C   0  0  0  0  0  0  0  0  0  0  0  0
   -7.9591   15.1440    0.0000 C   0  0  0  0  0  0  0  0  0  0  0  0
   -7.2117   16.4445    0.0000 C   0  0  0  0  0  0  0  0  0  0  0  0
   -5.7118   16.4476    0.0000 C   0  0  0  0  0  0  0  0  0  0  0  0
   -4.9591   15.1500    0.0000 C   0  0  0  0  0  0  0  0  0  0  0  0
   -4.0027   16.3056    0.0000 C   0  0  0  0  0  0  0  0  0  0  0  0
   -4.8870   17.2585    0.0000 C   0  0  0  0  0  0  0  0  0  0  0  0
   -5.0349   18.0447    0.0000 C   0  0  0  0  0  0  0  0  0  0  0  0
   -4.4280   18.5659    0.0000 C   0  0  0  0  0  0  0  0  0  0  0  0
   -3.6732   18.3009    0.0000 C   0  0  0  0  0  0  0  0  0  0  0  0
   -2.8648   17.2829    0.0000 C   0  0  0  0  0  0  0  0  0  0  0  0
   -1.5780   18.0538    0.0000 C   0  0  0  0  0  0  0  0  0  0  0  0
   -2.7470   18.9937    0.0000 C   0  0  0  0  0  0  0  0  0  0  0  0
   -2.5174   20.4761    0.0000 C   0  0  0  0  0  0  0  0  0  0  0  0
   -1.1189   21.0184    0.0000 C   0  0  0  0  0  0  0  0  0  0  0  0
    0.0500   20.0785    0.0000 C   0  0  0  0  0  0  0  0  0  0  0  0
   -0.1795   18.5961    0.0000 C   0  0  0  0  0  0  0  0  0  0  0  0
    1.2905   18.8943    0.0000 C   0  0  0  0  0  0  0  0  0  0  0  0
    1.2012   20.1913    0.0000 C   0  0  0  0  0  0  0  0  0  0  0  0
    1.5800   20.8959    0.0000 C   0  0  0  0  0  0  0  0  0  0  0  0
    2.3796   20.9202    0.0000 C   0  0  0  0  0  0  0  0  0  0  0  0
    2.8004   20.2398    0.0000 C   0  0  0  0  0  0  0  0  0  0  0  0
    2.7899   18.9398    0.0000 C   0  0  0  0  0  0  0  0  0  0  0  0
    4.2753   18.7313    0.0000 C   0  0  0  0  0  0  0  0  0  0  0  0
    3.9563   20.1970    0.0000 C   0  0  0  0  0  0  0  0  0  0  0  0
    5.0661   21.2060    0.0000 C   0  0  0  0  0  0  0  0  0  0  0  0
    6.4950   20.7495    0.0000 C   0  0  0  0  0  0  0  0  0  0  0  0
    6.8139   19.2838    0.0000 C   0  0  0  0  0  0  0  0  0  0  0  0
    5.7041   18.2747    0.0000 C   0  0  0  0  0  0  0  0  0  0  0  0
  1  2  1  0
  2  3  2  0
  3  4  1  0
  4  5  1  0
  5  6  2  0
  6  7  1  0
  7  8  2  0
  8  9  1  0
  9 10  2  0
 10 11  1  0
 11 12  2  0
 12 13  1  0
 13 14  2  0
 14 15  1  0
 15 16  2  0
 16 17  1  0
 17 18  2  0
 18 19  1  0
 19 20  2  0
 20 21  1  0
 21 22  2  0
 22 23  1  0
 23 24  2  0
 24 25  1  0
 25 26  1  0
 26 27  1  0
 27 28  3  0
 26 29  1  0
 29 30  2  0
 30 31  1  0
 31 32  2  0
 32 33  1  0
 33 34  2  0
 34 35  1  0
 35 36  2  0
 36 37  1  0
 37 38  2  0
 38 39  1  0
 39 40  2  0
 40 41  1  0
 41 42  2  0
 42 43  1  0
 43 44  2  0
 44 45  1  0
 45 46  2  0
 46 47  1  0
 47 48  2  0
 48 49  1  0
 49 50  2  0
 50 51  1  0
 51 52  2  0
 52 53  1  0
 53 54  2  0
 54 55  1  0
 55 56  2  0
 56 57  1  0
 57 58  2  0
 58 59  1  0
 59 60  2  0
 60 61  1  0
 61 62  2  0
 62 63  1  0
 63 64  2  0
 64 65  1  0
 65 66  2  0
 66 67  1  0
 67 68  2  0
 68  2  1  0
 24 18  1  0
 38 34  1  0
 44 39  1  0
 50 45  1  0
 56 51  1  0
 62 57  1  0
 68 63  1  0
M  END
>  <Title>  (117) 
idAACSgen7

$$$$

     RDKit          2D

  9  9  0  0  0  0  0  0  0  0999 V2000
    3.2286   -0.0000    0.0000 O   0  0  0  0  0  0  0  0  0  0  0  0
    1.7286    0.0000    0.0000 C   0  0  0  0  0  0  0  0  0  0  0  0
    1.0777    1.3515    0.0000 C   0  0  0  0  0  0  0  0  0  0  0  0
   -0.3846    1.6852    0.0000 C   0  0  0  0  0  0  0  0  0  0  0  0
   -1.5574    0.7500    0.0000 C   0  0  0  0  0  0  0  0  0  0  0  0
   -1.5574   -0.7500    0.0000 C   0  0  0  0  0  0  0  0  0  0  0  0
   -2.9088   -1.4008    0.0000 F   0  0  0  0  0  0  0  0  0  0  0  0
   -0.3846   -1.6852    0.0000 C   0  0  0  0  0  0  0  0  0  0  0  0
    1.0777   -1.3515    0.0000 C   0  0  0  0  0  0  0  0  0  0  0  0
  1  2  1  0
  2  3  2  0
  3  4  1  0
  4  5  1  0
  5  6  1  0
  6  7  1  0
  6  8  1  0
  8  9  1  0
  9  2  1  0
M  END
>  <Title>  (118) 
idAACTgen7

$$$$

     RDKit          2D

  8  7  0  0  0  0  0  0  0  0999 V2000
    0.0000    0.0000    0.0000 C   0  0  0  0  0  0  0  0  0  0  0  0
   -0.0000   -1.5000    0.0000 C   0  0  0  0  0  0  0  0  0  0  0  0
   -0.0000   -3.0000    0.0000 C   0  0  0  0  0  0  0  0  0  0  0  0
   -0.0000   -4.5000    0.0000 C   0  0  0  0  0  0  0  0  0  0  0  0
   -0.0000   -6.0000    0.0000 C   0  0  0  0  0  0  0  0  0  0  0  0
   -0.0000   -7.5000    0.0000 C   0  0  0  0  0  0  0  0  0  0  0  0
   -0.0000   -9.0000    0.0000 C   0  0  0  0  0  0  0  0  0  0  0  0
   -0.0000  -10.5000    0.0000 N   0  0  0  0  0  0  0  0  0  0  0  0
  1  2  3  0
  2  3  1  0
  3  4  3  0
  4  5  1  0
  5  6  3  0
  6  7  1  0
  7  8  3  0
M  END
>  <Title>  (119) 
idAACUgen7

$$$$

     RDKit          2D

100100  0  0  0  0  0  0  0  0999 V2000
   23.8772    0.0000    0.0000 C   0  0  0  0  0  0  0  0  0  0  0  0
   23.8301   -1.4993    0.0000 C   0  0  0  0  0  0  0  0  0  0  0  0
   23.6889   -2.9926    0.0000 C   0  0  0  0  0  0  0  0  0  0  0  0
   23.4542   -4.4741    0.0000 C   0  0  0  0  0  0  0  0  0  0  0  0
   23.1270   -5.9380    0.0000 C   0  0  0  0  0  0  0  0  0  0  0  0
   22.7085   -7.3785    0.0000 C   0  0  0  0  0  0  0  0  0  0  0  0
   22.2004   -8.7898    0.0000 C   0  0  0  0  0  0  0  0  0  0  0  0
   21.6047  -10.1664    0.0000 C   0  0  0  0  0  0  0  0  0  0  0  0
   20.9237  -11.5029    0.0000 C   0  0  0  0  0  0  0  0  0  0  0  0
   20.1602  -12.7940    0.0000 C   0  0  0  0  0  0  0  0  0  0  0  0
   19.3170  -14.0346    0.0000 C   0  0  0  0  0  0  0  0  0  0  0  0
   18.3977  -15.2199    0.0000 C   0  0  0  0  0  0  0  0  0  0  0  0
   17.4057  -16.3450    0.0000 C   0  0  0  0  0  0  0  0  0  0  0  0
   16.3450  -17.4057    0.0000 C   0  0  0  0  0  0  0  0  0  0  0  0
   15.2199  -18.3977    0.0000 C   0  0  0  0  0  0  0  0  0  0  0  0
   14.0346  -19.3170    0.0000 C   0  0  0  0  0  0  0  0  0  0  0  0
   12.7940  -20.1602    0.0000 C   0  0  0  0  0  0  0  0  0  0  0  0
   11.5029  -20.9237    0.0000 C   0  0  0  0  0  0  0  0  0  0  0  0
   10.1664  -21.6047    0.0000 C   0  0  0  0  0  0  0  0  0  0  0  0
    8.7898  -22.2004    0.0000 C   0  0  0  0  0  0  0  0  0  0  0  0
    7.3785  -22.7085    0.0000 C   0  0  0  0  0  0  0  0  0  0  0  0
    5.9380  -23.1270    0.0000 C   0  0  0  0  0  0  0  0  0  0  0  0
    4.4741  -23.4542    0.0000 C   0  0  0  0  0  0  0  0  0  0  0  0
    2.9926  -23.6889    0.0000 C   0  0  0  0  0  0  0  0  0  0  0  0
    1.4993  -23.8301    0.0000 C   0  0  0  0  0  0  0  0  0  0  0  0
   -0.0000  -23.8772    0.0000 C   0  0  0  0  0  0  0  0  0  0  0  0
   -1.4993  -23.8301    0.0000 C   0  0  0  0  0  0  0  0  0  0  0  0
   -2.9926  -23.6889    0.0000 C   0  0  0  0  0  0  0  0  0  0  0  0
   -4.4741  -23.4542    0.0000 C   0  0  0  0  0  0  0  0  0  0  0  0
   -5.9380  -23.1270    0.0000 C   0  0  0  0  0  0  0  0  0  0  0  0
   -7.3785  -22.7085    0.0000 C   0  0  0  0  0  0  0  0  0  0  0  0
   -8.7898  -22.2004    0.0000 C   0  0  0  0  0  0  0  0  0  0  0  0
  -10.1664  -21.6047    0.0000 C   0  0  0  0  0  0  0  0  0  0  0  0
  -11.5029  -20.9237    0.0000 C   0  0  0  0  0  0  0  0  0  0  0  0
  -12.7940  -20.1602    0.0000 C   0  0  0  0  0  0  0  0  0  0  0  0
  -14.0346  -19.3170    0.0000 C   0  0  0  0  0  0  0  0  0  0  0  0
  -15.2199  -18.3977    0.0000 C   0  0  0  0  0  0  0  0  0  0  0  0
  -16.3450  -17.4057    0.0000 C   0  0  0  0  0  0  0  0  0  0  0  0
  -17.4057  -16.3450    0.0000 C   0  0  0  0  0  0  0  0  0  0  0  0
  -18.3977  -15.2199    0.0000 C   0  0  0  0  0  0  0  0  0  0  0  0
  -19.3170  -14.0346    0.0000 C   0  0  0  0  0  0  0  0  0  0  0  0
  -20.1602  -12.7940    0.0000 C   0  0  0  0  0  0  0  0  0  0  0  0
  -20.9237  -11.5029    0.0000 C   0  0  0  0  0  0  0  0  0  0  0  0
  -21.6047  -10.1664    0.0000 C   0  0  0  0  0  0  0  0  0  0  0  0
  -22.2004   -8.7898    0.0000 C   0  0  0  0  0  0  0  0  0  0  0  0
  -22.7085   -7.3785    0.0000 C   0  0  0  0  0  0  0  0  0  0  0  0
  -23.1270   -5.9380    0.0000 C   0  0  0  0  0  0  0  0  0  0  0  0
  -23.4542   -4.4741    0.0000 C   0  0  0  0  0  0  0  0  0  0  0  0
  -23.6889   -2.9926    0.0000 C   0  0  0  0  0  0  0  0  0  0  0  0
  -23.8301   -1.4993    0.0000 C   0  0  0  0  0  0  0  0  0  0  0  0
  -23.8772   -0.0000    0.0000 C   0  0  0  0  0  0  0  0  0  0  0  0
  -23.8301    1.4993    0.0000 C   0  0  0  0  0  0  0  0  0  0  0  0
  -23.6889    2.9926    0.0000 C   0  0  0  0  0  0  0  0  0  0  0  0
  -23.4542    4.4741    0.0000 C   0  0  0  0  0  0  0  0  0  0  0  0
  -23.1270    5.9380    0.0000 C   0  0  0  0  0  0  0  0  0  0  0  0
  -22.7085    7.3785    0.0000 C   0  0  0  0  0  0  0  0  0  0  0  0
  -22.2004    8.7898    0.0000 C   0  0  0  0  0  0  0  0  0  0  0  0
  -21.6047   10.1664    0.0000 C   0  0  0  0  0  0  0  0  0  0  0  0
  -20.9237   11.5029    0.0000 C   0  0  0  0  0  0  0  0  0  0  0  0
  -20.1602   12.7940    0.0000 C   0  0  0  0  0  0  0  0  0  0  0  0
  -19.3170   14.0346    0.0000 C   0  0  0  0  0  0  0  0  0  0  0  0
  -18.3977   15.2199    0.0000 C   0  0  0  0  0  0  0  0  0  0  0  0
  -17.4057   16.3450    0.0000 C   0  0  0  0  0  0  0  0  0  0  0  0
  -16.3450   17.4057    0.0000 C   0  0  0  0  0  0  0  0  0  0  0  0
  -15.2199   18.3977    0.0000 C   0  0  0  0  0  0  0  0  0  0  0  0
  -14.0346   19.3170    0.0000 C   0  0  0  0  0  0  0  0  0  0  0  0
  -12.7940   20.1602    0.0000 C   0  0  0  0  0  0  0  0  0  0  0  0
  -11.5029   20.9237    0.0000 C   0  0  0  0  0  0  0  0  0  0  0  0
  -10.1664   21.6047    0.0000 C   0  0  0  0  0  0  0  0  0  0  0  0
   -8.7898   22.2004    0.0000 C   0  0  0  0  0  0  0  0  0  0  0  0
   -7.3785   22.7085    0.0000 C   0  0  0  0  0  0  0  0  0  0  0  0
   -5.9380   23.1270    0.0000 C   0  0  0  0  0  0  0  0  0  0  0  0
   -4.4741   23.4542    0.0000 C   0  0  0  0  0  0  0  0  0  0  0  0
   -2.9926   23.6889    0.0000 C   0  0  0  0  0  0  0  0  0  0  0  0
   -1.4993   23.8301    0.0000 C   0  0  0  0  0  0  0  0  0  0  0  0
   -0.0000   23.8772    0.0000 C   0  0  0  0  0  0  0  0  0  0  0  0
    1.4993   23.8301    0.0000 C   0  0  0  0  0  0  0  0  0  0  0  0
    2.9926   23.6889    0.0000 C   0  0  0  0  0  0  0  0  0  0  0  0
    4.4741   23.4542    0.0000 C   0  0  0  0  0  0  0  0  0  0  0  0
    5.9380   23.1270    0.0000 C   0  0  0  0  0  0  0  0  0  0  0  0
    7.3785   22.7085    0.0000 C   0  0  0  0  0  0  0  0  0  0  0  0
    8.7898   22.2004    0.0000 C   0  0  0  0  0  0  0  0  0  0  0  0
   10.1664   21.6047    0.0000 C   0  0  0  0  0  0  0  0  0  0  0  0
   11.5029   20.9237    0.0000 C   0  0  0  0  0  0  0  0  0  0  0  0
   12.7940   20.1602    0.0000 C   0  0  0  0  0  0  0  0  0  0  0  0
   14.0346   19.3170    0.0000 C   0  0  0  0  0  0  0  0  0  0  0  0
   15.2199   18.3977    0.0000 C   0  0  0  0  0  0  0  0  0  0  0  0
   16.3450   17.4057    0.0000 C   0  0  0  0  0  0  0  0  0  0  0  0
   17.4057   16.3450    0.0000 C   0  0  0  0  0  0  0  0  0  0  0  0
   18.3977   15.2199    0.0000 C   0  0  0  0  0  0  0  0  0  0  0  0
   19.3170   14.0346    0.0000 C   0  0  0  0  0  0  0  0  0  0  0  0
   20.1602   12.7940    0.0000 C   0  0  0  0  0  0  0  0  0  0  0  0
   20.9237   11.5029    0.0000 C   0  0  0  0  0  0  0  0  0  0  0  0
   21.6047   10.1664    0.0000 C   0  0  0  0  0  0  0  0  0  0  0  0
   22.2004    8.7898    0.0000 C   0  0  0  0  0  0  0  0  0  0  0  0
   22.7085    7.3785    0.0000 C   0  0  0  0  0  0  0  0  0  0  0  0
   23.1270    5.9380    0.0000 C   0  0  0  0  0  0  0  0  0  0  0  0
   23.4542    4.4741    0.0000 C   0  0  0  0  0  0  0  0  0  0  0  0
   23.6889    2.9926    0.0000 C   0  0  0  0  0  0  0  0  0  0  0  0
   23.8301    1.4993    0.0000 C   0  0  0  0  0  0  0  0  0  0  0  0
  1  2  1  0
  2  3  1  0
  3  4  1  0
  4  5  1  0
  5  6  1  0
  6  7  1  0
  7  8  1  0
  8  9  1  0
  9 10  1  0
 10 11  1  0
 11 12  1  0
 12 13  1  0
 13 14  1  0
 14 15  1  0
 15 16  1  0
 16 17  1  0
 17 18  1  0
 18 19  1  0
 19 20  1  0
 20 21  1  0
 21 22  1  0
 22 23  1  0
 23 24  1  0
 24 25  1  0
 25 26  1  0
 26 27  1  0
 27 28  1  0
 28 29  1  0
 29 30  1  0
 30 31  1  0
 31 32  1  0
 32 33  1  0
 33 34  1  0
 34 35  1  0
 35 36  1  0
 36 37  1  0
 37 38  1  0
 38 39  1  0
 39 40  1  0
 40 41  1  0
 41 42  1  0
 42 43  1  0
 43 44  1  0
 44 45  1  0
 45 46  1  0
 46 47  1  0
 47 48  1  0
 48 49  1  0
 49 50  1  0
 50 51  1  0
 51 52  1  0
 52 53  1  0
 53 54  1  0
 54 55  1  0
 55 56  1  0
 56 57  1  0
 57 58  1  0
 58 59  1  0
 59 60  1  0
 60 61  1  0
 61 62  1  0
 62 63  1  0
 63 64  1  0
 64 65  1  0
 65 66  1  0
 66 67  1  0
 67 68  1  0
 68 69  1  0
 69 70  1  0
 70 71  1  0
 71 72  1  0
 72 73  1  0
 73 74  1  0
 74 75  1  0
 75 76  1  0
 76 77  1  0
 77 78  1  0
 78 79  1  0
 79 80  1  0
 80 81  1  0
 81 82  1  0
 82 83  1  0
 83 84  1  0
 84 85  1  0
 85 86  1  0
 86 87  1  0
 87 88  1  0
 88 89  1  0
 89 90  1  0
 90 91  1  0
 91 92  1  0
 92 93  1  0
 93 94  1  0
 94 95  1  0
 95 96  1  0
 96 97  1  0
 97 98  1  0
 98 99  1  0
 99100  1  0
100  1  1  0
M  END
>  <Title>  (120) 
idAACVgen7

$$$$

     RDKit          2D

 35 39  0  0  0  0  0  0  0  0999 V2000
   -4.5000   -2.5981    0.0000 N   0  0  0  0  0  0  0  0  0  0  0  0
   -3.0000   -2.5981    0.0000 C   0  0  0  0  0  0  0  0  0  0  0  0
   -1.5000   -2.5981    0.0000 C   0  0  0  0  0  0  0  0  0  0  0  0
   -0.7500   -3.8971    0.0000 C   0  0  0  0  0  0  0  0  0  0  0  0
    0.7500   -3.8971    0.0000 C   0  0  0  0  0  0  0  0  0  0  0  0
    1.5000   -2.5981    0.0000 C   0  0  0  0  0  0  0  0  0  0  0  0
    3.0000   -2.5981    0.0000 N   0  0  0  0  0  0  0  0  0  0  0  0
    3.7500   -3.8971    0.0000 C   0  0  0  0  0  0  0  0  0  0  0  0
    3.0000   -5.1962    0.0000 O   0  0  0  0  0  0  0  0  0  0  0  0
    5.2500   -3.8971    0.0000 C   0  0  0  0  0  0  0  0  0  0  0  0
    6.0000   -5.1962    0.0000 C   0  0  0  0  0  0  0  0  0  0  0  0
    5.2500   -6.4952    0.0000 C   0  0  0  0  0  0  0  0  0  0  0  0
    6.0000   -7.7942    0.0000 C   0  0  0  0  0  0  0  0  0  0  0  0
    7.5000   -7.7942    0.0000 C   0  0  0  0  0  0  0  0  0  0  0  0
    8.2500   -6.4952    0.0000 C   0  0  0  0  0  0  0  0  0  0  0  0
    7.5000   -5.1962    0.0000 C   0  0  0  0  0  0  0  0  0  0  0  0
    8.2500   -3.8971    0.0000 C   0  0  0  0  0  0  0  0  0  0  0  0
    7.5000   -2.5981    0.0000 C   0  0  0  0  0  0  0  0  0  0  0  0
    8.2500   -1.2990    0.0000 C   0  0  0  0  0  0  0  0  0  0  0  0
    9.7500   -1.2990    0.0000 C   0  0  0  0  0  0  0  0  0  0  0  0
   10.5000   -2.5981    0.0000 C   0  0  0  0  0  0  0  0  0  0  0  0
    9.7500   -3.8971    0.0000 C   0  0  0  0  0  0  0  0  0  0  0  0
   10.5000   -5.1962    0.0000 C   0  0  0  0  0  0  0  0  0  0  0  0
   11.9958   -5.0841    0.0000 C   0  0  0  0  0  0  0  0  0  0  0  0
   13.0161   -6.1836    0.0000 C   0  0  0  0  0  0  0  0  0  0  0  0
   12.7925   -7.6669    0.0000 C   0  0  0  0  0  0  0  0  0  0  0  0
   11.4935   -8.4169    0.0000 C   0  0  0  0  0  0  0  0  0  0  0  0
   10.0972   -7.8689    0.0000 C   0  0  0  0  0  0  0  0  0  0  0  0
    9.6550   -6.4355    0.0000 C   0  0  0  0  0  0  0  0  0  0  0  0
    0.7500   -1.2990    0.0000 C   0  0  0  0  0  0  0  0  0  0  0  0
    1.5000    0.0000    0.0000 C   0  0  0  0  0  0  0  0  0  0  0  0
    0.7500    1.2990    0.0000 C   0  0  0  0  0  0  0  0  0  0  0  0
   -0.7500    1.2990    0.0000 C   0  0  0  0  0  0  0  0  0  0  0  0
   -1.5000    0.0000    0.0000 C   0  0  0  0  0  0  0  0  0  0  0  0
   -0.7500   -1.2990    0.0000 C   0  0  0  0  0  0  0  0  0  0  0  0
  1  2  3  0
  2  3  1  0
  3  4  2  0
  4  5  1  0
  5  6  2  0
  6  7  1  0
  7  8  1  0
  8  9  2  0
  8 10  1  0
 10 11  1  0
 11 12  2  0
 12 13  1  0
 13 14  2  0
 14 15  1  0
 15 16  2  0
 16 17  1  0
 17 18  2  0
 18 19  1  0
 19 20  2  0
 20 21  1  0
 21 22  2  0
 22 23  1  0
 23 24  2  0
 24 25  1  0
 25 26  1  0
 26 27  1  0
 27 28  1  0
 28 29  1  0
  6 30  1  0
 30 31  2  0
 31 32  1  0
 32 33  2  0
 33 34  1  0
 34 35  2  0
 35  3  1  0
 16 11  1  0
 22 17  1  0
 29 23  1  0
 35 30  1  0
M  END
>  <Title>  (121) 
idAACWgen7

$$$$

     RDKit          2D

  4  3  0  0  0  0  0  0  0  0999 V2000
   -0.0000   -1.5000    0.0000 N   0  0  0  0  0  0  0  0  0  0  0  0
    0.0000    0.0000    0.0000 C   0  0  0  0  0  0  0  0  0  0  0  0
    0.0000    1.5000    0.0000 C   0  0  0  0  0  0  0  0  0  0  0  0
    0.0000    3.0000    0.0000 N   0  0  0  0  0  0  0  0  0  0  0  0
  1  2  3  0
  2  3  1  0
  3  4  3  0
M  END
>  <Title>  (122) 
idAACXgen7

$$$$

     RDKit          2D

 11 11  0  0  0  0  0  0  0  0999 V2000
    5.0260   -1.2990    0.0000 C   0  0  0  0  0  0  0  0  0  0  0  0
    3.5260   -1.2990    0.0000 C   0  0  0  0  0  0  0  0  0  0  0  0
    2.7760   -2.5981    0.0000 O   0  0  0  0  0  0  0  0  0  0  0  0
    2.7760    0.0000    0.0000 C   0  0  0  0  0  0  0  0  0  0  0  0
    3.5260    1.2990    0.0000 O   0  0  0  0  0  0  0  0  0  0  0  0
    1.2760    0.0000    0.0000 C   0  0  0  0  0  0  0  0  0  0  0  0
    0.3943    1.2135    0.0000 C   0  0  0  0  0  0  0  0  0  0  0  0
   -1.0323    0.7500    0.0000 C   0  0  0  0  0  0  0  0  0  0  0  0
   -1.0323   -0.7500    0.0000 C   0  0  0  0  0  0  0  0  0  0  0  0
   -2.2458   -1.6317    0.0000 C   0  0  0  0  0  0  0  0  0  0  0  0
    0.3943   -1.2135    0.0000 C   0  0  0  0  0  0  0  0  0  0  0  0
  1  2  1  0
  2  3  2  0
  2  4  1  0
  4  5  2  0
  4  6  1  0
  6  7  1  0
  7  8  1  0
  8  9  1  0
  9 10  1  0
  9 11  1  0
 11  6  1  0
M  END
>  <Title>  (123) 
idAACYgen7

$$$$

     RDKit          2D

 47 53  0  0  0  0  0  0  0  0999 V2000
    3.1097   -7.2078    0.0000 C   0  0  0  0  0  0  0  0  0  0  0  0
    2.0490   -6.1471    0.0000 C   0  0  0  0  0  0  0  0  0  0  0  0
    2.7990   -4.8481    0.0000 C   0  0  0  0  0  0  0  0  0  0  0  0
    2.7990   -3.3481    0.0000 C   0  0  0  0  0  0  0  0  0  0  0  0
    2.0490   -2.0490    0.0000 C   0  0  0  0  0  0  0  0  0  0  0  0
    3.1097   -0.9884    0.0000 C   0  0  0  0  0  0  0  0  0  0  0  0
    2.7215    0.4605    0.0000 O   0  0  0  0  0  0  0  0  0  0  0  0
    4.5586   -1.3766    0.0000 N   0  0  0  0  0  0  0  0  0  0  0  0
    5.6192   -0.3159    0.0000 C   0  0  0  0  0  0  0  0  0  0  0  0
    7.0681   -0.7042    0.0000 N   0  0  0  0  0  0  0  0  0  0  0  0
    8.1288    0.3565    0.0000 N   0  0  0  0  0  0  0  0  0  0  0  0
    7.7406    1.8054    0.0000 N   0  0  0  0  0  0  0  0  0  0  0  0
    6.2917    2.1936    0.0000 N   0  0  0  0  0  0  0  0  0  0  0  0
    5.9035    3.6425    0.0000 N   0  0  0  0  0  0  0  0  0  0  0  0
    6.9641    4.7032    0.0000 C   0  0  0  0  0  0  0  0  0  0  0  0
    6.5759    6.1520    0.0000 C   0  0  0  0  0  0  0  0  0  0  0  0
    5.1270    6.5403    0.0000 C   0  0  0  0  0  0  0  0  0  0  0  0
    4.7388    7.9892    0.0000 C   0  0  0  0  0  0  0  0  0  0  0  0
    4.3505    9.4380    0.0000 N   0  0  0  0  0  0  0  0  0  0  0  0
    4.0663    5.4796    0.0000 C   0  0  0  0  0  0  0  0  0  0  0  0
    4.4546    4.0307    0.0000 C   0  0  0  0  0  0  0  0  0  0  0  0
    5.2310    1.1329    0.0000 C   0  0  0  0  0  0  0  0  0  0  0  0
    3.7821    1.5212    0.0000 O   0  0  0  0  0  0  0  0  0  0  0  0
    0.7500   -1.2990    0.0000 C   0  0  0  0  0  0  0  0  0  0  0  0
    1.5000    0.0000    0.0000 C   0  0  0  0  0  0  0  0  0  0  0  0
    0.7500    1.2990    0.0000 C   0  0  0  0  0  0  0  0  0  0  0  0
   -0.7500    1.2990    0.0000 C   0  0  0  0  0  0  0  0  0  0  0  0
   -1.5000    0.0000    0.0000 C   0  0  0  0  0  0  0  0  0  0  0  0
   -0.7500   -1.2990    0.0000 C   0  0  0  0  0  0  0  0  0  0  0  0
   -2.0490   -2.0490    0.0000 C   0  0  0  0  0  0  0  0  0  0  0  0
   -2.7990   -0.7500    0.0000 C   0  0  0  0  0  0  0  0  0  0  0  0
   -4.2990   -0.7500    0.0000 C   0  0  0  0  0  0  0  0  0  0  0  0
   -5.0490   -2.0490    0.0000 C   0  0  0  0  0  0  0  0  0  0  0  0
   -4.2990   -3.3481    0.0000 C   0  0  0  0  0  0  0  0  0  0  0  0
   -2.7990   -3.3481    0.0000 C   0  0  0  0  0  0  0  0  0  0  0  0
   -2.7990   -4.8481    0.0000 C   0  0  0  0  0  0  0  0  0  0  0  0
   -4.2990   -4.8481    0.0000 C   0  0  0  0  0  0  0  0  0  0  0  0
   -5.0490   -6.1471    0.0000 C   0  0  0  0  0  0  0  0  0  0  0  0
   -4.2990   -7.4462    0.0000 C   0  0  0  0  0  0  0  0  0  0  0  0
   -2.7990   -7.4462    0.0000 C   0  0  0  0  0  0  0  0  0  0  0  0
   -2.0490   -6.1471    0.0000 C   0  0  0  0  0  0  0  0  0  0  0  0
   -0.7500   -6.8971    0.0000 C   0  0  0  0  0  0  0  0  0  0  0  0
   -1.5000   -8.1962    0.0000 C   0  0  0  0  0  0  0  0  0  0  0  0
   -0.7500   -9.4952    0.0000 C   0  0  0  0  0  0  0  0  0  0  0  0
    0.7500   -9.4952    0.0000 C   0  0  0  0  0  0  0  0  0  0  0  0
    1.5000   -8.1962    0.0000 C   0  0  0  0  0  0  0  0  0  0  0  0
    0.7500   -6.8971    0.0000 C   0  0  0  0  0  0  0  0  0  0  0  0
  1  2  1  0
  2  3  1  0
  3  4  1  0
  4  5  1  0
  5  6  1  0
  6  7  2  0
  6  8  1  0
  8  9  1  0
  9 10  2  0
 10 11  1  0
 11 12  2  0
 12 13  1  0
 13 14  1  0
 14 15  1  0
 15 16  2  0
 16 17  1  0
 17 18  1  0
 18 19  3  0
 17 20  1  0
 20 21  1  0
 13 22  1  0
 22 23  2  0
  5 24  1  0
 24 25  2  0
 25 26  1  0
 26 27  2  0
 27 28  1  0
 28 29  2  0
 29 30  1  0
 30 31  2  0
 31 32  1  0
 32 33  2  0
 33 34  1  0
 34 35  2  0
 35 36  1  0
 36 37  2  0
 37 38  1  0
 38 39  2  0
 39 40  1  0
 40 41  2  0
 41 42  1  0
 42 43  2  0
 43 44  1  0
 44 45  2  0
 45 46  1  0
 46 47  2  0
 47  2  1  0
 22  9  1  0
 29 24  1  0
 35 30  1  0
 41 36  1  0
 47 42  1  0
 21 14  1  0
M  END
>  <Title>  (124) 
idAACZgen7

$$$$

     RDKit          2D

  9  9  0  0  0  0  0  0  0  0999 V2000
    6.5260   -1.2990    0.0000 N   0  0  0  0  0  0  0  0  0  0  0  0
    5.7760   -0.0000    0.0000 C   0  0  0  0  0  0  0  0  0  0  0  0
    4.2760   -0.0000    0.0000 C   0  0  0  0  0  0  0  0  0  0  0  0
    2.7760    0.0000    0.0000 C   0  0  0  0  0  0  0  0  0  0  0  0
    1.2760    0.0000    0.0000 C   0  0  0  0  0  0  0  0  0  0  0  0
    0.3943    1.2135    0.0000 C   0  0  0  0  0  0  0  0  0  0  0  0
   -1.0323    0.7500    0.0000 C   0  0  0  0  0  0  0  0  0  0  0  0
   -1.0323   -0.7500    0.0000 C   0  0  0  0  0  0  0  0  0  0  0  0
    0.3943   -1.2135    0.0000 C   0  0  0  0  0  0  0  0  0  0  0  0
  1  2  2  0
  2  3  1  0
  3  4  3  0
  4  5  1  0
  5  6  2  0
  6  7  1  0
  7  8  1  0
  8  9  1  0
  9  5  1  0
M  END
>  <Title>  (125) 
idAADAgen7

$$$$

     RDKit          2D

 11 11  0  0  0  0  0  0  0  0999 V2000
    5.7760   -2.5981    0.0000 C   0  0  0  0  0  0  0  0  0  0  0  0
    5.0260   -1.2990    0.0000 C   0  0  0  0  0  0  0  0  0  0  0  0
    5.7760    0.0000    0.0000 O   0  0  0  0  0  0  0  0  0  0  0  0
    3.5260   -1.2990    0.0000 C   0  0  0  0  0  0  0  0  0  0  0  0
    2.7760   -2.5981    0.0000 O   0  0  0  0  0  0  0  0  0  0  0  0
    2.7760    0.0000    0.0000 N   0  0  0  0  0  0  0  0  0  0  0  0
    1.2760    0.0000    0.0000 C   0  0  0  0  0  0  0  0  0  0  0  0
    0.3943    1.2135    0.0000 C   0  0  0  0  0  0  0  0  0  0  0  0
   -1.0323    0.7500    0.0000 C   0  0  0  0  0  0  0  0  0  0  0  0
   -1.0323   -0.7500    0.0000 C   0  0  0  0  0  0  0  0  0  0  0  0
    0.3943   -1.2135    0.0000 C   0  0  0  0  0  0  0  0  0  0  0  0
  1  2  1  0
  2  3  2  0
  2  4  1  0
  4  5  2  0
  4  6  1  0
  6  7  1  0
  7  8  2  0
  8  9  1  0
  9 10  1  0
 10 11  2  0
 11  7  1  0
M  END
>  <Title>  (126) 
idAADBgen7

$$$$

     RDKit          2D

 27 29  0  0  0  0  0  0  0  0999 V2000
    3.0000    0.0000    0.0000 C   0  0  0  0  0  0  0  0  0  0  0  0
    1.5000    0.0000    0.0000 C   0  0  0  0  0  0  0  0  0  0  0  0
    0.7500   -1.2990    0.0000 C   0  0  0  0  0  0  0  0  0  0  0  0
   -0.7500   -1.2990    0.0000 C   0  0  0  0  0  0  0  0  0  0  0  0
   -1.5000    0.0000    0.0000 C   0  0  0  0  0  0  0  0  0  0  0  0
   -3.0000    0.0000    0.0000 O   0  0  0  0  0  0  0  0  0  0  0  0
   -0.7500    1.2990    0.0000 C   0  0  0  0  0  0  0  0  0  0  0  0
    0.7500    1.2990    0.0000 C   0  0  0  0  0  0  0  0  0  0  0  0
    2.1595    1.8121    0.0000 O   0  0  0  0  0  0  0  0  0  0  0  0
    0.4895    2.7762    0.0000 C   0  0  0  0  0  0  0  0  0  0  0  0
    1.6386    3.7404    0.0000 C   0  0  0  0  0  0  0  0  0  0  0  0
    3.0481    3.2274    0.0000 O   0  0  0  0  0  0  0  0  0  0  0  0
    1.3781    5.2176    0.0000 N   0  0  0  0  0  0  0  0  0  0  0  0
    0.0299    5.8752    0.0000 C   0  0  0  0  0  0  0  0  0  0  0  0
    0.2387    7.3606    0.0000 C   0  0  0  0  0  0  0  0  0  0  0  0
    1.7159    7.6211    0.0000 C   0  0  0  0  0  0  0  0  0  0  0  0
    2.3735    8.9693    0.0000 C   0  0  0  0  0  0  0  0  0  0  0  0
    1.5347   10.2128    0.0000 O   0  0  0  0  0  0  0  0  0  0  0  0
    3.8698    9.0739    0.0000 N   0  0  0  0  0  0  0  0  0  0  0  0
    4.5274   10.4221    0.0000 C   0  0  0  0  0  0  0  0  0  0  0  0
    6.0237   10.5267    0.0000 N   0  0  0  0  0  0  0  0  0  0  0  0
    6.6813   11.8749    0.0000 N   0  0  0  0  0  0  0  0  0  0  0  0
    5.8425   13.1185    0.0000 N   0  0  0  0  0  0  0  0  0  0  0  0
    4.3461   13.0138    0.0000 N   0  0  0  0  0  0  0  0  0  0  0  0
    3.6886   11.6656    0.0000 N   0  0  0  0  0  0  0  0  0  0  0  0
    2.4201    6.2967    0.0000 C   0  0  0  0  0  0  0  0  0  0  0  0
    3.9055    6.0879    0.0000 O   0  0  0  0  0  0  0  0  0  0  0  0
  1  2  1  0
  2  3  1  0
  3  4  1  0
  4  5  1  0
  5  6  1  0
  5  7  1  0
  7  8  1  0
  8  9  1  0
  8 10  1  0
 10 11  1  0
 11 12  2  0
 11 13  1  0
 13 14  1  0
 14 15  1  0
 15 16  1  0
 16 17  1  0
 17 18  2  0
 17 19  1  0
 19 20  1  0
 20 21  2  0
 21 22  1  0
 22 23  2  0
 23 24  1  0
 24 25  2  0
 16 26  1  0
 26 27  2  0
  8  2  1  0
 26 13  1  0
 25 20  1  0
M  END
>  <Title>  (127) 
idAADCgen7

$$$$

     RDKit          2D

  8  8  0  0  0  0  0  0  0  0999 V2000
    3.7500   -1.2990    0.0000 O   0  0  0  0  0  0  0  0  0  0  0  0
    3.0000    0.0000    0.0000 C   0  0  0  0  0  0  0  0  0  0  0  0
    1.5000    0.0000    0.0000 C   0  0  0  0  0  0  0  0  0  0  0  0
    0.7500   -1.2990    0.0000 C   0  0  0  0  0  0  0  0  0  0  0  0
   -0.7500   -1.2990    0.0000 C   0  0  0  0  0  0  0  0  0  0  0  0
   -1.5000    0.0000    0.0000 C   0  0  0  0  0  0  0  0  0  0  0  0
   -0.7500    1.2990    0.0000 C   0  0  0  0  0  0  0  0  0  0  0  0
    0.7500    1.2990    0.0000 C   0  0  0  0  0  0  0  0  0  0  0  0
  1  2  1  0
  2  3  1  0
  3  4  1  0
  4  5  1  0
  5  6  1  0
  6  7  1  0
  7  8  1  0
  8  3  1  0
M  END
>  <Title>  (128) 
idAADDgen7

$$$$

     RDKit          2D

 68 68  0  0  0  0  0  0  0  0999 V2000
   16.2396    0.0000    0.0000 C   0  0  0  0  0  0  0  0  0  0  0  0
   16.1703   -1.4984    0.0000 C   0  0  0  0  0  0  0  0  0  0  0  0
   15.9631   -2.9840    0.0000 C   0  0  0  0  0  0  0  0  0  0  0  0
   15.6196   -4.4442    0.0000 C   0  0  0  0  0  0  0  0  0  0  0  0
   15.1430   -5.8664    0.0000 C   0  0  0  0  0  0  0  0  0  0  0  0
   14.5371   -7.2386    0.0000 C   0  0  0  0  0  0  0  0  0  0  0  0
   13.8072   -8.5490    0.0000 C   0  0  0  0  0  0  0  0  0  0  0  0
   12.9595   -9.7865    0.0000 C   0  0  0  0  0  0  0  0  0  0  0  0
   12.0012  -10.9405    0.0000 C   0  0  0  0  0  0  0  0  0  0  0  0
   10.9405  -12.0012    0.0000 C   0  0  0  0  0  0  0  0  0  0  0  0
    9.7865  -12.9595    0.0000 C   0  0  0  0  0  0  0  0  0  0  0  0
    8.5490  -13.8072    0.0000 C   0  0  0  0  0  0  0  0  0  0  0  0
    7.2386  -14.5371    0.0000 C   0  0  0  0  0  0  0  0  0  0  0  0
    5.8664  -15.1430    0.0000 C   0  0  0  0  0  0  0  0  0  0  0  0
    4.4442  -15.6196    0.0000 C   0  0  0  0  0  0  0  0  0  0  0  0
    2.9840  -15.9631    0.0000 C   0  0  0  0  0  0  0  0  0  0  0  0
    1.4984  -16.1703    0.0000 C   0  0  0  0  0  0  0  0  0  0  0  0
   -0.0000  -16.2396    0.0000 C   0  0  0  0  0  0  0  0  0  0  0  0
   -1.4984  -16.1703    0.0000 C   0  0  0  0  0  0  0  0  0  0  0  0
   -2.9840  -15.9631    0.0000 C   0  0  0  0  0  0  0  0  0  0  0  0
   -4.4442  -15.6196    0.0000 C   0  0  0  0  0  0  0  0  0  0  0  0
   -5.8664  -15.1430    0.0000 C   0  0  0  0  0  0  0  0  0  0  0  0
   -7.2386  -14.5371    0.0000 C   0  0  0  0  0  0  0  0  0  0  0  0
   -8.5490  -13.8072    0.0000 C   0  0  0  0  0  0  0  0  0  0  0  0
   -9.7865  -12.9595    0.0000 C   0  0  0  0  0  0  0  0  0  0  0  0
  -10.9405  -12.0012    0.0000 C   0  0  0  0  0  0  0  0  0  0  0  0
  -12.0012  -10.9405    0.0000 C   0  0  0  0  0  0  0  0  0  0  0  0
  -12.9595   -9.7865    0.0000 C   0  0  0  0  0  0  0  0  0  0  0  0
  -13.8072   -8.5490    0.0000 C   0  0  0  0  0  0  0  0  0  0  0  0
  -14.5371   -7.2386    0.0000 C   0  0  0  0  0  0  0  0  0  0  0  0
  -15.1430   -5.8664    0.0000 C   0  0  0  0  0  0  0  0  0  0  0  0
  -15.6196   -4.4442    0.0000 C   0  0  0  0  0  0  0  0  0  0  0  0
  -15.9631   -2.9840    0.0000 C   0  0  0  0  0  0  0  0  0  0  0  0
  -16.1703   -1.4984    0.0000 C   0  0  0  0  0  0  0  0  0  0  0  0
  -16.2396    0.0000    0.0000 C   0  0  0  0  0  0  0  0  0  0  0  0
  -16.1703    1.4984    0.0000 C   0  0  0  0  0  0  0  0  0  0  0  0
  -15.9631    2.9840    0.0000 C   0  0  0  0  0  0  0  0  0  0  0  0
  -15.6196    4.4442    0.0000 C   0  0  0  0  0  0  0  0  0  0  0  0
  -15.1430    5.8664    0.0000 C   0  0  0  0  0  0  0  0  0  0  0  0
  -14.5371    7.2386    0.0000 C   0  0  0  0  0  0  0  0  0  0  0  0
  -13.8072    8.5490    0.0000 C   0  0  0  0  0  0  0  0  0  0  0  0
  -12.9595    9.7865    0.0000 C   0  0  0  0  0  0  0  0  0  0  0  0
  -12.0012   10.9405    0.0000 C   0  0  0  0  0  0  0  0  0  0  0  0
  -10.9405   12.0012    0.0000 C   0  0  0  0  0  0  0  0  0  0  0  0
   -9.7865   12.9595    0.0000 C   0  0  0  0  0  0  0  0  0  0  0  0
   -8.5490   13.8072    0.0000 C   0  0  0  0  0  0  0  0  0  0  0  0
   -7.2386   14.5371    0.0000 C   0  0  0  0  0  0  0  0  0  0  0  0
   -5.8664   15.1430    0.0000 C   0  0  0  0  0  0  0  0  0  0  0  0
   -4.4442   15.6196    0.0000 C   0  0  0  0  0  0  0  0  0  0  0  0
   -2.9840   15.9631    0.0000 C   0  0  0  0  0  0  0  0  0  0  0  0
   -1.4984   16.1703    0.0000 C   0  0  0  0  0  0  0  0  0  0  0  0
    0.0000   16.2396    0.0000 C   0  0  0  0  0  0  0  0  0  0  0  0
    1.4984   16.1703    0.0000 C   0  0  0  0  0  0  0  0  0  0  0  0
    2.9840   15.9631    0.0000 C   0  0  0  0  0  0  0  0  0  0  0  0
    4.4442   15.6196    0.0000 C   0  0  0  0  0  0  0  0  0  0  0  0
    5.8664   15.1430    0.0000 C   0  0  0  0  0  0  0  0  0  0  0  0
    7.2386   14.5371    0.0000 C   0  0  0  0  0  0  0  0  0  0  0  0
    8.5490   13.8072    0.0000 C   0  0  0  0  0  0  0  0  0  0  0  0
    9.7865   12.9595    0.0000 C   0  0  0  0  0  0  0  0  0  0  0  0
   10.9405   12.0012    0.0000 C   0  0  0  0  0  0  0  0  0  0  0  0
   12.0012   10.9405    0.0000 C   0  0  0  0  0  0  0  0  0  0  0  0
   12.9595    9.7865    0.0000 C   0  0  0  0  0  0  0  0  0  0  0  0
   13.8072    8.5490    0.0000 C   0  0  0  0  0  0  0  0  0  0  0  0
   14.5371    7.2386    0.0000 C   0  0  0  0  0  0  0  0  0  0  0  0
   15.1430    5.8664    0.0000 C   0  0  0  0  0  0  0  0  0  0  0  0
   15.6196    4.4442    0.0000 C   0  0  0  0  0  0  0  0  0  0  0  0
   15.9631    2.9840    0.0000 C   0  0  0  0  0  0  0  0  0  0  0  0
   16.1703    1.4984    0.0000 C   0  0  0  0  0  0  0  0  0  0  0  0
  1  2  1  0
  2  3  1  0
  3  4  1  0
  4  5  1  0
  5  6  1  0
  6  7  1  0
  7  8  1  0
  8  9  1  0
  9 10  1  0
 10 11  1  0
 11 12  1  0
 12 13  1  0
 13 14  1  0
 14 15  1  0
 15 16  1  0
 16 17  1  0
 17 18  1  0
 18 19  1  0
 19 20  1  0
 20 21  1  0
 21 22  1  0
 22 23  1  0
 23 24  1  0
 24 25  1  0
 25 26  1  0
 26 27  1  0
 27 28  1  0
 28 29  1  0
 29 30  1  0
 30 31  1  0
 31 32  1  0
 32 33  1  0
 33 34  1  0
 34 35  1  0
 35 36  1  0
 36 37  1  0
 37 38  1  0
 38 39  1  0
 39 40  1  0
 40 41  1  0
 41 42  1  0
 42 43  1  0
 43 44  1  0
 44 45  1  0
 45 46  1  0
 46 47  1  0
 47 48  1  0
 48 49  1  0
 49 50  1  0
 50 51  1  0
 51 52  1  0
 52 53  1  0
 53 54  1  0
 54 55  1  0
 55 56  1  0
 56 57  1  0
 57 58  1  0
 58 59  1  0
 59 60  1  0
 60 61  1  0
 61 62  1  0
 62 63  1  0
 63 64  1  0
 64 65  1  0
 65 66  1  0
 66 67  1  0
 67 68  1  0
 68  1  1  0
M  END
>  <Title>  (129) 
idAADEgen7

$$$$

     RDKit          2D

 18 19  0  0  0  0  0  0  0  0999 V2000
   -3.7943   -9.3394    0.0000 N   0  0  0  0  0  0  0  0  0  0  0  0
   -2.4240   -8.7293    0.0000 C   0  0  0  0  0  0  0  0  0  0  0  0
   -1.0537   -8.1192    0.0000 C   0  0  0  0  0  0  0  0  0  0  0  0
    0.2454   -8.8692    0.0000 C   0  0  0  0  0  0  0  0  0  0  0  0
    1.3601   -7.8655    0.0000 C   0  0  0  0  0  0  0  0  0  0  0  0
    0.7500   -6.4952    0.0000 N   0  0  0  0  0  0  0  0  0  0  0  0
    1.5000   -5.1962    0.0000 N   0  0  0  0  0  0  0  0  0  0  0  0
    0.7500   -3.8971    0.0000 N   0  0  0  0  0  0  0  0  0  0  0  0
    1.5000   -2.5981    0.0000 N   0  0  0  0  0  0  0  0  0  0  0  0
    0.7500   -1.2990    0.0000 C   0  0  0  0  0  0  0  0  0  0  0  0
    1.5000    0.0000    0.0000 N   0  0  0  0  0  0  0  0  0  0  0  0
    0.7500    1.2990    0.0000 C   0  0  0  0  0  0  0  0  0  0  0  0
    1.5000    2.5981    0.0000 O   0  0  0  0  0  0  0  0  0  0  0  0
   -0.7500    1.2990    0.0000 C   0  0  0  0  0  0  0  0  0  0  0  0
   -1.5000    0.0000    0.0000 C   0  0  0  0  0  0  0  0  0  0  0  0
   -0.7500   -1.2990    0.0000 C   0  0  0  0  0  0  0  0  0  0  0  0
   -1.5000   -2.5981    0.0000 O   0  0  0  0  0  0  0  0  0  0  0  0
   -0.7418   -6.6520    0.0000 C   0  0  0  0  0  0  0  0  0  0  0  0
  1  2  3  0
  2  3  1  0
  3  4  1  0
  4  5  1  0
  5  6  1  0
  6  7  1  0
  7  8  2  3
  8  9  1  0
  9 10  2  3
 10 11  1  0
 11 12  1  0
 12 13  2  0
 12 14  1  0
 14 15  1  0
 15 16  1  0
 16 17  2  0
  6 18  1  0
 18  3  1  0
 16 10  1  0
M  END
>  <Title>  (130) 
idAADFgen7

$$$$

     RDKit          2D

 22 24  0  0  0  0  0  0  0  0999 V2000
   -3.1476   -2.1380    0.0000 C   0  0  0  0  0  0  0  0  0  0  0  0
   -1.6852   -2.4718    0.0000 C   0  0  0  0  0  0  0  0  0  0  0  0
   -1.3515   -3.9342    0.0000 C   0  0  0  0  0  0  0  0  0  0  0  0
   -0.0000   -4.5850    0.0000 C   0  0  0  0  0  0  0  0  0  0  0  0
    1.3515   -3.9342    0.0000 C   0  0  0  0  0  0  0  0  0  0  0  0
    1.6852   -2.4718    0.0000 C   0  0  0  0  0  0  0  0  0  0  0  0
    3.1476   -2.1380    0.0000 N   0  0  0  0  0  0  0  0  0  0  0  0
    4.1679   -3.2376    0.0000 C   0  0  0  0  0  0  0  0  0  0  0  0
    3.5898   -0.7046    0.0000 C   0  0  0  0  0  0  0  0  0  0  0  0
    2.5695    0.3949    0.0000 O   0  0  0  0  0  0  0  0  0  0  0  0
    5.0522   -0.3709    0.0000 C   0  0  0  0  0  0  0  0  0  0  0  0
    6.0724   -1.4704    0.0000 C   0  0  0  0  0  0  0  0  0  0  0  0
    7.5348   -1.1367    0.0000 C   0  0  0  0  0  0  0  0  0  0  0  0
    7.9769    0.2967    0.0000 C   0  0  0  0  0  0  0  0  0  0  0  0
    6.9567    1.3963    0.0000 C   0  0  0  0  0  0  0  0  0  0  0  0
    5.4943    1.0625    0.0000 C   0  0  0  0  0  0  0  0  0  0  0  0
    0.7500   -1.2990    0.0000 C   0  0  0  0  0  0  0  0  0  0  0  0
    1.5000    0.0000    0.0000 C   0  0  0  0  0  0  0  0  0  0  0  0
    0.7500    1.2990    0.0000 C   0  0  0  0  0  0  0  0  0  0  0  0
   -0.7500    1.2990    0.0000 C   0  0  0  0  0  0  0  0  0  0  0  0
   -1.5000    0.0000    0.0000 C   0  0  0  0  0  0  0  0  0  0  0  0
   -0.7500   -1.2990    0.0000 C   0  0  0  0  0  0  0  0  0  0  0  0
  1  2  1  0
  2  3  2  0
  3  4  1  0
  4  5  1  0
  5  6  1  0
  6  7  1  0
  7  8  1  0
  7  9  1  0
  9 10  2  0
  9 11  1  0
 11 12  2  0
 12 13  1  0
 13 14  2  0
 14 15  1  0
 15 16  2  0
  6 17  1  0
 17 18  2  0
 18 19  1  0
 19 20  2  0
 20 21  1  0
 21 22  2  0
 22  2  1  0
 16 11  1  0
 22 17  1  0
M  END
>  <Title>  (131) 
idAADGgen7

$$$$

     RDKit          2D

 11 11  0  0  0  0  0  0  0  0999 V2000
    3.5260   -3.8971    0.0000 C   0  0  0  0  0  0  0  0  0  0  0  0
    2.7760   -2.5981    0.0000 C   0  0  0  0  0  0  0  0  0  0  0  0
    1.2760   -2.5981    0.0000 O   0  0  0  0  0  0  0  0  0  0  0  0
    3.5260   -1.2990    0.0000 C   0  0  0  0  0  0  0  0  0  0  0  0
    5.0260   -1.2990    0.0000 C   0  0  0  0  0  0  0  0  0  0  0  0
    2.7760    0.0000    0.0000 N   0  0  0  0  0  0  0  0  0  0  0  0
    1.2760    0.0000    0.0000 C   0  0  0  0  0  0  0  0  0  0  0  0
    0.3943    1.2135    0.0000 C   0  0  0  0  0  0  0  0  0  0  0  0
   -1.0323    0.7500    0.0000 C   0  0  0  0  0  0  0  0  0  0  0  0
   -1.0323   -0.7500    0.0000 C   0  0  0  0  0  0  0  0  0  0  0  0
    0.3943   -1.2135    0.0000 C   0  0  0  0  0  0  0  0  0  0  0  0
  1  2  1  0
  2  3  2  0
  2  4  1  0
  4  5  1  0
  4  6  1  0
  6  7  1  0
  7  8  2  0
  8  9  1  0
  9 10  1  0
 10 11  2  0
 11  7  1  0
M  END
>  <Title>  (132) 
idAADHgen7

$$$$

     RDKit          2D

 19 20  0  0  0  0  0  0  0  0999 V2000
    3.2286   -0.0000    0.0000 C   0  0  0  0  0  0  0  0  0  0  0  0
    1.7286    0.0000    0.0000 C   0  0  0  0  0  0  0  0  0  0  0  0
    1.0777    1.3515    0.0000 C   0  0  0  0  0  0  0  0  0  0  0  0
   -0.3846    1.6852    0.0000 C   0  0  0  0  0  0  0  0  0  0  0  0
   -1.5574    0.7500    0.0000 C   0  0  0  0  0  0  0  0  0  0  0  0
   -2.9088    1.4008    0.0000 C   0  0  0  0  0  0  0  0  0  0  0  0
   -4.1482    0.5558    0.0000 O   0  0  0  0  0  0  0  0  0  0  0  0
   -3.0209    2.8966    0.0000 N   0  0  0  0  0  0  0  0  0  0  0  0
   -4.3724    3.5475    0.0000 C   0  0  0  0  0  0  0  0  0  0  0  0
   -4.4845    5.0433    0.0000 N   0  0  0  0  0  0  0  0  0  0  0  0
   -5.8359    5.6941    0.0000 N   0  0  0  0  0  0  0  0  0  0  0  0
   -7.0753    4.8491    0.0000 N   0  0  0  0  0  0  0  0  0  0  0  0
   -6.9632    3.3533    0.0000 N   0  0  0  0  0  0  0  0  0  0  0  0
   -5.6118    2.7025    0.0000 N   0  0  0  0  0  0  0  0  0  0  0  0
   -1.5574   -0.7500    0.0000 C   0  0  0  0  0  0  0  0  0  0  0  0
   -2.9088   -1.4008    0.0000 O   0  0  0  0  0  0  0  0  0  0  0  0
   -0.3846   -1.6852    0.0000 C   0  0  0  0  0  0  0  0  0  0  0  0
   -0.7184   -3.1476    0.0000 C   0  0  0  0  0  0  0  0  0  0  0  0
    1.0777   -1.3515    0.0000 N   0  0  0  0  0  0  0  0  0  0  0  0
  1  2  1  0
  2  3  2  0
  3  4  1  0
  4  5  2  0
  5  6  1  0
  6  7  2  0
  6  8  1  0
  8  9  1  0
  9 10  2  0
 10 11  1  0
 11 12  2  0
 12 13  1  0
 13 14  2  0
  5 15  1  0
 15 16  2  0
 15 17  1  0
 17 18  1  0
 17 19  1  0
 19  2  1  0
 14  9  1  0
M  END
>  <Title>  (133) 
idAADIgen7

$$$$

     RDKit          2D

 53 53  0  0  0  0  0  0  0  0999 V2000
   13.9216    0.0000    0.0000 C   0  0  0  0  0  0  0  0  0  0  0  0
   12.4216    0.0000    0.0000 C   0  0  0  0  0  0  0  0  0  0  0  0
   12.3311   -1.4973    0.0000 C   0  0  0  0  0  0  0  0  0  0  0  0
   12.0607   -2.9727    0.0000 C   0  0  0  0  0  0  0  0  0  0  0  0
   11.6144   -4.4048    0.0000 C   0  0  0  0  0  0  0  0  0  0  0  0
   10.9988   -5.7726    0.0000 C   0  0  0  0  0  0  0  0  0  0  0  0
   10.2228   -7.0563    0.0000 C   0  0  0  0  0  0  0  0  0  0  0  0
    9.2977   -8.2371    0.0000 C   0  0  0  0  0  0  0  0  0  0  0  0
    8.2371   -9.2977    0.0000 C   0  0  0  0  0  0  0  0  0  0  0  0
    7.0563  -10.2228    0.0000 C   0  0  0  0  0  0  0  0  0  0  0  0
    5.7726  -10.9988    0.0000 C   0  0  0  0  0  0  0  0  0  0  0  0
    4.4048  -11.6144    0.0000 C   0  0  0  0  0  0  0  0  0  0  0  0
    2.9727  -12.0607    0.0000 C   0  0  0  0  0  0  0  0  0  0  0  0
    1.4973  -12.3311    0.0000 C   0  0  0  0  0  0  0  0  0  0  0  0
   -0.0000  -12.4216    0.0000 C   0  0  0  0  0  0  0  0  0  0  0  0
   -1.4973  -12.3311    0.0000 C   0  0  0  0  0  0  0  0  0  0  0  0
   -2.9727  -12.0607    0.0000 C   0  0  0  0  0  0  0  0  0  0  0  0
   -4.4048  -11.6144    0.0000 C   0  0  0  0  0  0  0  0  0  0  0  0
   -5.7726  -10.9988    0.0000 C   0  0  0  0  0  0  0  0  0  0  0  0
   -7.0563  -10.2228    0.0000 C   0  0  0  0  0  0  0  0  0  0  0  0
   -8.2371   -9.2977    0.0000 C   0  0  0  0  0  0  0  0  0  0  0  0
   -9.2977   -8.2371    0.0000 C   0  0  0  0  0  0  0  0  0  0  0  0
  -10.2228   -7.0563    0.0000 C   0  0  0  0  0  0  0  0  0  0  0  0
  -10.9988   -5.7726    0.0000 C   0  0  0  0  0  0  0  0  0  0  0  0
  -11.6144   -4.4048    0.0000 C   0  0  0  0  0  0  0  0  0  0  0  0
  -12.0607   -2.9727    0.0000 C   0  0  0  0  0  0  0  0  0  0  0  0
  -12.3311   -1.4973    0.0000 C   0  0  0  0  0  0  0  0  0  0  0  0
  -12.4216    0.0000    0.0000 C   0  0  0  0  0  0  0  0  0  0  0  0
  -12.3311    1.4973    0.0000 C   0  0  0  0  0  0  0  0  0  0  0  0
  -12.0607    2.9727    0.0000 C   0  0  0  0  0  0  0  0  0  0  0  0
  -11.6144    4.4048    0.0000 C   0  0  0  0  0  0  0  0  0  0  0  0
  -10.9988    5.7726    0.0000 C   0  0  0  0  0  0  0  0  0  0  0  0
  -10.2228    7.0563    0.0000 C   0  0  0  0  0  0  0  0  0  0  0  0
   -9.2977    8.2371    0.0000 C   0  0  0  0  0  0  0  0  0  0  0  0
   -8.2371    9.2977    0.0000 C   0  0  0  0  0  0  0  0  0  0  0  0
   -7.0563   10.2228    0.0000 C   0  0  0  0  0  0  0  0  0  0  0  0
   -5.7726   10.9988    0.0000 C   0  0  0  0  0  0  0  0  0  0  0  0
   -4.4048   11.6144    0.0000 C   0  0  0  0  0  0  0  0  0  0  0  0
   -2.9727   12.0607    0.0000 C   0  0  0  0  0  0  0  0  0  0  0  0
   -1.4973   12.3311    0.0000 C   0  0  0  0  0  0  0  0  0  0  0  0
    0.0000   12.4216    0.0000 C   0  0  0  0  0  0  0  0  0  0  0  0
    1.4973   12.3311    0.0000 C   0  0  0  0  0  0  0  0  0  0  0  0
    2.9727   12.0607    0.0000 C   0  0  0  0  0  0  0  0  0  0  0  0
    4.4048   11.6144    0.0000 C   0  0  0  0  0  0  0  0  0  0  0  0
    5.7726   10.9988    0.0000 C   0  0  0  0  0  0  0  0  0  0  0  0
    7.0563   10.2228    0.0000 C   0  0  0  0  0  0  0  0  0  0  0  0
    8.2371    9.2977    0.0000 C   0  0  0  0  0  0  0  0  0  0  0  0
    9.2977    8.2371    0.0000 C   0  0  0  0  0  0  0  0  0  0  0  0
   10.2228    7.0563    0.0000 C   0  0  0  0  0  0  0  0  0  0  0  0
   10.9988    5.7726    0.0000 C   0  0  0  0  0  0  0  0  0  0  0  0
   11.6144    4.4048    0.0000 C   0  0  0  0  0  0  0  0  0  0  0  0
   12.0607    2.9727    0.0000 C   0  0  0  0  0  0  0  0  0  0  0  0
   12.3311    1.4973    0.0000 C   0  0  0  0  0  0  0  0  0  0  0  0
  1  2  1  0
  2  3  1  0
  3  4  1  0
  4  5  2  0
  5  6  1  0
  6  7  2  0
  7  8  1  0
  8  9  2  0
  9 10  1  0
 10 11  2  0
 11 12  1  0
 12 13  2  0
 13 14  1  0
 14 15  2  0
 15 16  1  0
 16 17  2  0
 17 18  1  0
 18 19  2  0
 19 20  1  0
 20 21  2  0
 21 22  1  0
 22 23  2  0
 23 24  1  0
 24 25  2  0
 25 26  1  0
 26 27  2  0
 27 28  1  0
 28 29  2  0
 29 30  1  0
 30 31  1  0
 31 32  1  0
 32 33  1  0
 33 34  1  0
 34 35  1  0
 35 36  1  0
 36 37  1  0
 37 38  1  0
 38 39  1  0
 39 40  1  0
 40 41  1  0
 41 42  1  0
 42 43  1  0
 43 44  1  0
 44 45  1  0
 45 46  1  0
 46 47  1  0
 47 48  1  0
 48 49  1  0
 49 50  1  0
 50 51  1  0
 51 52  1  0
 52 53  1  0
 53  2  1  0
M  END
>  <Title>  (134) 
idAADJgen7

$$$$

     RDKit          2D

 32 36  0  0  0  0  0  0  0  0999 V2000
   -3.0000   -2.5981    0.0000 C   0  0  0  0  0  0  0  0  0  0  0  0
   -1.5000   -2.5981    0.0000 C   0  0  0  0  0  0  0  0  0  0  0  0
   -0.7500   -3.8971    0.0000 C   0  0  0  0  0  0  0  0  0  0  0  0
    0.7500   -3.8971    0.0000 C   0  0  0  0  0  0  0  0  0  0  0  0
    1.5000   -2.5981    0.0000 C   0  0  0  0  0  0  0  0  0  0  0  0
    3.0000   -2.5981    0.0000 C   0  0  0  0  0  0  0  0  0  0  0  0
    3.7500   -1.2990    0.0000 O   0  0  0  0  0  0  0  0  0  0  0  0
    3.7500   -3.8971    0.0000 N   0  0  0  0  0  0  0  0  0  0  0  0
    5.2500   -3.8971    0.0000 C   0  0  0  0  0  0  0  0  0  0  0  0
    6.1317   -2.6836    0.0000 N   0  0  0  0  0  0  0  0  0  0  0  0
    7.5583   -3.1471    0.0000 N   0  0  0  0  0  0  0  0  0  0  0  0
    7.5583   -4.6471    0.0000 N   0  0  0  0  0  0  0  0  0  0  0  0
    6.1317   -5.1106    0.0000 N   0  0  0  0  0  0  0  0  0  0  0  0
    5.6682   -6.5372    0.0000 C   0  0  0  0  0  0  0  0  0  0  0  0
    4.2009   -6.8491    0.0000 C   0  0  0  0  0  0  0  0  0  0  0  0
    3.7374   -8.2757    0.0000 C   0  0  0  0  0  0  0  0  0  0  0  0
    4.7411   -9.3904    0.0000 C   0  0  0  0  0  0  0  0  0  0  0  0
    6.2083   -9.0785    0.0000 C   0  0  0  0  0  0  0  0  0  0  0  0
    6.6718   -7.6519    0.0000 C   0  0  0  0  0  0  0  0  0  0  0  0
    8.1391   -7.3401    0.0000 C   0  0  0  0  0  0  0  0  0  0  0  0
    8.6026   -5.9135    0.0000 C   0  0  0  0  0  0  0  0  0  0  0  0
   10.0698   -5.6016    0.0000 C   0  0  0  0  0  0  0  0  0  0  0  0
   11.0735   -6.7163    0.0000 C   0  0  0  0  0  0  0  0  0  0  0  0
   10.6100   -8.1429    0.0000 C   0  0  0  0  0  0  0  0  0  0  0  0
    9.1428   -8.4548    0.0000 C   0  0  0  0  0  0  0  0  0  0  0  0
    8.6792   -9.8814    0.0000 O   0  0  0  0  0  0  0  0  0  0  0  0
    0.7500   -1.2990    0.0000 C   0  0  0  0  0  0  0  0  0  0  0  0
    1.5000    0.0000    0.0000 C   0  0  0  0  0  0  0  0  0  0  0  0
    0.7500    1.2990    0.0000 C   0  0  0  0  0  0  0  0  0  0  0  0
   -0.7500    1.2990    0.0000 C   0  0  0  0  0  0  0  0  0  0  0  0
   -1.5000    0.0000    0.0000 C   0  0  0  0  0  0  0  0  0  0  0  0
   -0.7500   -1.2990    0.0000 C   0  0  0  0  0  0  0  0  0  0  0  0
  1  2  1  0
  2  3  1  0
  3  4  1  0
  4  5  1  0
  5  6  1  0
  6  7  2  0
  6  8  1  0
  8  9  1  0
  9 10  2  0
 10 11  1  0
 11 12  2  0
 12 13  1  0
 13 14  1  0
 14 15  2  0
 15 16  1  0
 16 17  2  0
 17 18  1  0
 18 19  2  0
 19 20  1  0
 20 21  2  0
 21 22  1  0
 22 23  2  0
 23 24  1  0
 24 25  2  0
 25 26  1  0
  5 27  1  0
 27 28  2  0
 28 29  1  0
 29 30  2  0
 30 31  1  0
 31 32  2  0
 32  2  1  0
 13  9  1  0
 19 14  1  0
 25 20  1  0
 32 27  1  0
M  END
>  <Title>  (135) 
idAADKgen7

$$$$

     RDKit          2D

 39 43  0  0  0  0  0  0  0  0999 V2000
   -3.7955   -8.2450    0.0000 C   0  0  0  0  0  0  0  0  0  0  0  0
   -2.6807   -7.2413    0.0000 C   0  0  0  0  0  0  0  0  0  0  0  0
   -1.4672   -8.1229    0.0000 C   0  0  0  0  0  0  0  0  0  0  0  0
   -0.0000   -8.4348    0.0000 C   0  0  0  0  0  0  0  0  0  0  0  0
    1.4672   -8.1229    0.0000 C   0  0  0  0  0  0  0  0  0  0  0  0
    2.6807   -7.2413    0.0000 C   0  0  0  0  0  0  0  0  0  0  0  0
    3.4307   -5.9422    0.0000 C   0  0  0  0  0  0  0  0  0  0  0  0
    3.5875   -4.4504    0.0000 C   0  0  0  0  0  0  0  0  0  0  0  0
    3.1240   -3.0239    0.0000 C   0  0  0  0  0  0  0  0  0  0  0  0
    2.1203   -1.9091    0.0000 C   0  0  0  0  0  0  0  0  0  0  0  0
    3.0020   -0.6956    0.0000 C   0  0  0  0  0  0  0  0  0  0  0  0
    2.3919    0.6747    0.0000 O   0  0  0  0  0  0  0  0  0  0  0  0
    4.4938   -0.8524    0.0000 N   0  0  0  0  0  0  0  0  0  0  0  0
    5.3755    0.3611    0.0000 C   0  0  0  0  0  0  0  0  0  0  0  0
    6.8672    0.2043    0.0000 N   0  0  0  0  0  0  0  0  0  0  0  0
    7.7489    1.4178    0.0000 N   0  0  0  0  0  0  0  0  0  0  0  0
    7.1388    2.7882    0.0000 N   0  0  0  0  0  0  0  0  0  0  0  0
    5.6470    2.9450    0.0000 N   0  0  0  0  0  0  0  0  0  0  0  0
    4.7654    1.7314    0.0000 N   0  0  0  0  0  0  0  0  0  0  0  0
    0.7500   -1.2990    0.0000 C   0  0  0  0  0  0  0  0  0  0  0  0
    1.5000    0.0000    0.0000 C   0  0  0  0  0  0  0  0  0  0  0  0
    0.7500    1.2990    0.0000 C   0  0  0  0  0  0  0  0  0  0  0  0
   -0.7500    1.2990    0.0000 C   0  0  0  0  0  0  0  0  0  0  0  0
   -1.5000    0.0000    0.0000 C   0  0  0  0  0  0  0  0  0  0  0  0
   -0.7500   -1.2990    0.0000 C   0  0  0  0  0  0  0  0  0  0  0  0
   -2.1203   -1.9091    0.0000 C   0  0  0  0  0  0  0  0  0  0  0  0
   -2.5838   -0.4826    0.0000 C   0  0  0  0  0  0  0  0  0  0  0  0
   -4.0511   -0.1707    0.0000 C   0  0  0  0  0  0  0  0  0  0  0  0
   -5.0548   -1.2854    0.0000 C   0  0  0  0  0  0  0  0  0  0  0  0
   -6.5220   -0.9735    0.0000 C   0  0  0  0  0  0  0  0  0  0  0  0
   -7.9892   -0.6617    0.0000 N   0  0  0  0  0  0  0  0  0  0  0  0
   -4.5912   -2.7120    0.0000 C   0  0  0  0  0  0  0  0  0  0  0  0
   -3.1240   -3.0239    0.0000 C   0  0  0  0  0  0  0  0  0  0  0  0
   -3.5875   -4.4504    0.0000 C   0  0  0  0  0  0  0  0  0  0  0  0
   -4.9579   -3.8403    0.0000 C   0  0  0  0  0  0  0  0  0  0  0  0
   -6.1714   -4.7220    0.0000 C   0  0  0  0  0  0  0  0  0  0  0  0
   -6.0146   -6.2138    0.0000 C   0  0  0  0  0  0  0  0  0  0  0  0
   -4.6443   -6.8239    0.0000 C   0  0  0  0  0  0  0  0  0  0  0  0
   -3.4307   -5.9422    0.0000 C   0  0  0  0  0  0  0  0  0  0  0  0
  1  2  1  0
  2  3  1  0
  3  4  1  0
  4  5  1  0
  5  6  1  0
  6  7  1  0
  7  8  1  0
  8  9  1  0
  9 10  1  0
 10 11  1  0
 11 12  2  0
 11 13  1  0
 13 14  1  0
 14 15  2  0
 15 16  1  0
 16 17  2  0
 17 18  1  0
 18 19  2  0
 10 20  1  0
 20 21  2  0
 21 22  1  0
 22 23  2  0
 23 24  1  0
 24 25  2  0
 25 26  1  0
 26 27  2  0
 27 28  1  0
 28 29  2  0
 29 30  1  0
 30 31  3  0
 29 32  1  0
 32 33  2  0
 33 34  1  0
 34 35  2  0
 35 36  1  0
 36 37  2  0
 37 38  1  0
 38 39  2  0
 39  2  1  0
 19 14  1  0
 25 20  1  0
 33 26  1  0
 39 34  1  0
M  END
>  <Title>  (136) 
idAADLgen7

$$$$

     RDKit          2D

 13 13  0  0  0  0  0  0  0  0999 V2000
   12.5260   -1.2990    0.0000 O   0  0  0  0  0  0  0  0  0  0  0  0
   11.7760   -0.0000    0.0000 C   0  0  0  0  0  0  0  0  0  0  0  0
   10.2760   -0.0000    0.0000 C   0  0  0  0  0  0  0  0  0  0  0  0
    8.7760   -0.0000    0.0000 C   0  0  0  0  0  0  0  0  0  0  0  0
    7.2760   -0.0000    0.0000 C   0  0  0  0  0  0  0  0  0  0  0  0
    5.7760   -0.0000    0.0000 C   0  0  0  0  0  0  0  0  0  0  0  0
    4.2760   -0.0000    0.0000 C   0  0  0  0  0  0  0  0  0  0  0  0
    2.7760    0.0000    0.0000 C   0  0  0  0  0  0  0  0  0  0  0  0
    1.2760    0.0000    0.0000 C   0  0  0  0  0  0  0  0  0  0  0  0
    0.3943    1.2135    0.0000 C   0  0  0  0  0  0  0  0  0  0  0  0
   -1.0323    0.7500    0.0000 C   0  0  0  0  0  0  0  0  0  0  0  0
   -1.0323   -0.7500    0.0000 C   0  0  0  0  0  0  0  0  0  0  0  0
    0.3943   -1.2135    0.0000 C   0  0  0  0  0  0  0  0  0  0  0  0
  1  2  1  0
  2  3  1  0
  3  4  3  0
  4  5  1  0
  5  6  3  0
  6  7  1  0
  7  8  3  0
  8  9  1  0
  9 10  2  0
 10 11  1  0
 11 12  1  0
 12 13  2  0
 13  9  1  0
M  END
>  <Title>  (137) 
idAADMgen7

$$$$

     RDKit          2D

 24 27  0  0  0  0  0  0  0  0999 V2000
   -4.2479   -5.2363    0.0000 C   0  0  0  0  0  0  0  0  0  0  0  0
   -2.7990   -4.8481    0.0000 C   0  0  0  0  0  0  0  0  0  0  0  0
   -2.0490   -6.1471    0.0000 C   0  0  0  0  0  0  0  0  0  0  0  0
   -0.7500   -6.8971    0.0000 C   0  0  0  0  0  0  0  0  0  0  0  0
    0.7500   -6.8971    0.0000 C   0  0  0  0  0  0  0  0  0  0  0  0
    2.0490   -6.1471    0.0000 C   0  0  0  0  0  0  0  0  0  0  0  0
    2.7990   -4.8481    0.0000 C   0  0  0  0  0  0  0  0  0  0  0  0
    2.7990   -3.3481    0.0000 C   0  0  0  0  0  0  0  0  0  0  0  0
    4.2663   -3.0362    0.0000 C   0  0  0  0  0  0  0  0  0  0  0  0
    4.4231   -1.5444    0.0000 C   0  0  0  0  0  0  0  0  0  0  0  0
    3.0527   -0.9343    0.0000 C   0  0  0  0  0  0  0  0  0  0  0  0
    2.0490   -2.0490    0.0000 C   0  0  0  0  0  0  0  0  0  0  0  0
    0.7500   -1.2990    0.0000 C   0  0  0  0  0  0  0  0  0  0  0  0
    1.5000    0.0000    0.0000 C   0  0  0  0  0  0  0  0  0  0  0  0
    0.7500    1.2990    0.0000 C   0  0  0  0  0  0  0  0  0  0  0  0
   -0.7500    1.2990    0.0000 C   0  0  0  0  0  0  0  0  0  0  0  0
   -1.5000    0.0000    0.0000 C   0  0  0  0  0  0  0  0  0  0  0  0
   -0.7500   -1.2990    0.0000 C   0  0  0  0  0  0  0  0  0  0  0  0
   -2.0490   -2.0490    0.0000 C   0  0  0  0  0  0  0  0  0  0  0  0
   -2.7990   -0.7500    0.0000 C   0  0  0  0  0  0  0  0  0  0  0  0
   -4.2990   -0.7500    0.0000 C   0  0  0  0  0  0  0  0  0  0  0  0
   -5.0490   -2.0490    0.0000 C   0  0  0  0  0  0  0  0  0  0  0  0
   -4.2990   -3.3481    0.0000 C   0  0  0  0  0  0  0  0  0  0  0  0
   -2.7990   -3.3481    0.0000 C   0  0  0  0  0  0  0  0  0  0  0  0
  1  2  1  0
  2  3  2  0
  3  4  1  0
  4  5  1  0
  5  6  2  0
  6  7  1  0
  7  8  2  0
  8  9  1  0
  9 10  2  0
 10 11  1  0
 11 12  2  0
 12 13  1  0
 13 14  2  0
 14 15  1  0
 15 16  2  0
 16 17  1  0
 17 18  2  0
 18 19  1  0
 19 20  2  0
 20 21  1  0
 21 22  2  0
 22 23  1  0
 23 24  2  0
 24  2  1  0
 12  8  1  0
 18 13  1  0
 24 19  1  0
M  END
>  <Title>  (138) 
idAADNgen7

$$$$

     RDKit          2D

 47 47  0  0  0  0  0  0  0  0999 V2000
   12.4902    0.0000    0.0000 C   0  0  0  0  0  0  0  0  0  0  0  0
   10.9902    0.0000    0.0000 C   0  0  0  0  0  0  0  0  0  0  0  0
   10.8879   -1.4965    0.0000 C   0  0  0  0  0  0  0  0  0  0  0  0
   10.5827   -2.9651    0.0000 C   0  0  0  0  0  0  0  0  0  0  0  0
   10.0804   -4.3785    0.0000 C   0  0  0  0  0  0  0  0  0  0  0  0
    9.3903   -5.7103    0.0000 C   0  0  0  0  0  0  0  0  0  0  0  0
    8.5252   -6.9358    0.0000 C   0  0  0  0  0  0  0  0  0  0  0  0
    7.5014   -8.0321    0.0000 C   0  0  0  0  0  0  0  0  0  0  0  0
    6.3379   -8.9787    0.0000 C   0  0  0  0  0  0  0  0  0  0  0  0
    5.0562   -9.7581    0.0000 C   0  0  0  0  0  0  0  0  0  0  0  0
    3.6804  -10.3557    0.0000 C   0  0  0  0  0  0  0  0  0  0  0  0
    2.2360  -10.7604    0.0000 C   0  0  0  0  0  0  0  0  0  0  0  0
    0.7500  -10.9646    0.0000 C   0  0  0  0  0  0  0  0  0  0  0  0
   -0.7500  -10.9646    0.0000 C   0  0  0  0  0  0  0  0  0  0  0  0
   -2.2360  -10.7604    0.0000 C   0  0  0  0  0  0  0  0  0  0  0  0
   -3.6804  -10.3557    0.0000 C   0  0  0  0  0  0  0  0  0  0  0  0
   -5.0562   -9.7581    0.0000 C   0  0  0  0  0  0  0  0  0  0  0  0
   -6.3379   -8.9787    0.0000 C   0  0  0  0  0  0  0  0  0  0  0  0
   -7.5014   -8.0321    0.0000 C   0  0  0  0  0  0  0  0  0  0  0  0
   -8.5252   -6.9358    0.0000 C   0  0  0  0  0  0  0  0  0  0  0  0
   -9.3903   -5.7103    0.0000 C   0  0  0  0  0  0  0  0  0  0  0  0
  -10.0804   -4.3785    0.0000 C   0  0  0  0  0  0  0  0  0  0  0  0
  -10.5827   -2.9651    0.0000 C   0  0  0  0  0  0  0  0  0  0  0  0
  -10.8879   -1.4965    0.0000 C   0  0  0  0  0  0  0  0  0  0  0  0
  -10.9902    0.0000    0.0000 C   0  0  0  0  0  0  0  0  0  0  0  0
  -10.8879    1.4965    0.0000 C   0  0  0  0  0  0  0  0  0  0  0  0
  -10.5827    2.9651    0.0000 C   0  0  0  0  0  0  0  0  0  0  0  0
  -10.0804    4.3785    0.0000 C   0  0  0  0  0  0  0  0  0  0  0  0
   -9.3903    5.7103    0.0000 C   0  0  0  0  0  0  0  0  0  0  0  0
   -8.5252    6.9358    0.0000 C   0  0  0  0  0  0  0  0  0  0  0  0
   -7.5014    8.0321    0.0000 C   0  0  0  0  0  0  0  0  0  0  0  0
   -6.3379    8.9787    0.0000 C   0  0  0  0  0  0  0  0  0  0  0  0
   -5.0562    9.7581    0.0000 C   0  0  0  0  0  0  0  0  0  0  0  0
   -3.6804   10.3557    0.0000 C   0  0  0  0  0  0  0  0  0  0  0  0
   -2.2360   10.7604    0.0000 C   0  0  0  0  0  0  0  0  0  0  0  0
   -0.7500   10.9646    0.0000 C   0  0  0  0  0  0  0  0  0  0  0  0
    0.7500   10.9646    0.0000 C   0  0  0  0  0  0  0  0  0  0  0  0
    2.2360   10.7604    0.0000 C   0  0  0  0  0  0  0  0  0  0  0  0
    3.6804   10.3557    0.0000 C   0  0  0  0  0  0  0  0  0  0  0  0
    5.0562    9.7581    0.0000 C   0  0  0  0  0  0  0  0  0  0  0  0
    6.3379    8.9787    0.0000 C   0  0  0  0  0  0  0  0  0  0  0  0
    7.5014    8.0321    0.0000 C   0  0  0  0  0  0  0  0  0  0  0  0
    8.5252    6.9358    0.0000 C   0  0  0  0  0  0  0  0  0  0  0  0
    9.3903    5.7103    0.0000 C   0  0  0  0  0  0  0  0  0  0  0  0
   10.0804    4.3785    0.0000 C   0  0  0  0  0  0  0  0  0  0  0  0
   10.5827    2.9651    0.0000 C   0  0  0  0  0  0  0  0  0  0  0  0
   10.8879    1.4965    0.0000 C   0  0  0  0  0  0  0  0  0  0  0  0
  1  2  1  0
  2  3  1  0
  3  4  1  0
  4  5  1  0
  5  6  1  0
  6  7  1  0
  7  8  1  0
  8  9  1  0
  9 10  1  0
 10 11  1  0
 11 12  1  0
 12 13  1  0
 13 14  1  0
 14 15  1  0
 15 16  1  0
 16 17  1  0
 17 18  1  0
 18 19  1  0
 19 20  1  0
 20 21  1  0
 21 22  1  0
 22 23  1  0
 23 24  1  0
 24 25  1  0
 25 26  1  0
 26 27  1  0
 27 28  1  0
 28 29  1  0
 29 30  1  0
 30 31  1  0
 31 32  1  0
 32 33  1  0
 33 34  1  0
 34 35  1  0
 35 36  1  0
 36 37  1  0
 37 38  1  0
 38 39  1  0
 39 40  1  0
 40 41  1  0
 41 42  1  0
 42 43  1  0
 43 44  1  0
 44 45  1  0
 45 46  1  0
 46 47  1  0
 47  2  1  0
M  END
>  <Title>  (139) 
idAADOgen7

$$$$

     RDKit          2D

 11 11  0  0  0  0  0  0  0  0999 V2000
    3.2286   -0.0000    0.0000 C   0  0  0  0  0  0  0  0  0  0  0  0
    1.7286    0.0000    0.0000 C   0  0  0  0  0  0  0  0  0  0  0  0
    1.0777    1.3515    0.0000 C   0  0  0  0  0  0  0  0  0  0  0  0
   -0.3846    1.6852    0.0000 C   0  0  0  0  0  0  0  0  0  0  0  0
   -1.5574    0.7500    0.0000 C   0  0  0  0  0  0  0  0  0  0  0  0
   -2.9088    1.4008    0.0000 C   0  0  0  0  0  0  0  0  0  0  0  0
   -3.0209    2.8966    0.0000 N   0  0  0  0  0  0  0  0  0  0  0  0
   -4.1482    0.5558    0.0000 O   0  0  0  0  0  0  0  0  0  0  0  0
   -1.5574   -0.7500    0.0000 C   0  0  0  0  0  0  0  0  0  0  0  0
   -0.3846   -1.6852    0.0000 C   0  0  0  0  0  0  0  0  0  0  0  0
    1.0777   -1.3515    0.0000 C   0  0  0  0  0  0  0  0  0  0  0  0
  1  2  1  0
  2  3  2  0
  3  4  1  0
  4  5  2  0
  5  6  1  0
  6  7  1  0
  6  8  2  0
  5  9  1  0
  9 10  2  0
 10 11  1  0
 11  2  1  0
M  END
>  <Title>  (140) 
idAADPgen7

$$$$

     RDKit          2D

 20 22  0  0  0  0  0  0  0  0999 V2000
   -3.0000   -2.5981    0.0000 C   0  0  0  0  0  0  0  0  0  0  0  0
   -1.5000   -2.5981    0.0000 C   0  0  0  0  0  0  0  0  0  0  0  0
   -0.7500   -3.8971    0.0000 C   0  0  0  0  0  0  0  0  0  0  0  0
    0.7500   -3.8971    0.0000 C   0  0  0  0  0  0  0  0  0  0  0  0
    1.5000   -2.5981    0.0000 C   0  0  0  0  0  0  0  0  0  0  0  0
    3.0000   -2.5981    0.0000 C   0  0  0  0  0  0  0  0  0  0  0  0
    3.7500   -1.2990    0.0000 O   0  0  0  0  0  0  0  0  0  0  0  0
    3.7500   -3.8971    0.0000 N   0  0  0  0  0  0  0  0  0  0  0  0
    5.2500   -3.8971    0.0000 C   0  0  0  0  0  0  0  0  0  0  0  0
    6.0000   -5.1962    0.0000 N   0  0  0  0  0  0  0  0  0  0  0  0
    7.5000   -5.1962    0.0000 N   0  0  0  0  0  0  0  0  0  0  0  0
    8.2500   -3.8971    0.0000 N   0  0  0  0  0  0  0  0  0  0  0  0
    7.5000   -2.5981    0.0000 N   0  0  0  0  0  0  0  0  0  0  0  0
    6.0000   -2.5981    0.0000 N   0  0  0  0  0  0  0  0  0  0  0  0
    0.7500   -1.2990    0.0000 C   0  0  0  0  0  0  0  0  0  0  0  0
    1.5000    0.0000    0.0000 C   0  0  0  0  0  0  0  0  0  0  0  0
    0.7500    1.2990    0.0000 C   0  0  0  0  0  0  0  0  0  0  0  0
   -0.7500    1.2990    0.0000 C   0  0  0  0  0  0  0  0  0  0  0  0
   -1.5000    0.0000    0.0000 C   0  0  0  0  0  0  0  0  0  0  0  0
   -0.7500   -1.2990    0.0000 C   0  0  0  0  0  0  0  0  0  0  0  0
  1  2  1  0
  2  3  2  0
  3  4  1  0
  4  5  1  0
  5  6  1  0
  6  7  2  0
  6  8  1  0
  8  9  1  0
  9 10  2  0
 10 11  1  0
 11 12  2  0
 12 13  1  0
 13 14  2  0
  5 15  1  0
 15 16  2  0
 16 17  1  0
 17 18  2  0
 18 19  1  0
 19 20  2  0
 20  2  1  0
 14  9  1  0
 20 15  1  0
M  END
>  <Title>  (141) 
idAADQgen7

$$$$

     RDKit          2D

 22 24  0  0  0  0  0  0  0  0999 V2000
   -3.1965   -1.7857    0.0000 C   0  0  0  0  0  0  0  0  0  0  0  0
   -1.8107   -2.3597    0.0000 C   0  0  0  0  0  0  0  0  0  0  0  0
   -1.8107   -3.8597    0.0000 C   0  0  0  0  0  0  0  0  0  0  0  0
   -0.7500   -4.9204    0.0000 C   0  0  0  0  0  0  0  0  0  0  0  0
    0.7500   -4.9204    0.0000 C   0  0  0  0  0  0  0  0  0  0  0  0
    1.8107   -3.8597    0.0000 C   0  0  0  0  0  0  0  0  0  0  0  0
    1.8107   -2.3597    0.0000 C   0  0  0  0  0  0  0  0  0  0  0  0
    3.1965   -1.7857    0.0000 C   0  0  0  0  0  0  0  0  0  0  0  0
    3.3923   -0.2985    0.0000 O   0  0  0  0  0  0  0  0  0  0  0  0
    4.3865   -2.6988    0.0000 N   0  0  0  0  0  0  0  0  0  0  0  0
    5.7723   -2.1248    0.0000 C   0  0  0  0  0  0  0  0  0  0  0  0
    6.9624   -3.0379    0.0000 N   0  0  0  0  0  0  0  0  0  0  0  0
    8.3482   -2.4639    0.0000 N   0  0  0  0  0  0  0  0  0  0  0  0
    8.5440   -0.9767    0.0000 N   0  0  0  0  0  0  0  0  0  0  0  0
    7.3539   -0.0636    0.0000 N   0  0  0  0  0  0  0  0  0  0  0  0
    5.9681   -0.6376    0.0000 N   0  0  0  0  0  0  0  0  0  0  0  0
    0.7500   -1.2990    0.0000 C   0  0  0  0  0  0  0  0  0  0  0  0
    1.5000    0.0000    0.0000 C   0  0  0  0  0  0  0  0  0  0  0  0
    0.7500    1.2990    0.0000 C   0  0  0  0  0  0  0  0  0  0  0  0
   -0.7500    1.2990    0.0000 C   0  0  0  0  0  0  0  0  0  0  0  0
   -1.5000    0.0000    0.0000 C   0  0  0  0  0  0  0  0  0  0  0  0
   -0.7500   -1.2990    0.0000 C   0  0  0  0  0  0  0  0  0  0  0  0
  1  2  1  0
  2  3  1  0
  3  4  1  0
  4  5  1  0
  5  6  1  0
  6  7  1  0
  7  8  1  0
  8  9  2  0
  8 10  1  0
 10 11  1  0
 11 12  2  0
 12 13  1  0
 13 14  2  0
 14 15  1  0
 15 16  2  0
  7 17  1  0
 17 18  2  0
 18 19  1  0
 19 20  2  0
 20 21  1  0
 21 22  2  0
 22  2  1  0
 16 11  1  0
 22 17  1  0
M  END
>  <Title>  (142) 
idAADRgen7

$$$$

     RDKit          2D

 73 73  0  0  0  0  0  0  0  0999 V2000
   19.9555    0.0000    0.0000 N   0  0  0  0  0  0  0  0  0  0  0  0
   18.4555    0.0000    0.0000 C   0  0  0  0  0  0  0  0  0  0  0  0
   16.9555    0.0000    0.0000 C   0  0  0  0  0  0  0  0  0  0  0  0
   16.8892    1.4985    0.0000 C   0  0  0  0  0  0  0  0  0  0  0  0
   16.6907    2.9853    0.0000 C   0  0  0  0  0  0  0  0  0  0  0  0
   16.3615    4.4488    0.0000 C   0  0  0  0  0  0  0  0  0  0  0  0
   15.9043    5.8774    0.0000 C   0  0  0  0  0  0  0  0  0  0  0  0
   15.3226    7.2600    0.0000 C   0  0  0  0  0  0  0  0  0  0  0  0
   14.6210    8.5858    0.0000 C   0  0  0  0  0  0  0  0  0  0  0  0
   13.8050    9.8444    0.0000 C   0  0  0  0  0  0  0  0  0  0  0  0
   12.8809   11.0260    0.0000 C   0  0  0  0  0  0  0  0  0  0  0  0
   11.8560   12.1213    0.0000 C   0  0  0  0  0  0  0  0  0  0  0  0
   10.7383   13.1217    0.0000 C   0  0  0  0  0  0  0  0  0  0  0  0
    9.5366   14.0194    0.0000 C   0  0  0  0  0  0  0  0  0  0  0  0
    8.2603   14.8074    0.0000 C   0  0  0  0  0  0  0  0  0  0  0  0
    6.9193   15.4795    0.0000 C   0  0  0  0  0  0  0  0  0  0  0  0
    5.5241   16.0304    0.0000 C   0  0  0  0  0  0  0  0  0  0  0  0
    4.0857   16.4559    0.0000 C   0  0  0  0  0  0  0  0  0  0  0  0
    2.6154   16.7526    0.0000 C   0  0  0  0  0  0  0  0  0  0  0  0
    1.1245   16.9182    0.0000 C   0  0  0  0  0  0  0  0  0  0  0  0
   -0.3751   16.9514    0.0000 C   0  0  0  0  0  0  0  0  0  0  0  0
   -1.8718   16.8519    0.0000 C   0  0  0  0  0  0  0  0  0  0  0  0
   -3.3538   16.6205    0.0000 C   0  0  0  0  0  0  0  0  0  0  0  0
   -4.8096   16.2591    0.0000 C   0  0  0  0  0  0  0  0  0  0  0  0
   -6.2278   15.7704    0.0000 C   0  0  0  0  0  0  0  0  0  0  0  0
   -7.5972   15.1582    0.0000 C   0  0  0  0  0  0  0  0  0  0  0  0
   -8.9072   14.4275    0.0000 C   0  0  0  0  0  0  0  0  0  0  0  0
  -10.1474   13.5838    0.0000 C   0  0  0  0  0  0  0  0  0  0  0  0
  -11.3082   12.6338    0.0000 C   0  0  0  0  0  0  0  0  0  0  0  0
  -12.3806   11.5850    0.0000 C   0  0  0  0  0  0  0  0  0  0  0  0
  -13.3560   10.4454    0.0000 C   0  0  0  0  0  0  0  0  0  0  0  0
  -14.2269    9.2242    0.0000 C   0  0  0  0  0  0  0  0  0  0  0  0
  -14.9865    7.9307    0.0000 C   0  0  0  0  0  0  0  0  0  0  0  0
  -15.6287    6.5751    0.0000 C   0  0  0  0  0  0  0  0  0  0  0  0
  -16.1487    5.1681    0.0000 C   0  0  0  0  0  0  0  0  0  0  0  0
  -16.5423    3.7207    0.0000 C   0  0  0  0  0  0  0  0  0  0  0  0
  -16.8064    2.2441    0.0000 C   0  0  0  0  0  0  0  0  0  0  0  0
  -16.9389    0.7500    0.0000 C   0  0  0  0  0  0  0  0  0  0  0  0
  -16.9389   -0.7500    0.0000 C   0  0  0  0  0  0  0  0  0  0  0  0
  -16.8064   -2.2441    0.0000 C   0  0  0  0  0  0  0  0  0  0  0  0
  -16.5423   -3.7207    0.0000 C   0  0  0  0  0  0  0  0  0  0  0  0
  -16.1487   -5.1681    0.0000 C   0  0  0  0  0  0  0  0  0  0  0  0
  -15.6287   -6.5751    0.0000 C   0  0  0  0  0  0  0  0  0  0  0  0
  -14.9865   -7.9307    0.0000 C   0  0  0  0  0  0  0  0  0  0  0  0
  -14.2269   -9.2242    0.0000 C   0  0  0  0  0  0  0  0  0  0  0  0
  -13.3560  -10.4454    0.0000 C   0  0  0  0  0  0  0  0  0  0  0  0
  -12.3806  -11.5850    0.0000 C   0  0  0  0  0  0  0  0  0  0  0  0
  -11.3082  -12.6338    0.0000 C   0  0  0  0  0  0  0  0  0  0  0  0
  -10.1474  -13.5838    0.0000 C   0  0  0  0  0  0  0  0  0  0  0  0
   -8.9072  -14.4275    0.0000 C   0  0  0  0  0  0  0  0  0  0  0  0
   -7.5972  -15.1582    0.0000 C   0  0  0  0  0  0  0  0  0  0  0  0
   -6.2278  -15.7704    0.0000 C   0  0  0  0  0  0  0  0  0  0  0  0
   -4.8096  -16.2591    0.0000 C   0  0  0  0  0  0  0  0  0  0  0  0
   -3.3538  -16.6205    0.0000 C   0  0  0  0  0  0  0  0  0  0  0  0
   -1.8718  -16.8519    0.0000 C   0  0  0  0  0  0  0  0  0  0  0  0
   -0.3751  -16.9514    0.0000 C   0  0  0  0  0  0  0  0  0  0  0  0
    1.1245  -16.9182    0.0000 C   0  0  0  0  0  0  0  0  0  0  0  0
    2.6154  -16.7526    0.0000 C   0  0  0  0  0  0  0  0  0  0  0  0
    4.0857  -16.4559    0.0000 C   0  0  0  0  0  0  0  0  0  0  0  0
    5.5241  -16.0304    0.0000 C   0  0  0  0  0  0  0  0  0  0  0  0
    6.9193  -15.4795    0.0000 C   0  0  0  0  0  0  0  0  0  0  0  0
    8.2603  -14.8074    0.0000 C   0  0  0  0  0  0  0  0  0  0  0  0
    9.5366  -14.0194    0.0000 C   0  0  0  0  0  0  0  0  0  0  0  0
   10.7383  -13.1217    0.0000 C   0  0  0  0  0  0  0  0  0  0  0  0
   11.8560  -12.1213    0.0000 C   0  0  0  0  0  0  0  0  0  0  0  0
   12.8809  -11.0260    0.0000 C   0  0  0  0  0  0  0  0  0  0  0  0
   13.8050   -9.8444    0.0000 C   0  0  0  0  0  0  0  0  0  0  0  0
   14.6210   -8.5858    0.0000 C   0  0  0  0  0  0  0  0  0  0  0  0
   15.3226   -7.2600    0.0000 C   0  0  0  0  0  0  0  0  0  0  0  0
   15.9043   -5.8774    0.0000 C   0  0  0  0  0  0  0  0  0  0  0  0
   16.3615   -4.4488    0.0000 C   0  0  0  0  0  0  0  0  0  0  0  0
   16.6907   -2.9853    0.0000 C   0  0  0  0  0  0  0  0  0  0  0  0
   16.8892   -1.4985    0.0000 C   0  0  0  0  0  0  0  0  0  0  0  0
  1  2  3  0
  2  3  1  0
  3  4  1  0
  4  5  1  0
  5  6  1  0
  6  7  1  0
  7  8  1  0
  8  9  1  0
  9 10  1  0
 10 11  1  0
 11 12  1  0
 12 13  1  0
 13 14  1  0
 14 15  1  0
 15 16  1  0
 16 17  1  0
 17 18  1  0
 18 19  1  0
 19 20  1  0
 20 21  1  0
 21 22  1  0
 22 23  1  0
 23 24  1  0
 24 25  1  0
 25 26  1  0
 26 27  1  0
 27 28  1  0
 28 29  1  0
 29 30  1  0
 30 31  1  0
 31 32  1  0
 32 33  1  0
 33 34  1  0
 34 35  1  0
 35 36  1  0
 36 37  1  0
 37 38  1  0
 38 39  1  0
 39 40  1  0
 40 41  1  0
 41 42  1  0
 42 43  1  0
 43 44  1  0
 44 45  1  0
 45 46  1  0
 46 47  1  0
 47 48  1  0
 48 49  1  0
 49 50  1  0
 50 51  1  0
 51 52  1  0
 52 53  1  0
 53 54  1  0
 54 55  1  0
 55 56  1  0
 56 57  1  0
 57 58  1  0
 58 59  1  0
 59 60  1  0
 60 61  1  0
 61 62  1  0
 62 63  1  0
 63 64  1  0
 64 65  1  0
 65 66  1  0
 66 67  1  0
 67 68  1  0
 68 69  1  0
 69 70  1  0
 70 71  1  0
 71 72  1  0
 72 73  1  0
 73  3  1  0
M  END
>  <Title>  (143) 
idAADSgen7

$$$$

     RDKit          2D

119119  0  0  0  0  0  0  0  0999 V2000
   29.6738    0.0000    0.0000 C   0  0  0  0  0  0  0  0  0  0  0  0
   28.1738    0.0000    0.0000 C   0  0  0  0  0  0  0  0  0  0  0  0
   28.1338   -1.4995    0.0000 C   0  0  0  0  0  0  0  0  0  0  0  0
   28.0141   -2.9947    0.0000 C   0  0  0  0  0  0  0  0  0  0  0  0
   27.8151   -4.4814    0.0000 C   0  0  0  0  0  0  0  0  0  0  0  0
   27.5371   -5.9554    0.0000 C   0  0  0  0  0  0  0  0  0  0  0  0
   27.1811   -7.4126    0.0000 C   0  0  0  0  0  0  0  0  0  0  0  0
   26.7481   -8.8487    0.0000 C   0  0  0  0  0  0  0  0  0  0  0  0
   26.2392  -10.2598    0.0000 C   0  0  0  0  0  0  0  0  0  0  0  0
   25.6560  -11.6417    0.0000 C   0  0  0  0  0  0  0  0  0  0  0  0
   25.0000  -12.9907    0.0000 C   0  0  0  0  0  0  0  0  0  0  0  0
   24.2732  -14.3029    0.0000 C   0  0  0  0  0  0  0  0  0  0  0  0
   23.4776  -15.5745    0.0000 C   0  0  0  0  0  0  0  0  0  0  0  0
   22.6154  -16.8019    0.0000 C   0  0  0  0  0  0  0  0  0  0  0  0
   21.6891  -17.9817    0.0000 C   0  0  0  0  0  0  0  0  0  0  0  0
   20.7013  -19.1106    0.0000 C   0  0  0  0  0  0  0  0  0  0  0  0
   19.6549  -20.1853    0.0000 C   0  0  0  0  0  0  0  0  0  0  0  0
   18.5527  -21.2027    0.0000 C   0  0  0  0  0  0  0  0  0  0  0  0
   17.3980  -22.1601    0.0000 C   0  0  0  0  0  0  0  0  0  0  0  0
   16.1939  -23.0547    0.0000 C   0  0  0  0  0  0  0  0  0  0  0  0
   14.9439  -23.8839    0.0000 C   0  0  0  0  0  0  0  0  0  0  0  0
   13.6516  -24.6454    0.0000 C   0  0  0  0  0  0  0  0  0  0  0  0
   12.3206  -25.3370    0.0000 C   0  0  0  0  0  0  0  0  0  0  0  0
   10.9546  -25.9568    0.0000 C   0  0  0  0  0  0  0  0  0  0  0  0
    9.5576  -26.5031    0.0000 C   0  0  0  0  0  0  0  0  0  0  0  0
    8.1335  -26.9742    0.0000 C   0  0  0  0  0  0  0  0  0  0  0  0
    6.6864  -27.3688    0.0000 C   0  0  0  0  0  0  0  0  0  0  0  0
    5.2203  -27.6859    0.0000 C   0  0  0  0  0  0  0  0  0  0  0  0
    3.7394  -27.9245    0.0000 C   0  0  0  0  0  0  0  0  0  0  0  0
    2.2479  -28.0839    0.0000 C   0  0  0  0  0  0  0  0  0  0  0  0
    0.7500  -28.1638    0.0000 C   0  0  0  0  0  0  0  0  0  0  0  0
   -0.7500  -28.1638    0.0000 C   0  0  0  0  0  0  0  0  0  0  0  0
   -2.2479  -28.0839    0.0000 C   0  0  0  0  0  0  0  0  0  0  0  0
   -3.7394  -27.9245    0.0000 C   0  0  0  0  0  0  0  0  0  0  0  0
   -5.2203  -27.6859    0.0000 C   0  0  0  0  0  0  0  0  0  0  0  0
   -6.6864  -27.3688    0.0000 C   0  0  0  0  0  0  0  0  0  0  0  0
   -8.1335  -26.9742    0.0000 C   0  0  0  0  0  0  0  0  0  0  0  0
   -9.5576  -26.5031    0.0000 C   0  0  0  0  0  0  0  0  0  0  0  0
  -10.9546  -25.9568    0.0000 C   0  0  0  0  0  0  0  0  0  0  0  0
  -12.3206  -25.3370    0.0000 C   0  0  0  0  0  0  0  0  0  0  0  0
  -13.6516  -24.6454    0.0000 C   0  0  0  0  0  0  0  0  0  0  0  0
  -14.9439  -23.8839    0.0000 C   0  0  0  0  0  0  0  0  0  0  0  0
  -16.1939  -23.0547    0.0000 C   0  0  0  0  0  0  0  0  0  0  0  0
  -17.3980  -22.1601    0.0000 C   0  0  0  0  0  0  0  0  0  0  0  0
  -18.5527  -21.2027    0.0000 C   0  0  0  0  0  0  0  0  0  0  0  0
  -19.6549  -20.1853    0.0000 C   0  0  0  0  0  0  0  0  0  0  0  0
  -20.7013  -19.1106    0.0000 C   0  0  0  0  0  0  0  0  0  0  0  0
  -21.6891  -17.9817    0.0000 C   0  0  0  0  0  0  0  0  0  0  0  0
  -22.6154  -16.8019    0.0000 C   0  0  0  0  0  0  0  0  0  0  0  0
  -23.4776  -15.5745    0.0000 C   0  0  0  0  0  0  0  0  0  0  0  0
  -24.2732  -14.3029    0.0000 C   0  0  0  0  0  0  0  0  0  0  0  0
  -25.0000  -12.9907    0.0000 C   0  0  0  0  0  0  0  0  0  0  0  0
  -25.6560  -11.6417    0.0000 C   0  0  0  0  0  0  0  0  0  0  0  0
  -26.2392  -10.2598    0.0000 C   0  0  0  0  0  0  0  0  0  0  0  0
  -26.7481   -8.8487    0.0000 C   0  0  0  0  0  0  0  0  0  0  0  0
  -27.1811   -7.4126    0.0000 C   0  0  0  0  0  0  0  0  0  0  0  0
  -27.5371   -5.9554    0.0000 C   0  0  0  0  0  0  0  0  0  0  0  0
  -27.8151   -4.4814    0.0000 C   0  0  0  0  0  0  0  0  0  0  0  0
  -28.0141   -2.9947    0.0000 C   0  0  0  0  0  0  0  0  0  0  0  0
  -28.1338   -1.4995    0.0000 C   0  0  0  0  0  0  0  0  0  0  0  0
  -28.1738    0.0000    0.0000 C   0  0  0  0  0  0  0  0  0  0  0  0
  -28.1338    1.4995    0.0000 C   0  0  0  0  0  0  0  0  0  0  0  0
  -28.0141    2.9947    0.0000 C   0  0  0  0  0  0  0  0  0  0  0  0
  -27.8151    4.4814    0.0000 C   0  0  0  0  0  0  0  0  0  0  0  0
  -27.5371    5.9554    0.0000 C   0  0  0  0  0  0  0  0  0  0  0  0
  -27.1811    7.4126    0.0000 C   0  0  0  0  0  0  0  0  0  0  0  0
  -26.7481    8.8487    0.0000 C   0  0  0  0  0  0  0  0  0  0  0  0
  -26.2392   10.2598    0.0000 C   0  0  0  0  0  0  0  0  0  0  0  0
  -25.6560   11.6417    0.0000 C   0  0  0  0  0  0  0  0  0  0  0  0
  -25.0000   12.9907    0.0000 C   0  0  0  0  0  0  0  0  0  0  0  0
  -24.2732   14.3029    0.0000 C   0  0  0  0  0  0  0  0  0  0  0  0
  -23.4776   15.5745    0.0000 C   0  0  0  0  0  0  0  0  0  0  0  0
  -22.6154   16.8019    0.0000 C   0  0  0  0  0  0  0  0  0  0  0  0
  -21.6891   17.9817    0.0000 C   0  0  0  0  0  0  0  0  0  0  0  0
  -20.7013   19.1106    0.0000 C   0  0  0  0  0  0  0  0  0  0  0  0
  -19.6549   20.1853    0.0000 C   0  0  0  0  0  0  0  0  0  0  0  0
  -18.5527   21.2027    0.0000 C   0  0  0  0  0  0  0  0  0  0  0  0
  -17.3980   22.1601    0.0000 C   0  0  0  0  0  0  0  0  0  0  0  0
  -16.1939   23.0547    0.0000 C   0  0  0  0  0  0  0  0  0  0  0  0
  -14.9439   23.8839    0.0000 C   0  0  0  0  0  0  0  0  0  0  0  0
  -13.6516   24.6454    0.0000 C   0  0  0  0  0  0  0  0  0  0  0  0
  -12.3206   25.3370    0.0000 C   0  0  0  0  0  0  0  0  0  0  0  0
  -10.9546   25.9568    0.0000 C   0  0  0  0  0  0  0  0  0  0  0  0
   -9.5576   26.5031    0.0000 C   0  0  0  0  0  0  0  0  0  0  0  0
   -8.1335   26.9742    0.0000 C   0  0  0  0  0  0  0  0  0  0  0  0
   -6.6864   27.3688    0.0000 C   0  0  0  0  0  0  0  0  0  0  0  0
   -5.2203   27.6859    0.0000 C   0  0  0  0  0  0  0  0  0  0  0  0
   -3.7394   27.9245    0.0000 C   0  0  0  0  0  0  0  0  0  0  0  0
   -2.2479   28.0839    0.0000 C   0  0  0  0  0  0  0  0  0  0  0  0
   -0.7500   28.1638    0.0000 C   0  0  0  0  0  0  0  0  0  0  0  0
    0.7500   28.1638    0.0000 C   0  0  0  0  0  0  0  0  0  0  0  0
    2.2479   28.0839    0.0000 C   0  0  0  0  0  0  0  0  0  0  0  0
    3.7394   27.9245    0.0000 C   0  0  0  0  0  0  0  0  0  0  0  0
    5.2203   27.6859    0.0000 C   0  0  0  0  0  0  0  0  0  0  0  0
    6.6864   27.3688    0.0000 C   0  0  0  0  0  0  0  0  0  0  0  0
    8.1335   26.9742    0.0000 C   0  0  0  0  0  0  0  0  0  0  0  0
    9.5576   26.5031    0.0000 C   0  0  0  0  0  0  0  0  0  0  0  0
   10.9546   25.9568    0.0000 C   0  0  0  0  0  0  0  0  0  0  0  0
   12.3206   25.3370    0.0000 C   0  0  0  0  0  0  0  0  0  0  0  0
   13.6516   24.6454    0.0000 C   0  0  0  0  0  0  0  0  0  0  0  0
   14.9439   23.8839    0.0000 C   0  0  0  0  0  0  0  0  0  0  0  0
   16.1939   23.0547    0.0000 C   0  0  0  0  0  0  0  0  0  0  0  0
   17.3980   22.1601    0.0000 C   0  0  0  0  0  0  0  0  0  0  0  0
   18.5527   21.2027    0.0000 C   0  0  0  0  0  0  0  0  0  0  0  0
   19.6549   20.1853    0.0000 C   0  0  0  0  0  0  0  0  0  0  0  0
   20.7013   19.1106    0.0000 C   0  0  0  0  0  0  0  0  0  0  0  0
   21.6891   17.9817    0.0000 C   0  0  0  0  0  0  0  0  0  0  0  0
   22.6154   16.8019    0.0000 C   0  0  0  0  0  0  0  0  0  0  0  0
   23.4776   15.5745    0.0000 C   0  0  0  0  0  0  0  0  0  0  0  0
   24.2732   14.3029    0.0000 C   0  0  0  0  0  0  0  0  0  0  0  0
   25.0000   12.9907    0.0000 C   0  0  0  0  0  0  0  0  0  0  0  0
   25.6560   11.6417    0.0000 C   0  0  0  0  0  0  0  0  0  0  0  0
   26.2392   10.2598    0.0000 C   0  0  0  0  0  0  0  0  0  0  0  0
   26.7481    8.8487    0.0000 C   0  0  0  0  0  0  0  0  0  0  0  0
   27.1811    7.4126    0.0000 C   0  0  0  0  0  0  0  0  0  0  0  0
   27.5371    5.9554    0.0000 C   0  0  0  0  0  0  0  0  0  0  0  0
   27.8151    4.4814    0.0000 C   0  0  0  0  0  0  0  0  0  0  0  0
   28.0141    2.9947    0.0000 C   0  0  0  0  0  0  0  0  0  0  0  0
   28.1338    1.4995    0.0000 C   0  0  0  0  0  0  0  0  0  0  0  0
  1  2  1  0
  2  3  1  0
  3  4  1  0
  4  5  1  0
  5  6  1  0
  6  7  1  0
  7  8  1  0
  8  9  1  0
  9 10  1  0
 10 11  1  0
 11 12  1  0
 12 13  1  0
 13 14  1  0
 14 15  1  0
 15 16  1  0
 16 17  1  0
 17 18  1  0
 18 19  1  0
 19 20  1  0
 20 21  1  0
 21 22  1  0
 22 23  1  0
 23 24  1  0
 24 25  1  0
 25 26  1  0
 26 27  1  0
 27 28  1  0
 28 29  1  0
 29 30  1  0
 30 31  1  0
 31 32  1  0
 32 33  1  0
 33 34  1  0
 34 35  1  0
 35 36  1  0
 36 37  1  0
 37 38  1  0
 38 39  1  0
 39 40  1  0
 40 41  1  0
 41 42  1  0
 42 43  1  0
 43 44  1  0
 44 45  1  0
 45 46  1  0
 46 47  1  0
 47 48  1  0
 48 49  1  0
 49 50  1  0
 50 51  1  0
 51 52  1  0
 52 53  1  0
 53 54  1  0
 54 55  1  0
 55 56  1  0
 56 57  1  0
 57 58  1  0
 58 59  1  0
 59 60  1  0
 60 61  1  0
 61 62  1  0
 62 63  1  0
 63 64  1  0
 64 65  1  0
 65 66  1  0
 66 67  1  0
 67 68  1  0
 68 69  1  0
 69 70  1  0
 70 71  1  0
 71 72  1  0
 72 73  1  0
 73 74  1  0
 74 75  1  0
 75 76  1  0
 76 77  1  0
 77 78  1  0
 78 79  1  0
 79 80  1  0
 80 81  1  0
 81 82  1  0
 82 83  1  0
 83 84  1  0
 84 85  1  0
 85 86  1  0
 86 87  1  0
 87 88  1  0
 88 89  1  0
 89 90  1  0
 90 91  1  0
 91 92  1  0
 92 93  1  0
 93 94  1  0
 94 95  1  0
 95 96  1  0
 96 97  1  0
 97 98  1  0
 98 99  1  0
 99100  1  0
100101  1  0
101102  1  0
102103  1  0
103104  1  0
104105  1  0
105106  1  0
106107  1  0
107108  1  0
108109  1  0
109110  1  0
110111  1  0
111112  1  0
112113  1  0
113114  1  0
114115  1  0
115116  1  0
116117  1  0
117118  1  0
118119  1  0
119  2  1  0
M  END
>  <Title>  (144) 
idAADTgen7

$$$$

     RDKit          2D

 35 39  0  0  0  0  0  0  0  0999 V2000
   -1.1382   -8.3460    0.0000 C   0  0  0  0  0  0  0  0  0  0  0  0
   -0.7500   -6.8971    0.0000 C   0  0  0  0  0  0  0  0  0  0  0  0
    0.7500   -6.8971    0.0000 C   0  0  0  0  0  0  0  0  0  0  0  0
    2.0490   -6.1471    0.0000 C   0  0  0  0  0  0  0  0  0  0  0  0
    2.7990   -4.8481    0.0000 C   0  0  0  0  0  0  0  0  0  0  0  0
    4.2479   -5.2363    0.0000 C   0  0  0  0  0  0  0  0  0  0  0  0
    5.3086   -4.1756    0.0000 O   0  0  0  0  0  0  0  0  0  0  0  0
    4.6362   -6.6852    0.0000 N   0  0  0  0  0  0  0  0  0  0  0  0
    6.0850   -7.0734    0.0000 C   0  0  0  0  0  0  0  0  0  0  0  0
    6.4733   -8.5223    0.0000 N   0  0  0  0  0  0  0  0  0  0  0  0
    7.9222   -8.9105    0.0000 N   0  0  0  0  0  0  0  0  0  0  0  0
    8.9828   -7.8499    0.0000 N   0  0  0  0  0  0  0  0  0  0  0  0
    8.5946   -6.4010    0.0000 N   0  0  0  0  0  0  0  0  0  0  0  0
    7.1457   -6.0128    0.0000 N   0  0  0  0  0  0  0  0  0  0  0  0
    2.7990   -3.3481    0.0000 C   0  0  0  0  0  0  0  0  0  0  0  0
    4.2479   -2.9598    0.0000 O   0  0  0  0  0  0  0  0  0  0  0  0
    2.0490   -2.0490    0.0000 N   0  0  0  0  0  0  0  0  0  0  0  0
    0.7500   -1.2990    0.0000 C   0  0  0  0  0  0  0  0  0  0  0  0
    1.5000    0.0000    0.0000 C   0  0  0  0  0  0  0  0  0  0  0  0
    0.7500    1.2990    0.0000 C   0  0  0  0  0  0  0  0  0  0  0  0
   -0.7500    1.2990    0.0000 C   0  0  0  0  0  0  0  0  0  0  0  0
   -1.5000    0.0000    0.0000 C   0  0  0  0  0  0  0  0  0  0  0  0
   -0.7500   -1.2990    0.0000 C   0  0  0  0  0  0  0  0  0  0  0  0
   -2.0490   -2.0490    0.0000 C   0  0  0  0  0  0  0  0  0  0  0  0
   -2.7990   -0.7500    0.0000 C   0  0  0  0  0  0  0  0  0  0  0  0
   -4.2990   -0.7500    0.0000 C   0  0  0  0  0  0  0  0  0  0  0  0
   -5.0490   -2.0490    0.0000 C   0  0  0  0  0  0  0  0  0  0  0  0
   -4.2990   -3.3481    0.0000 C   0  0  0  0  0  0  0  0  0  0  0  0
   -2.7990   -3.3481    0.0000 C   0  0  0  0  0  0  0  0  0  0  0  0
   -2.7990   -4.8481    0.0000 C   0  0  0  0  0  0  0  0  0  0  0  0
   -4.2990   -4.8481    0.0000 C   0  0  0  0  0  0  0  0  0  0  0  0
   -5.0490   -6.1471    0.0000 C   0  0  0  0  0  0  0  0  0  0  0  0
   -4.2990   -7.4462    0.0000 C   0  0  0  0  0  0  0  0  0  0  0  0
   -2.7990   -7.4462    0.0000 C   0  0  0  0  0  0  0  0  0  0  0  0
   -2.0490   -6.1471    0.0000 C   0  0  0  0  0  0  0  0  0  0  0  0
  1  2  1  0
  2  3  1  0
  3  4  1  0
  4  5  1  0
  5  6  1  0
  6  7  2  0
  6  8  1  0
  8  9  1  0
  9 10  2  0
 10 11  1  0
 11 12  2  0
 12 13  1  0
 13 14  2  0
  5 15  1  0
 15 16  2  0
 15 17  1  0
 17 18  1  0
 18 19  2  0
 19 20  1  0
 20 21  2  0
 21 22  1  0
 22 23  2  0
 23 24  1  0
 24 25  2  0
 25 26  1  0
 26 27  2  0
 27 28  1  0
 28 29  2  0
 29 30  1  0
 30 31  2  0
 31 32  1  0
 32 33  2  0
 33 34  1  0
 34 35  2  0
 35  2  1  0
 14  9  1  0
 23 18  1  0
 29 24  1  0
 35 30  1  0
M  END
>  <Title>  (145) 
idAADUgen7

$$$$

     RDKit          2D

  6  5  0  0  0  0  0  0  0  0999 V2000
    0.0000    0.0000    0.0000 C   0  0  0  0  0  0  0  0  0  0  0  0
   -0.0000   -1.5000    0.0000 C   0  0  0  0  0  0  0  0  0  0  0  0
   -0.0000   -3.0000    0.0000 C   0  0  0  0  0  0  0  0  0  0  0  0
   -0.0000   -4.5000    0.0000 C   0  0  0  0  0  0  0  0  0  0  0  0
   -0.0000   -6.0000    0.0000 C   0  0  0  0  0  0  0  0  0  0  0  0
   -0.0000   -7.5000    0.0000 C   0  0  0  0  0  0  0  0  0  0  0  0
  1  2  3  0
  2  3  1  0
  3  4  3  0
  4  5  1  0
  5  6  3  0
M  END
>  <Title>  (146) 
idAADVgen7

$$$$

     RDKit          2D

 16 17  0  0  0  0  0  0  0  0999 V2000
    3.0000    0.0000    0.0000 C   0  0  0  0  0  0  0  0  0  0  0  0
    1.5000    0.0000    0.0000 C   0  0  0  0  0  0  0  0  0  0  0  0
    0.7500   -1.2990    0.0000 C   0  0  0  0  0  0  0  0  0  0  0  0
   -0.7500   -1.2990    0.0000 C   0  0  0  0  0  0  0  0  0  0  0  0
   -1.5000    0.0000    0.0000 C   0  0  0  0  0  0  0  0  0  0  0  0
   -0.7500    1.2990    0.0000 C   0  0  0  0  0  0  0  0  0  0  0  0
   -1.5000    2.5981    0.0000 C   0  0  0  0  0  0  0  0  0  0  0  0
   -3.0000    2.5981    0.0000 O   0  0  0  0  0  0  0  0  0  0  0  0
   -0.7500    3.8971    0.0000 N   0  0  0  0  0  0  0  0  0  0  0  0
   -1.5000    5.1962    0.0000 C   0  0  0  0  0  0  0  0  0  0  0  0
   -0.7500    6.4952    0.0000 N   0  0  0  0  0  0  0  0  0  0  0  0
   -1.5000    7.7942    0.0000 N   0  0  0  0  0  0  0  0  0  0  0  0
   -3.0000    7.7942    0.0000 N   0  0  0  0  0  0  0  0  0  0  0  0
   -3.7500    6.4952    0.0000 N   0  0  0  0  0  0  0  0  0  0  0  0
   -3.0000    5.1962    0.0000 N   0  0  0  0  0  0  0  0  0  0  0  0
    0.7500    1.2990    0.0000 C   0  0  0  0  0  0  0  0  0  0  0  0
  1  2  1  0
  2  3  1  0
  3  4  1  0
  4  5  1  0
  5  6  1  0
  6  7  1  0
  7  8  2  0
  7  9  1  0
  9 10  1  0
 10 11  2  0
 11 12  1  0
 12 13  2  0
 13 14  1  0
 14 15  2  0
  6 16  1  0
 16  2  1  0
 15 10  1  0
M  END
>  <Title>  (147) 
idAADWgen7

$$$$

     RDKit          2D

 18 18  0  0  0  0  0  0  0  0999 V2000
    5.3444    0.0000    0.0000 C   0  0  0  0  0  0  0  0  0  0  0  0
    3.8444    0.0000    0.0000 C   0  0  0  0  0  0  0  0  0  0  0  0
    3.5517   -1.4712    0.0000 C   0  0  0  0  0  0  0  0  0  0  0  0
    2.7184   -2.7184    0.0000 C   0  0  0  0  0  0  0  0  0  0  0  0
    1.4712   -3.5517    0.0000 C   0  0  0  0  0  0  0  0  0  0  0  0
   -0.0000   -3.8444    0.0000 C   0  0  0  0  0  0  0  0  0  0  0  0
   -1.4712   -3.5517    0.0000 C   0  0  0  0  0  0  0  0  0  0  0  0
   -2.7184   -2.7184    0.0000 C   0  0  0  0  0  0  0  0  0  0  0  0
   -3.5517   -1.4712    0.0000 C   0  0  0  0  0  0  0  0  0  0  0  0
   -3.8444    0.0000    0.0000 C   0  0  0  0  0  0  0  0  0  0  0  0
   -3.5517    1.4712    0.0000 C   0  0  0  0  0  0  0  0  0  0  0  0
   -2.7184    2.7184    0.0000 C   0  0  0  0  0  0  0  0  0  0  0  0
   -1.4712    3.5517    0.0000 C   0  0  0  0  0  0  0  0  0  0  0  0
    0.0000    3.8444    0.0000 C   0  0  0  0  0  0  0  0  0  0  0  0
    1.4712    3.5517    0.0000 C   0  0  0  0  0  0  0  0  0  0  0  0
    2.0452    4.9376    0.0000 C   0  0  0  0  0  0  0  0  0  0  0  0
    2.7184    2.7184    0.0000 C   0  0  0  0  0  0  0  0  0  0  0  0
    3.5517    1.4712    0.0000 C   0  0  0  0  0  0  0  0  0  0  0  0
  1  2  1  0
  2  3  1  0
  3  4  1  0
  4  5  1  0
  5  6  1  0
  6  7  1  0
  7  8  1  0
  8  9  1  0
  9 10  1  0
 10 11  1  0
 11 12  1  0
 12 13  1  0
 13 14  1  0
 14 15  1  0
 15 16  1  0
 15 17  1  0
 17 18  1  0
 18  2  1  0
M  END
>  <Title>  (148) 
idAADXgen7

$$$$

     RDKit          2D

  9  9  0  0  0  0  0  0  0  0999 V2000
    3.4598   -0.0000    0.0000 C   0  0  0  0  0  0  0  0  0  0  0  0
    1.9598    0.0000    0.0000 C   0  0  0  0  0  0  0  0  0  0  0  0
    1.3858   -1.3858    0.0000 C   0  0  0  0  0  0  0  0  0  0  0  0
   -0.0000   -1.9598    0.0000 C   0  0  0  0  0  0  0  0  0  0  0  0
   -1.3858   -1.3858    0.0000 C   0  0  0  0  0  0  0  0  0  0  0  0
   -1.9598    0.0000    0.0000 C   0  0  0  0  0  0  0  0  0  0  0  0
   -1.3858    1.3858    0.0000 C   0  0  0  0  0  0  0  0  0  0  0  0
    0.0000    1.9598    0.0000 C   0  0  0  0  0  0  0  0  0  0  0  0
    1.3858    1.3858    0.0000 C   0  0  0  0  0  0  0  0  0  0  0  0
  1  2  1  0
  2  3  1  0
  3  4  1  0
  4  5  2  0
  5  6  1  0
  6  7  2  0
  7  8  1  0
  8  9  1  0
  9  2  1  0
M  END
>  <Title>  (149) 
idAADYgen7

$$$$

     RDKit          2D

 80 81  0  0  0  0  0  0  0  0999 V2000
   -2.4376    0.0595    0.0000 C   0  0  0  0  0  0  0  0  0  0  0  0
   -2.2444   -1.4280    0.0000 C   0  0  0  0  0  0  0  0  0  0  0  0
   -3.7223   -1.6849    0.0000 C   0  0  0  0  0  0  0  0  0  0  0  0
   -5.1725   -2.0680    0.0000 C   0  0  0  0  0  0  0  0  0  0  0  0
   -6.5845   -2.5742    0.0000 C   0  0  0  0  0  0  0  0  0  0  0  0
   -7.1511   -1.1854    0.0000 C   0  0  0  0  0  0  0  0  0  0  0  0
   -7.7176    0.2035    0.0000 N   0  0  0  0  0  0  0  0  0  0  0  0
   -7.9478   -3.2000    0.0000 C   0  0  0  0  0  0  0  0  0  0  0  0
   -9.2521   -3.9407    0.0000 C   0  0  0  0  0  0  0  0  0  0  0  0
  -10.4880   -4.7907    0.0000 C   0  0  0  0  0  0  0  0  0  0  0  0
  -11.6463   -5.7439    0.0000 C   0  0  0  0  0  0  0  0  0  0  0  0
  -12.7183   -6.7931    0.0000 C   0  0  0  0  0  0  0  0  0  0  0  0
  -13.6961   -7.9305    0.0000 C   0  0  0  0  0  0  0  0  0  0  0  0
  -14.5726   -9.1478    0.0000 C   0  0  0  0  0  0  0  0  0  0  0  0
  -15.3411  -10.4360    0.0000 C   0  0  0  0  0  0  0  0  0  0  0  0
  -15.9961  -11.7854    0.0000 C   0  0  0  0  0  0  0  0  0  0  0  0
  -16.5326  -13.1862    0.0000 C   0  0  0  0  0  0  0  0  0  0  0  0
  -16.9468  -14.6279    0.0000 C   0  0  0  0  0  0  0  0  0  0  0  0
  -17.2355  -16.0999    0.0000 C   0  0  0  0  0  0  0  0  0  0  0  0
  -17.3965  -17.5912    0.0000 C   0  0  0  0  0  0  0  0  0  0  0  0
  -17.4288  -19.0908    0.0000 C   0  0  0  0  0  0  0  0  0  0  0  0
  -17.3320  -20.5877    0.0000 C   0  0  0  0  0  0  0  0  0  0  0  0
  -17.1070  -22.0707    0.0000 C   0  0  0  0  0  0  0  0  0  0  0  0
  -16.7552  -23.5289    0.0000 C   0  0  0  0  0  0  0  0  0  0  0  0
  -16.2794  -24.9514    0.0000 C   0  0  0  0  0  0  0  0  0  0  0  0
  -15.6831  -26.3278    0.0000 C   0  0  0  0  0  0  0  0  0  0  0  0
  -14.9707  -27.6478    0.0000 C   0  0  0  0  0  0  0  0  0  0  0  0
  -14.1474  -28.9017    0.0000 C   0  0  0  0  0  0  0  0  0  0  0  0
  -13.2194  -30.0802    0.0000 C   0  0  0  0  0  0  0  0  0  0  0  0
  -12.1935  -31.1745    0.0000 C   0  0  0  0  0  0  0  0  0  0  0  0
  -11.0774  -32.1766    0.0000 C   0  0  0  0  0  0  0  0  0  0  0  0
   -9.8792  -33.0791    0.0000 C   0  0  0  0  0  0  0  0  0  0  0  0
   -8.6079  -33.8752    0.0000 C   0  0  0  0  0  0  0  0  0  0  0  0
   -7.2729  -34.5590    0.0000 C   0  0  0  0  0  0  0  0  0  0  0  0
   -5.8840  -35.1256    0.0000 C   0  0  0  0  0  0  0  0  0  0  0  0
   -4.4515  -35.5707    0.0000 C   0  0  0  0  0  0  0  0  0  0  0  0
   -2.9861  -35.8909    0.0000 C   0  0  0  0  0  0  0  0  0  0  0  0
   -1.4986  -36.0841    0.0000 C   0  0  0  0  0  0  0  0  0  0  0  0
   -0.0000  -36.1486    0.0000 C   0  0  0  0  0  0  0  0  0  0  0  0
    1.4986  -36.0841    0.0000 C   0  0  0  0  0  0  0  0  0  0  0  0
    2.9861  -35.8909    0.0000 C   0  0  0  0  0  0  0  0  0  0  0  0
    4.4515  -35.5707    0.0000 C   0  0  0  0  0  0  0  0  0  0  0  0
    5.8840  -35.1256    0.0000 C   0  0  0  0  0  0  0  0  0  0  0  0
    7.2729  -34.5590    0.0000 C   0  0  0  0  0  0  0  0  0  0  0  0
    8.6079  -33.8752    0.0000 C   0  0  0  0  0  0  0  0  0  0  0  0
    9.8792  -33.0791    0.0000 C   0  0  0  0  0  0  0  0  0  0  0  0
   11.0774  -32.1766    0.0000 C   0  0  0  0  0  0  0  0  0  0  0  0
   12.1935  -31.1745    0.0000 C   0  0  0  0  0  0  0  0  0  0  0  0
   13.2194  -30.0802    0.0000 C   0  0  0  0  0  0  0  0  0  0  0  0
   14.1474  -28.9017    0.0000 C   0  0  0  0  0  0  0  0  0  0  0  0
   14.9707  -27.6478    0.0000 C   0  0  0  0  0  0  0  0  0  0  0  0
   15.6831  -26.3278    0.0000 C   0  0  0  0  0  0  0  0  0  0  0  0
   16.2794  -24.9514    0.0000 C   0  0  0  0  0  0  0  0  0  0  0  0
   16.7552  -23.5289    0.0000 C   0  0  0  0  0  0  0  0  0  0  0  0
   17.1070  -22.0707    0.0000 C   0  0  0  0  0  0  0  0  0  0  0  0
   17.3320  -20.5877    0.0000 C   0  0  0  0  0  0  0  0  0  0  0  0
   17.4288  -19.0908    0.0000 C   0  0  0  0  0  0  0  0  0  0  0  0
   17.3965  -17.5912    0.0000 C   0  0  0  0  0  0  0  0  0  0  0  0
   17.2355  -16.0999    0.0000 C   0  0  0  0  0  0  0  0  0  0  0  0
   16.9468  -14.6279    0.0000 C   0  0  0  0  0  0  0  0  0  0  0  0
   16.5326  -13.1862    0.0000 C   0  0  0  0  0  0  0  0  0  0  0  0
   15.9961  -11.7854    0.0000 C   0  0  0  0  0  0  0  0  0  0  0  0
   15.3411  -10.4360    0.0000 C   0  0  0  0  0  0  0  0  0  0  0  0
   14.5726   -9.1478    0.0000 C   0  0  0  0  0  0  0  0  0  0  0  0
   13.6961   -7.9305    0.0000 C   0  0  0  0  0  0  0  0  0  0  0  0
   12.7183   -6.7931    0.0000 C   0  0  0  0  0  0  0  0  0  0  0  0
   11.6463   -5.7439    0.0000 C   0  0  0  0  0  0  0  0  0  0  0  0
   10.4880   -4.7907    0.0000 C   0  0  0  0  0  0  0  0  0  0  0  0
    9.2521   -3.9407    0.0000 C   0  0  0  0  0  0  0  0  0  0  0  0
    7.9478   -3.2000    0.0000 C   0  0  0  0  0  0  0  0  0  0  0  0
    6.5845   -2.5742    0.0000 C   0  0  0  0  0  0  0  0  0  0  0  0
    5.1725   -2.0680    0.0000 C   0  0  0  0  0  0  0  0  0  0  0  0
    3.7223   -1.6849    0.0000 C   0  0  0  0  0  0  0  0  0  0  0  0
    2.2444   -1.4280    0.0000 C   0  0  0  0  0  0  0  0  0  0  0  0
    0.7500   -1.2990    0.0000 C   0  0  0  0  0  0  0  0  0  0  0  0
    1.5000    0.0000    0.0000 C   0  0  0  0  0  0  0  0  0  0  0  0
    0.7500    1.2990    0.0000 C   0  0  0  0  0  0  0  0  0  0  0  0
   -0.7500    1.2990    0.0000 C   0  0  0  0  0  0  0  0  0  0  0  0
   -1.5000    0.0000    0.0000 C   0  0  0  0  0  0  0  0  0  0  0  0
   -0.7500   -1.2990    0.0000 C   0  0  0  0  0  0  0  0  0  0  0  0
  1  2  1  0
  2  3  1  0
  3  4  1  0
  4  5  1  0
  5  6  1  0
  6  7  3  0
  5  8  2  0
  8  9  1  0
  9 10  2  0
 10 11  1  0
 11 12  2  0
 12 13  1  0
 13 14  2  0
 14 15  1  0
 15 16  2  0
 16 17  1  0
 17 18  2  0
 18 19  1  0
 19 20  2  0
 20 21  1  0
 21 22  2  0
 22 23  1  0
 23 24  2  0
 24 25  1  0
 25 26  2  0
 26 27  1  0
 27 28  1  0
 28 29  1  0
 29 30  1  0
 30 31  1  0
 31 32  1  0
 32 33  1  0
 33 34  1  0
 34 35  1  0
 35 36  1  0
 36 37  1  0
 37 38  1  0
 38 39  1  0
 39 40  1  0
 40 41  1  0
 41 42  1  0
 42 43  1  0
 43 44  1  0
 44 45  1  0
 45 46  1  0
 46 47  1  0
 47 48  1  0
 48 49  1  0
 49 50  1  0
 50 51  1  0
 51 52  1  0
 52 53  1  0
 53 54  1  0
 54 55  1  0
 55 56  1  0
 56 57  1  0
 57 58  1  0
 58 59  1  0
 59 60  1  0
 60 61  1  0
 61 62  1  0
 62 63  1  0
 63 64  1  0
 64 65  1  0
 65 66  1  0
 66 67  1  0
 67 68  1  0
 68 69  1  0
 69 70  1  0
 70 71  1  0
 71 72  1  0
 72 73  1  0
 73 74  1  0
 74 75  1  0
 75 76  2  0
 76 77  1  0
 77 78  2  0
 78 79  1  0
 79 80  2  0
 80  2  1  0
 80 75  1  0
M  END
>  <Title>  (150) 
idAADZgen7

$$$$

     RDKit          2D

 16 17  0  0  0  0  0  0  0  0999 V2000
    1.6910  -10.5537    0.0000 N   0  0  0  0  0  0  0  0  0  0  0  0
    1.8478   -9.0619    0.0000 C   0  0  0  0  0  0  0  0  0  0  0  0
    2.0046   -7.5702    0.0000 C   0  0  0  0  0  0  0  0  0  0  0  0
    3.3037   -6.8202    0.0000 C   0  0  0  0  0  0  0  0  0  0  0  0
    2.9918   -5.3529    0.0000 C   0  0  0  0  0  0  0  0  0  0  0  0
    1.5000   -5.1962    0.0000 C   0  0  0  0  0  0  0  0  0  0  0  0
    0.7500   -3.8971    0.0000 C   0  0  0  0  0  0  0  0  0  0  0  0
   -0.7500   -3.8971    0.0000 O   0  0  0  0  0  0  0  0  0  0  0  0
    1.5000   -2.5981    0.0000 N   0  0  0  0  0  0  0  0  0  0  0  0
    0.7500   -1.2990    0.0000 C   0  0  0  0  0  0  0  0  0  0  0  0
    1.5000    0.0000    0.0000 N   0  0  0  0  0  0  0  0  0  0  0  0
    0.7500    1.2990    0.0000 N   0  0  0  0  0  0  0  0  0  0  0  0
   -0.7500    1.2990    0.0000 N   0  0  0  0  0  0  0  0  0  0  0  0
   -1.5000    0.0000    0.0000 N   0  0  0  0  0  0  0  0  0  0  0  0
   -0.7500   -1.2990    0.0000 N   0  0  0  0  0  0  0  0  0  0  0  0
    0.8899   -6.5665    0.0000 C   0  0  0  0  0  0  0  0  0  0  0  0
  1  2  3  0
  2  3  1  0
  3  4  1  0
  4  5  1  0
  5  6  1  0
  6  7  1  0
  7  8  2  0
  7  9  1  0
  9 10  1  0
 10 11  2  0
 11 12  1  0
 12 13  2  0
 13 14  1  0
 14 15  2  0
  6 16  1  0
 16  3  1  0
 15 10  1  0
M  END
>  <Title>  (151) 
idAAEAgen7

$$$$

     RDKit          2D

 39 39  0  0  0  0  0  0  0  0999 V2000
   10.5822    0.0000    0.0000 C   0  0  0  0  0  0  0  0  0  0  0  0
    9.0822    0.0000    0.0000 C   0  0  0  0  0  0  0  0  0  0  0  0
    8.9583   -1.4949    0.0000 C   0  0  0  0  0  0  0  0  0  0  0  0
    8.5901   -2.9490    0.0000 C   0  0  0  0  0  0  0  0  0  0  0  0
    7.9875   -4.3226    0.0000 C   0  0  0  0  0  0  0  0  0  0  0  0
    7.1671   -5.5784    0.0000 C   0  0  0  0  0  0  0  0  0  0  0  0
    6.1512   -6.6820    0.0000 C   0  0  0  0  0  0  0  0  0  0  0  0
    4.9675   -7.6033    0.0000 C   0  0  0  0  0  0  0  0  0  0  0  0
    3.6483   -8.3172    0.0000 C   0  0  0  0  0  0  0  0  0  0  0  0
    2.2295   -8.8043    0.0000 C   0  0  0  0  0  0  0  0  0  0  0  0
    0.7500   -9.0512    0.0000 C   0  0  0  0  0  0  0  0  0  0  0  0
   -0.7500   -9.0512    0.0000 C   0  0  0  0  0  0  0  0  0  0  0  0
   -2.2295   -8.8043    0.0000 C   0  0  0  0  0  0  0  0  0  0  0  0
   -3.6483   -8.3172    0.0000 C   0  0  0  0  0  0  0  0  0  0  0  0
   -4.9675   -7.6033    0.0000 C   0  0  0  0  0  0  0  0  0  0  0  0
   -6.1512   -6.6820    0.0000 C   0  0  0  0  0  0  0  0  0  0  0  0
   -7.1671   -5.5784    0.0000 C   0  0  0  0  0  0  0  0  0  0  0  0
   -7.9875   -4.3226    0.0000 C   0  0  0  0  0  0  0  0  0  0  0  0
   -8.5901   -2.9490    0.0000 C   0  0  0  0  0  0  0  0  0  0  0  0
   -8.9583   -1.4949    0.0000 C   0  0  0  0  0  0  0  0  0  0  0  0
   -9.0822    0.0000    0.0000 C   0  0  0  0  0  0  0  0  0  0  0  0
   -8.9583    1.4949    0.0000 C   0  0  0  0  0  0  0  0  0  0  0  0
   -8.5901    2.9490    0.0000 C   0  0  0  0  0  0  0  0  0  0  0  0
   -7.9875    4.3226    0.0000 C   0  0  0  0  0  0  0  0  0  0  0  0
   -7.1671    5.5784    0.0000 C   0  0  0  0  0  0  0  0  0  0  0  0
   -6.1512    6.6820    0.0000 C   0  0  0  0  0  0  0  0  0  0  0  0
   -4.9675    7.6033    0.0000 C   0  0  0  0  0  0  0  0  0  0  0  0
   -3.6483    8.3172    0.0000 C   0  0  0  0  0  0  0  0  0  0  0  0
   -2.2295    8.8043    0.0000 C   0  0  0  0  0  0  0  0  0  0  0  0
   -0.7500    9.0512    0.0000 C   0  0  0  0  0  0  0  0  0  0  0  0
    0.7500    9.0512    0.0000 C   0  0  0  0  0  0  0  0  0  0  0  0
    2.2295    8.8043    0.0000 C   0  0  0  0  0  0  0  0  0  0  0  0
    3.6483    8.3172    0.0000 C   0  0  0  0  0  0  0  0  0  0  0  0
    4.9675    7.6033    0.0000 C   0  0  0  0  0  0  0  0  0  0  0  0
    6.1512    6.6820    0.0000 C   0  0  0  0  0  0  0  0  0  0  0  0
    7.1671    5.5784    0.0000 C   0  0  0  0  0  0  0  0  0  0  0  0
    7.9875    4.3226    0.0000 C   0  0  0  0  0  0  0  0  0  0  0  0
    8.5901    2.9490    0.0000 C   0  0  0  0  0  0  0  0  0  0  0  0
    8.9583    1.4949    0.0000 C   0  0  0  0  0  0  0  0  0  0  0  0
  1  2  1  0
  2  3  1  0
  3  4  1  0
  4  5  1  0
  5  6  1  0
  6  7  1  0
  7  8  1  0
  8  9  1  0
  9 10  1  0
 10 11  1  0
 11 12  1  0
 12 13  1  0
 13 14  1  0
 14 15  1  0
 15 16  1  0
 16 17  1  0
 17 18  1  0
 18 19  1  0
 19 20  1  0
 20 21  1  0
 21 22  1  0
 22 23  1  0
 23 24  1  0
 24 25  1  0
 25 26  1  0
 26 27  1  0
 27 28  1  0
 28 29  1  0
 29 30  1  0
 30 31  1  0
 31 32  1  0
 32 33  1  0
 33 34  1  0
 34 35  1  0
 35 36  1  0
 36 37  1  0
 37 38  1  0
 38 39  1  0
 39  2  1  0
M  END
>  <Title>  (152) 
idAAEBgen7

$$$$

     RDKit          2D

 11 11  0  0  0  0  0  0  0  0999 V2000
    3.9271    0.0000    0.0000 O   0  0  0  0  0  0  0  0  0  0  0  0
    2.4271    0.0000    0.0000 C   0  0  0  0  0  0  0  0  0  0  0  0
    1.9635   -1.4266    0.0000 C   0  0  0  0  0  0  0  0  0  0  0  0
    0.7500   -2.3083    0.0000 C   0  0  0  0  0  0  0  0  0  0  0  0
   -0.7500   -2.3083    0.0000 C   0  0  0  0  0  0  0  0  0  0  0  0
   -1.9635   -1.4266    0.0000 C   0  0  0  0  0  0  0  0  0  0  0  0
   -2.4271    0.0000    0.0000 C   0  0  0  0  0  0  0  0  0  0  0  0
   -1.9635    1.4266    0.0000 C   0  0  0  0  0  0  0  0  0  0  0  0
   -0.7500    2.3083    0.0000 C   0  0  0  0  0  0  0  0  0  0  0  0
    0.7500    2.3083    0.0000 C   0  0  0  0  0  0  0  0  0  0  0  0
    1.9635    1.4266    0.0000 C   0  0  0  0  0  0  0  0  0  0  0  0
  1  2  1  0
  2  3  1  0
  3  4  1  0
  4  5  1  0
  5  6  1  0
  6  7  1  0
  7  8  1  0
  8  9  1  0
  9 10  1  0
 10 11  1  0
 11  2  1  0
M  END
>  <Title>  (153) 
idAAECgen7

$$$$

     RDKit          2D

 59 67  0  0  0  0  0  0  0  0999 V2000
   -1.6499   -3.4009    0.0000 C   0  0  0  0  0  0  0  0  0  0  0  0
   -0.4364   -4.2826    0.0000 C   0  0  0  0  0  0  0  0  0  0  0  0
    0.7771   -3.4009    0.0000 C   0  0  0  0  0  0  0  0  0  0  0  0
    2.2771   -3.4009    0.0000 C   0  0  0  0  0  0  0  0  0  0  0  0
    3.4906   -4.2826    0.0000 C   0  0  0  0  0  0  0  0  0  0  0  0
    4.7042   -3.4009    0.0000 C   0  0  0  0  0  0  0  0  0  0  0  0
    6.0745   -4.0110    0.0000 O   0  0  0  0  0  0  0  0  0  0  0  0
    4.5474   -1.9091    0.0000 N   0  0  0  0  0  0  0  0  0  0  0  0
    5.7609   -1.0275    0.0000 C   0  0  0  0  0  0  0  0  0  0  0  0
    7.1312   -1.6376    0.0000 C   0  0  0  0  0  0  0  0  0  0  0  0
    8.3447   -0.7559    0.0000 C   0  0  0  0  0  0  0  0  0  0  0  0
    8.1879    0.7359    0.0000 C   0  0  0  0  0  0  0  0  0  0  0  0
    6.8176    1.3460    0.0000 C   0  0  0  0  0  0  0  0  0  0  0  0
    5.6041    0.4643    0.0000 C   0  0  0  0  0  0  0  0  0  0  0  0
    4.2338    1.0744    0.0000 C   0  0  0  0  0  0  0  0  0  0  0  0
    3.0203    0.1927    0.0000 C   0  0  0  0  0  0  0  0  0  0  0  0
    1.6499    0.8028    0.0000 C   0  0  0  0  0  0  0  0  0  0  0  0
    1.4931    2.2946    0.0000 C   0  0  0  0  0  0  0  0  0  0  0  0
    2.7067    3.1763    0.0000 C   0  0  0  0  0  0  0  0  0  0  0  0
    4.0770    2.5662    0.0000 C   0  0  0  0  0  0  0  0  0  0  0  0
    5.2905    3.4479    0.0000 C   0  0  0  0  0  0  0  0  0  0  0  0
    6.6608    2.8378    0.0000 C   0  0  0  0  0  0  0  0  0  0  0  0
    7.8744    3.7195    0.0000 C   0  0  0  0  0  0  0  0  0  0  0  0
    7.7176    5.2112    0.0000 C   0  0  0  0  0  0  0  0  0  0  0  0
    6.3472    5.8213    0.0000 C   0  0  0  0  0  0  0  0  0  0  0  0
    5.1337    4.9397    0.0000 C   0  0  0  0  0  0  0  0  0  0  0  0
    3.7634    5.5498    0.0000 C   0  0  0  0  0  0  0  0  0  0  0  0
    2.4644    4.7998    0.0000 C   0  0  0  0  0  0  0  0  0  0  0  0
    1.3497    5.8035    0.0000 C   0  0  0  0  0  0  0  0  0  0  0  0
    1.9598    7.1738    0.0000 C   0  0  0  0  0  0  0  0  0  0  0  0
    1.2098    8.4728    0.0000 C   0  0  0  0  0  0  0  0  0  0  0  0
   -0.2902    8.4728    0.0000 O   0  0  0  0  0  0  0  0  0  0  0  0
    1.9598    9.7719    0.0000 N   0  0  0  0  0  0  0  0  0  0  0  0
    1.2098   11.0709    0.0000 C   0  0  0  0  0  0  0  0  0  0  0  0
    1.9598   12.3699    0.0000 C   0  0  0  0  0  0  0  0  0  0  0  0
    1.2098   13.6690    0.0000 N   0  0  0  0  0  0  0  0  0  0  0  0
   -0.2902   13.6690    0.0000 N   0  0  0  0  0  0  0  0  0  0  0  0
   -1.0402   12.3699    0.0000 N   0  0  0  0  0  0  0  0  0  0  0  0
   -0.2902   11.0709    0.0000 N   0  0  0  0  0  0  0  0  0  0  0  0
    3.4515    7.0170    0.0000 C   0  0  0  0  0  0  0  0  0  0  0  0
    4.4552    8.1317    0.0000 O   0  0  0  0  0  0  0  0  0  0  0  0
    3.9542   -5.7092    0.0000 C   0  0  0  0  0  0  0  0  0  0  0  0
    5.4214   -5.3973    0.0000 C   0  0  0  0  0  0  0  0  0  0  0  0
    6.4251   -6.5120    0.0000 C   0  0  0  0  0  0  0  0  0  0  0  0
    5.9616   -7.9386    0.0000 C   0  0  0  0  0  0  0  0  0  0  0  0
    4.4943   -8.2505    0.0000 C   0  0  0  0  0  0  0  0  0  0  0  0
    3.4906   -7.1358    0.0000 C   0  0  0  0  0  0  0  0  0  0  0  0
    2.2771   -8.0175    0.0000 C   0  0  0  0  0  0  0  0  0  0  0  0
    3.0271   -9.3165    0.0000 C   0  0  0  0  0  0  0  0  0  0  0  0
    2.2771  -10.6155    0.0000 C   0  0  0  0  0  0  0  0  0  0  0  0
    0.7771  -10.6155    0.0000 C   0  0  0  0  0  0  0  0  0  0  0  0
    0.0271   -9.3165    0.0000 C   0  0  0  0  0  0  0  0  0  0  0  0
    0.7771   -8.0175    0.0000 C   0  0  0  0  0  0  0  0  0  0  0  0
   -0.4364   -7.1358    0.0000 C   0  0  0  0  0  0  0  0  0  0  0  0
   -1.4401   -8.2505    0.0000 C   0  0  0  0  0  0  0  0  0  0  0  0
   -2.9073   -7.9386    0.0000 C   0  0  0  0  0  0  0  0  0  0  0  0
   -3.3709   -6.5120    0.0000 C   0  0  0  0  0  0  0  0  0  0  0  0
   -2.3672   -5.3973    0.0000 C   0  0  0  0  0  0  0  0  0  0  0  0
   -0.8999   -5.7092    0.0000 C   0  0  0  0  0  0  0  0  0  0  0  0
  1  2  1  0
  2  3  1  0
  3  4  1  0
  4  5  1  0
  5  6  1  0
  6  7  2  0
  6  8  1  0
  8  9  1  0
  9 10  2  0
 10 11  1  0
 11 12  2  0
 12 13  1  0
 13 14  2  0
 14 15  1  0
 15 16  2  0
 16 17  1  0
 17 18  2  0
 18 19  1  0
 19 20  2  0
 20 21  1  0
 21 22  2  0
 22 23  1  0
 23 24  2  0
 24 25  1  0
 25 26  2  0
 26 27  1  0
 27 28  2  0
 28 29  1  0
 29 30  2  0
 30 31  1  0
 31 32  2  0
 31 33  1  0
 33 34  1  0
 34 35  2  0
 35 36  1  0
 36 37  2  0
 37 38  1  0
 38 39  2  0
 30 40  1  0
 40 41  2  0
  5 42  1  0
 42 43  2  0
 43 44  1  0
 44 45  2  0
 45 46  1  0
 46 47  2  0
 47 48  1  0
 48 49  2  0
 49 50  1  0
 50 51  2  0
 51 52  1  0
 52 53  2  0
 53 54  1  0
 54 55  2  0
 55 56  1  0
 56 57  2  0
 57 58  1  0
 58 59  2  0
 59  2  1  0
 14  9  1  0
 20 15  1  0
 26 21  1  0
 40 27  1  0
 47 42  1  0
 53 48  1  0
 59 54  1  0
 39 34  1  0
M  END
>  <Title>  (154) 
idAAEDgen7

$$$$

     RDKit          2D

 10 10  0  0  0  0  0  0  0  0999 V2000
    3.2286   -0.0000    0.0000 C   0  0  0  0  0  0  0  0  0  0  0  0
    1.7286    0.0000    0.0000 C   0  0  0  0  0  0  0  0  0  0  0  0
    1.0777    1.3515    0.0000 C   0  0  0  0  0  0  0  0  0  0  0  0
   -0.3846    1.6852    0.0000 C   0  0  0  0  0  0  0  0  0  0  0  0
   -1.5574    0.7500    0.0000 C   0  0  0  0  0  0  0  0  0  0  0  0
   -2.9088    1.4008    0.0000 C   0  0  0  0  0  0  0  0  0  0  0  0
   -1.5574   -0.7500    0.0000 C   0  0  0  0  0  0  0  0  0  0  0  0
   -2.9088   -1.4008    0.0000 O   0  0  0  0  0  0  0  0  0  0  0  0
   -0.3846   -1.6852    0.0000 C   0  0  0  0  0  0  0  0  0  0  0  0
    1.0777   -1.3515    0.0000 C   0  0  0  0  0  0  0  0  0  0  0  0
  1  2  1  0
  2  3  2  0
  3  4  1  0
  4  5  2  0
  5  6  1  0
  5  7  1  0
  7  8  2  0
  7  9  1  0
  9 10  1  0
 10  2  1  0
M  END
>  <Title>  (155) 
idAAEEgen7

$$$$

     RDKit          2D

 16 17  0  0  0  0  0  0  0  0999 V2000
    1.8478   -9.0619    0.0000 C   0  0  0  0  0  0  0  0  0  0  0  0
    2.0046   -7.5702    0.0000 C   0  0  0  0  0  0  0  0  0  0  0  0
    3.3037   -6.8202    0.0000 C   0  0  0  0  0  0  0  0  0  0  0  0
    2.9918   -5.3529    0.0000 C   0  0  0  0  0  0  0  0  0  0  0  0
    1.5000   -5.1962    0.0000 C   0  0  0  0  0  0  0  0  0  0  0  0
    0.7500   -3.8971    0.0000 C   0  0  0  0  0  0  0  0  0  0  0  0
   -0.7500   -3.8971    0.0000 O   0  0  0  0  0  0  0  0  0  0  0  0
    1.5000   -2.5981    0.0000 N   0  0  0  0  0  0  0  0  0  0  0  0
    0.7500   -1.2990    0.0000 C   0  0  0  0  0  0  0  0  0  0  0  0
    1.5000    0.0000    0.0000 N   0  0  0  0  0  0  0  0  0  0  0  0
    0.7500    1.2990    0.0000 N   0  0  0  0  0  0  0  0  0  0  0  0
   -0.7500    1.2990    0.0000 N   0  0  0  0  0  0  0  0  0  0  0  0
   -1.5000    0.0000    0.0000 N   0  0  0  0  0  0  0  0  0  0  0  0
   -0.7500   -1.2990    0.0000 N   0  0  0  0  0  0  0  0  0  0  0  0
    0.8899   -6.5665    0.0000 C   0  0  0  0  0  0  0  0  0  0  0  0
   -0.5773   -6.8783    0.0000 O   0  0  0  0  0  0  0  0  0  0  0  0
  1  2  1  0
  2  3  1  0
  3  4  2  0
  4  5  1  0
  5  6  1  0
  6  7  2  0
  6  8  1  0
  8  9  1  0
  9 10  2  0
 10 11  1  0
 11 12  2  0
 12 13  1  0
 13 14  2  0
  5 15  1  0
 15 16  2  0
 15  2  1  0
 14  9  1  0
M  END
>  <Title>  (156) 
idAAEFgen7

$$$$

     RDKit          2D

 24 25  0  0  0  0  0  0  0  0999 V2000
    5.1073    0.0000    0.0000 C   0  0  0  0  0  0  0  0  0  0  0  0
    3.6073    0.0000    0.0000 C   0  0  0  0  0  0  0  0  0  0  0  0
    3.2954    1.4672    0.0000 C   0  0  0  0  0  0  0  0  0  0  0  0
    2.4138    2.6807    0.0000 C   0  0  0  0  0  0  0  0  0  0  0  0
    1.1147    3.4307    0.0000 C   0  0  0  0  0  0  0  0  0  0  0  0
   -0.3771    3.5875    0.0000 C   0  0  0  0  0  0  0  0  0  0  0  0
   -1.8037    3.1240    0.0000 C   0  0  0  0  0  0  0  0  0  0  0  0
   -2.9184    2.1203    0.0000 C   0  0  0  0  0  0  0  0  0  0  0  0
   -3.5285    0.7500    0.0000 C   0  0  0  0  0  0  0  0  0  0  0  0
   -3.5285   -0.7500    0.0000 C   0  0  0  0  0  0  0  0  0  0  0  0
   -2.9184   -2.1203    0.0000 C   0  0  0  0  0  0  0  0  0  0  0  0
   -1.8037   -3.1240    0.0000 C   0  0  0  0  0  0  0  0  0  0  0  0
   -0.3771   -3.5875    0.0000 C   0  0  0  0  0  0  0  0  0  0  0  0
    1.1147   -3.4307    0.0000 C   0  0  0  0  0  0  0  0  0  0  0  0
    2.4138   -2.6807    0.0000 C   0  0  0  0  0  0  0  0  0  0  0  0
    3.4175   -3.7955    0.0000 C   0  0  0  0  0  0  0  0  0  0  0  0
    2.9539   -5.2220    0.0000 C   0  0  0  0  0  0  0  0  0  0  0  0
    3.9576   -6.3368    0.0000 C   0  0  0  0  0  0  0  0  0  0  0  0
    3.4941   -7.7634    0.0000 N   0  0  0  0  0  0  0  0  0  0  0  0
    4.4978   -8.8781    0.0000 N   0  0  0  0  0  0  0  0  0  0  0  0
    5.9650   -8.5662    0.0000 N   0  0  0  0  0  0  0  0  0  0  0  0
    6.4285   -7.1396    0.0000 N   0  0  0  0  0  0  0  0  0  0  0  0
    5.4248   -6.0249    0.0000 N   0  0  0  0  0  0  0  0  0  0  0  0
    3.2954   -1.4672    0.0000 C   0  0  0  0  0  0  0  0  0  0  0  0
  1  2  1  0
  2  3  1  0
  3  4  1  0
  4  5  1  0
  5  6  1  0
  6  7  1  0
  7  8  1  0
  8  9  1  0
  9 10  1  0
 10 11  1  0
 11 12  1  0
 12 13  1  0
 13 14  1  0
 14 15  1  0
 15 16  1  0
 16 17  1  0
 17 18  1  0
 18 19  2  0
 19 20  1  0
 20 21  2  0
 21 22  1  0
 22 23  2  0
 15 24  1  0
 24  2  1  0
 23 18  1  0
M  END
>  <Title>  (157) 
idAAEGgen7

$$$$

     RDKit          2D

  3  2  0  0  0  0  0  0  0  0999 V2000
    0.0000    0.0000    0.0000 C   0  0  0  0  0  0  0  0  0  0  0  0
    1.2990    0.7500    0.0000 C   0  0  0  0  0  0  0  0  0  0  0  0
    2.5981   -0.0000    0.0000 N   0  0  0  0  0  0  0  0  0  0  0  0
  1  2  1  0
  2  3  1  0
M  END
>  <Title>  (158) 
idAAEHgen7

$$$$

     RDKit          2D

 16 17  0  0  0  0  0  0  0  0999 V2000
    3.0000    0.0000    0.0000 C   0  0  0  0  0  0  0  0  0  0  0  0
    1.5000    0.0000    0.0000 C   0  0  0  0  0  0  0  0  0  0  0  0
    0.7500   -1.2990    0.0000 C   0  0  0  0  0  0  0  0  0  0  0  0
   -0.7500   -1.2990    0.0000 C   0  0  0  0  0  0  0  0  0  0  0  0
   -1.5000    0.0000    0.0000 C   0  0  0  0  0  0  0  0  0  0  0  0
   -0.7500    1.2990    0.0000 C   0  0  0  0  0  0  0  0  0  0  0  0
   -1.5000    2.5981    0.0000 C   0  0  0  0  0  0  0  0  0  0  0  0
   -3.0000    2.5981    0.0000 O   0  0  0  0  0  0  0  0  0  0  0  0
   -0.7500    3.8971    0.0000 N   0  0  0  0  0  0  0  0  0  0  0  0
   -1.5000    5.1962    0.0000 C   0  0  0  0  0  0  0  0  0  0  0  0
   -0.7500    6.4952    0.0000 N   0  0  0  0  0  0  0  0  0  0  0  0
   -1.5000    7.7942    0.0000 N   0  0  0  0  0  0  0  0  0  0  0  0
   -3.0000    7.7942    0.0000 N   0  0  0  0  0  0  0  0  0  0  0  0
   -3.7500    6.4952    0.0000 N   0  0  0  0  0  0  0  0  0  0  0  0
   -3.0000    5.1962    0.0000 N   0  0  0  0  0  0  0  0  0  0  0  0
    0.7500    1.2990    0.0000 C   0  0  0  0  0  0  0  0  0  0  0  0
  1  2  1  0
  2  3  2  0
  3  4  1  0
  4  5  1  0
  5  6  1  0
  6  7  1  0
  7  8  2  0
  7  9  1  0
  9 10  1  0
 10 11  2  0
 11 12  1  0
 12 13  2  0
 13 14  1  0
 14 15  2  0
  6 16  1  0
 16  2  1  0
 15 10  1  0
M  END
>  <Title>  (159) 
idAAEIgen7

$$$$

     RDKit          2D

 47 47  0  0  0  0  0  0  0  0999 V2000
   13.5476   -1.2990    0.0000 C   0  0  0  0  0  0  0  0  0  0  0  0
   12.0476   -1.2990    0.0000 C   0  0  0  0  0  0  0  0  0  0  0  0
   11.2976   -0.0000    0.0000 C   0  0  0  0  0  0  0  0  0  0  0  0
    9.7976    0.0000    0.0000 C   0  0  0  0  0  0  0  0  0  0  0  0
    9.6828    1.4956    0.0000 C   0  0  0  0  0  0  0  0  0  0  0  0
    9.3410    2.9561    0.0000 C   0  0  0  0  0  0  0  0  0  0  0  0
    8.7803    4.3474    0.0000 C   0  0  0  0  0  0  0  0  0  0  0  0
    8.0138    5.6367    0.0000 C   0  0  0  0  0  0  0  0  0  0  0  0
    7.0594    6.7940    0.0000 C   0  0  0  0  0  0  0  0  0  0  0  0
    5.9396    7.7920    0.0000 C   0  0  0  0  0  0  0  0  0  0  0  0
    4.6805    8.6073    0.0000 C   0  0  0  0  0  0  0  0  0  0  0  0
    3.3118    9.2209    0.0000 C   0  0  0  0  0  0  0  0  0  0  0  0
    1.8654    9.6184    0.0000 C   0  0  0  0  0  0  0  0  0  0  0  0
    0.3753    9.7904    0.0000 C   0  0  0  0  0  0  0  0  0  0  0  0
   -1.1236    9.7330    0.0000 C   0  0  0  0  0  0  0  0  0  0  0  0
   -2.5962    9.4474    0.0000 C   0  0  0  0  0  0  0  0  0  0  0  0
   -4.0079    8.9404    0.0000 C   0  0  0  0  0  0  0  0  0  0  0  0
   -5.3257    8.2238    0.0000 C   0  0  0  0  0  0  0  0  0  0  0  0
   -6.5186    7.3144    0.0000 C   0  0  0  0  0  0  0  0  0  0  0  0
   -7.5588    6.2337    0.0000 C   0  0  0  0  0  0  0  0  0  0  0  0
   -8.4217    5.0068    0.0000 C   0  0  0  0  0  0  0  0  0  0  0  0
   -9.0873    3.6625    0.0000 C   0  0  0  0  0  0  0  0  0  0  0  0
   -9.5399    2.2324    0.0000 C   0  0  0  0  0  0  0  0  0  0  0  0
   -9.7689    0.7500    0.0000 C   0  0  0  0  0  0  0  0  0  0  0  0
   -9.7689   -0.7500    0.0000 C   0  0  0  0  0  0  0  0  0  0  0  0
   -9.5399   -2.2324    0.0000 C   0  0  0  0  0  0  0  0  0  0  0  0
   -9.0873   -3.6625    0.0000 C   0  0  0  0  0  0  0  0  0  0  0  0
   -8.4217   -5.0068    0.0000 C   0  0  0  0  0  0  0  0  0  0  0  0
   -7.5588   -6.2337    0.0000 C   0  0  0  0  0  0  0  0  0  0  0  0
   -6.5186   -7.3144    0.0000 C   0  0  0  0  0  0  0  0  0  0  0  0
   -5.3257   -8.2238    0.0000 C   0  0  0  0  0  0  0  0  0  0  0  0
   -4.0079   -8.9404    0.0000 C   0  0  0  0  0  0  0  0  0  0  0  0
   -2.5962   -9.4474    0.0000 C   0  0  0  0  0  0  0  0  0  0  0  0
   -1.1236   -9.7330    0.0000 C   0  0  0  0  0  0  0  0  0  0  0  0
    0.3753   -9.7904    0.0000 C   0  0  0  0  0  0  0  0  0  0  0  0
    1.8654   -9.6184    0.0000 C   0  0  0  0  0  0  0  0  0  0  0  0
    3.3118   -9.2209    0.0000 C   0  0  0  0  0  0  0  0  0  0  0  0
    4.6805   -8.6073    0.0000 C   0  0  0  0  0  0  0  0  0  0  0  0
    5.9396   -7.7920    0.0000 C   0  0  0  0  0  0  0  0  0  0  0  0
    6.8489   -8.9849    0.0000 C   0  0  0  0  0  0  0  0  0  0  0  0
    7.0594   -6.7940    0.0000 C   0  0  0  0  0  0  0  0  0  0  0  0
    8.0138   -5.6367    0.0000 C   0  0  0  0  0  0  0  0  0  0  0  0
    8.7803   -4.3474    0.0000 C   0  0  0  0  0  0  0  0  0  0  0  0
   10.1245   -5.0130    0.0000 C   0  0  0  0  0  0  0  0  0  0  0  0
    9.3410   -2.9561    0.0000 C   0  0  0  0  0  0  0  0  0  0  0  0
   10.7711   -3.4087    0.0000 O   0  0  0  0  0  0  0  0  0  0  0  0
    9.6828   -1.4956    0.0000 N   0  0  0  0  0  0  0  0  0  0  0  0
  1  2  1  0
  2  3  1  0
  3  4  1  0
  4  5  1  0
  5  6  1  0
  6  7  1  0
  7  8  1  0
  8  9  1  0
  9 10  1  0
 10 11  1  0
 11 12  1  0
 12 13  1  0
 13 14  1  0
 14 15  1  0
 15 16  1  0
 16 17  1  0
 17 18  1  0
 18 19  1  0
 19 20  1  0
 20 21  1  0
 21 22  1  0
 22 23  1  0
 23 24  1  0
 24 25  1  0
 25 26  1  0
 26 27  1  0
 27 28  1  0
 28 29  1  0
 29 30  1  0
 30 31  1  0
 31 32  1  0
 32 33  1  0
 33 34  1  0
 34 35  1  0
 35 36  1  0
 36 37  1  0
 37 38  1  0
 38 39  1  0
 39 40  1  0
 39 41  1  0
 41 42  1  0
 42 43  1  0
 43 44  1  0
 43 45  1  0
 45 46  2  0
 45 47  1  0
 47  4  1  0
M  END
>  <Title>  (160) 
idAAEJgen7

$$$$

     RDKit          2D

  6  6  0  0  0  0  0  0  0  0999 V2000
    2.7760    0.0000    0.0000 O   0  0  0  0  0  0  0  0  0  0  0  0
    1.2760    0.0000    0.0000 C   0  0  0  0  0  0  0  0  0  0  0  0
    0.3943    1.2135    0.0000 C   0  0  0  0  0  0  0  0  0  0  0  0
   -1.0323    0.7500    0.0000 C   0  0  0  0  0  0  0  0  0  0  0  0
   -1.0323   -0.7500    0.0000 C   0  0  0  0  0  0  0  0  0  0  0  0
    0.3943   -1.2135    0.0000 C   0  0  0  0  0  0  0  0  0  0  0  0
  1  2  1  0
  2  3  2  0
  3  4  1  0
  4  5  2  0
  5  6  1  0
  6  2  1  0
M  END
>  <Title>  (161) 
idAAEKgen7

$$$$

     RDKit          2D

114114  0  0  0  0  0  0  0  0999 V2000
   28.4802    0.0000    0.0000 C   0  0  0  0  0  0  0  0  0  0  0  0
   26.9802    0.0000    0.0000 C   0  0  0  0  0  0  0  0  0  0  0  0
   26.9385    1.4994    0.0000 C   0  0  0  0  0  0  0  0  0  0  0  0
   26.8136    2.9942    0.0000 C   0  0  0  0  0  0  0  0  0  0  0  0
   26.6057    4.4797    0.0000 C   0  0  0  0  0  0  0  0  0  0  0  0
   26.3157    5.9514    0.0000 C   0  0  0  0  0  0  0  0  0  0  0  0
   25.9442    7.4047    0.0000 C   0  0  0  0  0  0  0  0  0  0  0  0
   25.4926    8.8351    0.0000 C   0  0  0  0  0  0  0  0  0  0  0  0
   24.9622   10.2382    0.0000 C   0  0  0  0  0  0  0  0  0  0  0  0
   24.3547   11.6096    0.0000 C   0  0  0  0  0  0  0  0  0  0  0  0
   23.6718   12.9452    0.0000 C   0  0  0  0  0  0  0  0  0  0  0  0
   22.9158   14.2408    0.0000 C   0  0  0  0  0  0  0  0  0  0  0  0
   22.0890   15.4923    0.0000 C   0  0  0  0  0  0  0  0  0  0  0  0
   21.1938   16.6959    0.0000 C   0  0  0  0  0  0  0  0  0  0  0  0
   20.2332   17.8480    0.0000 C   0  0  0  0  0  0  0  0  0  0  0  0
   19.2100   18.9449    0.0000 C   0  0  0  0  0  0  0  0  0  0  0  0
   18.1275   19.9832    0.0000 C   0  0  0  0  0  0  0  0  0  0  0  0
   16.9889   20.9597    0.0000 C   0  0  0  0  0  0  0  0  0  0  0  0
   15.7978   21.8715    0.0000 C   0  0  0  0  0  0  0  0  0  0  0  0
   14.5579   22.7156    0.0000 C   0  0  0  0  0  0  0  0  0  0  0  0
   13.2730   23.4896    0.0000 C   0  0  0  0  0  0  0  0  0  0  0  0
   11.9471   24.1909    0.0000 C   0  0  0  0  0  0  0  0  0  0  0  0
   10.5842   24.8175    0.0000 C   0  0  0  0  0  0  0  0  0  0  0  0
    9.1886   25.3674    0.0000 C   0  0  0  0  0  0  0  0  0  0  0  0
    7.7646   25.8388    0.0000 C   0  0  0  0  0  0  0  0  0  0  0  0
    6.3166   26.2304    0.0000 C   0  0  0  0  0  0  0  0  0  0  0  0
    4.8491   26.5409    0.0000 C   0  0  0  0  0  0  0  0  0  0  0  0
    3.3666   26.7694    0.0000 C   0  0  0  0  0  0  0  0  0  0  0  0
    1.8737   26.9151    0.0000 C   0  0  0  0  0  0  0  0  0  0  0  0
    0.3750   26.9776    0.0000 C   0  0  0  0  0  0  0  0  0  0  0  0
   -1.1248   26.9568    0.0000 C   0  0  0  0  0  0  0  0  0  0  0  0
   -2.6212   26.8526    0.0000 C   0  0  0  0  0  0  0  0  0  0  0  0
   -4.1095   26.6654    0.0000 C   0  0  0  0  0  0  0  0  0  0  0  0
   -5.5850   26.3958    0.0000 C   0  0  0  0  0  0  0  0  0  0  0  0
   -7.0434   26.0447    0.0000 C   0  0  0  0  0  0  0  0  0  0  0  0
   -8.4799   25.6130    0.0000 C   0  0  0  0  0  0  0  0  0  0  0  0
   -9.8902   25.1021    0.0000 C   0  0  0  0  0  0  0  0  0  0  0  0
  -11.2700   24.5137    0.0000 C   0  0  0  0  0  0  0  0  0  0  0  0
  -12.6149   23.8495    0.0000 C   0  0  0  0  0  0  0  0  0  0  0  0
  -13.9208   23.1115    0.0000 C   0  0  0  0  0  0  0  0  0  0  0  0
  -15.1837   22.3022    0.0000 C   0  0  0  0  0  0  0  0  0  0  0  0
  -16.3997   21.4239    0.0000 C   0  0  0  0  0  0  0  0  0  0  0  0
  -17.5650   20.4794    0.0000 C   0  0  0  0  0  0  0  0  0  0  0  0
  -18.6760   19.4715    0.0000 C   0  0  0  0  0  0  0  0  0  0  0  0
  -19.7293   18.4035    0.0000 C   0  0  0  0  0  0  0  0  0  0  0  0
  -20.7215   17.2786    0.0000 C   0  0  0  0  0  0  0  0  0  0  0  0
  -21.6498   16.1003    0.0000 C   0  0  0  0  0  0  0  0  0  0  0  0
  -22.5111   14.8723    0.0000 C   0  0  0  0  0  0  0  0  0  0  0  0
  -23.3028   13.5982    0.0000 C   0  0  0  0  0  0  0  0  0  0  0  0
  -24.0225   12.2822    0.0000 C   0  0  0  0  0  0  0  0  0  0  0  0
  -24.6680   10.9281    0.0000 C   0  0  0  0  0  0  0  0  0  0  0  0
  -25.2372    9.5403    0.0000 C   0  0  0  0  0  0  0  0  0  0  0  0
  -25.7284    8.1230    0.0000 C   0  0  0  0  0  0  0  0  0  0  0  0
  -26.1401    6.6806    0.0000 C   0  0  0  0  0  0  0  0  0  0  0  0
  -26.4709    5.2176    0.0000 C   0  0  0  0  0  0  0  0  0  0  0  0
  -26.7200    3.7384    0.0000 C   0  0  0  0  0  0  0  0  0  0  0  0
  -26.8864    2.2477    0.0000 C   0  0  0  0  0  0  0  0  0  0  0  0
  -26.9698    0.7500    0.0000 C   0  0  0  0  0  0  0  0  0  0  0  0
  -26.9698   -0.7500    0.0000 C   0  0  0  0  0  0  0  0  0  0  0  0
  -26.8864   -2.2477    0.0000 C   0  0  0  0  0  0  0  0  0  0  0  0
  -26.7200   -3.7384    0.0000 C   0  0  0  0  0  0  0  0  0  0  0  0
  -26.4709   -5.2176    0.0000 C   0  0  0  0  0  0  0  0  0  0  0  0
  -26.1401   -6.6806    0.0000 C   0  0  0  0  0  0  0  0  0  0  0  0
  -25.7284   -8.1230    0.0000 C   0  0  0  0  0  0  0  0  0  0  0  0
  -25.2372   -9.5403    0.0000 C   0  0  0  0  0  0  0  0  0  0  0  0
  -24.6680  -10.9281    0.0000 C   0  0  0  0  0  0  0  0  0  0  0  0
  -24.0225  -12.2822    0.0000 C   0  0  0  0  0  0  0  0  0  0  0  0
  -23.3028  -13.5982    0.0000 C   0  0  0  0  0  0  0  0  0  0  0  0
  -22.5111  -14.8723    0.0000 C   0  0  0  0  0  0  0  0  0  0  0  0
  -21.6498  -16.1003    0.0000 C   0  0  0  0  0  0  0  0  0  0  0  0
  -20.7215  -17.2786    0.0000 C   0  0  0  0  0  0  0  0  0  0  0  0
  -19.7293  -18.4035    0.0000 C   0  0  0  0  0  0  0  0  0  0  0  0
  -18.6760  -19.4715    0.0000 C   0  0  0  0  0  0  0  0  0  0  0  0
  -17.5650  -20.4794    0.0000 C   0  0  0  0  0  0  0  0  0  0  0  0
  -16.3997  -21.4239    0.0000 C   0  0  0  0  0  0  0  0  0  0  0  0
  -15.1837  -22.3022    0.0000 C   0  0  0  0  0  0  0  0  0  0  0  0
  -13.9208  -23.1115    0.0000 C   0  0  0  0  0  0  0  0  0  0  0  0
  -12.6149  -23.8495    0.0000 C   0  0  0  0  0  0  0  0  0  0  0  0
  -11.2700  -24.5137    0.0000 C   0  0  0  0  0  0  0  0  0  0  0  0
   -9.8902  -25.1021    0.0000 C   0  0  0  0  0  0  0  0  0  0  0  0
   -8.4799  -25.6130    0.0000 C   0  0  0  0  0  0  0  0  0  0  0  0
   -7.0434  -26.0447    0.0000 C   0  0  0  0  0  0  0  0  0  0  0  0
   -5.5850  -26.3958    0.0000 C   0  0  0  0  0  0  0  0  0  0  0  0
   -4.1095  -26.6654    0.0000 C   0  0  0  0  0  0  0  0  0  0  0  0
   -2.6212  -26.8526    0.0000 C   0  0  0  0  0  0  0  0  0  0  0  0
   -1.1248  -26.9568    0.0000 C   0  0  0  0  0  0  0  0  0  0  0  0
    0.3750  -26.9776    0.0000 C   0  0  0  0  0  0  0  0  0  0  0  0
    1.8737  -26.9151    0.0000 C   0  0  0  0  0  0  0  0  0  0  0  0
    3.3666  -26.7694    0.0000 C   0  0  0  0  0  0  0  0  0  0  0  0
    4.8491  -26.5409    0.0000 C   0  0  0  0  0  0  0  0  0  0  0  0
    6.3166  -26.2304    0.0000 C   0  0  0  0  0  0  0  0  0  0  0  0
    7.7646  -25.8388    0.0000 C   0  0  0  0  0  0  0  0  0  0  0  0
    9.1886  -25.3674    0.0000 C   0  0  0  0  0  0  0  0  0  0  0  0
   10.5842  -24.8175    0.0000 C   0  0  0  0  0  0  0  0  0  0  0  0
   11.9471  -24.1909    0.0000 C   0  0  0  0  0  0  0  0  0  0  0  0
   13.2730  -23.4896    0.0000 C   0  0  0  0  0  0  0  0  0  0  0  0
   14.5579  -22.7156    0.0000 C   0  0  0  0  0  0  0  0  0  0  0  0
   15.7978  -21.8715    0.0000 C   0  0  0  0  0  0  0  0  0  0  0  0
   16.9889  -20.9597    0.0000 C   0  0  0  0  0  0  0  0  0  0  0  0
   18.1275  -19.9832    0.0000 C   0  0  0  0  0  0  0  0  0  0  0  0
   19.2100  -18.9449    0.0000 C   0  0  0  0  0  0  0  0  0  0  0  0
   20.2332  -17.8480    0.0000 C   0  0  0  0  0  0  0  0  0  0  0  0
   21.1938  -16.6959    0.0000 C   0  0  0  0  0  0  0  0  0  0  0  0
   22.0890  -15.4923    0.0000 C   0  0  0  0  0  0  0  0  0  0  0  0
   22.9158  -14.2408    0.0000 C   0  0  0  0  0  0  0  0  0  0  0  0
   23.6718  -12.9452    0.0000 C   0  0  0  0  0  0  0  0  0  0  0  0
   24.3547  -11.6096    0.0000 C   0  0  0  0  0  0  0  0  0  0  0  0
   24.9622  -10.2382    0.0000 C   0  0  0  0  0  0  0  0  0  0  0  0
   25.4926   -8.8351    0.0000 C   0  0  0  0  0  0  0  0  0  0  0  0
   25.9442   -7.4047    0.0000 C   0  0  0  0  0  0  0  0  0  0  0  0
   26.3157   -5.9514    0.0000 C   0  0  0  0  0  0  0  0  0  0  0  0
   26.6057   -4.4797    0.0000 C   0  0  0  0  0  0  0  0  0  0  0  0
   26.8136   -2.9942    0.0000 C   0  0  0  0  0  0  0  0  0  0  0  0
   26.9385   -1.4994    0.0000 C   0  0  0  0  0  0  0  0  0  0  0  0
  1  2  1  0
  2  3  1  0
  3  4  1  0
  4  5  1  0
  5  6  1  0
  6  7  1  0
  7  8  1  0
  8  9  1  0
  9 10  1  0
 10 11  1  0
 11 12  1  0
 12 13  1  0
 13 14  1  0
 14 15  1  0
 15 16  1  0
 16 17  1  0
 17 18  1  0
 18 19  1  0
 19 20  1  0
 20 21  1  0
 21 22  1  0
 22 23  1  0
 23 24  1  0
 24 25  1  0
 25 26  1  0
 26 27  1  0
 27 28  1  0
 28 29  1  0
 29 30  1  0
 30 31  1  0
 31 32  1  0
 32 33  1  0
 33 34  1  0
 34 35  1  0
 35 36  1  0
 36 37  1  0
 37 38  1  0
 38 39  1  0
 39 40  1  0
 40 41  1  0
 41 42  1  0
 42 43  1  0
 43 44  1  0
 44 45  1  0
 45 46  1  0
 46 47  1  0
 47 48  1  0
 48 49  1  0
 49 50  1  0
 50 51  1  0
 51 52  1  0
 52 53  1  0
 53 54  1  0
 54 55  1  0
 55 56  1  0
 56 57  1  0
 57 58  1  0
 58 59  1  0
 59 60  1  0
 60 61  1  0
 61 62  1  0
 62 63  1  0
 63 64  1  0
 64 65  1  0
 65 66  1  0
 66 67  1  0
 67 68  1  0
 68 69  1  0
 69 70  1  0
 70 71  1  0
 71 72  1  0
 72 73  1  0
 73 74  1  0
 74 75  1  0
 75 76  1  0
 76 77  1  0
 77 78  1  0
 78 79  1  0
 79 80  1  0
 80 81  1  0
 81 82  1  0
 82 83  1  0
 83 84  1  0
 84 85  1  0
 85 86  1  0
 86 87  1  0
 87 88  1  0
 88 89  1  0
 89 90  1  0
 90 91  1  0
 91 92  1  0
 92 93  1  0
 93 94  1  0
 94 95  1  0
 95 96  1  0
 96 97  1  0
 97 98  1  0
 98 99  1  0
 99100  1  0
100101  1  0
101102  1  0
102103  1  0
103104  1  0
104105  1  0
105106  1  0
106107  1  0
107108  1  0
108109  1  0
109110  1  0
110111  1  0
111112  1  0
112113  1  0
113114  1  0
114  2  1  0
M  END
>  <Title>  (162) 
idAAELgen7

$$$$

     RDKit          2D

 16 17  0  0  0  0  0  0  0  0999 V2000
   -2.4240   -8.7293    0.0000 C   0  0  0  0  0  0  0  0  0  0  0  0
   -1.0537   -8.1192    0.0000 C   0  0  0  0  0  0  0  0  0  0  0  0
    0.2454   -8.8692    0.0000 C   0  0  0  0  0  0  0  0  0  0  0  0
    1.3601   -7.8655    0.0000 C   0  0  0  0  0  0  0  0  0  0  0  0
    0.7500   -6.4952    0.0000 C   0  0  0  0  0  0  0  0  0  0  0  0
    1.5000   -5.1962    0.0000 N   0  0  0  0  0  0  0  0  0  0  0  0
    0.7500   -3.8971    0.0000 C   0  0  0  0  0  0  0  0  0  0  0  0
   -0.7500   -3.8971    0.0000 O   0  0  0  0  0  0  0  0  0  0  0  0
    1.5000   -2.5981    0.0000 N   0  0  0  0  0  0  0  0  0  0  0  0
    0.7500   -1.2990    0.0000 C   0  0  0  0  0  0  0  0  0  0  0  0
    1.5000    0.0000    0.0000 N   0  0  0  0  0  0  0  0  0  0  0  0
    0.7500    1.2990    0.0000 N   0  0  0  0  0  0  0  0  0  0  0  0
   -0.7500    1.2990    0.0000 N   0  0  0  0  0  0  0  0  0  0  0  0
   -1.5000    0.0000    0.0000 N   0  0  0  0  0  0  0  0  0  0  0  0
   -0.7500   -1.2990    0.0000 N   0  0  0  0  0  0  0  0  0  0  0  0
   -0.7418   -6.6520    0.0000 C   0  0  0  0  0  0  0  0  0  0  0  0
  1  2  1  0
  2  3  1  0
  3  4  1  0
  4  5  1  0
  5  6  1  0
  6  7  1  0
  7  8  2  0
  7  9  1  0
  9 10  1  0
 10 11  2  0
 11 12  1  0
 12 13  2  0
 13 14  1  0
 14 15  2  0
  5 16  1  0
 16  2  1  0
 15 10  1  0
M  END
>  <Title>  (163) 
idAAEMgen7

$$$$

     RDKit          2D

 86 86  0  0  0  0  0  0  0  0999 V2000
   21.7969    0.0000    0.0000 O   0  0  0  0  0  0  0  0  0  0  0  0
   20.2969    0.0000    0.0000 C   0  0  0  0  0  0  0  0  0  0  0  0
   20.2414    1.4990    0.0000 C   0  0  0  0  0  0  0  0  0  0  0  0
   20.0755    2.9898    0.0000 C   0  0  0  0  0  0  0  0  0  0  0  0
   19.7998    4.4642    0.0000 C   0  0  0  0  0  0  0  0  0  0  0  0
   19.4161    5.9143    0.0000 C   0  0  0  0  0  0  0  0  0  0  0  0
   18.9263    7.3321    0.0000 C   0  0  0  0  0  0  0  0  0  0  0  0
   18.3331    8.7098    0.0000 C   0  0  0  0  0  0  0  0  0  0  0  0
   17.6398   10.0400    0.0000 C   0  0  0  0  0  0  0  0  0  0  0  0
   16.8501   11.3153    0.0000 C   0  0  0  0  0  0  0  0  0  0  0  0
   15.9685   12.5288    0.0000 C   0  0  0  0  0  0  0  0  0  0  0  0
   14.9996   13.6739    0.0000 C   0  0  0  0  0  0  0  0  0  0  0  0
   13.9488   14.7443    0.0000 C   0  0  0  0  0  0  0  0  0  0  0  0
   12.8218   15.7342    0.0000 C   0  0  0  0  0  0  0  0  0  0  0  0
   11.6247   16.6382    0.0000 C   0  0  0  0  0  0  0  0  0  0  0  0
   10.3642   17.4513    0.0000 C   0  0  0  0  0  0  0  0  0  0  0  0
    9.0471   18.1690    0.0000 C   0  0  0  0  0  0  0  0  0  0  0  0
    7.6806   18.7876    0.0000 C   0  0  0  0  0  0  0  0  0  0  0  0
    6.2721   19.3035    0.0000 C   0  0  0  0  0  0  0  0  0  0  0  0
    4.8293   19.7140    0.0000 C   0  0  0  0  0  0  0  0  0  0  0  0
    3.3602   20.0168    0.0000 C   0  0  0  0  0  0  0  0  0  0  0  0
    1.8728   20.2103    0.0000 C   0  0  0  0  0  0  0  0  0  0  0  0
    0.3751   20.2934    0.0000 C   0  0  0  0  0  0  0  0  0  0  0  0
   -1.1247   20.2657    0.0000 C   0  0  0  0  0  0  0  0  0  0  0  0
   -2.6183   20.1273    0.0000 C   0  0  0  0  0  0  0  0  0  0  0  0
   -4.0976   19.8790    0.0000 C   0  0  0  0  0  0  0  0  0  0  0  0
   -5.5545   19.5221    0.0000 C   0  0  0  0  0  0  0  0  0  0  0  0
   -6.9811   19.0585    0.0000 C   0  0  0  0  0  0  0  0  0  0  0  0
   -8.3695   18.4909    0.0000 C   0  0  0  0  0  0  0  0  0  0  0  0
   -9.7123   17.8223    0.0000 C   0  0  0  0  0  0  0  0  0  0  0  0
  -11.0020   17.0564    0.0000 C   0  0  0  0  0  0  0  0  0  0  0  0
  -12.2316   16.1973    0.0000 C   0  0  0  0  0  0  0  0  0  0  0  0
  -13.3944   15.2497    0.0000 C   0  0  0  0  0  0  0  0  0  0  0  0
  -14.4841   14.2188    0.0000 C   0  0  0  0  0  0  0  0  0  0  0  0
  -15.4946   13.1103    0.0000 C   0  0  0  0  0  0  0  0  0  0  0  0
  -16.4205   11.9302    0.0000 C   0  0  0  0  0  0  0  0  0  0  0  0
  -17.2568   10.6849    0.0000 C   0  0  0  0  0  0  0  0  0  0  0  0
  -17.9987    9.3813    0.0000 C   0  0  0  0  0  0  0  0  0  0  0  0
  -18.6424    8.0264    0.0000 C   0  0  0  0  0  0  0  0  0  0  0  0
  -19.1843    6.6277    0.0000 C   0  0  0  0  0  0  0  0  0  0  0  0
  -19.6214    5.1928    0.0000 C   0  0  0  0  0  0  0  0  0  0  0  0
  -19.9513    3.7295    0.0000 C   0  0  0  0  0  0  0  0  0  0  0  0
  -20.1722    2.2459    0.0000 C   0  0  0  0  0  0  0  0  0  0  0  0
  -20.2830    0.7500    0.0000 C   0  0  0  0  0  0  0  0  0  0  0  0
  -20.2830   -0.7500    0.0000 C   0  0  0  0  0  0  0  0  0  0  0  0
  -20.1722   -2.2459    0.0000 C   0  0  0  0  0  0  0  0  0  0  0  0
  -19.9513   -3.7295    0.0000 C   0  0  0  0  0  0  0  0  0  0  0  0
  -19.6214   -5.1928    0.0000 C   0  0  0  0  0  0  0  0  0  0  0  0
  -19.1843   -6.6277    0.0000 C   0  0  0  0  0  0  0  0  0  0  0  0
  -18.6424   -8.0264    0.0000 C   0  0  0  0  0  0  0  0  0  0  0  0
  -17.9987   -9.3813    0.0000 C   0  0  0  0  0  0  0  0  0  0  0  0
  -17.2568  -10.6849    0.0000 C   0  0  0  0  0  0  0  0  0  0  0  0
  -16.4205  -11.9302    0.0000 C   0  0  0  0  0  0  0  0  0  0  0  0
  -15.4946  -13.1103    0.0000 C   0  0  0  0  0  0  0  0  0  0  0  0
  -14.4841  -14.2188    0.0000 C   0  0  0  0  0  0  0  0  0  0  0  0
  -13.3944  -15.2497    0.0000 C   0  0  0  0  0  0  0  0  0  0  0  0
  -12.2316  -16.1973    0.0000 C   0  0  0  0  0  0  0  0  0  0  0  0
  -11.0020  -17.0564    0.0000 C   0  0  0  0  0  0  0  0  0  0  0  0
   -9.7123  -17.8223    0.0000 C   0  0  0  0  0  0  0  0  0  0  0  0
   -8.3695  -18.4909    0.0000 C   0  0  0  0  0  0  0  0  0  0  0  0
   -6.9811  -19.0585    0.0000 C   0  0  0  0  0  0  0  0  0  0  0  0
   -5.5545  -19.5221    0.0000 C   0  0  0  0  0  0  0  0  0  0  0  0
   -4.0976  -19.8790    0.0000 C   0  0  0  0  0  0  0  0  0  0  0  0
   -2.6183  -20.1273    0.0000 C   0  0  0  0  0  0  0  0  0  0  0  0
   -1.1247  -20.2657    0.0000 C   0  0  0  0  0  0  0  0  0  0  0  0
    0.3751  -20.2934    0.0000 C   0  0  0  0  0  0  0  0  0  0  0  0
    1.8728  -20.2103    0.0000 C   0  0  0  0  0  0  0  0  0  0  0  0
    3.3602  -20.0168    0.0000 C   0  0  0  0  0  0  0  0  0  0  0  0
    4.8293  -19.7140    0.0000 C   0  0  0  0  0  0  0  0  0  0  0  0
    6.2721  -19.3035    0.0000 C   0  0  0  0  0  0  0  0  0  0  0  0
    7.6806  -18.7876    0.0000 C   0  0  0  0  0  0  0  0  0  0  0  0
    9.0471  -18.1690    0.0000 C   0  0  0  0  0  0  0  0  0  0  0  0
   10.3642  -17.4513    0.0000 C   0  0  0  0  0  0  0  0  0  0  0  0
   11.6247  -16.6382    0.0000 C   0  0  0  0  0  0  0  0  0  0  0  0
   12.8218  -15.7342    0.0000 C   0  0  0  0  0  0  0  0  0  0  0  0
   13.9488  -14.7443    0.0000 C   0  0  0  0  0  0  0  0  0  0  0  0
   14.9996  -13.6739    0.0000 C   0  0  0  0  0  0  0  0  0  0  0  0
   15.9685  -12.5288    0.0000 C   0  0  0  0  0  0  0  0  0  0  0  0
   16.8501  -11.3153    0.0000 C   0  0  0  0  0  0  0  0  0  0  0  0
   17.6398  -10.0400    0.0000 C   0  0  0  0  0  0  0  0  0  0  0  0
   18.3331   -8.7098    0.0000 C   0  0  0  0  0  0  0  0  0  0  0  0
   18.9263   -7.3321    0.0000 C   0  0  0  0  0  0  0  0  0  0  0  0
   19.4161   -5.9143    0.0000 C   0  0  0  0  0  0  0  0  0  0  0  0
   19.7998   -4.4642    0.0000 C   0  0  0  0  0  0  0  0  0  0  0  0
   20.0755   -2.9898    0.0000 C   0  0  0  0  0  0  0  0  0  0  0  0
   20.2414   -1.4990    0.0000 C   0  0  0  0  0  0  0  0  0  0  0  0
  1  2  1  0
  2  3  1  0
  3  4  1  0
  4  5  1  0
  5  6  1  0
  6  7  1  0
  7  8  1  0
  8  9  1  0
  9 10  1  0
 10 11  1  0
 11 12  1  0
 12 13  1  0
 13 14  1  0
 14 15  1  0
 15 16  1  0
 16 17  1  0
 17 18  1  0
 18 19  1  0
 19 20  1  0
 20 21  1  0
 21 22  1  0
 22 23  1  0
 23 24  1  0
 24 25  1  0
 25 26  1  0
 26 27  1  0
 27 28  1  0
 28 29  1  0
 29 30  1  0
 30 31  1  0
 31 32  1  0
 32 33  1  0
 33 34  1  0
 34 35  1  0
 35 36  1  0
 36 37  1  0
 37 38  1  0
 38 39  1  0
 39 40  1  0
 40 41  1  0
 41 42  1  0
 42 43  1  0
 43 44  1  0
 44 45  1  0
 45 46  1  0
 46 47  1  0
 47 48  1  0
 48 49  1  0
 49 50  1  0
 50 51  1  0
 51 52  1  0
 52 53  1  0
 53 54  1  0
 54 55  1  0
 55 56  1  0
 56 57  1  0
 57 58  1  0
 58 59  1  0
 59 60  1  0
 60 61  1  0
 61 62  1  0
 62 63  1  0
 63 64  1  0
 64 65  1  0
 65 66  1  0
 66 67  1  0
 67 68  1  0
 68 69  1  0
 69 70  1  0
 70 71  1  0
 71 72  1  0
 72 73  1  0
 73 74  1  0
 74 75  1  0
 75 76  1  0
 76 77  1  0
 77 78  1  0
 78 79  1  0
 79 80  1  0
 80 81  1  0
 81 82  1  0
 82 83  1  0
 83 84  1  0
 84 85  1  0
 85 86  1  0
 86  2  1  0
M  END
>  <Title>  (164) 
idAAENgen7

$$$$

     RDKit          2D

 88 88  0  0  0  0  0  0  0  0999 V2000
   22.2742   -0.0000    0.0000 C   0  0  0  0  0  0  0  0  0  0  0  0
   20.7742    0.0000    0.0000 C   0  0  0  0  0  0  0  0  0  0  0  0
   20.7201    1.4990    0.0000 C   0  0  0  0  0  0  0  0  0  0  0  0
   20.5579    2.9902    0.0000 C   0  0  0  0  0  0  0  0  0  0  0  0
   20.2885    4.4658    0.0000 C   0  0  0  0  0  0  0  0  0  0  0  0
   19.9134    5.9182    0.0000 C   0  0  0  0  0  0  0  0  0  0  0  0
   19.4345    7.3397    0.0000 C   0  0  0  0  0  0  0  0  0  0  0  0
   18.8542    8.7229    0.0000 C   0  0  0  0  0  0  0  0  0  0  0  0
   18.1756   10.0606    0.0000 C   0  0  0  0  0  0  0  0  0  0  0  0
   17.4023   11.3459    0.0000 C   0  0  0  0  0  0  0  0  0  0  0  0
   16.5382   12.5720    0.0000 C   0  0  0  0  0  0  0  0  0  0  0  0
   15.5879   13.7326    0.0000 C   0  0  0  0  0  0  0  0  0  0  0  0
   14.5564   14.8216    0.0000 C   0  0  0  0  0  0  0  0  0  0  0  0
   13.4490   15.8333    0.0000 C   0  0  0  0  0  0  0  0  0  0  0  0
   12.2714   16.7625    0.0000 C   0  0  0  0  0  0  0  0  0  0  0  0
   11.0299   17.6043    0.0000 C   0  0  0  0  0  0  0  0  0  0  0  0
    9.7308   18.3543    0.0000 C   0  0  0  0  0  0  0  0  0  0  0  0
    8.3811   19.0086    0.0000 C   0  0  0  0  0  0  0  0  0  0  0  0
    6.9876   19.5638    0.0000 C   0  0  0  0  0  0  0  0  0  0  0  0
    5.5577   20.0170    0.0000 C   0  0  0  0  0  0  0  0  0  0  0  0
    4.0988   20.3659    0.0000 C   0  0  0  0  0  0  0  0  0  0  0  0
    2.6186   20.6085    0.0000 C   0  0  0  0  0  0  0  0  0  0  0  0
    1.1247   20.7438    0.0000 C   0  0  0  0  0  0  0  0  0  0  0  0
   -0.3751   20.7708    0.0000 C   0  0  0  0  0  0  0  0  0  0  0  0
   -1.8729   20.6896    0.0000 C   0  0  0  0  0  0  0  0  0  0  0  0
   -3.3609   20.5006    0.0000 C   0  0  0  0  0  0  0  0  0  0  0  0
   -4.8314   20.2046    0.0000 C   0  0  0  0  0  0  0  0  0  0  0  0
   -6.2767   19.8033    0.0000 C   0  0  0  0  0  0  0  0  0  0  0  0
   -7.6893   19.2988    0.0000 C   0  0  0  0  0  0  0  0  0  0  0  0
   -9.0618   18.6936    0.0000 C   0  0  0  0  0  0  0  0  0  0  0  0
  -10.3871   17.9910    0.0000 C   0  0  0  0  0  0  0  0  0  0  0  0
  -11.6582   17.1946    0.0000 C   0  0  0  0  0  0  0  0  0  0  0  0
  -12.8686   16.3086    0.0000 C   0  0  0  0  0  0  0  0  0  0  0  0
  -14.0118   15.3375    0.0000 C   0  0  0  0  0  0  0  0  0  0  0  0
  -15.0820   14.2864    0.0000 C   0  0  0  0  0  0  0  0  0  0  0  0
  -16.0736   13.1609    0.0000 C   0  0  0  0  0  0  0  0  0  0  0  0
  -16.9813   11.9668    0.0000 C   0  0  0  0  0  0  0  0  0  0  0  0
  -17.8006   10.7102    0.0000 C   0  0  0  0  0  0  0  0  0  0  0  0
  -18.5270    9.3979    0.0000 C   0  0  0  0  0  0  0  0  0  0  0  0
  -19.1568    8.0365    0.0000 C   0  0  0  0  0  0  0  0  0  0  0  0
  -19.6868    6.6332    0.0000 C   0  0  0  0  0  0  0  0  0  0  0  0
  -20.1141    5.1954    0.0000 C   0  0  0  0  0  0  0  0  0  0  0  0
  -20.4365    3.7305    0.0000 C   0  0  0  0  0  0  0  0  0  0  0  0
  -20.6525    2.2461    0.0000 C   0  0  0  0  0  0  0  0  0  0  0  0
  -20.7607    0.7500    0.0000 C   0  0  0  0  0  0  0  0  0  0  0  0
  -20.7607   -0.7500    0.0000 C   0  0  0  0  0  0  0  0  0  0  0  0
  -20.6525   -2.2461    0.0000 C   0  0  0  0  0  0  0  0  0  0  0  0
  -20.4365   -3.7305    0.0000 C   0  0  0  0  0  0  0  0  0  0  0  0
  -20.1141   -5.1954    0.0000 C   0  0  0  0  0  0  0  0  0  0  0  0
  -19.6868   -6.6332    0.0000 C   0  0  0  0  0  0  0  0  0  0  0  0
  -19.1568   -8.0365    0.0000 C   0  0  0  0  0  0  0  0  0  0  0  0
  -18.5270   -9.3979    0.0000 C   0  0  0  0  0  0  0  0  0  0  0  0
  -17.8006  -10.7102    0.0000 C   0  0  0  0  0  0  0  0  0  0  0  0
  -16.9813  -11.9668    0.0000 C   0  0  0  0  0  0  0  0  0  0  0  0
  -16.0736  -13.1609    0.0000 C   0  0  0  0  0  0  0  0  0  0  0  0
  -15.0820  -14.2864    0.0000 C   0  0  0  0  0  0  0  0  0  0  0  0
  -14.0118  -15.3375    0.0000 C   0  0  0  0  0  0  0  0  0  0  0  0
  -12.8686  -16.3086    0.0000 C   0  0  0  0  0  0  0  0  0  0  0  0
  -11.6582  -17.1946    0.0000 C   0  0  0  0  0  0  0  0  0  0  0  0
  -10.3871  -17.9910    0.0000 C   0  0  0  0  0  0  0  0  0  0  0  0
   -9.0618  -18.6936    0.0000 C   0  0  0  0  0  0  0  0  0  0  0  0
   -7.6893  -19.2988    0.0000 C   0  0  0  0  0  0  0  0  0  0  0  0
   -6.2767  -19.8033    0.0000 C   0  0  0  0  0  0  0  0  0  0  0  0
   -4.8314  -20.2046    0.0000 C   0  0  0  0  0  0  0  0  0  0  0  0
   -3.3609  -20.5006    0.0000 C   0  0  0  0  0  0  0  0  0  0  0  0
   -1.8729  -20.6896    0.0000 C   0  0  0  0  0  0  0  0  0  0  0  0
   -0.3751  -20.7708    0.0000 C   0  0  0  0  0  0  0  0  0  0  0  0
    1.1247  -20.7438    0.0000 C   0  0  0  0  0  0  0  0  0  0  0  0
    2.6186  -20.6085    0.0000 C   0  0  0  0  0  0  0  0  0  0  0  0
    4.0988  -20.3659    0.0000 C   0  0  0  0  0  0  0  0  0  0  0  0
    5.5577  -20.0170    0.0000 C   0  0  0  0  0  0  0  0  0  0  0  0
    6.9876  -19.5638    0.0000 C   0  0  0  0  0  0  0  0  0  0  0  0
    8.3811  -19.0086    0.0000 C   0  0  0  0  0  0  0  0  0  0  0  0
    9.7308  -18.3543    0.0000 C   0  0  0  0  0  0  0  0  0  0  0  0
   11.0299  -17.6043    0.0000 C   0  0  0  0  0  0  0  0  0  0  0  0
   12.2714  -16.7625    0.0000 C   0  0  0  0  0  0  0  0  0  0  0  0
   13.4490  -15.8333    0.0000 C   0  0  0  0  0  0  0  0  0  0  0  0
   14.5564  -14.8216    0.0000 C   0  0  0  0  0  0  0  0  0  0  0  0
   15.5879  -13.7326    0.0000 C   0  0  0  0  0  0  0  0  0  0  0  0
   16.5382  -12.5720    0.0000 C   0  0  0  0  0  0  0  0  0  0  0  0
   17.4023  -11.3459    0.0000 C   0  0  0  0  0  0  0  0  0  0  0  0
   18.1756  -10.0606    0.0000 C   0  0  0  0  0  0  0  0  0  0  0  0
   18.8542   -8.7229    0.0000 C   0  0  0  0  0  0  0  0  0  0  0  0
   19.4345   -7.3397    0.0000 C   0  0  0  0  0  0  0  0  0  0  0  0
   19.9134   -5.9182    0.0000 C   0  0  0  0  0  0  0  0  0  0  0  0
   20.2885   -4.4658    0.0000 C   0  0  0  0  0  0  0  0  0  0  0  0
   20.5579   -2.9902    0.0000 C   0  0  0  0  0  0  0  0  0  0  0  0
   20.7201   -1.4990    0.0000 C   0  0  0  0  0  0  0  0  0  0  0  0
  1  2  1  0
  2  3  1  0
  3  4  1  0
  4  5  2  0
  5  6  1  0
  6  7  2  0
  7  8  1  0
  8  9  2  0
  9 10  1  0
 10 11  2  0
 11 12  1  0
 12 13  2  0
 13 14  1  0
 14 15  2  0
 15 16  1  0
 16 17  2  0
 17 18  1  0
 18 19  1  0
 19 20  1  0
 20 21  1  0
 21 22  1  0
 22 23  1  0
 23 24  1  0
 24 25  1  0
 25 26  1  0
 26 27  1  0
 27 28  1  0
 28 29  1  0
 29 30  1  0
 30 31  1  0
 31 32  1  0
 32 33  1  0
 33 34  1  0
 34 35  1  0
 35 36  1  0
 36 37  1  0
 37 38  1  0
 38 39  1  0
 39 40  1  0
 40 41  1  0
 41 42  1  0
 42 43  1  0
 43 44  1  0
 44 45  1  0
 45 46  1  0
 46 47  1  0
 47 48  1  0
 48 49  1  0
 49 50  1  0
 50 51  1  0
 51 52  1  0
 52 53  1  0
 53 54  1  0
 54 55  1  0
 55 56  1  0
 56 57  1  0
 57 58  1  0
 58 59  1  0
 59 60  1  0
 60 61  1  0
 61 62  1  0
 62 63  1  0
 63 64  1  0
 64 65  1  0
 65 66  1  0
 66 67  1  0
 67 68  1  0
 68 69  1  0
 69 70  1  0
 70 71  1  0
 71 72  1  0
 72 73  1  0
 73 74  1  0
 74 75  1  0
 75 76  1  0
 76 77  1  0
 77 78  1  0
 78 79  1  0
 79 80  1  0
 80 81  1  0
 81 82  1  0
 82 83  1  0
 83 84  1  0
 84 85  1  0
 85 86  1  0
 86 87  1  0
 87 88  1  0
 88  2  1  0
M  END
>  <Title>  (165) 
idAAEOgen7

$$$$

     RDKit          2D

  7  7  0  0  0  0  0  0  0  0999 V2000
    1.7286    0.0000    0.0000 C   0  0  0  0  0  0  0  0  0  0  0  0
    1.0777    1.3515    0.0000 C   0  0  0  0  0  0  0  0  0  0  0  0
   -0.3846    1.6852    0.0000 C   0  0  0  0  0  0  0  0  0  0  0  0
   -1.5574    0.7500    0.0000 C   0  0  0  0  0  0  0  0  0  0  0  0
   -1.5574   -0.7500    0.0000 C   0  0  0  0  0  0  0  0  0  0  0  0
   -0.3846   -1.6852    0.0000 C   0  0  0  0  0  0  0  0  0  0  0  0
    1.0777   -1.3515    0.0000 C   0  0  0  0  0  0  0  0  0  0  0  0
  1  2  1  0
  2  3  1  0
  3  4  1  0
  4  5  1  0
  5  6  1  0
  6  7  1  0
  7  1  1  0
M  END
>  <Title>  (166) 
idAAEPgen7

$$$$

     RDKit          2D

  5  5  0  0  0  0  0  0  0  0999 V2000
    1.2760    0.0000    0.0000 C   0  0  0  0  0  0  0  0  0  0  0  0
    0.3943    1.2135    0.0000 C   0  0  0  0  0  0  0  0  0  0  0  0
   -1.0323    0.7500    0.0000 C   0  0  0  0  0  0  0  0  0  0  0  0
   -1.0323   -0.7500    0.0000 C   0  0  0  0  0  0  0  0  0  0  0  0
    0.3943   -1.2135    0.0000 C   0  0  0  0  0  0  0  0  0  0  0  0
  1  2  2  0
  2  3  1  0
  3  4  1  0
  4  5  1  0
  5  1  1  0
M  END
>  <Title>  (167) 
idAAEQgen7

$$$$

     RDKit          2D

  6  6  0  0  0  0  0  0  0  0999 V2000
    2.7760    0.0000    0.0000 C   0  0  0  0  0  0  0  0  0  0  0  0
    1.2760    0.0000    0.0000 C   0  0  0  0  0  0  0  0  0  0  0  0
    0.3943    1.2135    0.0000 C   0  0  0  0  0  0  0  0  0  0  0  0
   -1.0323    0.7500    0.0000 C   0  0  0  0  0  0  0  0  0  0  0  0
   -1.0323   -0.7500    0.0000 C   0  0  0  0  0  0  0  0  0  0  0  0
    0.3943   -1.2135    0.0000 C   0  0  0  0  0  0  0  0  0  0  0  0
  1  2  1  0
  2  3  2  0
  3  4  1  0
  4  5  2  0
  5  6  1  0
  6  2  1  0
M  END
>  <Title>  (168) 
idAAERgen7

$$$$

     RDKit          2D

 86 87  0  0  0  0  0  0  0  0999 V2000
   16.9961    6.7526    0.0000 C   0  0  0  0  0  0  0  0  0  0  0  0
   17.9872    5.6266    0.0000 C   0  0  0  0  0  0  0  0  0  0  0  0
   19.2848    6.3790    0.0000 C   0  0  0  0  0  0  0  0  0  0  0  0
   20.7716    6.5776    0.0000 C   0  0  0  0  0  0  0  0  0  0  0  0
   22.2212    6.1920    0.0000 C   0  0  0  0  0  0  0  0  0  0  0  0
   23.4129    5.2811    0.0000 C   0  0  0  0  0  0  0  0  0  0  0  0
   24.1653    3.9834    0.0000 C   0  0  0  0  0  0  0  0  0  0  0  0
   24.3639    2.4966    0.0000 C   0  0  0  0  0  0  0  0  0  0  0  0
   23.9783    1.0470    0.0000 C   0  0  0  0  0  0  0  0  0  0  0  0
   23.0673   -0.1447    0.0000 C   0  0  0  0  0  0  0  0  0  0  0  0
   21.7697   -0.8971    0.0000 C   0  0  0  0  0  0  0  0  0  0  0  0
   20.2829   -1.0956    0.0000 C   0  0  0  0  0  0  0  0  0  0  0  0
   18.8333   -0.7101    0.0000 C   0  0  0  0  0  0  0  0  0  0  0  0
   17.6416    0.2009    0.0000 C   0  0  0  0  0  0  0  0  0  0  0  0
   16.8892    1.4985    0.0000 C   0  0  0  0  0  0  0  0  0  0  0  0
   16.9555    0.0000    0.0000 C   0  0  0  0  0  0  0  0  0  0  0  0
   16.8892   -1.4985    0.0000 C   0  0  0  0  0  0  0  0  0  0  0  0
   16.6907   -2.9853    0.0000 C   0  0  0  0  0  0  0  0  0  0  0  0
   16.3615   -4.4488    0.0000 C   0  0  0  0  0  0  0  0  0  0  0  0
   15.9043   -5.8774    0.0000 C   0  0  0  0  0  0  0  0  0  0  0  0
   15.3226   -7.2600    0.0000 C   0  0  0  0  0  0  0  0  0  0  0  0
   14.6210   -8.5858    0.0000 C   0  0  0  0  0  0  0  0  0  0  0  0
   13.8050   -9.8444    0.0000 C   0  0  0  0  0  0  0  0  0  0  0  0
   12.8809  -11.0260    0.0000 C   0  0  0  0  0  0  0  0  0  0  0  0
   11.8560  -12.1213    0.0000 C   0  0  0  0  0  0  0  0  0  0  0  0
   10.7383  -13.1217    0.0000 C   0  0  0  0  0  0  0  0  0  0  0  0
    9.5366  -14.0194    0.0000 C   0  0  0  0  0  0  0  0  0  0  0  0
    8.2603  -14.8074    0.0000 C   0  0  0  0  0  0  0  0  0  0  0  0
    6.9193  -15.4795    0.0000 C   0  0  0  0  0  0  0  0  0  0  0  0
    5.5241  -16.0304    0.0000 C   0  0  0  0  0  0  0  0  0  0  0  0
    4.0857  -16.4559    0.0000 C   0  0  0  0  0  0  0  0  0  0  0  0
    2.6154  -16.7526    0.0000 C   0  0  0  0  0  0  0  0  0  0  0  0
    1.1245  -16.9182    0.0000 C   0  0  0  0  0  0  0  0  0  0  0  0
   -0.3751  -16.9514    0.0000 C   0  0  0  0  0  0  0  0  0  0  0  0
   -1.8718  -16.8519    0.0000 C   0  0  0  0  0  0  0  0  0  0  0  0
   -3.3538  -16.6205    0.0000 C   0  0  0  0  0  0  0  0  0  0  0  0
   -4.8096  -16.2591    0.0000 C   0  0  0  0  0  0  0  0  0  0  0  0
   -6.2278  -15.7704    0.0000 C   0  0  0  0  0  0  0  0  0  0  0  0
   -7.5972  -15.1582    0.0000 C   0  0  0  0  0  0  0  0  0  0  0  0
   -8.9072  -14.4275    0.0000 C   0  0  0  0  0  0  0  0  0  0  0  0
  -10.1474  -13.5838    0.0000 C   0  0  0  0  0  0  0  0  0  0  0  0
  -11.3082  -12.6338    0.0000 C   0  0  0  0  0  0  0  0  0  0  0  0
  -12.3806  -11.5850    0.0000 C   0  0  0  0  0  0  0  0  0  0  0  0
  -13.3560  -10.4454    0.0000 C   0  0  0  0  0  0  0  0  0  0  0  0
  -14.2269   -9.2242    0.0000 C   0  0  0  0  0  0  0  0  0  0  0  0
  -14.9865   -7.9307    0.0000 C   0  0  0  0  0  0  0  0  0  0  0  0
  -15.6287   -6.5751    0.0000 C   0  0  0  0  0  0  0  0  0  0  0  0
  -16.1487   -5.1681    0.0000 C   0  0  0  0  0  0  0  0  0  0  0  0
  -16.5423   -3.7207    0.0000 C   0  0  0  0  0  0  0  0  0  0  0  0
  -16.8064   -2.2441    0.0000 C   0  0  0  0  0  0  0  0  0  0  0  0
  -16.9389   -0.7500    0.0000 C   0  0  0  0  0  0  0  0  0  0  0  0
  -16.9389    0.7500    0.0000 C   0  0  0  0  0  0  0  0  0  0  0  0
  -16.8064    2.2441    0.0000 C   0  0  0  0  0  0  0  0  0  0  0  0
  -16.5423    3.7207    0.0000 C   0  0  0  0  0  0  0  0  0  0  0  0
  -16.1487    5.1681    0.0000 C   0  0  0  0  0  0  0  0  0  0  0  0
  -15.6287    6.5751    0.0000 C   0  0  0  0  0  0  0  0  0  0  0  0
  -14.9865    7.9307    0.0000 C   0  0  0  0  0  0  0  0  0  0  0  0
  -14.2269    9.2242    0.0000 C   0  0  0  0  0  0  0  0  0  0  0  0
  -13.3560   10.4454    0.0000 C   0  0  0  0  0  0  0  0  0  0  0  0
  -12.3806   11.5850    0.0000 C   0  0  0  0  0  0  0  0  0  0  0  0
  -11.3082   12.6338    0.0000 C   0  0  0  0  0  0  0  0  0  0  0  0
  -10.1474   13.5838    0.0000 C   0  0  0  0  0  0  0  0  0  0  0  0
   -8.9072   14.4275    0.0000 C   0  0  0  0  0  0  0  0  0  0  0  0
   -7.5972   15.1582    0.0000 C   0  0  0  0  0  0  0  0  0  0  0  0
   -6.2278   15.7704    0.0000 C   0  0  0  0  0  0  0  0  0  0  0  0
   -4.8096   16.2591    0.0000 C   0  0  0  0  0  0  0  0  0  0  0  0
   -3.3538   16.6205    0.0000 C   0  0  0  0  0  0  0  0  0  0  0  0
   -1.8718   16.8519    0.0000 C   0  0  0  0  0  0  0  0  0  0  0  0
   -0.3751   16.9514    0.0000 C   0  0  0  0  0  0  0  0  0  0  0  0
    1.1245   16.9182    0.0000 C   0  0  0  0  0  0  0  0  0  0  0  0
    2.6154   16.7526    0.0000 C   0  0  0  0  0  0  0  0  0  0  0  0
    4.0857   16.4559    0.0000 C   0  0  0  0  0  0  0  0  0  0  0  0
    5.5241   16.0304    0.0000 C   0  0  0  0  0  0  0  0  0  0  0  0
    6.9193   15.4795    0.0000 C   0  0  0  0  0  0  0  0  0  0  0  0
    8.2603   14.8074    0.0000 C   0  0  0  0  0  0  0  0  0  0  0  0
    9.5366   14.0194    0.0000 C   0  0  0  0  0  0  0  0  0  0  0  0
   10.7383   13.1217    0.0000 C   0  0  0  0  0  0  0  0  0  0  0  0
   11.8560   12.1213    0.0000 C   0  0  0  0  0  0  0  0  0  0  0  0
   12.8809   11.0260    0.0000 C   0  0  0  0  0  0  0  0  0  0  0  0
   13.8050    9.8444    0.0000 C   0  0  0  0  0  0  0  0  0  0  0  0
   14.6210    8.5858    0.0000 C   0  0  0  0  0  0  0  0  0  0  0  0
   15.3226    7.2600    0.0000 C   0  0  0  0  0  0  0  0  0  0  0  0
   15.9043    5.8774    0.0000 C   0  0  0  0  0  0  0  0  0  0  0  0
   16.3615    4.4488    0.0000 C   0  0  0  0  0  0  0  0  0  0  0  0
   16.6907    2.9853    0.0000 C   0  0  0  0  0  0  0  0  0  0  0  0
   17.0762    4.4349    0.0000 C   0  0  0  0  0  0  0  0  0  0  0  0
  1  2  1  0
  2  3  1  0
  3  4  1  0
  4  5  1  0
  5  6  1  0
  6  7  1  0
  7  8  1  0
  8  9  1  0
  9 10  1  0
 10 11  1  0
 11 12  1  0
 12 13  1  0
 13 14  1  0
 14 15  1  0
 15 16  1  0
 16 17  1  0
 17 18  1  0
 18 19  1  0
 19 20  1  0
 20 21  1  0
 21 22  1  0
 22 23  1  0
 23 24  1  0
 24 25  1  0
 25 26  1  0
 26 27  1  0
 27 28  1  0
 28 29  1  0
 29 30  1  0
 30 31  1  0
 31 32  1  0
 32 33  1  0
 33 34  1  0
 34 35  1  0
 35 36  1  0
 36 37  1  0
 37 38  1  0
 38 39  1  0
 39 40  1  0
 40 41  1  0
 41 42  1  0
 42 43  1  0
 43 44  1  0
 44 45  1  0
 45 46  1  0
 46 47  1  0
 47 48  1  0
 48 49  2  0
 49 50  1  0
 50 51  2  0
 51 52  1  0
 52 53  2  0
 53 54  1  0
 54 55  2  0
 55 56  1  0
 56 57  2  0
 57 58  1  0
 58 59  2  0
 59 60  1  0
 60 61  2  0
 61 62  1  0
 62 63  2  0
 63 64  1  0
 64 65  2  0
 65 66  1  0
 66 67  2  0
 67 68  1  0
 68 69  2  0
 69 70  1  0
 70 71  2  0
 71 72  1  0
 72 73  2  0
 73 74  1  0
 74 75  2  0
 75 76  1  0
 76 77  2  0
 77 78  1  0
 78 79  2  0
 79 80  1  0
 80 81  2  0
 81 82  1  0
 82 83  2  0
 83 84  1  0
 84 85  2  0
 85 86  1  0
 86  2  1  0
 85 15  1  0
M  END
>  <Title>  (169) 
idAAESgen7

$$$$

     RDKit          2D

 11 12  0  0  0  0  0  0  0  0999 V2000
   -1.5000   -5.1962    0.0000 O   0  0  0  0  0  0  0  0  0  0  0  0
   -0.7500   -3.8971    0.0000 C   0  0  0  0  0  0  0  0  0  0  0  0
    0.7500   -3.8971    0.0000 C   0  0  0  0  0  0  0  0  0  0  0  0
    1.5000   -2.5981    0.0000 C   0  0  0  0  0  0  0  0  0  0  0  0
    0.7500   -1.2990    0.0000 C   0  0  0  0  0  0  0  0  0  0  0  0
    1.5000    0.0000    0.0000 C   0  0  0  0  0  0  0  0  0  0  0  0
    0.7500    1.2990    0.0000 C   0  0  0  0  0  0  0  0  0  0  0  0
   -0.7500    1.2990    0.0000 C   0  0  0  0  0  0  0  0  0  0  0  0
   -1.5000    0.0000    0.0000 C   0  0  0  0  0  0  0  0  0  0  0  0
   -0.7500   -1.2990    0.0000 C   0  0  0  0  0  0  0  0  0  0  0  0
   -1.5000   -2.5981    0.0000 C   0  0  0  0  0  0  0  0  0  0  0  0
  1  2  1  0
  2  3  1  0
  3  4  1  0
  4  5  1  0
  5  6  2  0
  6  7  1  0
  7  8  2  0
  8  9  1  0
  9 10  2  0
 10 11  1  0
 11  2  1  0
 10  5  1  0
M  END
>  <Title>  (170) 
idAAETgen7

$$$$

     RDKit          2D

 21 23  0  0  0  0  0  0  0  0999 V2000
   -3.1476   -2.1380    0.0000 C   0  0  0  0  0  0  0  0  0  0  0  0
   -1.6852   -2.4718    0.0000 C   0  0  0  0  0  0  0  0  0  0  0  0
   -1.3515   -3.9342    0.0000 C   0  0  0  0  0  0  0  0  0  0  0  0
   -0.0000   -4.5850    0.0000 C   0  0  0  0  0  0  0  0  0  0  0  0
    1.3515   -3.9342    0.0000 C   0  0  0  0  0  0  0  0  0  0  0  0
    1.6852   -2.4718    0.0000 C   0  0  0  0  0  0  0  0  0  0  0  0
    3.1476   -2.1380    0.0000 C   0  0  0  0  0  0  0  0  0  0  0  0
    3.5898   -0.7046    0.0000 O   0  0  0  0  0  0  0  0  0  0  0  0
    4.1679   -3.2376    0.0000 N   0  0  0  0  0  0  0  0  0  0  0  0
    5.6303   -2.9038    0.0000 C   0  0  0  0  0  0  0  0  0  0  0  0
    6.6505   -4.0034    0.0000 N   0  0  0  0  0  0  0  0  0  0  0  0
    8.1129   -3.6696    0.0000 N   0  0  0  0  0  0  0  0  0  0  0  0
    8.5551   -2.2362    0.0000 N   0  0  0  0  0  0  0  0  0  0  0  0
    7.5348   -1.1367    0.0000 N   0  0  0  0  0  0  0  0  0  0  0  0
    6.0724   -1.4704    0.0000 N   0  0  0  0  0  0  0  0  0  0  0  0
    0.7500   -1.2990    0.0000 C   0  0  0  0  0  0  0  0  0  0  0  0
    1.5000    0.0000    0.0000 C   0  0  0  0  0  0  0  0  0  0  0  0
    0.7500    1.2990    0.0000 C   0  0  0  0  0  0  0  0  0  0  0  0
   -0.7500    1.2990    0.0000 C   0  0  0  0  0  0  0  0  0  0  0  0
   -1.5000    0.0000    0.0000 C   0  0  0  0  0  0  0  0  0  0  0  0
   -0.7500   -1.2990    0.0000 C   0  0  0  0  0  0  0  0  0  0  0  0
  1  2  1  0
  2  3  2  0
  3  4  1  0
  4  5  1  0
  5  6  1  0
  6  7  1  0
  7  8  2  0
  7  9  1  0
  9 10  1  0
 10 11  2  0
 11 12  1  0
 12 13  2  0
 13 14  1  0
 14 15  2  0
  6 16  1  0
 16 17  2  0
 17 18  1  0
 18 19  2  0
 19 20  1  0
 20 21  2  0
 21  2  1  0
 15 10  1  0
 21 16  1  0
M  END
>  <Title>  (171) 
idAAEUgen7

$$$$

     RDKit          2D

 50 57  0  0  0  0  0  0  0  0999 V2000
    5.2417   -6.1122    0.0000 C   0  0  0  0  0  0  0  0  0  0  0  0
    3.7705   -5.8195    0.0000 C   0  0  0  0  0  0  0  0  0  0  0  0
    3.7705   -4.3195    0.0000 C   0  0  0  0  0  0  0  0  0  0  0  0
    3.1965   -2.9337    0.0000 C   0  0  0  0  0  0  0  0  0  0  0  0
    2.1358   -1.8731    0.0000 C   0  0  0  0  0  0  0  0  0  0  0  0
    2.9692   -0.6259    0.0000 C   0  0  0  0  0  0  0  0  0  0  0  0
    2.3057    0.7195    0.0000 O   0  0  0  0  0  0  0  0  0  0  0  0
    4.4660   -0.7240    0.0000 N   0  0  0  0  0  0  0  0  0  0  0  0
    5.2993    0.5232    0.0000 C   0  0  0  0  0  0  0  0  0  0  0  0
    6.7961    0.4251    0.0000 N   0  0  0  0  0  0  0  0  0  0  0  0
    7.6295    1.6723    0.0000 N   0  0  0  0  0  0  0  0  0  0  0  0
    6.9660    3.0176    0.0000 N   0  0  0  0  0  0  0  0  0  0  0  0
    5.4692    3.1158    0.0000 N   0  0  0  0  0  0  0  0  0  0  0  0
    4.6359    1.8686    0.0000 N   0  0  0  0  0  0  0  0  0  0  0  0
    0.7500   -1.2990    0.0000 C   0  0  0  0  0  0  0  0  0  0  0  0
    1.5000    0.0000    0.0000 C   0  0  0  0  0  0  0  0  0  0  0  0
    0.7500    1.2990    0.0000 C   0  0  0  0  0  0  0  0  0  0  0  0
   -0.7500    1.2990    0.0000 C   0  0  0  0  0  0  0  0  0  0  0  0
   -1.5000    0.0000    0.0000 C   0  0  0  0  0  0  0  0  0  0  0  0
   -0.7500   -1.2990    0.0000 C   0  0  0  0  0  0  0  0  0  0  0  0
   -2.1358   -1.8731    0.0000 C   0  0  0  0  0  0  0  0  0  0  0  0
   -2.5240   -0.4242    0.0000 C   0  0  0  0  0  0  0  0  0  0  0  0
   -3.9729   -0.0359    0.0000 C   0  0  0  0  0  0  0  0  0  0  0  0
   -5.0336   -1.0966    0.0000 C   0  0  0  0  0  0  0  0  0  0  0  0
   -4.6454   -2.5455    0.0000 C   0  0  0  0  0  0  0  0  0  0  0  0
   -3.1965   -2.9337    0.0000 C   0  0  0  0  0  0  0  0  0  0  0  0
   -3.7705   -4.3195    0.0000 C   0  0  0  0  0  0  0  0  0  0  0  0
   -5.0695   -3.5695    0.0000 C   0  0  0  0  0  0  0  0  0  0  0  0
   -6.3686   -4.3195    0.0000 C   0  0  0  0  0  0  0  0  0  0  0  0
   -6.3686   -5.8195    0.0000 C   0  0  0  0  0  0  0  0  0  0  0  0
   -5.0695   -6.5695    0.0000 C   0  0  0  0  0  0  0  0  0  0  0  0
   -3.7705   -5.8195    0.0000 C   0  0  0  0  0  0  0  0  0  0  0  0
   -3.1965   -7.2054    0.0000 C   0  0  0  0  0  0  0  0  0  0  0  0
   -4.6454   -7.5936    0.0000 C   0  0  0  0  0  0  0  0  0  0  0  0
   -5.0336   -9.0425    0.0000 C   0  0  0  0  0  0  0  0  0  0  0  0
   -3.9729  -10.1031    0.0000 C   0  0  0  0  0  0  0  0  0  0  0  0
   -2.5240   -9.7149    0.0000 C   0  0  0  0  0  0  0  0  0  0  0  0
   -2.1358   -8.2660    0.0000 C   0  0  0  0  0  0  0  0  0  0  0  0
   -0.7500   -8.8400    0.0000 C   0  0  0  0  0  0  0  0  0  0  0  0
   -1.5000  -10.1391    0.0000 C   0  0  0  0  0  0  0  0  0  0  0  0
   -0.7500  -11.4381    0.0000 C   0  0  0  0  0  0  0  0  0  0  0  0
    0.7500  -11.4381    0.0000 C   0  0  0  0  0  0  0  0  0  0  0  0
    1.5000  -10.1391    0.0000 C   0  0  0  0  0  0  0  0  0  0  0  0
    0.7500   -8.8400    0.0000 C   0  0  0  0  0  0  0  0  0  0  0  0
    2.1358   -8.2660    0.0000 C   0  0  0  0  0  0  0  0  0  0  0  0
    2.5240   -9.7149    0.0000 C   0  0  0  0  0  0  0  0  0  0  0  0
    3.9729  -10.1031    0.0000 C   0  0  0  0  0  0  0  0  0  0  0  0
    5.0336   -9.0425    0.0000 C   0  0  0  0  0  0  0  0  0  0  0  0
    4.6454   -7.5936    0.0000 C   0  0  0  0  0  0  0  0  0  0  0  0
    3.1965   -7.2054    0.0000 C   0  0  0  0  0  0  0  0  0  0  0  0
  1  2  1  0
  2  3  1  0
  3  4  1  0
  4  5  1  0
  5  6  1  0
  6  7  2  0
  6  8  1  0
  8  9  1  0
  9 10  2  0
 10 11  1  0
 11 12  2  0
 12 13  1  0
 13 14  2  0
  5 15  1  0
 15 16  2  0
 16 17  1  0
 17 18  2  0
 18 19  1  0
 19 20  2  0
 20 21  1  0
 21 22  2  0
 22 23  1  0
 23 24  2  0
 24 25  1  0
 25 26  2  0
 26 27  1  0
 27 28  2  0
 28 29  1  0
 29 30  2  0
 30 31  1  0
 31 32  2  0
 32 33  1  0
 33 34  2  0
 34 35  1  0
 35 36  2  0
 36 37  1  0
 37 38  2  0
 38 39  1  0
 39 40  2  0
 40 41  1  0
 41 42  2  0
 42 43  1  0
 43 44  2  0
 44 45  1  0
 45 46  2  0
 46 47  1  0
 47 48  2  0
 48 49  1  0
 49 50  2  0
 50  2  1  0
 14  9  1  0
 20 15  1  0
 26 21  1  0
 32 27  1  0
 38 33  1  0
 44 39  1  0
 50 45  1  0
M  END
>  <Title>  (172) 
idAAEVgen7

$$$$

     RDKit          2D

  8  8  0  0  0  0  0  0  0  0999 V2000
    7.0607    0.0000    0.0000 C   0  0  0  0  0  0  0  0  0  0  0  0
    5.5607    0.0000    0.0000 C   0  0  0  0  0  0  0  0  0  0  0  0
    4.0607    0.0000    0.0000 C   0  0  0  0  0  0  0  0  0  0  0  0
    2.5607    0.0000    0.0000 C   0  0  0  0  0  0  0  0  0  0  0  0
    1.0607    0.0000    0.0000 C   0  0  0  0  0  0  0  0  0  0  0  0
   -0.0000   -1.0607    0.0000 C   0  0  0  0  0  0  0  0  0  0  0  0
   -1.0607    0.0000    0.0000 C   0  0  0  0  0  0  0  0  0  0  0  0
    0.0000    1.0607    0.0000 C   0  0  0  0  0  0  0  0  0  0  0  0
  1  2  3  0
  2  3  1  0
  3  4  3  0
  4  5  1  0
  5  6  1  0
  6  7  2  0
  7  8  1  0
  8  5  1  0
M  END
>  <Title>  (173) 
idAAEWgen7

$$$$

     RDKit          2D

 14 14  0  0  0  0  0  0  0  0999 V2000
    2.7760    2.5981    0.0000 N   0  0  0  0  0  0  0  0  0  0  0  0
    3.5260    1.2990    0.0000 C   0  0  0  0  0  0  0  0  0  0  0  0
    5.0260    1.2990    0.0000 N   0  0  0  0  0  0  0  0  0  0  0  0
    2.7760    0.0000    0.0000 C   0  0  0  0  0  0  0  0  0  0  0  0
    3.5260   -1.2990    0.0000 O   0  0  0  0  0  0  0  0  0  0  0  0
    1.2760    0.0000    0.0000 N   0  0  0  0  0  0  0  0  0  0  0  0
    0.3943    1.2135    0.0000 C   0  0  0  0  0  0  0  0  0  0  0  0
   -1.0323    0.7500    0.0000 C   0  0  0  0  0  0  0  0  0  0  0  0
   -1.0323   -0.7500    0.0000 C   0  0  0  0  0  0  0  0  0  0  0  0
   -2.2458   -1.6317    0.0000 C   0  0  0  0  0  0  0  0  0  0  0  0
   -2.0890   -3.1235    0.0000 O   0  0  0  0  0  0  0  0  0  0  0  0
   -3.6161   -1.0216    0.0000 O   0  0  0  0  0  0  0  0  0  0  0  0
    0.3943   -1.2135    0.0000 C   0  0  0  0  0  0  0  0  0  0  0  0
    0.8578   -2.6401    0.0000 O   0  0  0  0  0  0  0  0  0  0  0  0
  1  2  2  0
  2  3  1  0
  2  4  1  0
  4  5  2  0
  4  6  1  0
  6  7  1  0
  7  8  1  0
  8  9  1  0
  9 10  1  0
 10 11  2  0
 10 12  1  0
  9 13  1  0
 13 14  2  0
 13  6  1  0
M  END
>  <Title>  (174) 
idAAEXgen7

$$$$

     RDKit          2D

 10 10  0  0  0  0  0  0  0  0999 V2000
    3.9786   -1.2990    0.0000 C   0  0  0  0  0  0  0  0  0  0  0  0
    3.2286   -0.0000    0.0000 O   0  0  0  0  0  0  0  0  0  0  0  0
    1.7286    0.0000    0.0000 C   0  0  0  0  0  0  0  0  0  0  0  0
    1.0777    1.3515    0.0000 C   0  0  0  0  0  0  0  0  0  0  0  0
   -0.3846    1.6852    0.0000 C   0  0  0  0  0  0  0  0  0  0  0  0
   -1.5574    0.7500    0.0000 C   0  0  0  0  0  0  0  0  0  0  0  0
   -1.5574   -0.7500    0.0000 C   0  0  0  0  0  0  0  0  0  0  0  0
   -2.9088   -1.4008    0.0000 C   0  0  0  0  0  0  0  0  0  0  0  0
   -0.3846   -1.6852    0.0000 C   0  0  0  0  0  0  0  0  0  0  0  0
    1.0777   -1.3515    0.0000 C   0  0  0  0  0  0  0  0  0  0  0  0
  1  2  1  0
  2  3  1  0
  3  4  1  0
  4  5  1  0
  5  6  1  0
  6  7  2  0
  7  8  1  0
  7  9  1  0
  9 10  1  0
 10  3  1  0
M  END
>  <Title>  (175) 
idAAEYgen7

$$$$

     RDKit          2D

 27 27  0  0  0  0  0  0  0  0999 V2000
    6.4603    0.0000    0.0000 C   0  0  0  0  0  0  0  0  0  0  0  0
    6.2862    1.4899    0.0000 C   0  0  0  0  0  0  0  0  0  0  0  0
    5.7732    2.8994    0.0000 C   0  0  0  0  0  0  0  0  0  0  0  0
    4.9489    4.1526    0.0000 C   0  0  0  0  0  0  0  0  0  0  0  0
    3.8578    5.1820    0.0000 C   0  0  0  0  0  0  0  0  0  0  0  0
    2.5588    5.9320    0.0000 C   0  0  0  0  0  0  0  0  0  0  0  0
    1.1218    6.3622    0.0000 C   0  0  0  0  0  0  0  0  0  0  0  0
   -0.3756    6.4494    0.0000 C   0  0  0  0  0  0  0  0  0  0  0  0
   -1.8528    6.1889    0.0000 C   0  0  0  0  0  0  0  0  0  0  0  0
   -3.2302    5.5948    0.0000 C   0  0  0  0  0  0  0  0  0  0  0  0
   -4.4334    4.6991    0.0000 C   0  0  0  0  0  0  0  0  0  0  0  0
   -5.3975    3.5500    0.0000 C   0  0  0  0  0  0  0  0  0  0  0  0
   -6.0707    2.2096    0.0000 C   0  0  0  0  0  0  0  0  0  0  0  0
   -6.4167    0.7500    0.0000 C   0  0  0  0  0  0  0  0  0  0  0  0
   -6.4167   -0.7500    0.0000 C   0  0  0  0  0  0  0  0  0  0  0  0
   -6.0707   -2.2096    0.0000 C   0  0  0  0  0  0  0  0  0  0  0  0
   -5.3975   -3.5500    0.0000 C   0  0  0  0  0  0  0  0  0  0  0  0
   -4.4334   -4.6991    0.0000 C   0  0  0  0  0  0  0  0  0  0  0  0
   -3.2302   -5.5948    0.0000 C   0  0  0  0  0  0  0  0  0  0  0  0
   -1.8528   -6.1889    0.0000 C   0  0  0  0  0  0  0  0  0  0  0  0
   -0.3756   -6.4494    0.0000 C   0  0  0  0  0  0  0  0  0  0  0  0
    1.1218   -6.3622    0.0000 C   0  0  0  0  0  0  0  0  0  0  0  0
    2.5588   -5.9320    0.0000 C   0  0  0  0  0  0  0  0  0  0  0  0
    3.8578   -5.1820    0.0000 C   0  0  0  0  0  0  0  0  0  0  0  0
    4.9489   -4.1526    0.0000 C   0  0  0  0  0  0  0  0  0  0  0  0
    5.7732   -2.8994    0.0000 C   0  0  0  0  0  0  0  0  0  0  0  0
    6.2862   -1.4899    0.0000 C   0  0  0  0  0  0  0  0  0  0  0  0
  1  2  1  0
  2  3  1  0
  3  4  1  0
  4  5  1  0
  5  6  1  0
  6  7  1  0
  7  8  1  0
  8  9  1  0
  9 10  1  0
 10 11  1  0
 11 12  1  0
 12 13  1  0
 13 14  1  0
 14 15  1  0
 15 16  1  0
 16 17  1  0
 17 18  1  0
 18 19  1  0
 19 20  1  0
 20 21  1  0
 21 22  1  0
 22 23  1  0
 23 24  1  0
 24 25  1  0
 25 26  1  0
 26 27  1  0
 27  1  1  0
M  END
>  <Title>  (176) 
idAAEZgen7

$$$$

     RDKit          2D

 10 10  0  0  0  0  0  0  0  0999 V2000
    3.7500   -1.2990    0.0000 C   0  0  0  0  0  0  0  0  0  0  0  0
    3.0000    0.0000    0.0000 C   0  0  0  0  0  0  0  0  0  0  0  0
    3.7500    1.2990    0.0000 O   0  0  0  0  0  0  0  0  0  0  0  0
    1.5000    0.0000    0.0000 C   0  0  0  0  0  0  0  0  0  0  0  0
    0.7500   -1.2990    0.0000 C   0  0  0  0  0  0  0  0  0  0  0  0
   -0.7500   -1.2990    0.0000 C   0  0  0  0  0  0  0  0  0  0  0  0
   -1.5000    0.0000    0.0000 C   0  0  0  0  0  0  0  0  0  0  0  0
   -0.7500    1.2990    0.0000 C   0  0  0  0  0  0  0  0  0  0  0  0
   -1.5000    2.5981    0.0000 C   0  0  0  0  0  0  0  0  0  0  0  0
    0.7500    1.2990    0.0000 C   0  0  0  0  0  0  0  0  0  0  0  0
  1  2  1  0
  2  3  2  0
  2  4  1  0
  4  5  1  0
  5  6  1  0
  6  7  1  0
  7  8  2  0
  8  9  1  0
  8 10  1  0
 10  4  1  0
M  END
>  <Title>  (177) 
idAAFAgen7

$$$$

     RDKit          2D

  8  8  0  0  0  0  0  0  0  0999 V2000
    3.2286   -0.0000    0.0000 O   0  0  0  0  0  0  0  0  0  0  0  0
    1.7286    0.0000    0.0000 C   0  0  0  0  0  0  0  0  0  0  0  0
    1.0777    1.3515    0.0000 C   0  0  0  0  0  0  0  0  0  0  0  0
   -0.3846    1.6852    0.0000 C   0  0  0  0  0  0  0  0  0  0  0  0
   -1.5574    0.7500    0.0000 C   0  0  0  0  0  0  0  0  0  0  0  0
   -1.5574   -0.7500    0.0000 C   0  0  0  0  0  0  0  0  0  0  0  0
   -0.3846   -1.6852    0.0000 C   0  0  0  0  0  0  0  0  0  0  0  0
    1.0777   -1.3515    0.0000 C   0  0  0  0  0  0  0  0  0  0  0  0
  1  2  1  0
  2  3  1  0
  3  4  1  0
  4  5  2  0
  5  6  1  0
  6  7  1  0
  7  8  1  0
  8  2  1  0
M  END
>  <Title>  (178) 
idAAFBgen7

$$$$

     RDKit          2D

 13 13  0  0  0  0  0  0  0  0999 V2000
    5.0260    1.2990    0.0000 C   0  0  0  0  0  0  0  0  0  0  0  0
    3.5260    1.2990    0.0000 O   0  0  0  0  0  0  0  0  0  0  0  0
    2.7760    0.0000    0.0000 C   0  0  0  0  0  0  0  0  0  0  0  0
    3.5260   -1.2990    0.0000 O   0  0  0  0  0  0  0  0  0  0  0  0
    1.2760    0.0000    0.0000 N   0  0  0  0  0  0  0  0  0  0  0  0
    0.3943    1.2135    0.0000 C   0  0  0  0  0  0  0  0  0  0  0  0
   -1.0323    0.7500    0.0000 C   0  0  0  0  0  0  0  0  0  0  0  0
   -1.0323   -0.7500    0.0000 C   0  0  0  0  0  0  0  0  0  0  0  0
   -2.2458   -1.6317    0.0000 C   0  0  0  0  0  0  0  0  0  0  0  0
   -2.0890   -3.1235    0.0000 O   0  0  0  0  0  0  0  0  0  0  0  0
   -3.6161   -1.0216    0.0000 O   0  0  0  0  0  0  0  0  0  0  0  0
    0.3943   -1.2135    0.0000 C   0  0  0  0  0  0  0  0  0  0  0  0
    0.8578   -2.6401    0.0000 O   0  0  0  0  0  0  0  0  0  0  0  0
  1  2  1  0
  2  3  1  0
  3  4  2  0
  3  5  1  0
  5  6  1  0
  6  7  1  0
  7  8  1  0
  8  9  1  0
  9 10  2  0
  9 11  1  0
  8 12  1  0
 12 13  2  0
 12  5  1  0
M  END
>  <Title>  (179) 
idAAFCgen7

$$$$

     RDKit          2D

 52 59  0  0  0  0  0  0  0  0999 V2000
    4.4577   -9.2929    0.0000 C   0  0  0  0  0  0  0  0  0  0  0  0
    3.3086   -8.3287    0.0000 C   0  0  0  0  0  0  0  0  0  0  0  0
    4.0586   -7.0297    0.0000 C   0  0  0  0  0  0  0  0  0  0  0  0
    4.3191   -5.5525    0.0000 C   0  0  0  0  0  0  0  0  0  0  0  0
    4.0586   -4.0753    0.0000 C   0  0  0  0  0  0  0  0  0  0  0  0
    3.3086   -2.7762    0.0000 C   0  0  0  0  0  0  0  0  0  0  0  0
    2.1595   -1.8121    0.0000 C   0  0  0  0  0  0  0  0  0  0  0  0
    2.9095   -0.5130    0.0000 C   0  0  0  0  0  0  0  0  0  0  0  0
    2.1595    0.7860    0.0000 O   0  0  0  0  0  0  0  0  0  0  0  0
    4.4095   -0.5130    0.0000 N   0  0  0  0  0  0  0  0  0  0  0  0
    5.1595    0.7860    0.0000 C   0  0  0  0  0  0  0  0  0  0  0  0
    6.6595    0.7860    0.0000 N   0  0  0  0  0  0  0  0  0  0  0  0
    7.4095    2.0850    0.0000 N   0  0  0  0  0  0  0  0  0  0  0  0
    6.6595    3.3841    0.0000 N   0  0  0  0  0  0  0  0  0  0  0  0
    5.1595    3.3841    0.0000 N   0  0  0  0  0  0  0  0  0  0  0  0
    4.4095    2.0850    0.0000 N   0  0  0  0  0  0  0  0  0  0  0  0
    0.7500   -1.2990    0.0000 C   0  0  0  0  0  0  0  0  0  0  0  0
    1.5000    0.0000    0.0000 C   0  0  0  0  0  0  0  0  0  0  0  0
    0.7500    1.2990    0.0000 C   0  0  0  0  0  0  0  0  0  0  0  0
   -0.7500    1.2990    0.0000 C   0  0  0  0  0  0  0  0  0  0  0  0
   -1.5000    0.0000    0.0000 C   0  0  0  0  0  0  0  0  0  0  0  0
   -0.7500   -1.2990    0.0000 C   0  0  0  0  0  0  0  0  0  0  0  0
   -2.1595   -1.8121    0.0000 C   0  0  0  0  0  0  0  0  0  0  0  0
   -2.4200   -0.3349    0.0000 C   0  0  0  0  0  0  0  0  0  0  0  0
   -3.8296    0.1782    0.0000 C   0  0  0  0  0  0  0  0  0  0  0  0
   -4.9786   -0.7860    0.0000 C   0  0  0  0  0  0  0  0  0  0  0  0
   -4.7181   -2.2632    0.0000 C   0  0  0  0  0  0  0  0  0  0  0  0
   -3.3086   -2.7762    0.0000 C   0  0  0  0  0  0  0  0  0  0  0  0
   -4.0586   -4.0753    0.0000 C   0  0  0  0  0  0  0  0  0  0  0  0
   -5.2077   -3.1111    0.0000 C   0  0  0  0  0  0  0  0  0  0  0  0
   -6.6172   -3.6241    0.0000 C   0  0  0  0  0  0  0  0  0  0  0  0
   -6.8777   -5.1013    0.0000 C   0  0  0  0  0  0  0  0  0  0  0  0
   -5.7286   -6.0655    0.0000 C   0  0  0  0  0  0  0  0  0  0  0  0
   -4.3191   -5.5525    0.0000 C   0  0  0  0  0  0  0  0  0  0  0  0
   -4.0586   -7.0297    0.0000 C   0  0  0  0  0  0  0  0  0  0  0  0
   -5.5586   -7.0297    0.0000 C   0  0  0  0  0  0  0  0  0  0  0  0
   -6.3086   -8.3287    0.0000 C   0  0  0  0  0  0  0  0  0  0  0  0
   -5.5586   -9.6278    0.0000 C   0  0  0  0  0  0  0  0  0  0  0  0
   -4.0586   -9.6278    0.0000 C   0  0  0  0  0  0  0  0  0  0  0  0
   -3.3086   -8.3287    0.0000 C   0  0  0  0  0  0  0  0  0  0  0  0
   -2.1595   -9.2929    0.0000 C   0  0  0  0  0  0  0  0  0  0  0  0
   -3.3086  -10.2571    0.0000 C   0  0  0  0  0  0  0  0  0  0  0  0
   -3.0481  -11.7343    0.0000 C   0  0  0  0  0  0  0  0  0  0  0  0
   -1.6386  -12.2474    0.0000 C   0  0  0  0  0  0  0  0  0  0  0  0
   -0.4895  -11.2832    0.0000 C   0  0  0  0  0  0  0  0  0  0  0  0
   -0.7500   -9.8060    0.0000 C   0  0  0  0  0  0  0  0  0  0  0  0
    0.7500   -9.8060    0.0000 C   0  0  0  0  0  0  0  0  0  0  0  0
    0.4895  -11.2832    0.0000 C   0  0  0  0  0  0  0  0  0  0  0  0
    1.6386  -12.2474    0.0000 C   0  0  0  0  0  0  0  0  0  0  0  0
    3.0481  -11.7343    0.0000 C   0  0  0  0  0  0  0  0  0  0  0  0
    3.3086  -10.2571    0.0000 C   0  0  0  0  0  0  0  0  0  0  0  0
    2.1595   -9.2929    0.0000 C   0  0  0  0  0  0  0  0  0  0  0  0
  1  2  1  0
  2  3  1  0
  3  4  1  0
  4  5  1  0
  5  6  1  0
  6  7  1  0
  7  8  1  0
  8  9  2  0
  8 10  1  0
 10 11  1  0
 11 12  2  0
 12 13  1  0
 13 14  2  0
 14 15  1  0
 15 16  2  0
  7 17  1  0
 17 18  2  0
 18 19  1  0
 19 20  2  0
 20 21  1  0
 21 22  2  0
 22 23  1  0
 23 24  2  0
 24 25  1  0
 25 26  2  0
 26 27  1  0
 27 28  2  0
 28 29  1  0
 29 30  2  0
 30 31  1  0
 31 32  2  0
 32 33  1  0
 33 34  2  0
 34 35  1  0
 35 36  2  0
 36 37  1  0
 37 38  2  0
 38 39  1  0
 39 40  2  0
 40 41  1  0
 41 42  2  0
 42 43  1  0
 43 44  2  0
 44 45  1  0
 45 46  2  0
 46 47  1  0
 47 48  2  0
 48 49  1  0
 49 50  2  0
 50 51  1  0
 51 52  2  0
 52  2  1  0
 16 11  1  0
 22 17  1  0
 28 23  1  0
 34 29  1  0
 40 35  1  0
 46 41  1  0
 52 47  1  0
M  END
>  <Title>  (180) 
idAAFDgen7

$$$$

     RDKit          2D

 99 99  0  0  0  0  0  0  0  0999 V2000
   24.8998    0.0000    0.0000 C   0  0  0  0  0  0  0  0  0  0  0  0
   23.3998    0.0000    0.0000 C   0  0  0  0  0  0  0  0  0  0  0  0
   23.3517   -1.4992    0.0000 C   0  0  0  0  0  0  0  0  0  0  0  0
   23.2077   -2.9923    0.0000 C   0  0  0  0  0  0  0  0  0  0  0  0
   22.9683   -4.4731    0.0000 C   0  0  0  0  0  0  0  0  0  0  0  0
   22.6345   -5.9355    0.0000 C   0  0  0  0  0  0  0  0  0  0  0  0
   22.2077   -7.3735    0.0000 C   0  0  0  0  0  0  0  0  0  0  0  0
   21.6897   -8.7812    0.0000 C   0  0  0  0  0  0  0  0  0  0  0  0
   21.0825  -10.1528    0.0000 C   0  0  0  0  0  0  0  0  0  0  0  0
   20.3887  -11.4827    0.0000 C   0  0  0  0  0  0  0  0  0  0  0  0
   19.6111  -12.7654    0.0000 C   0  0  0  0  0  0  0  0  0  0  0  0
   18.7529  -13.9957    0.0000 C   0  0  0  0  0  0  0  0  0  0  0  0
   17.8177  -15.1684    0.0000 C   0  0  0  0  0  0  0  0  0  0  0  0
   16.8092  -16.2788    0.0000 C   0  0  0  0  0  0  0  0  0  0  0  0
   15.7317  -17.3223    0.0000 C   0  0  0  0  0  0  0  0  0  0  0  0
   14.5895  -18.2947    0.0000 C   0  0  0  0  0  0  0  0  0  0  0  0
   13.3874  -19.1919    0.0000 C   0  0  0  0  0  0  0  0  0  0  0  0
   12.1303  -20.0102    0.0000 C   0  0  0  0  0  0  0  0  0  0  0  0
   10.8233  -20.7462    0.0000 C   0  0  0  0  0  0  0  0  0  0  0  0
    9.4718  -21.3971    0.0000 C   0  0  0  0  0  0  0  0  0  0  0  0
    8.0815  -21.9600    0.0000 C   0  0  0  0  0  0  0  0  0  0  0  0
    6.6579  -22.4326    0.0000 C   0  0  0  0  0  0  0  0  0  0  0  0
    5.2069  -22.8131    0.0000 C   0  0  0  0  0  0  0  0  0  0  0  0
    3.7346  -23.0998    0.0000 C   0  0  0  0  0  0  0  0  0  0  0  0
    2.2469  -23.2917    0.0000 C   0  0  0  0  0  0  0  0  0  0  0  0
    0.7500  -23.3878    0.0000 C   0  0  0  0  0  0  0  0  0  0  0  0
   -0.7500  -23.3878    0.0000 C   0  0  0  0  0  0  0  0  0  0  0  0
   -2.2469  -23.2917    0.0000 C   0  0  0  0  0  0  0  0  0  0  0  0
   -3.7346  -23.0998    0.0000 C   0  0  0  0  0  0  0  0  0  0  0  0
   -5.2069  -22.8131    0.0000 C   0  0  0  0  0  0  0  0  0  0  0  0
   -6.6579  -22.4326    0.0000 C   0  0  0  0  0  0  0  0  0  0  0  0
   -8.0815  -21.9600    0.0000 C   0  0  0  0  0  0  0  0  0  0  0  0
   -9.4718  -21.3971    0.0000 C   0  0  0  0  0  0  0  0  0  0  0  0
  -10.8233  -20.7462    0.0000 C   0  0  0  0  0  0  0  0  0  0  0  0
  -12.1303  -20.0102    0.0000 C   0  0  0  0  0  0  0  0  0  0  0  0
  -13.3874  -19.1919    0.0000 C   0  0  0  0  0  0  0  0  0  0  0  0
  -14.5895  -18.2947    0.0000 C   0  0  0  0  0  0  0  0  0  0  0  0
  -15.7317  -17.3223    0.0000 C   0  0  0  0  0  0  0  0  0  0  0  0
  -16.8092  -16.2788    0.0000 C   0  0  0  0  0  0  0  0  0  0  0  0
  -17.8177  -15.1684    0.0000 C   0  0  0  0  0  0  0  0  0  0  0  0
  -18.7529  -13.9957    0.0000 C   0  0  0  0  0  0  0  0  0  0  0  0
  -19.6111  -12.7654    0.0000 C   0  0  0  0  0  0  0  0  0  0  0  0
  -20.3887  -11.4827    0.0000 C   0  0  0  0  0  0  0  0  0  0  0  0
  -21.0825  -10.1528    0.0000 C   0  0  0  0  0  0  0  0  0  0  0  0
  -21.6897   -8.7812    0.0000 C   0  0  0  0  0  0  0  0  0  0  0  0
  -22.2077   -7.3735    0.0000 C   0  0  0  0  0  0  0  0  0  0  0  0
  -22.6345   -5.9355    0.0000 C   0  0  0  0  0  0  0  0  0  0  0  0
  -22.9683   -4.4731    0.0000 C   0  0  0  0  0  0  0  0  0  0  0  0
  -23.2077   -2.9923    0.0000 C   0  0  0  0  0  0  0  0  0  0  0  0
  -23.3517   -1.4992    0.0000 C   0  0  0  0  0  0  0  0  0  0  0  0
  -23.3998    0.0000    0.0000 C   0  0  0  0  0  0  0  0  0  0  0  0
  -23.3517    1.4992    0.0000 C   0  0  0  0  0  0  0  0  0  0  0  0
  -23.2077    2.9923    0.0000 C   0  0  0  0  0  0  0  0  0  0  0  0
  -22.9683    4.4731    0.0000 C   0  0  0  0  0  0  0  0  0  0  0  0
  -22.6345    5.9355    0.0000 C   0  0  0  0  0  0  0  0  0  0  0  0
  -22.2077    7.3735    0.0000 C   0  0  0  0  0  0  0  0  0  0  0  0
  -21.6897    8.7812    0.0000 C   0  0  0  0  0  0  0  0  0  0  0  0
  -21.0825   10.1528    0.0000 C   0  0  0  0  0  0  0  0  0  0  0  0
  -20.3887   11.4827    0.0000 C   0  0  0  0  0  0  0  0  0  0  0  0
  -19.6111   12.7654    0.0000 C   0  0  0  0  0  0  0  0  0  0  0  0
  -18.7529   13.9957    0.0000 C   0  0  0  0  0  0  0  0  0  0  0  0
  -17.8177   15.1684    0.0000 C   0  0  0  0  0  0  0  0  0  0  0  0
  -16.8092   16.2788    0.0000 C   0  0  0  0  0  0  0  0  0  0  0  0
  -15.7317   17.3223    0.0000 C   0  0  0  0  0  0  0  0  0  0  0  0
  -14.5895   18.2947    0.0000 C   0  0  0  0  0  0  0  0  0  0  0  0
  -13.3874   19.1919    0.0000 C   0  0  0  0  0  0  0  0  0  0  0  0
  -12.1303   20.0102    0.0000 C   0  0  0  0  0  0  0  0  0  0  0  0
  -10.8233   20.7462    0.0000 C   0  0  0  0  0  0  0  0  0  0  0  0
   -9.4718   21.3971    0.0000 C   0  0  0  0  0  0  0  0  0  0  0  0
   -8.0815   21.9600    0.0000 C   0  0  0  0  0  0  0  0  0  0  0  0
   -6.6579   22.4326    0.0000 C   0  0  0  0  0  0  0  0  0  0  0  0
   -5.2069   22.8131    0.0000 C   0  0  0  0  0  0  0  0  0  0  0  0
   -3.7346   23.0998    0.0000 C   0  0  0  0  0  0  0  0  0  0  0  0
   -2.2469   23.2917    0.0000 C   0  0  0  0  0  0  0  0  0  0  0  0
   -0.7500   23.3878    0.0000 C   0  0  0  0  0  0  0  0  0  0  0  0
    0.7500   23.3878    0.0000 C   0  0  0  0  0  0  0  0  0  0  0  0
    2.2469   23.2917    0.0000 C   0  0  0  0  0  0  0  0  0  0  0  0
    3.7346   23.0998    0.0000 C   0  0  0  0  0  0  0  0  0  0  0  0
    5.2069   22.8131    0.0000 C   0  0  0  0  0  0  0  0  0  0  0  0
    6.6579   22.4326    0.0000 C   0  0  0  0  0  0  0  0  0  0  0  0
    8.0815   21.9600    0.0000 C   0  0  0  0  0  0  0  0  0  0  0  0
    9.4718   21.3971    0.0000 C   0  0  0  0  0  0  0  0  0  0  0  0
   10.8233   20.7462    0.0000 C   0  0  0  0  0  0  0  0  0  0  0  0
   12.1303   20.0102    0.0000 C   0  0  0  0  0  0  0  0  0  0  0  0
   13.3874   19.1919    0.0000 C   0  0  0  0  0  0  0  0  0  0  0  0
   14.5895   18.2947    0.0000 C   0  0  0  0  0  0  0  0  0  0  0  0
   15.7317   17.3223    0.0000 C   0  0  0  0  0  0  0  0  0  0  0  0
   16.8092   16.2788    0.0000 C   0  0  0  0  0  0  0  0  0  0  0  0
   17.8177   15.1684    0.0000 C   0  0  0  0  0  0  0  0  0  0  0  0
   18.7529   13.9957    0.0000 C   0  0  0  0  0  0  0  0  0  0  0  0
   19.6111   12.7654    0.0000 C   0  0  0  0  0  0  0  0  0  0  0  0
   20.3887   11.4827    0.0000 C   0  0  0  0  0  0  0  0  0  0  0  0
   21.0825   10.1528    0.0000 C   0  0  0  0  0  0  0  0  0  0  0  0
   21.6897    8.7812    0.0000 C   0  0  0  0  0  0  0  0  0  0  0  0
   22.2077    7.3735    0.0000 C   0  0  0  0  0  0  0  0  0  0  0  0
   22.6345    5.9355    0.0000 C   0  0  0  0  0  0  0  0  0  0  0  0
   22.9683    4.4731    0.0000 C   0  0  0  0  0  0  0  0  0  0  0  0
   23.2077    2.9923    0.0000 C   0  0  0  0  0  0  0  0  0  0  0  0
   23.3517    1.4992    0.0000 C   0  0  0  0  0  0  0  0  0  0  0  0
  1  2  1  0
  2  3  1  0
  3  4  2  0
  4  5  1  0
  5  6  2  0
  6  7  1  0
  7  8  2  0
  8  9  1  0
  9 10  2  0
 10 11  1  0
 11 12  2  0
 12 13  1  0
 13 14  2  0
 14 15  1  0
 15 16  2  0
 16 17  1  0
 17 18  2  0
 18 19  1  0
 19 20  2  0
 20 21  1  0
 21 22  2  0
 22 23  1  0
 23 24  2  0
 24 25  1  0
 25 26  1  0
 26 27  1  0
 27 28  1  0
 28 29  1  0
 29 30  1  0
 30 31  1  0
 31 32  1  0
 32 33  1  0
 33 34  1  0
 34 35  1  0
 35 36  1  0
 36 37  1  0
 37 38  1  0
 38 39  1  0
 39 40  1  0
 40 41  1  0
 41 42  1  0
 42 43  1  0
 43 44  1  0
 44 45  1  0
 45 46  1  0
 46 47  1  0
 47 48  1  0
 48 49  1  0
 49 50  1  0
 50 51  1  0
 51 52  1  0
 52 53  1  0
 53 54  1  0
 54 55  1  0
 55 56  1  0
 56 57  1  0
 57 58  1  0
 58 59  1  0
 59 60  1  0
 60 61  1  0
 61 62  1  0
 62 63  1  0
 63 64  1  0
 64 65  1  0
 65 66  1  0
 66 67  1  0
 67 68  1  0
 68 69  1  0
 69 70  1  0
 70 71  1  0
 71 72  1  0
 72 73  1  0
 73 74  1  0
 74 75  1  0
 75 76  1  0
 76 77  1  0
 77 78  1  0
 78 79  1  0
 79 80  1  0
 80 81  1  0
 81 82  1  0
 82 83  1  0
 83 84  1  0
 84 85  1  0
 85 86  1  0
 86 87  1  0
 87 88  1  0
 88 89  1  0
 89 90  1  0
 90 91  1  0
 91 92  1  0
 92 93  1  0
 93 94  1  0
 94 95  1  0
 95 96  1  0
 96 97  1  0
 97 98  1  0
 98 99  1  0
 99  2  1  0
M  END
>  <Title>  (181) 
idAAFEgen7

$$$$

     RDKit          2D

 25 28  0  0  0  0  0  0  0  0999 V2000
   -0.0000   -6.0850    0.0000 C   0  0  0  0  0  0  0  0  0  0  0  0
   -0.0000   -4.5850    0.0000 C   0  0  0  0  0  0  0  0  0  0  0  0
    1.3515   -3.9342    0.0000 C   0  0  0  0  0  0  0  0  0  0  0  0
    1.6852   -2.4718    0.0000 C   0  0  0  0  0  0  0  0  0  0  0  0
    3.1476   -2.1380    0.0000 C   0  0  0  0  0  0  0  0  0  0  0  0
    3.5898   -0.7046    0.0000 O   0  0  0  0  0  0  0  0  0  0  0  0
    4.1679   -3.2376    0.0000 N   0  0  0  0  0  0  0  0  0  0  0  0
    5.6303   -2.9038    0.0000 C   0  0  0  0  0  0  0  0  0  0  0  0
    6.6505   -4.0034    0.0000 N   0  0  0  0  0  0  0  0  0  0  0  0
    8.1129   -3.6696    0.0000 N   0  0  0  0  0  0  0  0  0  0  0  0
    8.5551   -2.2362    0.0000 N   0  0  0  0  0  0  0  0  0  0  0  0
    7.5348   -1.1367    0.0000 N   0  0  0  0  0  0  0  0  0  0  0  0
    6.0724   -1.4704    0.0000 N   0  0  0  0  0  0  0  0  0  0  0  0
    0.7500   -1.2990    0.0000 C   0  0  0  0  0  0  0  0  0  0  0  0
    1.5000    0.0000    0.0000 C   0  0  0  0  0  0  0  0  0  0  0  0
    0.7500    1.2990    0.0000 C   0  0  0  0  0  0  0  0  0  0  0  0
   -0.7500    1.2990    0.0000 C   0  0  0  0  0  0  0  0  0  0  0  0
   -1.5000    0.0000    0.0000 C   0  0  0  0  0  0  0  0  0  0  0  0
   -0.7500   -1.2990    0.0000 C   0  0  0  0  0  0  0  0  0  0  0  0
   -1.6852   -2.4718    0.0000 C   0  0  0  0  0  0  0  0  0  0  0  0
   -3.1186   -2.0297    0.0000 C   0  0  0  0  0  0  0  0  0  0  0  0
   -4.2182   -3.0499    0.0000 C   0  0  0  0  0  0  0  0  0  0  0  0
   -3.8844   -4.5123    0.0000 C   0  0  0  0  0  0  0  0  0  0  0  0
   -2.4510   -4.9544    0.0000 C   0  0  0  0  0  0  0  0  0  0  0  0
   -1.3515   -3.9342    0.0000 C   0  0  0  0  0  0  0  0  0  0  0  0
  1  2  1  0
  2  3  2  0
  3  4  1  0
  4  5  1  0
  5  6  2  0
  5  7  1  0
  7  8  1  0
  8  9  2  0
  9 10  1  0
 10 11  2  0
 11 12  1  0
 12 13  2  0
  4 14  1  0
 14 15  2  0
 15 16  1  0
 16 17  2  0
 17 18  1  0
 18 19  2  0
 19 20  1  0
 20 21  2  0
 21 22  1  0
 22 23  2  0
 23 24  1  0
 24 25  2  0
 25  2  1  0
 13  8  1  0
 19 14  1  0
 25 20  1  0
M  END
>  <Title>  (182) 
idAAFFgen7

$$$$

     RDKit          2D

 13 14  0  0  0  0  0  0  0  0999 V2000
    4.5000    0.0000    0.0000 N   0  0  0  0  0  0  0  0  0  0  0  0
    3.0000    0.0000    0.0000 C   0  0  0  0  0  0  0  0  0  0  0  0
    1.5000    0.0000    0.0000 C   0  0  0  0  0  0  0  0  0  0  0  0
    0.7500   -1.2990    0.0000 C   0  0  0  0  0  0  0  0  0  0  0  0
   -0.7500   -1.2990    0.0000 C   0  0  0  0  0  0  0  0  0  0  0  0
   -1.5000    0.0000    0.0000 C   0  0  0  0  0  0  0  0  0  0  0  0
   -0.7500    1.2990    0.0000 C   0  0  0  0  0  0  0  0  0  0  0  0
    0.7500    1.2990    0.0000 C   0  0  0  0  0  0  0  0  0  0  0  0
    1.5000    2.5981    0.0000 C   0  0  0  0  0  0  0  0  0  0  0  0
    0.8899    3.9684    0.0000 C   0  0  0  0  0  0  0  0  0  0  0  0
    2.0046    4.9721    0.0000 C   0  0  0  0  0  0  0  0  0  0  0  0
    3.3037    4.2221    0.0000 C   0  0  0  0  0  0  0  0  0  0  0  0
    2.9918    2.7549    0.0000 C   0  0  0  0  0  0  0  0  0  0  0  0
  1  2  3  0
  2  3  1  0
  3  4  2  0
  4  5  1  0
  5  6  2  0
  6  7  1  0
  7  8  2  0
  8  9  1  0
  9 10  2  0
 10 11  1  0
 11 12  1  0
 12 13  1  0
  8  3  1  0
 13  9  1  0
M  END
>  <Title>  (183) 
idAAFGgen7

$$$$

     RDKit          2D

 13 13  0  0  0  0  0  0  0  0999 V2000
   13.2760   -0.0000    0.0000 C   0  0  0  0  0  0  0  0  0  0  0  0
   11.7760   -0.0000    0.0000 C   0  0  0  0  0  0  0  0  0  0  0  0
   10.2760   -0.0000    0.0000 C   0  0  0  0  0  0  0  0  0  0  0  0
    8.7760   -0.0000    0.0000 C   0  0  0  0  0  0  0  0  0  0  0  0
    7.2760   -0.0000    0.0000 C   0  0  0  0  0  0  0  0  0  0  0  0
    5.7760   -0.0000    0.0000 C   0  0  0  0  0  0  0  0  0  0  0  0
    4.2760   -0.0000    0.0000 C   0  0  0  0  0  0  0  0  0  0  0  0
    2.7760    0.0000    0.0000 C   0  0  0  0  0  0  0  0  0  0  0  0
    1.2760    0.0000    0.0000 C   0  0  0  0  0  0  0  0  0  0  0  0
    0.3943    1.2135    0.0000 C   0  0  0  0  0  0  0  0  0  0  0  0
   -1.0323    0.7500    0.0000 C   0  0  0  0  0  0  0  0  0  0  0  0
   -1.0323   -0.7500    0.0000 C   0  0  0  0  0  0  0  0  0  0  0  0
    0.3943   -1.2135    0.0000 C   0  0  0  0  0  0  0  0  0  0  0  0
  1  2  3  0
  2  3  1  0
  3  4  3  0
  4  5  1  0
  5  6  3  0
  6  7  1  0
  7  8  3  0
  8  9  1  0
  9 10  2  0
 10 11  1  0
 11 12  1  0
 12 13  1  0
 13  9  1  0
M  END
>  <Title>  (184) 
idAAFHgen7

$$$$

     RDKit          2D

109109  0  0  0  0  0  0  0  0999 V2000
   27.2867    0.0000    0.0000 C   0  0  0  0  0  0  0  0  0  0  0  0
   25.7867    0.0000    0.0000 C   0  0  0  0  0  0  0  0  0  0  0  0
   25.7431   -1.4994    0.0000 C   0  0  0  0  0  0  0  0  0  0  0  0
   25.6124   -2.9937    0.0000 C   0  0  0  0  0  0  0  0  0  0  0  0
   25.3950   -4.4778    0.0000 C   0  0  0  0  0  0  0  0  0  0  0  0
   25.0917   -5.9468    0.0000 C   0  0  0  0  0  0  0  0  0  0  0  0
   24.7034   -7.3957    0.0000 C   0  0  0  0  0  0  0  0  0  0  0  0
   24.2316   -8.8196    0.0000 C   0  0  0  0  0  0  0  0  0  0  0  0
   23.6778  -10.2136    0.0000 C   0  0  0  0  0  0  0  0  0  0  0  0
   23.0439  -11.5731    0.0000 C   0  0  0  0  0  0  0  0  0  0  0  0
   22.3320  -12.8934    0.0000 C   0  0  0  0  0  0  0  0  0  0  0  0
   21.5445  -14.1700    0.0000 C   0  0  0  0  0  0  0  0  0  0  0  0
   20.6841  -15.3988    0.0000 C   0  0  0  0  0  0  0  0  0  0  0  0
   19.7538  -16.5754    0.0000 C   0  0  0  0  0  0  0  0  0  0  0  0
   18.7566  -17.6959    0.0000 C   0  0  0  0  0  0  0  0  0  0  0  0
   17.6959  -18.7566    0.0000 C   0  0  0  0  0  0  0  0  0  0  0  0
   16.5754  -19.7538    0.0000 C   0  0  0  0  0  0  0  0  0  0  0  0
   15.3988  -20.6841    0.0000 C   0  0  0  0  0  0  0  0  0  0  0  0
   14.1700  -21.5445    0.0000 C   0  0  0  0  0  0  0  0  0  0  0  0
   12.8934  -22.3320    0.0000 C   0  0  0  0  0  0  0  0  0  0  0  0
   11.5731  -23.0439    0.0000 C   0  0  0  0  0  0  0  0  0  0  0  0
   10.2136  -23.6778    0.0000 C   0  0  0  0  0  0  0  0  0  0  0  0
    8.8196  -24.2316    0.0000 C   0  0  0  0  0  0  0  0  0  0  0  0
    7.3957  -24.7034    0.0000 C   0  0  0  0  0  0  0  0  0  0  0  0
    5.9468  -25.0917    0.0000 C   0  0  0  0  0  0  0  0  0  0  0  0
    4.4778  -25.3950    0.0000 C   0  0  0  0  0  0  0  0  0  0  0  0
    2.9937  -25.6124    0.0000 C   0  0  0  0  0  0  0  0  0  0  0  0
    1.4994  -25.7431    0.0000 C   0  0  0  0  0  0  0  0  0  0  0  0
   -0.0000  -25.7867    0.0000 C   0  0  0  0  0  0  0  0  0  0  0  0
   -1.4994  -25.7431    0.0000 C   0  0  0  0  0  0  0  0  0  0  0  0
   -2.9937  -25.6124    0.0000 C   0  0  0  0  0  0  0  0  0  0  0  0
   -4.4778  -25.3950    0.0000 C   0  0  0  0  0  0  0  0  0  0  0  0
   -5.9468  -25.0917    0.0000 C   0  0  0  0  0  0  0  0  0  0  0  0
   -7.3957  -24.7034    0.0000 C   0  0  0  0  0  0  0  0  0  0  0  0
   -8.8196  -24.2316    0.0000 C   0  0  0  0  0  0  0  0  0  0  0  0
  -10.2136  -23.6778    0.0000 C   0  0  0  0  0  0  0  0  0  0  0  0
  -11.5731  -23.0439    0.0000 C   0  0  0  0  0  0  0  0  0  0  0  0
  -12.8934  -22.3320    0.0000 C   0  0  0  0  0  0  0  0  0  0  0  0
  -14.1700  -21.5445    0.0000 C   0  0  0  0  0  0  0  0  0  0  0  0
  -15.3988  -20.6841    0.0000 C   0  0  0  0  0  0  0  0  0  0  0  0
  -16.5754  -19.7538    0.0000 C   0  0  0  0  0  0  0  0  0  0  0  0
  -17.6959  -18.7566    0.0000 C   0  0  0  0  0  0  0  0  0  0  0  0
  -18.7566  -17.6959    0.0000 C   0  0  0  0  0  0  0  0  0  0  0  0
  -19.7538  -16.5754    0.0000 C   0  0  0  0  0  0  0  0  0  0  0  0
  -20.6841  -15.3988    0.0000 C   0  0  0  0  0  0  0  0  0  0  0  0
  -21.5445  -14.1700    0.0000 C   0  0  0  0  0  0  0  0  0  0  0  0
  -22.3320  -12.8934    0.0000 C   0  0  0  0  0  0  0  0  0  0  0  0
  -23.0439  -11.5731    0.0000 C   0  0  0  0  0  0  0  0  0  0  0  0
  -23.6778  -10.2136    0.0000 C   0  0  0  0  0  0  0  0  0  0  0  0
  -24.2316   -8.8196    0.0000 C   0  0  0  0  0  0  0  0  0  0  0  0
  -24.7034   -7.3957    0.0000 C   0  0  0  0  0  0  0  0  0  0  0  0
  -25.0917   -5.9468    0.0000 C   0  0  0  0  0  0  0  0  0  0  0  0
  -25.3950   -4.4778    0.0000 C   0  0  0  0  0  0  0  0  0  0  0  0
  -25.6124   -2.9937    0.0000 C   0  0  0  0  0  0  0  0  0  0  0  0
  -25.7431   -1.4994    0.0000 C   0  0  0  0  0  0  0  0  0  0  0  0
  -25.7867    0.0000    0.0000 C   0  0  0  0  0  0  0  0  0  0  0  0
  -25.7431    1.4994    0.0000 C   0  0  0  0  0  0  0  0  0  0  0  0
  -25.6124    2.9937    0.0000 C   0  0  0  0  0  0  0  0  0  0  0  0
  -25.3950    4.4778    0.0000 C   0  0  0  0  0  0  0  0  0  0  0  0
  -25.0917    5.9468    0.0000 C   0  0  0  0  0  0  0  0  0  0  0  0
  -24.7034    7.3957    0.0000 C   0  0  0  0  0  0  0  0  0  0  0  0
  -24.2316    8.8196    0.0000 C   0  0  0  0  0  0  0  0  0  0  0  0
  -23.6778   10.2136    0.0000 C   0  0  0  0  0  0  0  0  0  0  0  0
  -23.0439   11.5731    0.0000 C   0  0  0  0  0  0  0  0  0  0  0  0
  -22.3320   12.8934    0.0000 C   0  0  0  0  0  0  0  0  0  0  0  0
  -21.5445   14.1700    0.0000 C   0  0  0  0  0  0  0  0  0  0  0  0
  -20.6841   15.3988    0.0000 C   0  0  0  0  0  0  0  0  0  0  0  0
  -19.7538   16.5754    0.0000 C   0  0  0  0  0  0  0  0  0  0  0  0
  -18.7566   17.6959    0.0000 C   0  0  0  0  0  0  0  0  0  0  0  0
  -17.6959   18.7566    0.0000 C   0  0  0  0  0  0  0  0  0  0  0  0
  -16.5754   19.7538    0.0000 C   0  0  0  0  0  0  0  0  0  0  0  0
  -15.3988   20.6841    0.0000 C   0  0  0  0  0  0  0  0  0  0  0  0
  -14.1700   21.5445    0.0000 C   0  0  0  0  0  0  0  0  0  0  0  0
  -12.8934   22.3320    0.0000 C   0  0  0  0  0  0  0  0  0  0  0  0
  -11.5731   23.0439    0.0000 C   0  0  0  0  0  0  0  0  0  0  0  0
  -10.2136   23.6778    0.0000 C   0  0  0  0  0  0  0  0  0  0  0  0
   -8.8196   24.2316    0.0000 C   0  0  0  0  0  0  0  0  0  0  0  0
   -7.3957   24.7034    0.0000 C   0  0  0  0  0  0  0  0  0  0  0  0
   -5.9468   25.0917    0.0000 C   0  0  0  0  0  0  0  0  0  0  0  0
   -4.4778   25.3950    0.0000 C   0  0  0  0  0  0  0  0  0  0  0  0
   -2.9937   25.6124    0.0000 C   0  0  0  0  0  0  0  0  0  0  0  0
   -1.4994   25.7431    0.0000 C   0  0  0  0  0  0  0  0  0  0  0  0
    0.0000   25.7867    0.0000 C   0  0  0  0  0  0  0  0  0  0  0  0
    1.4994   25.7431    0.0000 C   0  0  0  0  0  0  0  0  0  0  0  0
    2.9937   25.6124    0.0000 C   0  0  0  0  0  0  0  0  0  0  0  0
    4.4778   25.3950    0.0000 C   0  0  0  0  0  0  0  0  0  0  0  0
    5.9468   25.0917    0.0000 C   0  0  0  0  0  0  0  0  0  0  0  0
    7.3957   24.7034    0.0000 C   0  0  0  0  0  0  0  0  0  0  0  0
    8.8196   24.2316    0.0000 C   0  0  0  0  0  0  0  0  0  0  0  0
   10.2136   23.6778    0.0000 C   0  0  0  0  0  0  0  0  0  0  0  0
   11.5731   23.0439    0.0000 C   0  0  0  0  0  0  0  0  0  0  0  0
   12.8934   22.3320    0.0000 C   0  0  0  0  0  0  0  0  0  0  0  0
   14.1700   21.5445    0.0000 C   0  0  0  0  0  0  0  0  0  0  0  0
   15.3988   20.6841    0.0000 C   0  0  0  0  0  0  0  0  0  0  0  0
   16.5754   19.7538    0.0000 C   0  0  0  0  0  0  0  0  0  0  0  0
   17.6959   18.7566    0.0000 C   0  0  0  0  0  0  0  0  0  0  0  0
   18.7566   17.6959    0.0000 C   0  0  0  0  0  0  0  0  0  0  0  0
   19.7538   16.5754    0.0000 C   0  0  0  0  0  0  0  0  0  0  0  0
   20.6841   15.3988    0.0000 C   0  0  0  0  0  0  0  0  0  0  0  0
   21.5445   14.1700    0.0000 C   0  0  0  0  0  0  0  0  0  0  0  0
   22.3320   12.8934    0.0000 C   0  0  0  0  0  0  0  0  0  0  0  0
   23.0439   11.5731    0.0000 C   0  0  0  0  0  0  0  0  0  0  0  0
   23.6778   10.2136    0.0000 C   0  0  0  0  0  0  0  0  0  0  0  0
   24.2316    8.8196    0.0000 C   0  0  0  0  0  0  0  0  0  0  0  0
   24.7034    7.3957    0.0000 C   0  0  0  0  0  0  0  0  0  0  0  0
   25.0917    5.9468    0.0000 C   0  0  0  0  0  0  0  0  0  0  0  0
   25.3950    4.4778    0.0000 C   0  0  0  0  0  0  0  0  0  0  0  0
   25.6124    2.9937    0.0000 C   0  0  0  0  0  0  0  0  0  0  0  0
   25.7431    1.4994    0.0000 C   0  0  0  0  0  0  0  0  0  0  0  0
  1  2  1  0
  2  3  1  0
  3  4  1  0
  4  5  1  0
  5  6  1  0
  6  7  1  0
  7  8  1  0
  8  9  1  0
  9 10  1  0
 10 11  1  0
 11 12  1  0
 12 13  1  0
 13 14  1  0
 14 15  1  0
 15 16  1  0
 16 17  1  0
 17 18  1  0
 18 19  1  0
 19 20  1  0
 20 21  1  0
 21 22  1  0
 22 23  1  0
 23 24  1  0
 24 25  1  0
 25 26  1  0
 26 27  1  0
 27 28  1  0
 28 29  1  0
 29 30  1  0
 30 31  1  0
 31 32  1  0
 32 33  1  0
 33 34  1  0
 34 35  1  0
 35 36  1  0
 36 37  1  0
 37 38  1  0
 38 39  1  0
 39 40  1  0
 40 41  1  0
 41 42  1  0
 42 43  1  0
 43 44  1  0
 44 45  1  0
 45 46  1  0
 46 47  1  0
 47 48  1  0
 48 49  1  0
 49 50  1  0
 50 51  1  0
 51 52  1  0
 52 53  1  0
 53 54  1  0
 54 55  1  0
 55 56  1  0
 56 57  1  0
 57 58  1  0
 58 59  1  0
 59 60  1  0
 60 61  1  0
 61 62  1  0
 62 63  1  0
 63 64  1  0
 64 65  1  0
 65 66  1  0
 66 67  1  0
 67 68  1  0
 68 69  1  0
 69 70  1  0
 70 71  1  0
 71 72  1  0
 72 73  1  0
 73 74  1  0
 74 75  1  0
 75 76  1  0
 76 77  1  0
 77 78  1  0
 78 79  1  0
 79 80  1  0
 80 81  1  0
 81 82  1  0
 82 83  1  0
 83 84  1  0
 84 85  1  0
 85 86  1  0
 86 87  1  0
 87 88  1  0
 88 89  1  0
 89 90  1  0
 90 91  1  0
 91 92  1  0
 92 93  1  0
 93 94  1  0
 94 95  1  0
 95 96  1  0
 96 97  1  0
 97 98  1  0
 98 99  1  0
 99100  1  0
100101  1  0
101102  1  0
102103  1  0
103104  1  0
104105  1  0
105106  1  0
106107  1  0
107108  1  0
108109  1  0
109  2  1  0
M  END
>  <Title>  (185) 
idAAFIgen7

$$$$

     RDKit          2D

 12 12  0  0  0  0  0  0  0  0999 V2000
    4.1621    0.0000    0.0000 C   0  0  0  0  0  0  0  0  0  0  0  0
    2.6621    0.0000    0.0000 C   0  0  0  0  0  0  0  0  0  0  0  0
    2.2395    1.4392    0.0000 C   0  0  0  0  0  0  0  0  0  0  0  0
    1.1059    2.4215    0.0000 C   0  0  0  0  0  0  0  0  0  0  0  0
   -0.3789    2.6350    0.0000 C   0  0  0  0  0  0  0  0  0  0  0  0
   -1.7433    2.0119    0.0000 C   0  0  0  0  0  0  0  0  0  0  0  0
   -2.5543    0.7500    0.0000 C   0  0  0  0  0  0  0  0  0  0  0  0
   -2.5543   -0.7500    0.0000 C   0  0  0  0  0  0  0  0  0  0  0  0
   -1.7433   -2.0119    0.0000 C   0  0  0  0  0  0  0  0  0  0  0  0
   -0.3789   -2.6350    0.0000 C   0  0  0  0  0  0  0  0  0  0  0  0
    1.1059   -2.4215    0.0000 C   0  0  0  0  0  0  0  0  0  0  0  0
    2.2395   -1.4392    0.0000 C   0  0  0  0  0  0  0  0  0  0  0  0
  1  2  1  0
  2  3  2  0
  3  4  1  0
  4  5  1  0
  5  6  2  0
  6  7  1  0
  7  8  2  0
  8  9  1  0
  9 10  2  0
 10 11  1  0
 11 12  2  0
 12  2  1  0
M  END
>  <Title>  (186) 
idAAFJgen7

$$$$

     RDKit          2D

 50 50  0  0  0  0  0  0  0  0999 V2000
   13.2059   -0.0000    0.0000 C   0  0  0  0  0  0  0  0  0  0  0  0
   11.7059    0.0000    0.0000 C   0  0  0  0  0  0  0  0  0  0  0  0
   11.6098    1.4969    0.0000 C   0  0  0  0  0  0  0  0  0  0  0  0
   11.3231    2.9693    0.0000 C   0  0  0  0  0  0  0  0  0  0  0  0
   10.8504    4.3928    0.0000 C   0  0  0  0  0  0  0  0  0  0  0  0
   10.1996    5.7443    0.0000 C   0  0  0  0  0  0  0  0  0  0  0  0
    9.3813    7.0014    0.0000 C   0  0  0  0  0  0  0  0  0  0  0  0
    8.4089    8.1436    0.0000 C   0  0  0  0  0  0  0  0  0  0  0  0
    7.2985    9.1520    0.0000 C   0  0  0  0  0  0  0  0  0  0  0  0
    6.0683   10.0102    0.0000 C   0  0  0  0  0  0  0  0  0  0  0  0
    4.7384   10.7040    0.0000 C   0  0  0  0  0  0  0  0  0  0  0  0
    3.3307   11.2221    0.0000 C   0  0  0  0  0  0  0  0  0  0  0  0
    1.8683   11.5559    0.0000 C   0  0  0  0  0  0  0  0  0  0  0  0
    0.3752   11.6999    0.0000 C   0  0  0  0  0  0  0  0  0  0  0  0
   -1.1240   11.6518    0.0000 C   0  0  0  0  0  0  0  0  0  0  0  0
   -2.6048   11.4124    0.0000 C   0  0  0  0  0  0  0  0  0  0  0  0
   -4.0428   10.9856    0.0000 C   0  0  0  0  0  0  0  0  0  0  0  0
   -5.4144   10.3784    0.0000 C   0  0  0  0  0  0  0  0  0  0  0  0
   -6.6971    9.6009    0.0000 C   0  0  0  0  0  0  0  0  0  0  0  0
   -7.8699    8.6656    0.0000 C   0  0  0  0  0  0  0  0  0  0  0  0
   -8.9134    7.5881    0.0000 C   0  0  0  0  0  0  0  0  0  0  0  0
   -9.8106    6.3860    0.0000 C   0  0  0  0  0  0  0  0  0  0  0  0
  -10.5467    5.0790    0.0000 C   0  0  0  0  0  0  0  0  0  0  0  0
  -11.1096    3.6886    0.0000 C   0  0  0  0  0  0  0  0  0  0  0  0
  -11.4900    2.2377    0.0000 C   0  0  0  0  0  0  0  0  0  0  0  0
  -11.6819    0.7500    0.0000 C   0  0  0  0  0  0  0  0  0  0  0  0
  -11.6819   -0.7500    0.0000 C   0  0  0  0  0  0  0  0  0  0  0  0
  -11.4900   -2.2377    0.0000 C   0  0  0  0  0  0  0  0  0  0  0  0
  -11.1096   -3.6886    0.0000 C   0  0  0  0  0  0  0  0  0  0  0  0
  -10.5467   -5.0790    0.0000 C   0  0  0  0  0  0  0  0  0  0  0  0
   -9.8106   -6.3860    0.0000 C   0  0  0  0  0  0  0  0  0  0  0  0
   -8.9134   -7.5881    0.0000 C   0  0  0  0  0  0  0  0  0  0  0  0
   -7.8699   -8.6656    0.0000 C   0  0  0  0  0  0  0  0  0  0  0  0
   -6.6971   -9.6009    0.0000 C   0  0  0  0  0  0  0  0  0  0  0  0
   -5.4144  -10.3784    0.0000 C   0  0  0  0  0  0  0  0  0  0  0  0
   -4.0428  -10.9856    0.0000 C   0  0  0  0  0  0  0  0  0  0  0  0
   -2.6048  -11.4124    0.0000 C   0  0  0  0  0  0  0  0  0  0  0  0
   -1.1240  -11.6518    0.0000 C   0  0  0  0  0  0  0  0  0  0  0  0
    0.3752  -11.6999    0.0000 C   0  0  0  0  0  0  0  0  0  0  0  0
    1.8683  -11.5559    0.0000 C   0  0  0  0  0  0  0  0  0  0  0  0
    3.3307  -11.2221    0.0000 C   0  0  0  0  0  0  0  0  0  0  0  0
    4.7384  -10.7040    0.0000 C   0  0  0  0  0  0  0  0  0  0  0  0
    6.0683  -10.0102    0.0000 C   0  0  0  0  0  0  0  0  0  0  0  0
    7.2985   -9.1520    0.0000 C   0  0  0  0  0  0  0  0  0  0  0  0
    8.4089   -8.1436    0.0000 C   0  0  0  0  0  0  0  0  0  0  0  0
    9.3813   -7.0014    0.0000 C   0  0  0  0  0  0  0  0  0  0  0  0
   10.1996   -5.7443    0.0000 C   0  0  0  0  0  0  0  0  0  0  0  0
   10.8504   -4.3928    0.0000 N   0  0  0  0  0  0  0  0  0  0  0  0
   11.3231   -2.9693    0.0000 C   0  0  0  0  0  0  0  0  0  0  0  0
   11.6098   -1.4969    0.0000 C   0  0  0  0  0  0  0  0  0  0  0  0
  1  2  1  0
  2  3  1  0
  3  4  1  0
  4  5  1  0
  5  6  1  0
  6  7  1  0
  7  8  1  0
  8  9  1  0
  9 10  1  0
 10 11  1  0
 11 12  1  0
 12 13  1  0
 13 14  1  0
 14 15  1  0
 15 16  1  0
 16 17  1  0
 17 18  1  0
 18 19  1  0
 19 20  1  0
 20 21  1  0
 21 22  1  0
 22 23  1  0
 23 24  1  0
 24 25  1  0
 25 26  1  0
 26 27  1  0
 27 28  1  0
 28 29  1  0
 29 30  1  0
 30 31  1  0
 31 32  1  0
 32 33  1  0
 33 34  1  0
 34 35  1  0
 35 36  1  0
 36 37  1  0
 37 38  1  0
 38 39  1  0
 39 40  1  0
 40 41  1  0
 41 42  1  0
 42 43  1  0
 43 44  1  0
 44 45  1  0
 45 46  1  0
 46 47  1  0
 47 48  1  0
 48 49  1  0
 49 50  1  0
 50  2  1  0
M  END
>  <Title>  (187) 
idAAFKgen7

$$$$

     RDKit          2D

 18 19  0  0  0  0  0  0  0  0999 V2000
   -0.8928  -10.2822    0.0000 N   0  0  0  0  0  0  0  0  0  0  0  0
    0.4775   -9.6721    0.0000 C   0  0  0  0  0  0  0  0  0  0  0  0
    1.8478   -9.0619    0.0000 C   0  0  0  0  0  0  0  0  0  0  0  0
    3.0613   -9.9436    0.0000 O   0  0  0  0  0  0  0  0  0  0  0  0
    2.0046   -7.5702    0.0000 N   0  0  0  0  0  0  0  0  0  0  0  0
    3.3037   -6.8202    0.0000 C   0  0  0  0  0  0  0  0  0  0  0  0
    2.9918   -5.3529    0.0000 C   0  0  0  0  0  0  0  0  0  0  0  0
    1.5000   -5.1962    0.0000 C   0  0  0  0  0  0  0  0  0  0  0  0
    0.7500   -3.8971    0.0000 C   0  0  0  0  0  0  0  0  0  0  0  0
   -0.7500   -3.8971    0.0000 O   0  0  0  0  0  0  0  0  0  0  0  0
    1.5000   -2.5981    0.0000 N   0  0  0  0  0  0  0  0  0  0  0  0
    0.7500   -1.2990    0.0000 C   0  0  0  0  0  0  0  0  0  0  0  0
    1.5000    0.0000    0.0000 N   0  0  0  0  0  0  0  0  0  0  0  0
    0.7500    1.2990    0.0000 N   0  0  0  0  0  0  0  0  0  0  0  0
   -0.7500    1.2990    0.0000 N   0  0  0  0  0  0  0  0  0  0  0  0
   -1.5000    0.0000    0.0000 N   0  0  0  0  0  0  0  0  0  0  0  0
   -0.7500   -1.2990    0.0000 N   0  0  0  0  0  0  0  0  0  0  0  0
    0.8899   -6.5665    0.0000 C   0  0  0  0  0  0  0  0  0  0  0  0
  1  2  3  0
  2  3  1  0
  3  4  2  0
  3  5  1  0
  5  6  1  0
  6  7  1  0
  7  8  1  0
  8  9  1  0
  9 10  2  0
  9 11  1  0
 11 12  1  0
 12 13  2  0
 13 14  1  0
 14 15  2  0
 15 16  1  0
 16 17  2  0
  8 18  1  0
 18  5  1  0
 17 12  1  0
M  END
>  <Title>  (188) 
idAAFLgen7

$$$$

     RDKit          2D

 39 39  0  0  0  0  0  0  0  0999 V2000
   10.5822    0.0000    0.0000 C   0  0  0  0  0  0  0  0  0  0  0  0
    9.0822    0.0000    0.0000 C   0  0  0  0  0  0  0  0  0  0  0  0
    8.9583   -1.4949    0.0000 C   0  0  0  0  0  0  0  0  0  0  0  0
    8.5901   -2.9490    0.0000 C   0  0  0  0  0  0  0  0  0  0  0  0
    7.9875   -4.3226    0.0000 C   0  0  0  0  0  0  0  0  0  0  0  0
    7.1671   -5.5784    0.0000 C   0  0  0  0  0  0  0  0  0  0  0  0
    6.1512   -6.6820    0.0000 N   0  0  0  0  0  0  0  0  0  0  0  0
    4.9675   -7.6033    0.0000 N   0  0  0  0  0  0  0  0  0  0  0  0
    3.6483   -8.3172    0.0000 C   0  0  0  0  0  0  0  0  0  0  0  0
    2.2295   -8.8043    0.0000 C   0  0  0  0  0  0  0  0  0  0  0  0
    0.7500   -9.0512    0.0000 C   0  0  0  0  0  0  0  0  0  0  0  0
   -0.7500   -9.0512    0.0000 C   0  0  0  0  0  0  0  0  0  0  0  0
   -2.2295   -8.8043    0.0000 C   0  0  0  0  0  0  0  0  0  0  0  0
   -3.6483   -8.3172    0.0000 C   0  0  0  0  0  0  0  0  0  0  0  0
   -4.9675   -7.6033    0.0000 C   0  0  0  0  0  0  0  0  0  0  0  0
   -6.1512   -6.6820    0.0000 C   0  0  0  0  0  0  0  0  0  0  0  0
   -7.1671   -5.5784    0.0000 C   0  0  0  0  0  0  0  0  0  0  0  0
   -7.9875   -4.3226    0.0000 C   0  0  0  0  0  0  0  0  0  0  0  0
   -8.5901   -2.9490    0.0000 C   0  0  0  0  0  0  0  0  0  0  0  0
   -8.9583   -1.4949    0.0000 C   0  0  0  0  0  0  0  0  0  0  0  0
   -9.0822    0.0000    0.0000 C   0  0  0  0  0  0  0  0  0  0  0  0
   -8.9583    1.4949    0.0000 C   0  0  0  0  0  0  0  0  0  0  0  0
   -8.5901    2.9490    0.0000 C   0  0  0  0  0  0  0  0  0  0  0  0
   -7.9875    4.3226    0.0000 C   0  0  0  0  0  0  0  0  0  0  0  0
   -7.1671    5.5784    0.0000 C   0  0  0  0  0  0  0  0  0  0  0  0
   -6.1512    6.6820    0.0000 C   0  0  0  0  0  0  0  0  0  0  0  0
   -4.9675    7.6033    0.0000 C   0  0  0  0  0  0  0  0  0  0  0  0
   -3.6483    8.3172    0.0000 C   0  0  0  0  0  0  0  0  0  0  0  0
   -2.2295    8.8043    0.0000 C   0  0  0  0  0  0  0  0  0  0  0  0
   -0.7500    9.0512    0.0000 C   0  0  0  0  0  0  0  0  0  0  0  0
    0.7500    9.0512    0.0000 C   0  0  0  0  0  0  0  0  0  0  0  0
    2.2295    8.8043    0.0000 C   0  0  0  0  0  0  0  0  0  0  0  0
    3.6483    8.3172    0.0000 C   0  0  0  0  0  0  0  0  0  0  0  0
    4.9675    7.6033    0.0000 C   0  0  0  0  0  0  0  0  0  0  0  0
    6.1512    6.6820    0.0000 C   0  0  0  0  0  0  0  0  0  0  0  0
    7.1671    5.5784    0.0000 C   0  0  0  0  0  0  0  0  0  0  0  0
    7.9875    4.3226    0.0000 C   0  0  0  0  0  0  0  0  0  0  0  0
    8.5901    2.9490    0.0000 C   0  0  0  0  0  0  0  0  0  0  0  0
    8.9583    1.4949    0.0000 C   0  0  0  0  0  0  0  0  0  0  0  0
  1  2  1  0
  2  3  1  0
  3  4  1  0
  4  5  2  0
  5  6  1  0
  6  7  2  0
  7  8  1  0
  8  9  2  0
  9 10  1  0
 10 11  1  0
 11 12  1  0
 12 13  1  0
 13 14  1  0
 14 15  1  0
 15 16  1  0
 16 17  1  0
 17 18  1  0
 18 19  1  0
 19 20  1  0
 20 21  1  0
 21 22  1  0
 22 23  1  0
 23 24  1  0
 24 25  1  0
 25 26  1  0
 26 27  1  0
 27 28  1  0
 28 29  1  0
 29 30  1  0
 30 31  1  0
 31 32  1  0
 32 33  1  0
 33 34  1  0
 34 35  1  0
 35 36  1  0
 36 37  1  0
 37 38  1  0
 38 39  1  0
 39  2  1  0
M  END
>  <Title>  (189) 
idAAFMgen7

$$$$

     RDKit          2D

 50 57  0  0  0  0  0  0  0  0999 V2000
    5.2417   -6.1122    0.0000 C   0  0  0  0  0  0  0  0  0  0  0  0
    3.7705   -5.8195    0.0000 C   0  0  0  0  0  0  0  0  0  0  0  0
    3.7705   -4.3195    0.0000 C   0  0  0  0  0  0  0  0  0  0  0  0
    3.1965   -2.9337    0.0000 C   0  0  0  0  0  0  0  0  0  0  0  0
    2.1358   -1.8731    0.0000 C   0  0  0  0  0  0  0  0  0  0  0  0
    2.9692   -0.6259    0.0000 C   0  0  0  0  0  0  0  0  0  0  0  0
    2.3057    0.7195    0.0000 O   0  0  0  0  0  0  0  0  0  0  0  0
    4.4660   -0.7240    0.0000 N   0  0  0  0  0  0  0  0  0  0  0  0
    5.2993    0.5232    0.0000 C   0  0  0  0  0  0  0  0  0  0  0  0
    6.7961    0.4251    0.0000 C   0  0  0  0  0  0  0  0  0  0  0  0
    7.6295    1.6723    0.0000 N   0  0  0  0  0  0  0  0  0  0  0  0
    6.9660    3.0176    0.0000 C   0  0  0  0  0  0  0  0  0  0  0  0
    5.4692    3.1158    0.0000 N   0  0  0  0  0  0  0  0  0  0  0  0
    4.6359    1.8686    0.0000 N   0  0  0  0  0  0  0  0  0  0  0  0
    0.7500   -1.2990    0.0000 C   0  0  0  0  0  0  0  0  0  0  0  0
    1.5000    0.0000    0.0000 C   0  0  0  0  0  0  0  0  0  0  0  0
    0.7500    1.2990    0.0000 C   0  0  0  0  0  0  0  0  0  0  0  0
   -0.7500    1.2990    0.0000 C   0  0  0  0  0  0  0  0  0  0  0  0
   -1.5000    0.0000    0.0000 C   0  0  0  0  0  0  0  0  0  0  0  0
   -0.7500   -1.2990    0.0000 C   0  0  0  0  0  0  0  0  0  0  0  0
   -2.1358   -1.8731    0.0000 C   0  0  0  0  0  0  0  0  0  0  0  0
   -2.5240   -0.4242    0.0000 C   0  0  0  0  0  0  0  0  0  0  0  0
   -3.9729   -0.0359    0.0000 C   0  0  0  0  0  0  0  0  0  0  0  0
   -5.0336   -1.0966    0.0000 C   0  0  0  0  0  0  0  0  0  0  0  0
   -4.6454   -2.5455    0.0000 C   0  0  0  0  0  0  0  0  0  0  0  0
   -3.1965   -2.9337    0.0000 C   0  0  0  0  0  0  0  0  0  0  0  0
   -3.7705   -4.3195    0.0000 C   0  0  0  0  0  0  0  0  0  0  0  0
   -5.0695   -3.5695    0.0000 C   0  0  0  0  0  0  0  0  0  0  0  0
   -6.3686   -4.3195    0.0000 C   0  0  0  0  0  0  0  0  0  0  0  0
   -6.3686   -5.8195    0.0000 C   0  0  0  0  0  0  0  0  0  0  0  0
   -5.0695   -6.5695    0.0000 C   0  0  0  0  0  0  0  0  0  0  0  0
   -3.7705   -5.8195    0.0000 C   0  0  0  0  0  0  0  0  0  0  0  0
   -3.1965   -7.2054    0.0000 C   0  0  0  0  0  0  0  0  0  0  0  0
   -4.6454   -7.5936    0.0000 C   0  0  0  0  0  0  0  0  0  0  0  0
   -5.0336   -9.0425    0.0000 C   0  0  0  0  0  0  0  0  0  0  0  0
   -3.9729  -10.1031    0.0000 C   0  0  0  0  0  0  0  0  0  0  0  0
   -2.5240   -9.7149    0.0000 C   0  0  0  0  0  0  0  0  0  0  0  0
   -2.1358   -8.2660    0.0000 C   0  0  0  0  0  0  0  0  0  0  0  0
   -0.7500   -8.8400    0.0000 C   0  0  0  0  0  0  0  0  0  0  0  0
   -1.5000  -10.1391    0.0000 C   0  0  0  0  0  0  0  0  0  0  0  0
   -0.7500  -11.4381    0.0000 C   0  0  0  0  0  0  0  0  0  0  0  0
    0.7500  -11.4381    0.0000 C   0  0  0  0  0  0  0  0  0  0  0  0
    1.5000  -10.1391    0.0000 C   0  0  0  0  0  0  0  0  0  0  0  0
    0.7500   -8.8400    0.0000 C   0  0  0  0  0  0  0  0  0  0  0  0
    2.1358   -8.2660    0.0000 C   0  0  0  0  0  0  0  0  0  0  0  0
    2.5240   -9.7149    0.0000 C   0  0  0  0  0  0  0  0  0  0  0  0
    3.9729  -10.1031    0.0000 C   0  0  0  0  0  0  0  0  0  0  0  0
    5.0336   -9.0425    0.0000 C   0  0  0  0  0  0  0  0  0  0  0  0
    4.6454   -7.5936    0.0000 C   0  0  0  0  0  0  0  0  0  0  0  0
    3.1965   -7.2054    0.0000 C   0  0  0  0  0  0  0  0  0  0  0  0
  1  2  1  0
  2  3  1  0
  3  4  1  0
  4  5  1  0
  5  6  1  0
  6  7  2  0
  6  8  1  0
  8  9  1  0
  9 10  2  0
 10 11  1  0
 11 12  2  0
 12 13  1  0
 13 14  2  0
  5 15  1  0
 15 16  2  0
 16 17  1  0
 17 18  2  0
 18 19  1  0
 19 20  2  0
 20 21  1  0
 21 22  2  0
 22 23  1  0
 23 24  2  0
 24 25  1  0
 25 26  2  0
 26 27  1  0
 27 28  2  0
 28 29  1  0
 29 30  2  0
 30 31  1  0
 31 32  2  0
 32 33  1  0
 33 34  2  0
 34 35  1  0
 35 36  2  0
 36 37  1  0
 37 38  2  0
 38 39  1  0
 39 40  2  0
 40 41  1  0
 41 42  2  0
 42 43  1  0
 43 44  2  0
 44 45  1  0
 45 46  2  0
 46 47  1  0
 47 48  2  0
 48 49  1  0
 49 50  2  0
 50  2  1  0
 14  9  1  0
 20 15  1  0
 26 21  1  0
 32 27  1  0
 38 33  1  0
 44 39  1  0
 50 45  1  0
M  END
>  <Title>  (190) 
idAAFNgen7

$$$$

     RDKit          2D

 22 24  0  0  0  0  0  0  0  0999 V2000
   -3.0000   -2.5981    0.0000 C   0  0  0  0  0  0  0  0  0  0  0  0
   -1.5000   -2.5981    0.0000 C   0  0  0  0  0  0  0  0  0  0  0  0
   -0.7500   -3.8971    0.0000 C   0  0  0  0  0  0  0  0  0  0  0  0
    0.7500   -3.8971    0.0000 C   0  0  0  0  0  0  0  0  0  0  0  0
    1.5000   -2.5981    0.0000 C   0  0  0  0  0  0  0  0  0  0  0  0
    3.0000   -2.5981    0.0000 C   0  0  0  0  0  0  0  0  0  0  0  0
    3.7500   -1.2990    0.0000 O   0  0  0  0  0  0  0  0  0  0  0  0
    3.7500   -3.8971    0.0000 N   0  0  0  0  0  0  0  0  0  0  0  0
    5.2500   -3.8971    0.0000 C   0  0  0  0  0  0  0  0  0  0  0  0
    6.0000   -5.1962    0.0000 N   0  0  0  0  0  0  0  0  0  0  0  0
    7.5000   -5.1962    0.0000 N   0  0  0  0  0  0  0  0  0  0  0  0
    8.2500   -3.8971    0.0000 N   0  0  0  0  0  0  0  0  0  0  0  0
    7.5000   -2.5981    0.0000 N   0  0  0  0  0  0  0  0  0  0  0  0
    6.0000   -2.5981    0.0000 N   0  0  0  0  0  0  0  0  0  0  0  0
    0.7500   -1.2990    0.0000 C   0  0  0  0  0  0  0  0  0  0  0  0
    1.5000    0.0000    0.0000 C   0  0  0  0  0  0  0  0  0  0  0  0
    0.7500    1.2990    0.0000 C   0  0  0  0  0  0  0  0  0  0  0  0
   -0.7500    1.2990    0.0000 C   0  0  0  0  0  0  0  0  0  0  0  0
   -1.5000    2.5981    0.0000 C   0  0  0  0  0  0  0  0  0  0  0  0
   -2.2500    3.8971    0.0000 N   0  0  0  0  0  0  0  0  0  0  0  0
   -1.5000    0.0000    0.0000 C   0  0  0  0  0  0  0  0  0  0  0  0
   -0.7500   -1.2990    0.0000 C   0  0  0  0  0  0  0  0  0  0  0  0
  1  2  1  0
  2  3  1  0
  3  4  1  0
  4  5  1  0
  5  6  1  0
  6  7  2  0
  6  8  1  0
  8  9  1  0
  9 10  2  0
 10 11  1  0
 11 12  2  0
 12 13  1  0
 13 14  2  0
  5 15  1  0
 15 16  2  0
 16 17  1  0
 17 18  2  0
 18 19  1  0
 19 20  3  0
 18 21  1  0
 21 22  2  0
 22  2  1  0
 14  9  1  0
 22 15  1  0
M  END
>  <Title>  (191) 
idAAFOgen7

$$$$

     RDKit          2D

 90 90  0  0  0  0  0  0  0  0999 V2000
   22.7516    0.0000    0.0000 C   0  0  0  0  0  0  0  0  0  0  0  0
   21.2516    0.0000    0.0000 C   0  0  0  0  0  0  0  0  0  0  0  0
   21.1987    1.4991    0.0000 C   0  0  0  0  0  0  0  0  0  0  0  0
   21.0401    2.9907    0.0000 C   0  0  0  0  0  0  0  0  0  0  0  0
   20.7767    4.4674    0.0000 C   0  0  0  0  0  0  0  0  0  0  0  0
   20.4099    5.9218    0.0000 C   0  0  0  0  0  0  0  0  0  0  0  0
   19.9413    7.3467    0.0000 C   0  0  0  0  0  0  0  0  0  0  0  0
   19.3734    8.7351    0.0000 C   0  0  0  0  0  0  0  0  0  0  0  0
   18.7090   10.0799    0.0000 C   0  0  0  0  0  0  0  0  0  0  0  0
   17.9514   11.3745    0.0000 C   0  0  0  0  0  0  0  0  0  0  0  0
   17.1043   12.6124    0.0000 C   0  0  0  0  0  0  0  0  0  0  0  0
   16.1720   13.7875    0.0000 C   0  0  0  0  0  0  0  0  0  0  0  0
   15.1592   14.8940    0.0000 C   0  0  0  0  0  0  0  0  0  0  0  0
   14.0708   15.9262    0.0000 C   0  0  0  0  0  0  0  0  0  0  0  0
   12.9123   16.8790    0.0000 C   0  0  0  0  0  0  0  0  0  0  0  0
   11.6895   17.7478    0.0000 C   0  0  0  0  0  0  0  0  0  0  0  0
   10.4085   18.5282    0.0000 C   0  0  0  0  0  0  0  0  0  0  0  0
    9.0756   19.2162    0.0000 C   0  0  0  0  0  0  0  0  0  0  0  0
    7.6975   19.8085    0.0000 C   0  0  0  0  0  0  0  0  0  0  0  0
    6.2811   20.3022    0.0000 C   0  0  0  0  0  0  0  0  0  0  0  0
    4.8333   20.6947    0.0000 C   0  0  0  0  0  0  0  0  0  0  0  0
    3.3615   20.9841    0.0000 C   0  0  0  0  0  0  0  0  0  0  0  0
    1.8730   21.1689    0.0000 C   0  0  0  0  0  0  0  0  0  0  0  0
    0.3751   21.2483    0.0000 C   0  0  0  0  0  0  0  0  0  0  0  0
   -1.1247   21.2218    0.0000 C   0  0  0  0  0  0  0  0  0  0  0  0
   -2.6189   21.0896    0.0000 C   0  0  0  0  0  0  0  0  0  0  0  0
   -4.1000   20.8524    0.0000 C   0  0  0  0  0  0  0  0  0  0  0  0
   -5.5607   20.5112    0.0000 C   0  0  0  0  0  0  0  0  0  0  0  0
   -6.9937   20.0679    0.0000 C   0  0  0  0  0  0  0  0  0  0  0  0
   -8.3918   19.5245    0.0000 C   0  0  0  0  0  0  0  0  0  0  0  0
   -9.7481   18.8840    0.0000 C   0  0  0  0  0  0  0  0  0  0  0  0
  -11.0559   18.1493    0.0000 C   0  0  0  0  0  0  0  0  0  0  0  0
  -12.3086   17.3242    0.0000 C   0  0  0  0  0  0  0  0  0  0  0  0
  -13.5000   16.4128    0.0000 C   0  0  0  0  0  0  0  0  0  0  0  0
  -14.6241   15.4197    0.0000 C   0  0  0  0  0  0  0  0  0  0  0  0
  -15.6754   14.3497    0.0000 C   0  0  0  0  0  0  0  0  0  0  0  0
  -16.6485   13.2082    0.0000 C   0  0  0  0  0  0  0  0  0  0  0  0
  -17.5387   12.0009    0.0000 C   0  0  0  0  0  0  0  0  0  0  0  0
  -18.3416   10.7339    0.0000 C   0  0  0  0  0  0  0  0  0  0  0  0
  -19.0531    9.4134    0.0000 C   0  0  0  0  0  0  0  0  0  0  0  0
  -19.6696    8.0459    0.0000 C   0  0  0  0  0  0  0  0  0  0  0  0
  -20.1882    6.6384    0.0000 C   0  0  0  0  0  0  0  0  0  0  0  0
  -20.6061    5.1978    0.0000 C   0  0  0  0  0  0  0  0  0  0  0  0
  -20.9215    3.7313    0.0000 C   0  0  0  0  0  0  0  0  0  0  0  0
  -21.1326    2.2463    0.0000 C   0  0  0  0  0  0  0  0  0  0  0  0
  -21.2384    0.7500    0.0000 C   0  0  0  0  0  0  0  0  0  0  0  0
  -21.2384   -0.7500    0.0000 C   0  0  0  0  0  0  0  0  0  0  0  0
  -21.1326   -2.2463    0.0000 C   0  0  0  0  0  0  0  0  0  0  0  0
  -20.9215   -3.7313    0.0000 C   0  0  0  0  0  0  0  0  0  0  0  0
  -20.6061   -5.1978    0.0000 C   0  0  0  0  0  0  0  0  0  0  0  0
  -20.1882   -6.6384    0.0000 C   0  0  0  0  0  0  0  0  0  0  0  0
  -19.6696   -8.0459    0.0000 C   0  0  0  0  0  0  0  0  0  0  0  0
  -19.0531   -9.4134    0.0000 C   0  0  0  0  0  0  0  0  0  0  0  0
  -18.3416  -10.7339    0.0000 C   0  0  0  0  0  0  0  0  0  0  0  0
  -17.5387  -12.0009    0.0000 C   0  0  0  0  0  0  0  0  0  0  0  0
  -16.6485  -13.2082    0.0000 C   0  0  0  0  0  0  0  0  0  0  0  0
  -15.6754  -14.3497    0.0000 C   0  0  0  0  0  0  0  0  0  0  0  0
  -14.6241  -15.4197    0.0000 C   0  0  0  0  0  0  0  0  0  0  0  0
  -13.5000  -16.4128    0.0000 C   0  0  0  0  0  0  0  0  0  0  0  0
  -12.3086  -17.3242    0.0000 C   0  0  0  0  0  0  0  0  0  0  0  0
  -11.0559  -18.1493    0.0000 C   0  0  0  0  0  0  0  0  0  0  0  0
   -9.7481  -18.8840    0.0000 C   0  0  0  0  0  0  0  0  0  0  0  0
   -8.3918  -19.5245    0.0000 C   0  0  0  0  0  0  0  0  0  0  0  0
   -6.9937  -20.0679    0.0000 C   0  0  0  0  0  0  0  0  0  0  0  0
   -5.5607  -20.5112    0.0000 C   0  0  0  0  0  0  0  0  0  0  0  0
   -4.1000  -20.8524    0.0000 C   0  0  0  0  0  0  0  0  0  0  0  0
   -2.6189  -21.0896    0.0000 C   0  0  0  0  0  0  0  0  0  0  0  0
   -1.1247  -21.2218    0.0000 C   0  0  0  0  0  0  0  0  0  0  0  0
    0.3751  -21.2483    0.0000 C   0  0  0  0  0  0  0  0  0  0  0  0
    1.8730  -21.1689    0.0000 C   0  0  0  0  0  0  0  0  0  0  0  0
    3.3615  -20.9841    0.0000 C   0  0  0  0  0  0  0  0  0  0  0  0
    4.8333  -20.6947    0.0000 C   0  0  0  0  0  0  0  0  0  0  0  0
    6.2811  -20.3022    0.0000 C   0  0  0  0  0  0  0  0  0  0  0  0
    7.6975  -19.8085    0.0000 C   0  0  0  0  0  0  0  0  0  0  0  0
    9.0756  -19.2162    0.0000 C   0  0  0  0  0  0  0  0  0  0  0  0
   10.4085  -18.5282    0.0000 C   0  0  0  0  0  0  0  0  0  0  0  0
   11.6895  -17.7478    0.0000 C   0  0  0  0  0  0  0  0  0  0  0  0
   12.9123  -16.8790    0.0000 C   0  0  0  0  0  0  0  0  0  0  0  0
   14.0708  -15.9262    0.0000 C   0  0  0  0  0  0  0  0  0  0  0  0
   15.1592  -14.8940    0.0000 C   0  0  0  0  0  0  0  0  0  0  0  0
   16.1720  -13.7875    0.0000 C   0  0  0  0  0  0  0  0  0  0  0  0
   17.1043  -12.6124    0.0000 C   0  0  0  0  0  0  0  0  0  0  0  0
   17.9514  -11.3745    0.0000 C   0  0  0  0  0  0  0  0  0  0  0  0
   18.7090  -10.0799    0.0000 C   0  0  0  0  0  0  0  0  0  0  0  0
   19.3734   -8.7351    0.0000 C   0  0  0  0  0  0  0  0  0  0  0  0
   19.9413   -7.3467    0.0000 C   0  0  0  0  0  0  0  0  0  0  0  0
   20.4099   -5.9218    0.0000 C   0  0  0  0  0  0  0  0  0  0  0  0
   20.7767   -4.4674    0.0000 C   0  0  0  0  0  0  0  0  0  0  0  0
   21.0401   -2.9907    0.0000 C   0  0  0  0  0  0  0  0  0  0  0  0
   21.1987   -1.4991    0.0000 C   0  0  0  0  0  0  0  0  0  0  0  0
  1  2  1  0
  2  3  1  0
  3  4  2  0
  4  5  1  0
  5  6  2  0
  6  7  1  0
  7  8  1  0
  8  9  1  0
  9 10  1  0
 10 11  1  0
 11 12  1  0
 12 13  1  0
 13 14  1  0
 14 15  1  0
 15 16  1  0
 16 17  1  0
 17 18  1  0
 18 19  1  0
 19 20  1  0
 20 21  1  0
 21 22  1  0
 22 23  1  0
 23 24  1  0
 24 25  1  0
 25 26  1  0
 26 27  1  0
 27 28  1  0
 28 29  1  0
 29 30  1  0
 30 31  1  0
 31 32  1  0
 32 33  1  0
 33 34  1  0
 34 35  1  0
 35 36  1  0
 36 37  1  0
 37 38  1  0
 38 39  1  0
 39 40  1  0
 40 41  1  0
 41 42  1  0
 42 43  1  0
 43 44  1  0
 44 45  1  0
 45 46  1  0
 46 47  1  0
 47 48  1  0
 48 49  1  0
 49 50  1  0
 50 51  1  0
 51 52  1  0
 52 53  1  0
 53 54  1  0
 54 55  1  0
 55 56  1  0
 56 57  1  0
 57 58  1  0
 58 59  1  0
 59 60  1  0
 60 61  1  0
 61 62  1  0
 62 63  1  0
 63 64  1  0
 64 65  1  0
 65 66  1  0
 66 67  1  0
 67 68  1  0
 68 69  1  0
 69 70  1  0
 70 71  1  0
 71 72  1  0
 72 73  1  0
 73 74  1  0
 74 75  1  0
 75 76  1  0
 76 77  1  0
 77 78  1  0
 78 79  1  0
 79 80  1  0
 80 81  1  0
 81 82  1  0
 82 83  1  0
 83 84  1  0
 84 85  1  0
 85 86  1  0
 86 87  1  0
 87 88  1  0
 88 89  1  0
 89 90  1  0
 90  2  1  0
M  END
>  <Title>  (192) 
idAAFPgen7

$$$$

     RDKit          2D

 68 78  0  0  0  0  0  0  0  0999 V2000
    6.4958   -4.6081    0.0000 C   0  0  0  0  0  0  0  0  0  0  0  0
    5.0565   -5.0307    0.0000 C   0  0  0  0  0  0  0  0  0  0  0  0
    4.4334   -3.6662    0.0000 C   0  0  0  0  0  0  0  0  0  0  0  0
    3.4511   -2.5326    0.0000 C   0  0  0  0  0  0  0  0  0  0  0  0
    2.1892   -1.7216    0.0000 C   0  0  0  0  0  0  0  0  0  0  0  0
    2.8124   -0.3572    0.0000 C   0  0  0  0  0  0  0  0  0  0  0  0
    1.9423    0.8647    0.0000 O   0  0  0  0  0  0  0  0  0  0  0  0
    4.3056   -0.2146    0.0000 N   0  0  0  0  0  0  0  0  0  0  0  0
    4.9287    1.1498    0.0000 C   0  0  0  0  0  0  0  0  0  0  0  0
    6.4219    1.2924    0.0000 N   0  0  0  0  0  0  0  0  0  0  0  0
    7.0450    2.6569    0.0000 N   0  0  0  0  0  0  0  0  0  0  0  0
    6.1749    3.8787    0.0000 N   0  0  0  0  0  0  0  0  0  0  0  0
    4.6817    3.7362    0.0000 N   0  0  0  0  0  0  0  0  0  0  0  0
    4.0586    2.3717    0.0000 N   0  0  0  0  0  0  0  0  0  0  0  0
    0.7500   -1.2990    0.0000 C   0  0  0  0  0  0  0  0  0  0  0  0
    1.5000    0.0000    0.0000 C   0  0  0  0  0  0  0  0  0  0  0  0
    0.7500    1.2990    0.0000 C   0  0  0  0  0  0  0  0  0  0  0  0
   -0.7500    1.2990    0.0000 C   0  0  0  0  0  0  0  0  0  0  0  0
   -1.5000    0.0000    0.0000 C   0  0  0  0  0  0  0  0  0  0  0  0
   -0.7500   -1.2990    0.0000 C   0  0  0  0  0  0  0  0  0  0  0  0
   -2.1892   -1.7216    0.0000 C   0  0  0  0  0  0  0  0  0  0  0  0
   -2.2606   -0.2233    0.0000 C   0  0  0  0  0  0  0  0  0  0  0  0
   -3.5939    0.4640    0.0000 C   0  0  0  0  0  0  0  0  0  0  0  0
   -4.8557   -0.3470    0.0000 C   0  0  0  0  0  0  0  0  0  0  0  0
   -4.7844   -1.8453    0.0000 C   0  0  0  0  0  0  0  0  0  0  0  0
   -3.4511   -2.5326    0.0000 C   0  0  0  0  0  0  0  0  0  0  0  0
   -4.4334   -3.6662    0.0000 C   0  0  0  0  0  0  0  0  0  0  0  0
   -5.3035   -2.4444    0.0000 C   0  0  0  0  0  0  0  0  0  0  0  0
   -6.7967   -2.5869    0.0000 C   0  0  0  0  0  0  0  0  0  0  0  0
   -7.4198   -3.9514    0.0000 C   0  0  0  0  0  0  0  0  0  0  0  0
   -6.5497   -5.1733    0.0000 C   0  0  0  0  0  0  0  0  0  0  0  0
   -5.0565   -5.0307    0.0000 C   0  0  0  0  0  0  0  0  0  0  0  0
   -5.2700   -6.5154    0.0000 C   0  0  0  0  0  0  0  0  0  0  0  0
   -6.6626   -5.9579    0.0000 C   0  0  0  0  0  0  0  0  0  0  0  0
   -7.8416   -6.8851    0.0000 C   0  0  0  0  0  0  0  0  0  0  0  0
   -7.6282   -8.3699    0.0000 C   0  0  0  0  0  0  0  0  0  0  0  0
   -6.2356   -8.9274    0.0000 C   0  0  0  0  0  0  0  0  0  0  0  0
   -5.0565   -8.0001    0.0000 C   0  0  0  0  0  0  0  0  0  0  0  0
   -4.4334   -9.3646    0.0000 C   0  0  0  0  0  0  0  0  0  0  0  0
   -5.9063   -9.6485    0.0000 C   0  0  0  0  0  0  0  0  0  0  0  0
   -6.3969  -11.0660    0.0000 C   0  0  0  0  0  0  0  0  0  0  0  0
   -5.4146  -12.1996    0.0000 C   0  0  0  0  0  0  0  0  0  0  0  0
   -3.9417  -11.9157    0.0000 C   0  0  0  0  0  0  0  0  0  0  0  0
   -3.4511  -10.4982    0.0000 C   0  0  0  0  0  0  0  0  0  0  0  0
   -2.1892  -11.3092    0.0000 C   0  0  0  0  0  0  0  0  0  0  0  0
   -3.2748  -12.3443    0.0000 C   0  0  0  0  0  0  0  0  0  0  0  0
   -2.9212  -13.8020    0.0000 C   0  0  0  0  0  0  0  0  0  0  0  0
   -1.4820  -14.2246    0.0000 C   0  0  0  0  0  0  0  0  0  0  0  0
   -0.3964  -13.1895    0.0000 C   0  0  0  0  0  0  0  0  0  0  0  0
   -0.7500  -11.7318    0.0000 C   0  0  0  0  0  0  0  0  0  0  0  0
    0.7500  -11.7318    0.0000 C   0  0  0  0  0  0  0  0  0  0  0  0
    0.3964  -13.1895    0.0000 C   0  0  0  0  0  0  0  0  0  0  0  0
    1.4820  -14.2246    0.0000 C   0  0  0  0  0  0  0  0  0  0  0  0
    2.9212  -13.8020    0.0000 C   0  0  0  0  0  0  0  0  0  0  0  0
    3.2748  -12.3443    0.0000 C   0  0  0  0  0  0  0  0  0  0  0  0
    2.1892  -11.3092    0.0000 C   0  0  0  0  0  0  0  0  0  0  0  0
    3.4511  -10.4982    0.0000 C   0  0  0  0  0  0  0  0  0  0  0  0
    3.9417  -11.9157    0.0000 C   0  0  0  0  0  0  0  0  0  0  0  0
    5.4146  -12.1996    0.0000 C   0  0  0  0  0  0  0  0  0  0  0  0
    6.3969  -11.0660    0.0000 C   0  0  0  0  0  0  0  0  0  0  0  0
    5.9063   -9.6485    0.0000 C   0  0  0  0  0  0  0  0  0  0  0  0
    4.4334   -9.3646    0.0000 C   0  0  0  0  0  0  0  0  0  0  0  0
    5.0565   -8.0001    0.0000 C   0  0  0  0  0  0  0  0  0  0  0  0
    6.2356   -8.9274    0.0000 C   0  0  0  0  0  0  0  0  0  0  0  0
    7.6282   -8.3699    0.0000 C   0  0  0  0  0  0  0  0  0  0  0  0
    7.8416   -6.8851    0.0000 C   0  0  0  0  0  0  0  0  0  0  0  0
    6.6626   -5.9579    0.0000 C   0  0  0  0  0  0  0  0  0  0  0  0
    5.2700   -6.5154    0.0000 C   0  0  0  0  0  0  0  0  0  0  0  0
  1  2  1  0
  2  3  2  0
  3  4  1  0
  4  5  2  0
  5  6  1  0
  6  7  2  0
  6  8  1  0
  8  9  1  0
  9 10  2  0
 10 11  1  0
 11 12  2  0
 12 13  1  0
 13 14  2  0
  5 15  1  0
 15 16  2  0
 16 17  1  0
 17 18  2  0
 18 19  1  0
 19 20  2  0
 20 21  1  0
 21 22  2  0
 22 23  1  0
 23 24  2  0
 24 25  1  0
 25 26  2  0
 26 27  1  0
 27 28  2  0
 28 29  1  0
 29 30  2  0
 30 31  1  0
 31 32  2  0
 32 33  1  0
 33 34  2  0
 34 35  1  0
 35 36  2  0
 36 37  1  0
 37 38  2  0
 38 39  1  0
 39 40  2  0
 40 41  1  0
 41 42  2  0
 42 43  1  0
 43 44  2  0
 44 45  1  0
 45 46  2  0
 46 47  1  0
 47 48  2  0
 48 49  1  0
 49 50  2  0
 50 51  1  0
 51 52  2  0
 52 53  1  0
 53 54  2  0
 54 55  1  0
 55 56  2  0
 56 57  1  0
 57 58  2  0
 58 59  1  0
 59 60  2  0
 60 61  1  0
 61 62  2  0
 62 63  1  0
 63 64  2  0
 64 65  1  0
 65 66  2  0
 66 67  1  0
 67 68  2  0
 68  2  1  0
 14  9  1  0
 20 15  1  0
 26 21  1  0
 32 27  1  0
 38 33  1  0
 44 39  1  0
 50 45  1  0
 56 51  1  0
 62 57  1  0
 68 63  1  0
M  END
>  <Title>  (193) 
idAAFQgen7

$$$$

     RDKit          2D

 11 11  0  0  0  0  0  0  0  0999 V2000
    3.9271    0.0000    0.0000 C   0  0  0  0  0  0  0  0  0  0  0  0
    2.4271    0.0000    0.0000 C   0  0  0  0  0  0  0  0  0  0  0  0
    1.9635   -1.4266    0.0000 C   0  0  0  0  0  0  0  0  0  0  0  0
    0.7500   -2.3083    0.0000 C   0  0  0  0  0  0  0  0  0  0  0  0
   -0.7500   -2.3083    0.0000 C   0  0  0  0  0  0  0  0  0  0  0  0
   -1.9635   -1.4266    0.0000 C   0  0  0  0  0  0  0  0  0  0  0  0
   -2.4271    0.0000    0.0000 C   0  0  0  0  0  0  0  0  0  0  0  0
   -1.9635    1.4266    0.0000 C   0  0  0  0  0  0  0  0  0  0  0  0
   -0.7500    2.3083    0.0000 C   0  0  0  0  0  0  0  0  0  0  0  0
    0.7500    2.3083    0.0000 C   0  0  0  0  0  0  0  0  0  0  0  0
    1.9635    1.4266    0.0000 C   0  0  0  0  0  0  0  0  0  0  0  0
  1  2  1  0
  2  3  1  0
  3  4  1  0
  4  5  1  0
  5  6  1  0
  6  7  1  0
  7  8  1  0
  8  9  1  0
  9 10  1  0
 10 11  1  0
 11  2  1  0
M  END
>  <Title>  (194) 
idAAFRgen7

$$$$

     RDKit          2D

 22 23  0  0  0  0  0  0  0  0999 V2000
    4.2558    4.6904    0.0000 C   0  0  0  0  0  0  0  0  0  0  0  0
    2.7886    4.3786    0.0000 C   0  0  0  0  0  0  0  0  0  0  0  0
    2.3250    2.9520    0.0000 C   0  0  0  0  0  0  0  0  0  0  0  0
    0.8578    2.6401    0.0000 C   0  0  0  0  0  0  0  0  0  0  0  0
   -0.1459    3.7548    0.0000 O   0  0  0  0  0  0  0  0  0  0  0  0
    0.3943    1.2135    0.0000 N   0  0  0  0  0  0  0  0  0  0  0  0
    1.2760    0.0000    0.0000 C   0  0  0  0  0  0  0  0  0  0  0  0
    0.3943   -1.2135    0.0000 C   0  0  0  0  0  0  0  0  0  0  0  0
   -1.0323   -0.7500    0.0000 C   0  0  0  0  0  0  0  0  0  0  0  0
   -2.2458   -1.6317    0.0000 C   0  0  0  0  0  0  0  0  0  0  0  0
   -2.0890   -3.1235    0.0000 O   0  0  0  0  0  0  0  0  0  0  0  0
   -3.6161   -1.0216    0.0000 O   0  0  0  0  0  0  0  0  0  0  0  0
   -1.0323    0.7500    0.0000 C   0  0  0  0  0  0  0  0  0  0  0  0
   -2.2458    1.6317    0.0000 O   0  0  0  0  0  0  0  0  0  0  0  0
    1.7849    5.4933    0.0000 N   0  0  0  0  0  0  0  0  0  0  0  0
    2.2484    6.9199    0.0000 C   0  0  0  0  0  0  0  0  0  0  0  0
    3.7156    7.2317    0.0000 O   0  0  0  0  0  0  0  0  0  0  0  0
    1.2447    8.0346    0.0000 C   0  0  0  0  0  0  0  0  0  0  0  0
   -0.2471    7.8778    0.0000 C   0  0  0  0  0  0  0  0  0  0  0  0
   -0.8572    9.2481    0.0000 C   0  0  0  0  0  0  0  0  0  0  0  0
    0.2575   10.2518    0.0000 C   0  0  0  0  0  0  0  0  0  0  0  0
    1.5566    9.5018    0.0000 C   0  0  0  0  0  0  0  0  0  0  0  0
  1  2  1  0
  2  3  1  0
  3  4  1  0
  4  5  2  0
  4  6  1  0
  6  7  1  0
  7  8  1  0
  8  9  1  0
  9 10  1  0
 10 11  2  0
 10 12  1  0
  9 13  1  0
 13 14  2  0
  2 15  1  0
 15 16  1  0
 16 17  2  0
 16 18  1  0
 18 19  1  0
 19 20  1  0
 20 21  1  0
 21 22  1  0
 13  6  1  0
 22 18  1  0
M  END
>  <Title>  (195) 
idAAFSgen7

$$$$

     RDKit          2D

 47 52  0  0  0  0  0  0  0  0999 V2000
   -4.4508  -10.4851    0.0000 C   0  0  0  0  0  0  0  0  0  0  0  0
   -3.3901   -9.4245    0.0000 C   0  0  0  0  0  0  0  0  0  0  0  0
   -2.1766  -10.3061    0.0000 C   0  0  0  0  0  0  0  0  0  0  0  0
   -0.7500  -10.7697    0.0000 C   0  0  0  0  0  0  0  0  0  0  0  0
    0.7500  -10.7697    0.0000 C   0  0  0  0  0  0  0  0  0  0  0  0
    2.1766  -10.3061    0.0000 C   0  0  0  0  0  0  0  0  0  0  0  0
    3.3901   -9.4245    0.0000 C   0  0  0  0  0  0  0  0  0  0  0  0
    4.2718   -8.2109    0.0000 C   0  0  0  0  0  0  0  0  0  0  0  0
    4.7353   -6.7844    0.0000 C   0  0  0  0  0  0  0  0  0  0  0  0
    4.7353   -5.2844    0.0000 C   0  0  0  0  0  0  0  0  0  0  0  0
    4.2718   -3.8578    0.0000 C   0  0  0  0  0  0  0  0  0  0  0  0
    3.3901   -2.6442    0.0000 C   0  0  0  0  0  0  0  0  0  0  0  0
    2.1766   -1.7626    0.0000 C   0  0  0  0  0  0  0  0  0  0  0  0
    2.8576   -0.4261    0.0000 C   0  0  0  0  0  0  0  0  0  0  0  0
    4.3555   -0.3475    0.0000 C   0  0  0  0  0  0  0  0  0  0  0  0
    5.1725   -1.6056    0.0000 O   0  0  0  0  0  0  0  0  0  0  0  0
    5.0365    0.9890    0.0000 N   0  0  0  0  0  0  0  0  0  0  0  0
    6.5344    1.0675    0.0000 C   0  0  0  0  0  0  0  0  0  0  0  0
    7.3514   -0.1905    0.0000 N   0  0  0  0  0  0  0  0  0  0  0  0
    8.8493   -0.1120    0.0000 N   0  0  0  0  0  0  0  0  0  0  0  0
    9.5303    1.2245    0.0000 N   0  0  0  0  0  0  0  0  0  0  0  0
    8.7134    2.4825    0.0000 N   0  0  0  0  0  0  0  0  0  0  0  0
    7.2154    2.4040    0.0000 N   0  0  0  0  0  0  0  0  0  0  0  0
    0.7500   -1.2990    0.0000 C   0  0  0  0  0  0  0  0  0  0  0  0
    1.5000    0.0000    0.0000 C   0  0  0  0  0  0  0  0  0  0  0  0
    0.7500    1.2990    0.0000 C   0  0  0  0  0  0  0  0  0  0  0  0
   -0.7500    1.2990    0.0000 C   0  0  0  0  0  0  0  0  0  0  0  0
   -1.5000    0.0000    0.0000 C   0  0  0  0  0  0  0  0  0  0  0  0
   -0.7500   -1.2990    0.0000 C   0  0  0  0  0  0  0  0  0  0  0  0
   -2.1766   -1.7626    0.0000 C   0  0  0  0  0  0  0  0  0  0  0  0
   -2.3334   -0.2708    0.0000 C   0  0  0  0  0  0  0  0  0  0  0  0
   -3.7037    0.3393    0.0000 C   0  0  0  0  0  0  0  0  0  0  0  0
   -4.9172   -0.5424    0.0000 C   0  0  0  0  0  0  0  0  0  0  0  0
   -4.7604   -2.0341    0.0000 C   0  0  0  0  0  0  0  0  0  0  0  0
   -3.3901   -2.6442    0.0000 C   0  0  0  0  0  0  0  0  0  0  0  0
   -4.2718   -3.8578    0.0000 C   0  0  0  0  0  0  0  0  0  0  0  0
   -5.2755   -2.7430    0.0000 C   0  0  0  0  0  0  0  0  0  0  0  0
   -6.7427   -3.0549    0.0000 C   0  0  0  0  0  0  0  0  0  0  0  0
   -7.2062   -4.4815    0.0000 C   0  0  0  0  0  0  0  0  0  0  0  0
   -6.2025   -5.5962    0.0000 C   0  0  0  0  0  0  0  0  0  0  0  0
   -4.7353   -5.2844    0.0000 C   0  0  0  0  0  0  0  0  0  0  0  0
   -4.7353   -6.7844    0.0000 C   0  0  0  0  0  0  0  0  0  0  0  0
   -6.2025   -6.4725    0.0000 C   0  0  0  0  0  0  0  0  0  0  0  0
   -7.2062   -7.5872    0.0000 C   0  0  0  0  0  0  0  0  0  0  0  0
   -6.7427   -9.0138    0.0000 C   0  0  0  0  0  0  0  0  0  0  0  0
   -5.2755   -9.3257    0.0000 C   0  0  0  0  0  0  0  0  0  0  0  0
   -4.2718   -8.2109    0.0000 C   0  0  0  0  0  0  0  0  0  0  0  0
  1  2  1  0
  2  3  1  0
  3  4  1  0
  4  5  1  0
  5  6  1  0
  6  7  1  0
  7  8  1  0
  8  9  1  0
  9 10  1  0
 10 11  1  0
 11 12  1  0
 12 13  1  0
 13 14  1  0
 14 15  1  0
 15 16  2  0
 15 17  1  0
 17 18  1  0
 18 19  2  0
 19 20  1  0
 20 21  2  0
 21 22  1  0
 22 23  2  0
 13 24  1  0
 24 25  2  0
 25 26  1  0
 26 27  2  0
 27 28  1  0
 28 29  2  0
 29 30  1  0
 30 31  2  0
 31 32  1  0
 32 33  2  0
 33 34  1  0
 34 35  2  0
 35 36  1  0
 36 37  2  0
 37 38  1  0
 38 39  2  0
 39 40  1  0
 40 41  2  0
 41 42  1  0
 42 43  2  0
 43 44  1  0
 44 45  2  0
 45 46  1  0
 46 47  2  0
 47  2  1  0
 23 18  1  0
 29 24  1  0
 35 30  1  0
 41 36  1  0
 47 42  1  0
M  END
>  <Title>  (196) 
idAAFTgen7

$$$$

     RDKit          2D

  9  9  0  0  0  0  0  0  0  0999 V2000
    5.0260   -1.2990    0.0000 O   0  0  0  0  0  0  0  0  0  0  0  0
    3.5260   -1.2990    0.0000 C   0  0  0  0  0  0  0  0  0  0  0  0
    2.7760    0.0000    0.0000 C   0  0  0  0  0  0  0  0  0  0  0  0
    3.5260    1.2990    0.0000 O   0  0  0  0  0  0  0  0  0  0  0  0
    1.2760    0.0000    0.0000 C   0  0  0  0  0  0  0  0  0  0  0  0
    0.3943    1.2135    0.0000 C   0  0  0  0  0  0  0  0  0  0  0  0
   -1.0323    0.7500    0.0000 C   0  0  0  0  0  0  0  0  0  0  0  0
   -1.0323   -0.7500    0.0000 C   0  0  0  0  0  0  0  0  0  0  0  0
    0.3943   -1.2135    0.0000 C   0  0  0  0  0  0  0  0  0  0  0  0
  1  2  1  0
  2  3  1  0
  3  4  1  0
  3  5  1  0
  5  6  2  0
  6  7  1  0
  7  8  1  0
  8  9  2  0
  9  5  1  0
M  END
>  <Title>  (197) 
idAAFUgen7

$$$$

     RDKit          2D

 95 95  0  0  0  0  0  0  0  0999 V2000
   23.4677   -0.0000    0.0000 C   0  0  0  0  0  0  0  0  0  0  0  0
   21.9677    0.0000    0.0000 C   0  0  0  0  0  0  0  0  0  0  0  0
   21.9164   -1.4991    0.0000 C   0  0  0  0  0  0  0  0  0  0  0  0
   21.7630   -2.9913    0.0000 C   0  0  0  0  0  0  0  0  0  0  0  0
   21.5082   -4.4695    0.0000 C   0  0  0  0  0  0  0  0  0  0  0  0
   21.1530   -5.9268    0.0000 C   0  0  0  0  0  0  0  0  0  0  0  0
   20.6993   -7.3565    0.0000 C   0  0  0  0  0  0  0  0  0  0  0  0
   20.1490   -8.7519    0.0000 C   0  0  0  0  0  0  0  0  0  0  0  0
   19.5048  -10.1065    0.0000 C   0  0  0  0  0  0  0  0  0  0  0  0
   18.7696  -11.4140    0.0000 C   0  0  0  0  0  0  0  0  0  0  0  0
   17.9469  -12.6683    0.0000 C   0  0  0  0  0  0  0  0  0  0  0  0
   17.0406  -13.8635    0.0000 C   0  0  0  0  0  0  0  0  0  0  0  0
   16.0547  -14.9941    0.0000 C   0  0  0  0  0  0  0  0  0  0  0  0
   14.9941  -16.0547    0.0000 C   0  0  0  0  0  0  0  0  0  0  0  0
   13.8635  -17.0406    0.0000 C   0  0  0  0  0  0  0  0  0  0  0  0
   12.6683  -17.9469    0.0000 C   0  0  0  0  0  0  0  0  0  0  0  0
   11.4140  -18.7696    0.0000 C   0  0  0  0  0  0  0  0  0  0  0  0
   10.1065  -19.5048    0.0000 C   0  0  0  0  0  0  0  0  0  0  0  0
    8.7519  -20.1490    0.0000 C   0  0  0  0  0  0  0  0  0  0  0  0
    7.3565  -20.6993    0.0000 C   0  0  0  0  0  0  0  0  0  0  0  0
    5.9268  -21.1530    0.0000 C   0  0  0  0  0  0  0  0  0  0  0  0
    4.4695  -21.5082    0.0000 C   0  0  0  0  0  0  0  0  0  0  0  0
    2.9913  -21.7630    0.0000 C   0  0  0  0  0  0  0  0  0  0  0  0
    1.4991  -21.9164    0.0000 C   0  0  0  0  0  0  0  0  0  0  0  0
   -0.0000  -21.9677    0.0000 C   0  0  0  0  0  0  0  0  0  0  0  0
   -1.4991  -21.9164    0.0000 C   0  0  0  0  0  0  0  0  0  0  0  0
   -2.9913  -21.7630    0.0000 C   0  0  0  0  0  0  0  0  0  0  0  0
   -4.4695  -21.5082    0.0000 C   0  0  0  0  0  0  0  0  0  0  0  0
   -5.9268  -21.1530    0.0000 C   0  0  0  0  0  0  0  0  0  0  0  0
   -7.3565  -20.6993    0.0000 C   0  0  0  0  0  0  0  0  0  0  0  0
   -8.7519  -20.1490    0.0000 C   0  0  0  0  0  0  0  0  0  0  0  0
   -9.3495  -21.5248    0.0000 C   0  0  0  0  0  0  0  0  0  0  0  0
   -9.9471  -22.9006    0.0000 N   0  0  0  0  0  0  0  0  0  0  0  0
  -10.1065  -19.5048    0.0000 C   0  0  0  0  0  0  0  0  0  0  0  0
  -11.4140  -18.7696    0.0000 C   0  0  0  0  0  0  0  0  0  0  0  0
  -12.6683  -17.9469    0.0000 C   0  0  0  0  0  0  0  0  0  0  0  0
  -13.8635  -17.0406    0.0000 C   0  0  0  0  0  0  0  0  0  0  0  0
  -14.9941  -16.0547    0.0000 C   0  0  0  0  0  0  0  0  0  0  0  0
  -16.0547  -14.9941    0.0000 C   0  0  0  0  0  0  0  0  0  0  0  0
  -17.0406  -13.8635    0.0000 C   0  0  0  0  0  0  0  0  0  0  0  0
  -17.9469  -12.6683    0.0000 C   0  0  0  0  0  0  0  0  0  0  0  0
  -18.7696  -11.4140    0.0000 C   0  0  0  0  0  0  0  0  0  0  0  0
  -19.5048  -10.1065    0.0000 C   0  0  0  0  0  0  0  0  0  0  0  0
  -20.1490   -8.7519    0.0000 C   0  0  0  0  0  0  0  0  0  0  0  0
  -20.6993   -7.3565    0.0000 C   0  0  0  0  0  0  0  0  0  0  0  0
  -21.1530   -5.9268    0.0000 C   0  0  0  0  0  0  0  0  0  0  0  0
  -21.5082   -4.4695    0.0000 C   0  0  0  0  0  0  0  0  0  0  0  0
  -21.7630   -2.9913    0.0000 C   0  0  0  0  0  0  0  0  0  0  0  0
  -21.9164   -1.4991    0.0000 C   0  0  0  0  0  0  0  0  0  0  0  0
  -21.9677    0.0000    0.0000 C   0  0  0  0  0  0  0  0  0  0  0  0
  -21.9164    1.4991    0.0000 C   0  0  0  0  0  0  0  0  0  0  0  0
  -21.7630    2.9913    0.0000 C   0  0  0  0  0  0  0  0  0  0  0  0
  -21.5082    4.4695    0.0000 C   0  0  0  0  0  0  0  0  0  0  0  0
  -21.1530    5.9268    0.0000 C   0  0  0  0  0  0  0  0  0  0  0  0
  -20.6993    7.3565    0.0000 C   0  0  0  0  0  0  0  0  0  0  0  0
  -20.1490    8.7519    0.0000 C   0  0  0  0  0  0  0  0  0  0  0  0
  -19.5048   10.1065    0.0000 C   0  0  0  0  0  0  0  0  0  0  0  0
  -18.7696   11.4140    0.0000 C   0  0  0  0  0  0  0  0  0  0  0  0
  -17.9469   12.6683    0.0000 C   0  0  0  0  0  0  0  0  0  0  0  0
  -17.0406   13.8635    0.0000 C   0  0  0  0  0  0  0  0  0  0  0  0
  -16.0547   14.9941    0.0000 C   0  0  0  0  0  0  0  0  0  0  0  0
  -14.9941   16.0547    0.0000 C   0  0  0  0  0  0  0  0  0  0  0  0
  -13.8635   17.0406    0.0000 C   0  0  0  0  0  0  0  0  0  0  0  0
  -12.6683   17.9469    0.0000 C   0  0  0  0  0  0  0  0  0  0  0  0
  -11.4140   18.7696    0.0000 C   0  0  0  0  0  0  0  0  0  0  0  0
  -10.1065   19.5048    0.0000 C   0  0  0  0  0  0  0  0  0  0  0  0
   -8.7519   20.1490    0.0000 C   0  0  0  0  0  0  0  0  0  0  0  0
   -7.3565   20.6993    0.0000 C   0  0  0  0  0  0  0  0  0  0  0  0
   -5.9268   21.1530    0.0000 C   0  0  0  0  0  0  0  0  0  0  0  0
   -4.4695   21.5082    0.0000 C   0  0  0  0  0  0  0  0  0  0  0  0
   -2.9913   21.7630    0.0000 C   0  0  0  0  0  0  0  0  0  0  0  0
   -1.4991   21.9164    0.0000 C   0  0  0  0  0  0  0  0  0  0  0  0
    0.0000   21.9677    0.0000 C   0  0  0  0  0  0  0  0  0  0  0  0
    1.4991   21.9164    0.0000 C   0  0  0  0  0  0  0  0  0  0  0  0
    2.9913   21.7630    0.0000 C   0  0  0  0  0  0  0  0  0  0  0  0
    4.4695   21.5082    0.0000 C   0  0  0  0  0  0  0  0  0  0  0  0
    5.9268   21.1530    0.0000 C   0  0  0  0  0  0  0  0  0  0  0  0
    7.3565   20.6993    0.0000 C   0  0  0  0  0  0  0  0  0  0  0  0
    8.7519   20.1490    0.0000 C   0  0  0  0  0  0  0  0  0  0  0  0
   10.1065   19.5048    0.0000 C   0  0  0  0  0  0  0  0  0  0  0  0
   11.4140   18.7696    0.0000 C   0  0  0  0  0  0  0  0  0  0  0  0
   12.6683   17.9469    0.0000 C   0  0  0  0  0  0  0  0  0  0  0  0
   13.8635   17.0406    0.0000 C   0  0  0  0  0  0  0  0  0  0  0  0
   14.9941   16.0547    0.0000 C   0  0  0  0  0  0  0  0  0  0  0  0
   16.0547   14.9941    0.0000 C   0  0  0  0  0  0  0  0  0  0  0  0
   17.0406   13.8635    0.0000 C   0  0  0  0  0  0  0  0  0  0  0  0
   17.9469   12.6683    0.0000 C   0  0  0  0  0  0  0  0  0  0  0  0
   18.7696   11.4140    0.0000 C   0  0  0  0  0  0  0  0  0  0  0  0
   19.5048   10.1065    0.0000 C   0  0  0  0  0  0  0  0  0  0  0  0
   20.1490    8.7519    0.0000 C   0  0  0  0  0  0  0  0  0  0  0  0
   20.6993    7.3565    0.0000 C   0  0  0  0  0  0  0  0  0  0  0  0
   21.1530    5.9268    0.0000 C   0  0  0  0  0  0  0  0  0  0  0  0
   21.5082    4.4695    0.0000 C   0  0  0  0  0  0  0  0  0  0  0  0
   21.7630    2.9913    0.0000 C   0  0  0  0  0  0  0  0  0  0  0  0
   21.9164    1.4991    0.0000 C   0  0  0  0  0  0  0  0  0  0  0  0
  1  2  1  0
  2  3  1  0
  3  4  1  0
  4  5  1  0
  5  6  2  0
  6  7  1  0
  7  8  1  0
  8  9  1  0
  9 10  1  0
 10 11  1  0
 11 12  1  0
 12 13  1  0
 13 14  1  0
 14 15  1  0
 15 16  1  0
 16 17  1  0
 17 18  1  0
 18 19  1  0
 19 20  1  0
 20 21  1  0
 21 22  1  0
 22 23  1  0
 23 24  1  0
 24 25  1  0
 25 26  1  0
 26 27  1  0
 27 28  1  0
 28 29  1  0
 29 30  1  0
 30 31  1  0
 31 32  1  0
 32 33  3  0
 31 34  1  0
 34 35  1  0
 35 36  1  0
 36 37  1  0
 37 38  1  0
 38 39  1  0
 39 40  1  0
 40 41  1  0
 41 42  1  0
 42 43  1  0
 43 44  1  0
 44 45  1  0
 45 46  1  0
 46 47  1  0
 47 48  1  0
 48 49  1  0
 49 50  1  0
 50 51  1  0
 51 52  1  0
 52 53  1  0
 53 54  1  0
 54 55  1  0
 55 56  1  0
 56 57  1  0
 57 58  1  0
 58 59  1  0
 59 60  1  0
 60 61  1  0
 61 62  1  0
 62 63  1  0
 63 64  1  0
 64 65  1  0
 65 66  1  0
 66 67  1  0
 67 68  1  0
 68 69  1  0
 69 70  1  0
 70 71  2  0
 71 72  1  0
 72 73  1  0
 73 74  1  0
 74 75  1  0
 75 76  1  0
 76 77  1  0
 77 78  1  0
 78 79  1  0
 79 80  1  0
 80 81  1  0
 81 82  1  0
 82 83  1  0
 83 84  1  0
 84 85  1  0
 85 86  1  0
 86 87  1  0
 87 88  1  0
 88 89  1  0
 89 90  1  0
 90 91  1  0
 91 92  1  0
 92 93  1  0
 93 94  1  0
 94 95  1  0
 95  2  1  0
M  END
>  <Title>  (198) 
idAAFVgen7

$$$$

     RDKit          2D

 57 57  0  0  0  0  0  0  0  0999 V2000
   16.1374   -0.0000    0.0000 N   0  0  0  0  0  0  0  0  0  0  0  0
   14.6374    0.0000    0.0000 C   0  0  0  0  0  0  0  0  0  0  0  0
   13.1374    0.0000    0.0000 C   0  0  0  0  0  0  0  0  0  0  0  0
   13.0518    1.4976    0.0000 C   0  0  0  0  0  0  0  0  0  0  0  0
   12.7960    2.9756    0.0000 C   0  0  0  0  0  0  0  0  0  0  0  0
   12.3734    4.4148    0.0000 C   0  0  0  0  0  0  0  0  0  0  0  0
   11.7895    5.7965    0.0000 C   0  0  0  0  0  0  0  0  0  0  0  0
   11.0519    7.1026    0.0000 C   0  0  0  0  0  0  0  0  0  0  0  0
   10.1702    8.3162    0.0000 C   0  0  0  0  0  0  0  0  0  0  0  0
    9.1560    9.4213    0.0000 C   0  0  0  0  0  0  0  0  0  0  0  0
    8.0223   10.4036    0.0000 C   0  0  0  0  0  0  0  0  0  0  0  0
    6.7841   11.2502    0.0000 C   0  0  0  0  0  0  0  0  0  0  0  0
    5.4575   11.9502    0.0000 C   0  0  0  0  0  0  0  0  0  0  0  0
    4.0597   12.4944    0.0000 C   0  0  0  0  0  0  0  0  0  0  0  0
    2.6090   12.8758    0.0000 C   0  0  0  0  0  0  0  0  0  0  0  0
    1.1242   13.0892    0.0000 C   0  0  0  0  0  0  0  0  0  0  0  0
   -0.3752   13.1321    0.0000 C   0  0  0  0  0  0  0  0  0  0  0  0
   -1.8697   13.0037    0.0000 C   0  0  0  0  0  0  0  0  0  0  0  0
   -3.3398   12.7058    0.0000 C   0  0  0  0  0  0  0  0  0  0  0  0
   -4.7664   12.2423    0.0000 C   0  0  0  0  0  0  0  0  0  0  0  0
   -6.1308   11.6192    0.0000 C   0  0  0  0  0  0  0  0  0  0  0  0
   -7.4153   10.8446    0.0000 C   0  0  0  0  0  0  0  0  0  0  0  0
   -8.6032    9.9286    0.0000 C   0  0  0  0  0  0  0  0  0  0  0  0
   -9.6789    8.8832    0.0000 C   0  0  0  0  0  0  0  0  0  0  0  0
  -10.6284    7.7220    0.0000 C   0  0  0  0  0  0  0  0  0  0  0  0
  -11.4394    6.4601    0.0000 C   0  0  0  0  0  0  0  0  0  0  0  0
  -12.1012    5.1140    0.0000 C   0  0  0  0  0  0  0  0  0  0  0  0
  -12.6053    3.7012    0.0000 C   0  0  0  0  0  0  0  0  0  0  0  0
  -12.9450    2.2402    0.0000 C   0  0  0  0  0  0  0  0  0  0  0  0
  -13.1160    0.7500    0.0000 C   0  0  0  0  0  0  0  0  0  0  0  0
  -13.1160   -0.7500    0.0000 C   0  0  0  0  0  0  0  0  0  0  0  0
  -12.9450   -2.2402    0.0000 C   0  0  0  0  0  0  0  0  0  0  0  0
  -12.6053   -3.7012    0.0000 C   0  0  0  0  0  0  0  0  0  0  0  0
  -12.1012   -5.1140    0.0000 C   0  0  0  0  0  0  0  0  0  0  0  0
  -11.4394   -6.4601    0.0000 C   0  0  0  0  0  0  0  0  0  0  0  0
  -10.6284   -7.7220    0.0000 C   0  0  0  0  0  0  0  0  0  0  0  0
   -9.6789   -8.8832    0.0000 C   0  0  0  0  0  0  0  0  0  0  0  0
   -8.6032   -9.9286    0.0000 C   0  0  0  0  0  0  0  0  0  0  0  0
   -7.4153  -10.8446    0.0000 C   0  0  0  0  0  0  0  0  0  0  0  0
   -6.1308  -11.6192    0.0000 C   0  0  0  0  0  0  0  0  0  0  0  0
   -4.7664  -12.2423    0.0000 C   0  0  0  0  0  0  0  0  0  0  0  0
   -3.3398  -12.7058    0.0000 C   0  0  0  0  0  0  0  0  0  0  0  0
   -1.8697  -13.0037    0.0000 C   0  0  0  0  0  0  0  0  0  0  0  0
   -0.3752  -13.1321    0.0000 C   0  0  0  0  0  0  0  0  0  0  0  0
    1.1242  -13.0892    0.0000 C   0  0  0  0  0  0  0  0  0  0  0  0
    2.6090  -12.8758    0.0000 C   0  0  0  0  0  0  0  0  0  0  0  0
    4.0597  -12.4944    0.0000 C   0  0  0  0  0  0  0  0  0  0  0  0
    5.4575  -11.9502    0.0000 C   0  0  0  0  0  0  0  0  0  0  0  0
    6.7841  -11.2502    0.0000 C   0  0  0  0  0  0  0  0  0  0  0  0
    8.0223  -10.4036    0.0000 C   0  0  0  0  0  0  0  0  0  0  0  0
    9.1560   -9.4213    0.0000 C   0  0  0  0  0  0  0  0  0  0  0  0
   10.1702   -8.3162    0.0000 C   0  0  0  0  0  0  0  0  0  0  0  0
   11.0519   -7.1026    0.0000 C   0  0  0  0  0  0  0  0  0  0  0  0
   11.7895   -5.7965    0.0000 C   0  0  0  0  0  0  0  0  0  0  0  0
   12.3734   -4.4148    0.0000 C   0  0  0  0  0  0  0  0  0  0  0  0
   12.7960   -2.9756    0.0000 C   0  0  0  0  0  0  0  0  0  0  0  0
   13.0518   -1.4976    0.0000 C   0  0  0  0  0  0  0  0  0  0  0  0
  1  2  3  0
  2  3  1  0
  3  4  1  0
  4  5  1  0
  5  6  1  0
  6  7  1  0
  7  8  1  0
  8  9  1  0
  9 10  1  0
 10 11  1  0
 11 12  1  0
 12 13  1  0
 13 14  1  0
 14 15  1  0
 15 16  1  0
 16 17  1  0
 17 18  1  0
 18 19  1  0
 19 20  1  0
 20 21  1  0
 21 22  1  0
 22 23  1  0
 23 24  1  0
 24 25  1  0
 25 26  1  0
 26 27  1  0
 27 28  1  0
 28 29  1  0
 29 30  1  0
 30 31  1  0
 31 32  1  0
 32 33  1  0
 33 34  1  0
 34 35  1  0
 35 36  1  0
 36 37  1  0
 37 38  1  0
 38 39  1  0
 39 40  1  0
 40 41  1  0
 41 42  1  0
 42 43  1  0
 43 44  1  0
 44 45  1  0
 45 46  1  0
 46 47  1  0
 47 48  1  0
 48 49  1  0
 49 50  1  0
 50 51  1  0
 51 52  1  0
 52 53  1  0
 53 54  1  0
 54 55  1  0
 55 56  1  0
 56 57  1  0
 57  3  1  0
M  END
>  <Title>  (199) 
idAAFWgen7

$$$$

     RDKit          2D

  9  9  0  0  0  0  0  0  0  0999 V2000
    5.0260   -1.2990    0.0000 C   0  0  0  0  0  0  0  0  0  0  0  0
    3.5260   -1.2990    0.0000 C   0  0  0  0  0  0  0  0  0  0  0  0
    2.7760    0.0000    0.0000 C   0  0  0  0  0  0  0  0  0  0  0  0
    1.2760    0.0000    0.0000 C   0  0  0  0  0  0  0  0  0  0  0  0
    0.3943    1.2135    0.0000 C   0  0  0  0  0  0  0  0  0  0  0  0
   -1.0323    0.7500    0.0000 C   0  0  0  0  0  0  0  0  0  0  0  0
   -1.0323   -0.7500    0.0000 C   0  0  0  0  0  0  0  0  0  0  0  0
   -2.2458   -1.6317    0.0000 C   0  0  0  0  0  0  0  0  0  0  0  0
    0.3943   -1.2135    0.0000 N   0  0  0  0  0  0  0  0  0  0  0  0
  1  2  1  0
  2  3  1  0
  3  4  1  0
  4  5  1  0
  5  6  1  0
  6  7  1  0
  7  8  1  0
  7  9  1  0
  9  4  1  0
M  END
>  <Title>  (200) 
idAAFXgen7

$$$$

     RDKit          2D

  7  7  0  0  0  0  0  0  0  0999 V2000
    3.0000    0.0000    0.0000 O   0  0  0  0  0  0  0  0  0  0  0  0
    1.5000    0.0000    0.0000 C   0  0  0  0  0  0  0  0  0  0  0  0
    0.7500   -1.2990    0.0000 C   0  0  0  0  0  0  0  0  0  0  0  0
   -0.7500   -1.2990    0.0000 C   0  0  0  0  0  0  0  0  0  0  0  0
   -1.5000    0.0000    0.0000 C   0  0  0  0  0  0  0  0  0  0  0  0
   -0.7500    1.2990    0.0000 C   0  0  0  0  0  0  0  0  0  0  0  0
    0.7500    1.2990    0.0000 C   0  0  0  0  0  0  0  0  0  0  0  0
  1  2  1  0
  2  3  2  0
  3  4  1  0
  4  5  1  0
  5  6  1  0
  6  7  1  0
  7  2  1  0
M  END
>  <Title>  (201) 
idAAFYgen7

$$$$

     RDKit          2D

 53 57  0  0  0  0  0  0  0  0999 V2000
   -5.8059   -1.9113    0.0000 C   0  0  0  0  0  0  0  0  0  0  0  0
   -4.8289   -3.0494    0.0000 C   0  0  0  0  0  0  0  0  0  0  0  0
   -5.8623   -4.1366    0.0000 C   0  0  0  0  0  0  0  0  0  0  0  0
   -6.6558   -5.4096    0.0000 C   0  0  0  0  0  0  0  0  0  0  0  0
   -7.1767   -6.8162    0.0000 C   0  0  0  0  0  0  0  0  0  0  0  0
   -7.4039   -8.2989    0.0000 C   0  0  0  0  0  0  0  0  0  0  0  0
   -7.3279   -9.7970    0.0000 C   0  0  0  0  0  0  0  0  0  0  0  0
   -6.9519  -11.2491    0.0000 C   0  0  0  0  0  0  0  0  0  0  0  0
   -6.2913  -12.5958    0.0000 C   0  0  0  0  0  0  0  0  0  0  0  0
   -5.3732  -13.7820    0.0000 C   0  0  0  0  0  0  0  0  0  0  0  0
   -4.2350  -14.7590    0.0000 C   0  0  0  0  0  0  0  0  0  0  0  0
   -2.9235  -15.4870    0.0000 C   0  0  0  0  0  0  0  0  0  0  0  0
   -1.4923  -15.9360    0.0000 C   0  0  0  0  0  0  0  0  0  0  0  0
    0.0000  -16.0878    0.0000 C   0  0  0  0  0  0  0  0  0  0  0  0
    1.4923  -15.9360    0.0000 C   0  0  0  0  0  0  0  0  0  0  0  0
    2.9235  -15.4870    0.0000 C   0  0  0  0  0  0  0  0  0  0  0  0
    4.2350  -14.7590    0.0000 C   0  0  0  0  0  0  0  0  0  0  0  0
    5.3732  -13.7820    0.0000 C   0  0  0  0  0  0  0  0  0  0  0  0
    6.2913  -12.5958    0.0000 C   0  0  0  0  0  0  0  0  0  0  0  0
    6.9519  -11.2491    0.0000 C   0  0  0  0  0  0  0  0  0  0  0  0
    7.3279   -9.7970    0.0000 C   0  0  0  0  0  0  0  0  0  0  0  0
    7.4039   -8.2989    0.0000 C   0  0  0  0  0  0  0  0  0  0  0  0
    7.1767   -6.8162    0.0000 C   0  0  0  0  0  0  0  0  0  0  0  0
    6.6558   -5.4096    0.0000 C   0  0  0  0  0  0  0  0  0  0  0  0
    5.8623   -4.1366    0.0000 C   0  0  0  0  0  0  0  0  0  0  0  0
    4.8289   -3.0494    0.0000 C   0  0  0  0  0  0  0  0  0  0  0  0
    5.8059   -1.9113    0.0000 C   0  0  0  0  0  0  0  0  0  0  0  0
    7.2801   -2.1884    0.0000 C   0  0  0  0  0  0  0  0  0  0  0  0
    8.2572   -1.0502    0.0000 C   0  0  0  0  0  0  0  0  0  0  0  0
    9.7314   -1.3273    0.0000 C   0  0  0  0  0  0  0  0  0  0  0  0
   10.7084   -0.1892    0.0000 C   0  0  0  0  0  0  0  0  0  0  0  0
   10.2113    1.2260    0.0000 C   0  0  0  0  0  0  0  0  0  0  0  0
    8.7371    1.5031    0.0000 C   0  0  0  0  0  0  0  0  0  0  0  0
    7.7601    0.3650    0.0000 C   0  0  0  0  0  0  0  0  0  0  0  0
    3.5977   -2.1925    0.0000 C   0  0  0  0  0  0  0  0  0  0  0  0
    4.7992   -1.2945    0.0000 C   0  0  0  0  0  0  0  0  0  0  0  0
    4.6223    0.1950    0.0000 C   0  0  0  0  0  0  0  0  0  0  0  0
    3.2439    0.7865    0.0000 C   0  0  0  0  0  0  0  0  0  0  0  0
    3.0669    2.2761    0.0000 O   0  0  0  0  0  0  0  0  0  0  0  0
    2.0424   -0.1115    0.0000 C   0  0  0  0  0  0  0  0  0  0  0  0
    2.2193   -1.6010    0.0000 C   0  0  0  0  0  0  0  0  0  0  0  0
    0.7500   -1.2990    0.0000 C   0  0  0  0  0  0  0  0  0  0  0  0
    0.8000   -0.0000    0.0000 C   0  0  0  0  0  0  0  0  0  0  0  0
    0.4000    0.6928    0.0000 C   0  0  0  0  0  0  0  0  0  0  0  0
   -0.4000    0.6928    0.0000 C   0  0  0  0  0  0  0  0  0  0  0  0
   -0.8000    0.0000    0.0000 C   0  0  0  0  0  0  0  0  0  0  0  0
   -0.7500   -1.2990    0.0000 C   0  0  0  0  0  0  0  0  0  0  0  0
   -2.2193   -1.6010    0.0000 C   0  0  0  0  0  0  0  0  0  0  0  0
   -2.0424   -0.1115    0.0000 C   0  0  0  0  0  0  0  0  0  0  0  0
   -3.2439    0.7865    0.0000 C   0  0  0  0  0  0  0  0  0  0  0  0
   -4.6223    0.1950    0.0000 C   0  0  0  0  0  0  0  0  0  0  0  0
   -4.7992   -1.2945    0.0000 C   0  0  0  0  0  0  0  0  0  0  0  0
   -3.5977   -2.1925    0.0000 C   0  0  0  0  0  0  0  0  0  0  0  0
  1  2  1  0
  2  3  1  0
  3  4  1  0
  4  5  1  0
  5  6  1  0
  6  7  1  0
  7  8  1  0
  8  9  1  0
  9 10  1  0
 10 11  1  0
 11 12  1  0
 12 13  1  0
 13 14  1  0
 14 15  1  0
 15 16  1  0
 16 17  1  0
 17 18  1  0
 18 19  1  0
 19 20  1  0
 20 21  1  0
 21 22  1  0
 22 23  1  0
 23 24  1  0
 24 25  1  0
 25 26  1  0
 26 27  1  0
 27 28  1  0
 28 29  1  0
 29 30  2  0
 30 31  1  0
 31 32  2  0
 32 33  1  0
 33 34  2  0
 26 35  1  0
 35 36  2  0
 36 37  1  0
 37 38  2  0
 38 39  1  0
 38 40  1  0
 40 41  2  0
 41 42  1  0
 42 43  2  0
 43 44  1  0
 44 45  2  0
 45 46  1  0
 46 47  2  0
 47 48  1  0
 48 49  2  0
 49 50  1  0
 50 51  2  0
 51 52  1  0
 52 53  2  0
 53  2  1  0
 34 29  1  0
 41 35  1  0
 47 42  1  0
 53 48  1  0
M  END
>  <Title>  (202) 
idAAFZgen7

$$$$

     RDKit          2D

 87 87  0  0  0  0  0  0  0  0999 V2000
   20.7742    0.0000    0.0000 C   0  0  0  0  0  0  0  0  0  0  0  0
   20.7201    1.4990    0.0000 C   0  0  0  0  0  0  0  0  0  0  0  0
   20.5579    2.9902    0.0000 C   0  0  0  0  0  0  0  0  0  0  0  0
   20.2885    4.4658    0.0000 C   0  0  0  0  0  0  0  0  0  0  0  0
   19.9134    5.9182    0.0000 C   0  0  0  0  0  0  0  0  0  0  0  0
   19.4345    7.3397    0.0000 C   0  0  0  0  0  0  0  0  0  0  0  0
   18.8542    8.7229    0.0000 C   0  0  0  0  0  0  0  0  0  0  0  0
   18.1756   10.0606    0.0000 C   0  0  0  0  0  0  0  0  0  0  0  0
   17.4023   11.3459    0.0000 C   0  0  0  0  0  0  0  0  0  0  0  0
   16.5382   12.5720    0.0000 C   0  0  0  0  0  0  0  0  0  0  0  0
   15.5879   13.7326    0.0000 C   0  0  0  0  0  0  0  0  0  0  0  0
   14.5564   14.8216    0.0000 C   0  0  0  0  0  0  0  0  0  0  0  0
   13.4490   15.8333    0.0000 C   0  0  0  0  0  0  0  0  0  0  0  0
   12.2714   16.7625    0.0000 C   0  0  0  0  0  0  0  0  0  0  0  0
   11.0299   17.6043    0.0000 C   0  0  0  0  0  0  0  0  0  0  0  0
    9.7308   18.3543    0.0000 C   0  0  0  0  0  0  0  0  0  0  0  0
    8.3811   19.0086    0.0000 C   0  0  0  0  0  0  0  0  0  0  0  0
    6.9876   19.5638    0.0000 C   0  0  0  0  0  0  0  0  0  0  0  0
    5.5577   20.0170    0.0000 C   0  0  0  0  0  0  0  0  0  0  0  0
    4.0988   20.3659    0.0000 C   0  0  0  0  0  0  0  0  0  0  0  0
    2.6186   20.6085    0.0000 C   0  0  0  0  0  0  0  0  0  0  0  0
    1.1247   20.7438    0.0000 C   0  0  0  0  0  0  0  0  0  0  0  0
   -0.3751   20.7708    0.0000 C   0  0  0  0  0  0  0  0  0  0  0  0
   -1.8729   20.6896    0.0000 C   0  0  0  0  0  0  0  0  0  0  0  0
   -3.3609   20.5006    0.0000 C   0  0  0  0  0  0  0  0  0  0  0  0
   -4.8314   20.2046    0.0000 C   0  0  0  0  0  0  0  0  0  0  0  0
   -6.2767   19.8033    0.0000 C   0  0  0  0  0  0  0  0  0  0  0  0
   -7.6893   19.2988    0.0000 C   0  0  0  0  0  0  0  0  0  0  0  0
   -9.0618   18.6936    0.0000 C   0  0  0  0  0  0  0  0  0  0  0  0
  -10.3871   17.9910    0.0000 C   0  0  0  0  0  0  0  0  0  0  0  0
  -11.6582   17.1946    0.0000 C   0  0  0  0  0  0  0  0  0  0  0  0
  -12.8686   16.3086    0.0000 C   0  0  0  0  0  0  0  0  0  0  0  0
  -14.0118   15.3375    0.0000 C   0  0  0  0  0  0  0  0  0  0  0  0
  -15.0820   14.2864    0.0000 C   0  0  0  0  0  0  0  0  0  0  0  0
  -16.0736   13.1609    0.0000 C   0  0  0  0  0  0  0  0  0  0  0  0
  -16.9813   11.9668    0.0000 C   0  0  0  0  0  0  0  0  0  0  0  0
  -17.8006   10.7102    0.0000 C   0  0  0  0  0  0  0  0  0  0  0  0
  -18.5270    9.3979    0.0000 C   0  0  0  0  0  0  0  0  0  0  0  0
  -19.1568    8.0365    0.0000 C   0  0  0  0  0  0  0  0  0  0  0  0
  -19.6868    6.6332    0.0000 C   0  0  0  0  0  0  0  0  0  0  0  0
  -20.1141    5.1954    0.0000 C   0  0  0  0  0  0  0  0  0  0  0  0
  -20.4365    3.7305    0.0000 C   0  0  0  0  0  0  0  0  0  0  0  0
  -20.6525    2.2461    0.0000 C   0  0  0  0  0  0  0  0  0  0  0  0
  -20.7607    0.7500    0.0000 C   0  0  0  0  0  0  0  0  0  0  0  0
  -20.7607   -0.7500    0.0000 C   0  0  0  0  0  0  0  0  0  0  0  0
  -20.6525   -2.2461    0.0000 C   0  0  0  0  0  0  0  0  0  0  0  0
  -20.4365   -3.7305    0.0000 C   0  0  0  0  0  0  0  0  0  0  0  0
  -20.1141   -5.1954    0.0000 C   0  0  0  0  0  0  0  0  0  0  0  0
  -19.6868   -6.6332    0.0000 C   0  0  0  0  0  0  0  0  0  0  0  0
  -19.1568   -8.0365    0.0000 C   0  0  0  0  0  0  0  0  0  0  0  0
  -18.5270   -9.3979    0.0000 C   0  0  0  0  0  0  0  0  0  0  0  0
  -17.8006  -10.7102    0.0000 C   0  0  0  0  0  0  0  0  0  0  0  0
  -16.9813  -11.9668    0.0000 C   0  0  0  0  0  0  0  0  0  0  0  0
  -16.0736  -13.1609    0.0000 C   0  0  0  0  0  0  0  0  0  0  0  0
  -15.0820  -14.2864    0.0000 C   0  0  0  0  0  0  0  0  0  0  0  0
  -14.0118  -15.3375    0.0000 C   0  0  0  0  0  0  0  0  0  0  0  0
  -12.8686  -16.3086    0.0000 C   0  0  0  0  0  0  0  0  0  0  0  0
  -11.6582  -17.1946    0.0000 C   0  0  0  0  0  0  0  0  0  0  0  0
  -10.3871  -17.9910    0.0000 C   0  0  0  0  0  0  0  0  0  0  0  0
   -9.0618  -18.6936    0.0000 C   0  0  0  0  0  0  0  0  0  0  0  0
   -7.6893  -19.2988    0.0000 C   0  0  0  0  0  0  0  0  0  0  0  0
   -6.2767  -19.8033    0.0000 C   0  0  0  0  0  0  0  0  0  0  0  0
   -4.8314  -20.2046    0.0000 C   0  0  0  0  0  0  0  0  0  0  0  0
   -3.3609  -20.5006    0.0000 C   0  0  0  0  0  0  0  0  0  0  0  0
   -1.8729  -20.6896    0.0000 C   0  0  0  0  0  0  0  0  0  0  0  0
   -0.3751  -20.7708    0.0000 C   0  0  0  0  0  0  0  0  0  0  0  0
    1.1247  -20.7438    0.0000 C   0  0  0  0  0  0  0  0  0  0  0  0
    2.6186  -20.6085    0.0000 C   0  0  0  0  0  0  0  0  0  0  0  0
    4.0988  -20.3659    0.0000 C   0  0  0  0  0  0  0  0  0  0  0  0
    5.5577  -20.0170    0.0000 C   0  0  0  0  0  0  0  0  0  0  0  0
    6.9876  -19.5638    0.0000 C   0  0  0  0  0  0  0  0  0  0  0  0
    8.3811  -19.0086    0.0000 C   0  0  0  0  0  0  0  0  0  0  0  0
    9.7308  -18.3543    0.0000 C   0  0  0  0  0  0  0  0  0  0  0  0
   11.0299  -17.6043    0.0000 C   0  0  0  0  0  0  0  0  0  0  0  0
   12.2714  -16.7625    0.0000 C   0  0  0  0  0  0  0  0  0  0  0  0
   13.4490  -15.8333    0.0000 C   0  0  0  0  0  0  0  0  0  0  0  0
   14.5564  -14.8216    0.0000 C   0  0  0  0  0  0  0  0  0  0  0  0
   15.5879  -13.7326    0.0000 C   0  0  0  0  0  0  0  0  0  0  0  0
   16.5382  -12.5720    0.0000 C   0  0  0  0  0  0  0  0  0  0  0  0
   17.4023  -11.3459    0.0000 C   0  0  0  0  0  0  0  0  0  0  0  0
   18.1756  -10.0606    0.0000 C   0  0  0  0  0  0  0  0  0  0  0  0
   18.8542   -8.7229    0.0000 C   0  0  0  0  0  0  0  0  0  0  0  0
   19.4345   -7.3397    0.0000 C   0  0  0  0  0  0  0  0  0  0  0  0
   19.9134   -5.9182    0.0000 C   0  0  0  0  0  0  0  0  0  0  0  0
   20.2885   -4.4658    0.0000 C   0  0  0  0  0  0  0  0  0  0  0  0
   20.5579   -2.9902    0.0000 C   0  0  0  0  0  0  0  0  0  0  0  0
   20.7201   -1.4990    0.0000 C   0  0  0  0  0  0  0  0  0  0  0  0
  1  2  1  0
  2  3  1  0
  3  4  1  0
  4  5  1  0
  5  6  1  0
  6  7  1  0
  7  8  1  0
  8  9  1  0
  9 10  1  0
 10 11  1  0
 11 12  1  0
 12 13  1  0
 13 14  1  0
 14 15  1  0
 15 16  1  0
 16 17  1  0
 17 18  1  0
 18 19  1  0
 19 20  1  0
 20 21  1  0
 21 22  1  0
 22 23  1  0
 23 24  1  0
 24 25  1  0
 25 26  1  0
 26 27  1  0
 27 28  1  0
 28 29  1  0
 29 30  1  0
 30 31  1  0
 31 32  1  0
 32 33  1  0
 33 34  1  0
 34 35  1  0
 35 36  1  0
 36 37  1  0
 37 38  1  0
 38 39  1  0
 39 40  1  0
 40 41  1  0
 41 42  1  0
 42 43  1  0
 43 44  1  0
 44 45  1  0
 45 46  1  0
 46 47  1  0
 47 48  1  0
 48 49  1  0
 49 50  1  0
 50 51  1  0
 51 52  1  0
 52 53  1  0
 53 54  1  0
 54 55  1  0
 55 56  1  0
 56 57  1  0
 57 58  1  0
 58 59  1  0
 59 60  1  0
 60 61  1  0
 61 62  1  0
 62 63  1  0
 63 64  1  0
 64 65  1  0
 65 66  1  0
 66 67  1  0
 67 68  1  0
 68 69  1  0
 69 70  1  0
 70 71  1  0
 71 72  1  0
 72 73  1  0
 73 74  1  0
 74 75  1  0
 75 76  1  0
 76 77  1  0
 77 78  1  0
 78 79  1  0
 79 80  1  0
 80 81  1  0
 81 82  1  0
 82 83  1  0
 83 84  1  0
 84 85  1  0
 85 86  1  0
 86 87  1  0
 87  1  1  0
M  END
>  <Title>  (203) 
idAAGAgen7

$$$$

     RDKit          2D

 35 35  0  0  0  0  0  0  0  0999 V2000
    8.3669    0.0000    0.0000 C   0  0  0  0  0  0  0  0  0  0  0  0
    8.2324    1.4940    0.0000 C   0  0  0  0  0  0  0  0  0  0  0  0
    7.8334    2.9399    0.0000 C   0  0  0  0  0  0  0  0  0  0  0  0
    7.1825    4.2914    0.0000 C   0  0  0  0  0  0  0  0  0  0  0  0
    6.3008    5.5049    0.0000 C   0  0  0  0  0  0  0  0  0  0  0  0
    5.2167    6.5415    0.0000 C   0  0  0  0  0  0  0  0  0  0  0  0
    3.9648    7.3678    0.0000 C   0  0  0  0  0  0  0  0  0  0  0  0
    2.5855    7.9574    0.0000 C   0  0  0  0  0  0  0  0  0  0  0  0
    1.1231    8.2911    0.0000 C   0  0  0  0  0  0  0  0  0  0  0  0
   -0.3754    8.3584    0.0000 C   0  0  0  0  0  0  0  0  0  0  0  0
   -1.8618    8.1571    0.0000 C   0  0  0  0  0  0  0  0  0  0  0  0
   -3.2884    7.6936    0.0000 C   0  0  0  0  0  0  0  0  0  0  0  0
   -4.6093    6.9828    0.0000 C   0  0  0  0  0  0  0  0  0  0  0  0
   -5.7820    6.0475    0.0000 C   0  0  0  0  0  0  0  0  0  0  0  0
   -6.7689    4.9179    0.0000 C   0  0  0  0  0  0  0  0  0  0  0  0
   -7.5383    3.6302    0.0000 C   0  0  0  0  0  0  0  0  0  0  0  0
   -8.0653    2.2259    0.0000 C   0  0  0  0  0  0  0  0  0  0  0  0
   -8.3332    0.7500    0.0000 C   0  0  0  0  0  0  0  0  0  0  0  0
   -8.3332   -0.7500    0.0000 C   0  0  0  0  0  0  0  0  0  0  0  0
   -8.0653   -2.2259    0.0000 C   0  0  0  0  0  0  0  0  0  0  0  0
   -7.5383   -3.6302    0.0000 C   0  0  0  0  0  0  0  0  0  0  0  0
   -6.7689   -4.9179    0.0000 C   0  0  0  0  0  0  0  0  0  0  0  0
   -5.7820   -6.0475    0.0000 C   0  0  0  0  0  0  0  0  0  0  0  0
   -4.6093   -6.9828    0.0000 C   0  0  0  0  0  0  0  0  0  0  0  0
   -3.2884   -7.6936    0.0000 C   0  0  0  0  0  0  0  0  0  0  0  0
   -1.8618   -8.1571    0.0000 C   0  0  0  0  0  0  0  0  0  0  0  0
   -0.3754   -8.3584    0.0000 C   0  0  0  0  0  0  0  0  0  0  0  0
    1.1231   -8.2911    0.0000 C   0  0  0  0  0  0  0  0  0  0  0  0
    2.5855   -7.9574    0.0000 C   0  0  0  0  0  0  0  0  0  0  0  0
    3.9648   -7.3678    0.0000 C   0  0  0  0  0  0  0  0  0  0  0  0
    5.2167   -6.5415    0.0000 C   0  0  0  0  0  0  0  0  0  0  0  0
    6.3008   -5.5049    0.0000 C   0  0  0  0  0  0  0  0  0  0  0  0
    7.1825   -4.2914    0.0000 C   0  0  0  0  0  0  0  0  0  0  0  0
    7.8334   -2.9399    0.0000 C   0  0  0  0  0  0  0  0  0  0  0  0
    8.2324   -1.4940    0.0000 C   0  0  0  0  0  0  0  0  0  0  0  0
  1  2  1  0
  2  3  1  0
  3  4  1  0
  4  5  1  0
  5  6  1  0
  6  7  1  0
  7  8  1  0
  8  9  1  0
  9 10  1  0
 10 11  1  0
 11 12  1  0
 12 13  1  0
 13 14  1  0
 14 15  1  0
 15 16  1  0
 16 17  1  0
 17 18  1  0
 18 19  1  0
 19 20  1  0
 20 21  1  0
 21 22  1  0
 22 23  1  0
 23 24  1  0
 24 25  1  0
 25 26  1  0
 26 27  1  0
 27 28  1  0
 28 29  1  0
 29 30  1  0
 30 31  1  0
 31 32  1  0
 32 33  1  0
 33 34  1  0
 34 35  1  0
 35  1  1  0
M  END
>  <Title>  (204) 
idAAGBgen7

$$$$

     RDKit          2D

 40 45  0  0  0  0  0  0  0  0999 V2000
    1.0838   -9.3334    0.0000 C   0  0  0  0  0  0  0  0  0  0  0  0
    0.7500   -7.8710    0.0000 C   0  0  0  0  0  0  0  0  0  0  0  0
    2.1015   -7.2201    0.0000 C   0  0  0  0  0  0  0  0  0  0  0  0
    3.0367   -6.0474    0.0000 C   0  0  0  0  0  0  0  0  0  0  0  0
    3.3705   -4.5850    0.0000 C   0  0  0  0  0  0  0  0  0  0  0  0
    3.0367   -3.1226    0.0000 C   0  0  0  0  0  0  0  0  0  0  0  0
    2.1015   -1.9499    0.0000 C   0  0  0  0  0  0  0  0  0  0  0  0
    3.0367   -0.7771    0.0000 C   0  0  0  0  0  0  0  0  0  0  0  0
    2.4887    0.6192    0.0000 O   0  0  0  0  0  0  0  0  0  0  0  0
    4.5199   -1.0007    0.0000 N   0  0  0  0  0  0  0  0  0  0  0  0
    5.4552    0.1721    0.0000 C   0  0  0  0  0  0  0  0  0  0  0  0
    6.9384   -0.0515    0.0000 N   0  0  0  0  0  0  0  0  0  0  0  0
    7.8736    1.1213    0.0000 N   0  0  0  0  0  0  0  0  0  0  0  0
    7.3256    2.5176    0.0000 N   0  0  0  0  0  0  0  0  0  0  0  0
    5.8424    2.7411    0.0000 N   0  0  0  0  0  0  0  0  0  0  0  0
    4.9072    1.5684    0.0000 N   0  0  0  0  0  0  0  0  0  0  0  0
    0.7500   -1.2990    0.0000 C   0  0  0  0  0  0  0  0  0  0  0  0
    1.5000    0.0000    0.0000 C   0  0  0  0  0  0  0  0  0  0  0  0
    0.7500    1.2990    0.0000 C   0  0  0  0  0  0  0  0  0  0  0  0
   -0.7500    1.2990    0.0000 C   0  0  0  0  0  0  0  0  0  0  0  0
   -1.5000    0.0000    0.0000 C   0  0  0  0  0  0  0  0  0  0  0  0
   -0.7500   -1.2990    0.0000 C   0  0  0  0  0  0  0  0  0  0  0  0
   -2.1015   -1.9499    0.0000 C   0  0  0  0  0  0  0  0  0  0  0  0
   -2.6495   -0.5536    0.0000 C   0  0  0  0  0  0  0  0  0  0  0  0
   -4.1327   -0.3300    0.0000 C   0  0  0  0  0  0  0  0  0  0  0  0
   -5.0679   -1.5027    0.0000 C   0  0  0  0  0  0  0  0  0  0  0  0
   -4.5199   -2.8990    0.0000 C   0  0  0  0  0  0  0  0  0  0  0  0
   -3.0367   -3.1226    0.0000 C   0  0  0  0  0  0  0  0  0  0  0  0
   -3.3705   -4.5850    0.0000 C   0  0  0  0  0  0  0  0  0  0  0  0
   -4.8038   -4.1429    0.0000 C   0  0  0  0  0  0  0  0  0  0  0  0
   -5.9034   -5.1631    0.0000 C   0  0  0  0  0  0  0  0  0  0  0  0
   -5.5696   -6.6255    0.0000 C   0  0  0  0  0  0  0  0  0  0  0  0
   -4.1363   -7.0677    0.0000 C   0  0  0  0  0  0  0  0  0  0  0  0
   -3.0367   -6.0474    0.0000 C   0  0  0  0  0  0  0  0  0  0  0  0
   -2.1015   -7.2201    0.0000 C   0  0  0  0  0  0  0  0  0  0  0  0
   -3.3408   -8.0651    0.0000 C   0  0  0  0  0  0  0  0  0  0  0  0
   -3.2287   -9.5609    0.0000 C   0  0  0  0  0  0  0  0  0  0  0  0
   -1.8773  -10.2118    0.0000 C   0  0  0  0  0  0  0  0  0  0  0  0
   -0.6379   -9.3668    0.0000 C   0  0  0  0  0  0  0  0  0  0  0  0
   -0.7500   -7.8710    0.0000 C   0  0  0  0  0  0  0  0  0  0  0  0
  1  2  1  0
  2  3  1  0
  3  4  1  0
  4  5  1  0
  5  6  1  0
  6  7  1  0
  7  8  1  0
  8  9  2  0
  8 10  1  0
 10 11  1  0
 11 12  2  0
 12 13  1  0
 13 14  2  0
 14 15  1  0
 15 16  2  0
  7 17  1  0
 17 18  2  0
 18 19  1  0
 19 20  2  0
 20 21  1  0
 21 22  2  0
 22 23  1  0
 23 24  2  0
 24 25  1  0
 25 26  2  0
 26 27  1  0
 27 28  2  0
 28 29  1  0
 29 30  2  0
 30 31  1  0
 31 32  2  0
 32 33  1  0
 33 34  2  0
 34 35  1  0
 35 36  2  0
 36 37  1  0
 37 38  2  0
 38 39  1  0
 39 40  2  0
 40  2  1  0
 16 11  1  0
 22 17  1  0
 28 23  1  0
 34 29  1  0
 40 35  1  0
M  END
>  <Title>  (205) 
idAAGCgen7

$$$$

     RDKit          2D

 50 50  0  0  0  0  0  0  0  0999 V2000
   11.9445    0.0000    0.0000 C   0  0  0  0  0  0  0  0  0  0  0  0
   11.8503   -1.4970    0.0000 C   0  0  0  0  0  0  0  0  0  0  0  0
   11.5692   -2.9705    0.0000 C   0  0  0  0  0  0  0  0  0  0  0  0
   11.1057   -4.3971    0.0000 C   0  0  0  0  0  0  0  0  0  0  0  0
   10.4670   -5.7543    0.0000 C   0  0  0  0  0  0  0  0  0  0  0  0
    9.6633   -7.0208    0.0000 C   0  0  0  0  0  0  0  0  0  0  0  0
    8.7071   -8.1766    0.0000 C   0  0  0  0  0  0  0  0  0  0  0  0
    7.6137   -9.2034    0.0000 C   0  0  0  0  0  0  0  0  0  0  0  0
    6.4002  -10.0851    0.0000 C   0  0  0  0  0  0  0  0  0  0  0  0
    5.0857  -10.8077    0.0000 C   0  0  0  0  0  0  0  0  0  0  0  0
    3.6910  -11.3599    0.0000 C   0  0  0  0  0  0  0  0  0  0  0  0
    2.2382  -11.7329    0.0000 C   0  0  0  0  0  0  0  0  0  0  0  0
    0.7500  -11.9209    0.0000 C   0  0  0  0  0  0  0  0  0  0  0  0
   -0.7500  -11.9209    0.0000 C   0  0  0  0  0  0  0  0  0  0  0  0
   -2.2382  -11.7329    0.0000 C   0  0  0  0  0  0  0  0  0  0  0  0
   -3.6910  -11.3599    0.0000 C   0  0  0  0  0  0  0  0  0  0  0  0
   -5.0857  -10.8077    0.0000 C   0  0  0  0  0  0  0  0  0  0  0  0
   -6.4002  -10.0851    0.0000 C   0  0  0  0  0  0  0  0  0  0  0  0
   -7.6137   -9.2034    0.0000 C   0  0  0  0  0  0  0  0  0  0  0  0
   -8.7071   -8.1766    0.0000 C   0  0  0  0  0  0  0  0  0  0  0  0
   -9.6633   -7.0208    0.0000 C   0  0  0  0  0  0  0  0  0  0  0  0
  -10.4670   -5.7543    0.0000 C   0  0  0  0  0  0  0  0  0  0  0  0
  -11.1057   -4.3971    0.0000 C   0  0  0  0  0  0  0  0  0  0  0  0
  -11.5692   -2.9705    0.0000 C   0  0  0  0  0  0  0  0  0  0  0  0
  -11.8503   -1.4970    0.0000 C   0  0  0  0  0  0  0  0  0  0  0  0
  -11.9445   -0.0000    0.0000 C   0  0  0  0  0  0  0  0  0  0  0  0
  -11.8503    1.4970    0.0000 C   0  0  0  0  0  0  0  0  0  0  0  0
  -11.5692    2.9705    0.0000 C   0  0  0  0  0  0  0  0  0  0  0  0
  -11.1057    4.3971    0.0000 C   0  0  0  0  0  0  0  0  0  0  0  0
  -10.4670    5.7543    0.0000 C   0  0  0  0  0  0  0  0  0  0  0  0
   -9.6633    7.0208    0.0000 C   0  0  0  0  0  0  0  0  0  0  0  0
   -8.7071    8.1766    0.0000 C   0  0  0  0  0  0  0  0  0  0  0  0
   -7.6137    9.2034    0.0000 C   0  0  0  0  0  0  0  0  0  0  0  0
   -6.4002   10.0851    0.0000 C   0  0  0  0  0  0  0  0  0  0  0  0
   -5.0857   10.8077    0.0000 C   0  0  0  0  0  0  0  0  0  0  0  0
   -3.6910   11.3599    0.0000 C   0  0  0  0  0  0  0  0  0  0  0  0
   -2.2382   11.7329    0.0000 C   0  0  0  0  0  0  0  0  0  0  0  0
   -0.7500   11.9209    0.0000 C   0  0  0  0  0  0  0  0  0  0  0  0
    0.7500   11.9209    0.0000 C   0  0  0  0  0  0  0  0  0  0  0  0
    2.2382   11.7329    0.0000 C   0  0  0  0  0  0  0  0  0  0  0  0
    3.6910   11.3599    0.0000 C   0  0  0  0  0  0  0  0  0  0  0  0
    5.0857   10.8077    0.0000 C   0  0  0  0  0  0  0  0  0  0  0  0
    6.4002   10.0851    0.0000 C   0  0  0  0  0  0  0  0  0  0  0  0
    7.6137    9.2034    0.0000 C   0  0  0  0  0  0  0  0  0  0  0  0
    8.7071    8.1766    0.0000 C   0  0  0  0  0  0  0  0  0  0  0  0
    9.6633    7.0208    0.0000 C   0  0  0  0  0  0  0  0  0  0  0  0
   10.4670    5.7543    0.0000 C   0  0  0  0  0  0  0  0  0  0  0  0
   11.1057    4.3971    0.0000 C   0  0  0  0  0  0  0  0  0  0  0  0
   11.5692    2.9705    0.0000 C   0  0  0  0  0  0  0  0  0  0  0  0
   11.8503    1.4970    0.0000 C   0  0  0  0  0  0  0  0  0  0  0  0
  1  2  1  0
  2  3  1  0
  3  4  1  0
  4  5  1  0
  5  6  1  0
  6  7  1  0
  7  8  1  0
  8  9  1  0
  9 10  1  0
 10 11  1  0
 11 12  1  0
 12 13  1  0
 13 14  1  0
 14 15  1  0
 15 16  1  0
 16 17  1  0
 17 18  1  0
 18 19  1  0
 19 20  1  0
 20 21  1  0
 21 22  1  0
 22 23  1  0
 23 24  1  0
 24 25  1  0
 25 26  1  0
 26 27  1  0
 27 28  1  0
 28 29  1  0
 29 30  1  0
 30 31  1  0
 31 32  1  0
 32 33  1  0
 33 34  1  0
 34 35  1  0
 35 36  1  0
 36 37  1  0
 37 38  1  0
 38 39  1  0
 39 40  1  0
 40 41  1  0
 41 42  1  0
 42 43  1  0
 43 44  1  0
 44 45  1  0
 45 46  1  0
 46 47  1  0
 47 48  1  0
 48 49  1  0
 49 50  1  0
 50  1  1  0
M  END
>  <Title>  (206) 
idAAGDgen7

$$$$

     RDKit          2D

 28 31  0  0  0  0  0  0  0  0999 V2000
   -0.0000   -7.0525    0.0000 C   0  0  0  0  0  0  0  0  0  0  0  0
   -0.0000   -5.5525    0.0000 C   0  0  0  0  0  0  0  0  0  0  0  0
    1.4095   -5.0395    0.0000 C   0  0  0  0  0  0  0  0  0  0  0  0
    2.1595   -3.7404    0.0000 C   0  0  0  0  0  0  0  0  0  0  0  0
    1.8991   -2.2632    0.0000 C   0  0  0  0  0  0  0  0  0  0  0  0
    3.1981   -1.5132    0.0000 C   0  0  0  0  0  0  0  0  0  0  0  0
    3.1981   -0.0132    0.0000 O   0  0  0  0  0  0  0  0  0  0  0  0
    4.4971   -2.2632    0.0000 N   0  0  0  0  0  0  0  0  0  0  0  0
    5.7962   -1.5132    0.0000 C   0  0  0  0  0  0  0  0  0  0  0  0
    7.0952   -2.2632    0.0000 N   0  0  0  0  0  0  0  0  0  0  0  0
    8.3943   -1.5132    0.0000 N   0  0  0  0  0  0  0  0  0  0  0  0
    8.3943   -0.0132    0.0000 N   0  0  0  0  0  0  0  0  0  0  0  0
    7.0952    0.7368    0.0000 N   0  0  0  0  0  0  0  0  0  0  0  0
    5.7962   -0.0132    0.0000 N   0  0  0  0  0  0  0  0  0  0  0  0
    0.7500   -1.2990    0.0000 C   0  0  0  0  0  0  0  0  0  0  0  0
    1.5000    0.0000    0.0000 C   0  0  0  0  0  0  0  0  0  0  0  0
    0.7500    1.2990    0.0000 C   0  0  0  0  0  0  0  0  0  0  0  0
   -0.7500    1.2990    0.0000 C   0  0  0  0  0  0  0  0  0  0  0  0
   -1.5000    0.0000    0.0000 C   0  0  0  0  0  0  0  0  0  0  0  0
   -0.7500   -1.2990    0.0000 C   0  0  0  0  0  0  0  0  0  0  0  0
   -1.8991   -2.2632    0.0000 C   0  0  0  0  0  0  0  0  0  0  0  0
   -3.0481   -1.2990    0.0000 C   0  0  0  0  0  0  0  0  0  0  0  0
   -4.4577   -1.8121    0.0000 C   0  0  0  0  0  0  0  0  0  0  0  0
   -4.7181   -3.2893    0.0000 C   0  0  0  0  0  0  0  0  0  0  0  0
   -3.5691   -4.2535    0.0000 C   0  0  0  0  0  0  0  0  0  0  0  0
   -2.1595   -3.7404    0.0000 C   0  0  0  0  0  0  0  0  0  0  0  0
   -1.4095   -5.0395    0.0000 C   0  0  0  0  0  0  0  0  0  0  0  0
   -2.3737   -6.1885    0.0000 O   0  0  0  0  0  0  0  0  0  0  0  0
  1  2  1  0
  2  3  1  0
  3  4  1  0
  4  5  1  0
  5  6  1  0
  6  7  2  0
  6  8  1  0
  8  9  1  0
  9 10  2  0
 10 11  1  0
 11 12  2  0
 12 13  1  0
 13 14  2  0
  5 15  1  0
 15 16  2  0
 16 17  1  0
 17 18  2  0
 18 19  1  0
 19 20  2  0
 20 21  1  0
 21 22  2  0
 22 23  1  0
 23 24  2  0
 24 25  1  0
 25 26  2  0
 26 27  1  0
 27 28  2  0
 27  2  1  0
 14  9  1  0
 20 15  1  0
 26 21  1  0
M  END
>  <Title>  (207) 
idAAGEgen7

$$$$

     RDKit          2D

 13 13  0  0  0  0  0  0  0  0999 V2000
    4.2760    2.5981    0.0000 N   0  0  0  0  0  0  0  0  0  0  0  0
    3.5260    1.2990    0.0000 C   0  0  0  0  0  0  0  0  0  0  0  0
    2.7760    0.0000    0.0000 C   0  0  0  0  0  0  0  0  0  0  0  0
    3.5260   -1.2990    0.0000 O   0  0  0  0  0  0  0  0  0  0  0  0
    1.2760    0.0000    0.0000 N   0  0  0  0  0  0  0  0  0  0  0  0
    0.3943    1.2135    0.0000 C   0  0  0  0  0  0  0  0  0  0  0  0
   -1.0323    0.7500    0.0000 C   0  0  0  0  0  0  0  0  0  0  0  0
   -1.0323   -0.7500    0.0000 C   0  0  0  0  0  0  0  0  0  0  0  0
   -2.2458   -1.6317    0.0000 C   0  0  0  0  0  0  0  0  0  0  0  0
   -2.0890   -3.1235    0.0000 O   0  0  0  0  0  0  0  0  0  0  0  0
   -3.6161   -1.0216    0.0000 O   0  0  0  0  0  0  0  0  0  0  0  0
    0.3943   -1.2135    0.0000 C   0  0  0  0  0  0  0  0  0  0  0  0
    0.8578   -2.6401    0.0000 O   0  0  0  0  0  0  0  0  0  0  0  0
  1  2  3  0
  2  3  1  0
  3  4  2  0
  3  5  1  0
  5  6  1  0
  6  7  1  0
  7  8  1  0
  8  9  1  0
  9 10  2  0
  9 11  1  0
  8 12  1  0
 12 13  2  0
 12  5  1  0
M  END
>  <Title>  (208) 
idAAGFgen7

$$$$

     RDKit          2D

 69 69  0  0  0  0  0  0  0  0999 V2000
   17.7396    0.0000    0.0000 C   0  0  0  0  0  0  0  0  0  0  0  0
   16.2396    0.0000    0.0000 C   0  0  0  0  0  0  0  0  0  0  0  0
   16.1703   -1.4984    0.0000 C   0  0  0  0  0  0  0  0  0  0  0  0
   15.9631   -2.9840    0.0000 C   0  0  0  0  0  0  0  0  0  0  0  0
   15.6196   -4.4442    0.0000 C   0  0  0  0  0  0  0  0  0  0  0  0
   15.1430   -5.8664    0.0000 C   0  0  0  0  0  0  0  0  0  0  0  0
   14.5371   -7.2386    0.0000 C   0  0  0  0  0  0  0  0  0  0  0  0
   13.8072   -8.5490    0.0000 C   0  0  0  0  0  0  0  0  0  0  0  0
   12.9595   -9.7865    0.0000 C   0  0  0  0  0  0  0  0  0  0  0  0
   12.0012  -10.9405    0.0000 C   0  0  0  0  0  0  0  0  0  0  0  0
   10.9405  -12.0012    0.0000 C   0  0  0  0  0  0  0  0  0  0  0  0
    9.7865  -12.9595    0.0000 C   0  0  0  0  0  0  0  0  0  0  0  0
    8.5490  -13.8072    0.0000 C   0  0  0  0  0  0  0  0  0  0  0  0
    7.2386  -14.5371    0.0000 C   0  0  0  0  0  0  0  0  0  0  0  0
    5.8664  -15.1430    0.0000 C   0  0  0  0  0  0  0  0  0  0  0  0
    4.4442  -15.6196    0.0000 C   0  0  0  0  0  0  0  0  0  0  0  0
    2.9840  -15.9631    0.0000 C   0  0  0  0  0  0  0  0  0  0  0  0
    1.4984  -16.1703    0.0000 C   0  0  0  0  0  0  0  0  0  0  0  0
   -0.0000  -16.2396    0.0000 C   0  0  0  0  0  0  0  0  0  0  0  0
   -1.4984  -16.1703    0.0000 C   0  0  0  0  0  0  0  0  0  0  0  0
   -2.9840  -15.9631    0.0000 C   0  0  0  0  0  0  0  0  0  0  0  0
   -4.4442  -15.6196    0.0000 C   0  0  0  0  0  0  0  0  0  0  0  0
   -5.8664  -15.1430    0.0000 C   0  0  0  0  0  0  0  0  0  0  0  0
   -7.2386  -14.5371    0.0000 C   0  0  0  0  0  0  0  0  0  0  0  0
   -8.5490  -13.8072    0.0000 C   0  0  0  0  0  0  0  0  0  0  0  0
   -9.7865  -12.9595    0.0000 C   0  0  0  0  0  0  0  0  0  0  0  0
  -10.9405  -12.0012    0.0000 C   0  0  0  0  0  0  0  0  0  0  0  0
  -12.0012  -10.9405    0.0000 C   0  0  0  0  0  0  0  0  0  0  0  0
  -12.9595   -9.7865    0.0000 C   0  0  0  0  0  0  0  0  0  0  0  0
  -13.8072   -8.5490    0.0000 C   0  0  0  0  0  0  0  0  0  0  0  0
  -14.5371   -7.2386    0.0000 C   0  0  0  0  0  0  0  0  0  0  0  0
  -15.1430   -5.8664    0.0000 C   0  0  0  0  0  0  0  0  0  0  0  0
  -15.6196   -4.4442    0.0000 C   0  0  0  0  0  0  0  0  0  0  0  0
  -15.9631   -2.9840    0.0000 C   0  0  0  0  0  0  0  0  0  0  0  0
  -16.1703   -1.4984    0.0000 C   0  0  0  0  0  0  0  0  0  0  0  0
  -16.2396    0.0000    0.0000 C   0  0  0  0  0  0  0  0  0  0  0  0
  -16.1703    1.4984    0.0000 C   0  0  0  0  0  0  0  0  0  0  0  0
  -15.9631    2.9840    0.0000 C   0  0  0  0  0  0  0  0  0  0  0  0
  -15.6196    4.4442    0.0000 C   0  0  0  0  0  0  0  0  0  0  0  0
  -15.1430    5.8664    0.0000 C   0  0  0  0  0  0  0  0  0  0  0  0
  -14.5371    7.2386    0.0000 C   0  0  0  0  0  0  0  0  0  0  0  0
  -13.8072    8.5490    0.0000 C   0  0  0  0  0  0  0  0  0  0  0  0
  -12.9595    9.7865    0.0000 C   0  0  0  0  0  0  0  0  0  0  0  0
  -12.0012   10.9405    0.0000 C   0  0  0  0  0  0  0  0  0  0  0  0
  -10.9405   12.0012    0.0000 C   0  0  0  0  0  0  0  0  0  0  0  0
   -9.7865   12.9595    0.0000 C   0  0  0  0  0  0  0  0  0  0  0  0
   -8.5490   13.8072    0.0000 C   0  0  0  0  0  0  0  0  0  0  0  0
   -7.2386   14.5371    0.0000 C   0  0  0  0  0  0  0  0  0  0  0  0
   -5.8664   15.1430    0.0000 C   0  0  0  0  0  0  0  0  0  0  0  0
   -4.4442   15.6196    0.0000 C   0  0  0  0  0  0  0  0  0  0  0  0
   -2.9840   15.9631    0.0000 C   0  0  0  0  0  0  0  0  0  0  0  0
   -1.4984   16.1703    0.0000 C   0  0  0  0  0  0  0  0  0  0  0  0
    0.0000   16.2396    0.0000 C   0  0  0  0  0  0  0  0  0  0  0  0
    1.4984   16.1703    0.0000 C   0  0  0  0  0  0  0  0  0  0  0  0
    2.9840   15.9631    0.0000 C   0  0  0  0  0  0  0  0  0  0  0  0
    4.4442   15.6196    0.0000 C   0  0  0  0  0  0  0  0  0  0  0  0
    5.8664   15.1430    0.0000 C   0  0  0  0  0  0  0  0  0  0  0  0
    7.2386   14.5371    0.0000 C   0  0  0  0  0  0  0  0  0  0  0  0
    8.5490   13.8072    0.0000 C   0  0  0  0  0  0  0  0  0  0  0  0
    9.7865   12.9595    0.0000 C   0  0  0  0  0  0  0  0  0  0  0  0
   10.9405   12.0012    0.0000 C   0  0  0  0  0  0  0  0  0  0  0  0
   12.0012   10.9405    0.0000 C   0  0  0  0  0  0  0  0  0  0  0  0
   12.9595    9.7865    0.0000 C   0  0  0  0  0  0  0  0  0  0  0  0
   13.8072    8.5490    0.0000 C   0  0  0  0  0  0  0  0  0  0  0  0
   14.5371    7.2386    0.0000 C   0  0  0  0  0  0  0  0  0  0  0  0
   15.1430    5.8664    0.0000 C   0  0  0  0  0  0  0  0  0  0  0  0
   15.6196    4.4442    0.0000 C   0  0  0  0  0  0  0  0  0  0  0  0
   15.9631    2.9840    0.0000 C   0  0  0  0  0  0  0  0  0  0  0  0
   16.1703    1.4984    0.0000 C   0  0  0  0  0  0  0  0  0  0  0  0
  1  2  1  0
  2  3  1  0
  3  4  1  0
  4  5  2  0
  5  6  1  0
  6  7  2  0
  7  8  1  0
  8  9  2  0
  9 10  1  0
 10 11  2  0
 11 12  1  0
 12 13  2  0
 13 14  1  0
 14 15  2  0
 15 16  1  0
 16 17  2  0
 17 18  1  0
 18 19  1  0
 19 20  1  0
 20 21  1  0
 21 22  1  0
 22 23  1  0
 23 24  1  0
 24 25  1  0
 25 26  1  0
 26 27  1  0
 27 28  1  0
 28 29  1  0
 29 30  1  0
 30 31  1  0
 31 32  1  0
 32 33  1  0
 33 34  1  0
 34 35  1  0
 35 36  1  0
 36 37  1  0
 37 38  1  0
 38 39  1  0
 39 40  1  0
 40 41  1  0
 41 42  1  0
 42 43  1  0
 43 44  1  0
 44 45  1  0
 45 46  1  0
 46 47  1  0
 47 48  1  0
 48 49  1  0
 49 50  1  0
 50 51  1  0
 51 52  1  0
 52 53  1  0
 53 54  1  0
 54 55  1  0
 55 56  1  0
 56 57  1  0
 57 58  1  0
 58 59  1  0
 59 60  1  0
 60 61  1  0
 61 62  1  0
 62 63  1  0
 63 64  1  0
 64 65  1  0
 65 66  1  0
 66 67  1  0
 67 68  1  0
 68 69  1  0
 69  2  1  0
M  END
>  <Title>  (209) 
idAAGGgen7

$$$$

     RDKit          2D

 27 30  0  0  0  0  0  0  0  0999 V2000
   -1.8981   -7.6920    0.0000 C   0  0  0  0  0  0  0  0  0  0  0  0
   -1.3240   -6.3062    0.0000 C   0  0  0  0  0  0  0  0  0  0  0  0
   -0.7500   -4.9204    0.0000 C   0  0  0  0  0  0  0  0  0  0  0  0
    0.7500   -4.9204    0.0000 C   0  0  0  0  0  0  0  0  0  0  0  0
    1.8107   -3.8597    0.0000 C   0  0  0  0  0  0  0  0  0  0  0  0
    1.8107   -2.3597    0.0000 C   0  0  0  0  0  0  0  0  0  0  0  0
    3.1965   -1.7857    0.0000 C   0  0  0  0  0  0  0  0  0  0  0  0
    3.3923   -0.2985    0.0000 O   0  0  0  0  0  0  0  0  0  0  0  0
    4.3865   -2.6988    0.0000 N   0  0  0  0  0  0  0  0  0  0  0  0
    5.7723   -2.1248    0.0000 C   0  0  0  0  0  0  0  0  0  0  0  0
    6.9624   -3.0379    0.0000 N   0  0  0  0  0  0  0  0  0  0  0  0
    8.3482   -2.4639    0.0000 N   0  0  0  0  0  0  0  0  0  0  0  0
    8.5440   -0.9767    0.0000 N   0  0  0  0  0  0  0  0  0  0  0  0
    7.3539   -0.0636    0.0000 N   0  0  0  0  0  0  0  0  0  0  0  0
    5.9681   -0.6376    0.0000 N   0  0  0  0  0  0  0  0  0  0  0  0
    0.7500   -1.2990    0.0000 C   0  0  0  0  0  0  0  0  0  0  0  0
    1.5000    0.0000    0.0000 C   0  0  0  0  0  0  0  0  0  0  0  0
    0.7500    1.2990    0.0000 C   0  0  0  0  0  0  0  0  0  0  0  0
   -0.7500    1.2990    0.0000 C   0  0  0  0  0  0  0  0  0  0  0  0
   -1.5000    0.0000    0.0000 C   0  0  0  0  0  0  0  0  0  0  0  0
   -0.7500   -1.2990    0.0000 C   0  0  0  0  0  0  0  0  0  0  0  0
   -1.8107   -2.3597    0.0000 C   0  0  0  0  0  0  0  0  0  0  0  0
   -3.1097   -1.6097    0.0000 C   0  0  0  0  0  0  0  0  0  0  0  0
   -4.4087   -2.3597    0.0000 C   0  0  0  0  0  0  0  0  0  0  0  0
   -4.4087   -3.8597    0.0000 C   0  0  0  0  0  0  0  0  0  0  0  0
   -3.1097   -4.6097    0.0000 C   0  0  0  0  0  0  0  0  0  0  0  0
   -1.8107   -3.8597    0.0000 C   0  0  0  0  0  0  0  0  0  0  0  0
  1  2  3  0
  2  3  1  0
  3  4  2  0
  4  5  1  0
  5  6  2  0
  6  7  1  0
  7  8  2  0
  7  9  1  0
  9 10  1  0
 10 11  2  0
 11 12  1  0
 12 13  2  0
 13 14  1  0
 14 15  2  0
  6 16  1  0
 16 17  2  0
 17 18  1  0
 18 19  2  0
 19 20  1  0
 20 21  2  0
 21 22  1  0
 22 23  2  0
 23 24  1  0
 24 25  2  0
 25 26  1  0
 26 27  2  0
 27  3  1  0
 15 10  1  0
 21 16  1  0
 27 22  1  0
M  END
>  <Title>  (210) 
idAAGHgen7

$$$$

     RDKit          2D

 11 11  0  0  0  0  0  0  0  0999 V2000
    5.2500   -1.2990    0.0000 C   0  0  0  0  0  0  0  0  0  0  0  0
    3.7500   -1.2990    0.0000 C   0  0  0  0  0  0  0  0  0  0  0  0
    3.0000   -2.5981    0.0000 O   0  0  0  0  0  0  0  0  0  0  0  0
    3.0000    0.0000    0.0000 C   0  0  0  0  0  0  0  0  0  0  0  0
    3.7500    1.2990    0.0000 O   0  0  0  0  0  0  0  0  0  0  0  0
    1.5000    0.0000    0.0000 C   0  0  0  0  0  0  0  0  0  0  0  0
    0.7500   -1.2990    0.0000 C   0  0  0  0  0  0  0  0  0  0  0  0
   -0.7500   -1.2990    0.0000 C   0  0  0  0  0  0  0  0  0  0  0  0
   -1.5000    0.0000    0.0000 C   0  0  0  0  0  0  0  0  0  0  0  0
   -0.7500    1.2990    0.0000 C   0  0  0  0  0  0  0  0  0  0  0  0
    0.7500    1.2990    0.0000 C   0  0  0  0  0  0  0  0  0  0  0  0
  1  2  1  0
  2  3  2  0
  2  4  1  0
  4  5  2  0
  4  6  1  0
  6  7  1  0
  7  8  1  0
  8  9  1  0
  9 10  1  0
 10 11  1  0
 11  6  1  0
M  END
>  <Title>  (211) 
idAAGIgen7

$$$$

     RDKit          2D

 17 18  0  0  0  0  0  0  0  0999 V2000
    3.2286   -0.0000    0.0000 C   0  0  0  0  0  0  0  0  0  0  0  0
    1.7286    0.0000    0.0000 C   0  0  0  0  0  0  0  0  0  0  0  0
    1.0777    1.3515    0.0000 C   0  0  0  0  0  0  0  0  0  0  0  0
   -0.3846    1.6852    0.0000 C   0  0  0  0  0  0  0  0  0  0  0  0
   -1.5574    0.7500    0.0000 C   0  0  0  0  0  0  0  0  0  0  0  0
   -1.5574   -0.7500    0.0000 C   0  0  0  0  0  0  0  0  0  0  0  0
   -0.3846   -1.6852    0.0000 C   0  0  0  0  0  0  0  0  0  0  0  0
   -0.7184   -3.1476    0.0000 C   0  0  0  0  0  0  0  0  0  0  0  0
    0.3812   -4.1679    0.0000 O   0  0  0  0  0  0  0  0  0  0  0  0
   -2.1518   -3.5898    0.0000 N   0  0  0  0  0  0  0  0  0  0  0  0
   -2.4856   -5.0522    0.0000 C   0  0  0  0  0  0  0  0  0  0  0  0
   -3.9189   -5.4943    0.0000 N   0  0  0  0  0  0  0  0  0  0  0  0
   -4.2527   -6.9567    0.0000 N   0  0  0  0  0  0  0  0  0  0  0  0
   -3.1531   -7.9769    0.0000 N   0  0  0  0  0  0  0  0  0  0  0  0
   -1.7198   -7.5348    0.0000 N   0  0  0  0  0  0  0  0  0  0  0  0
   -1.3860   -6.0724    0.0000 N   0  0  0  0  0  0  0  0  0  0  0  0
    1.0777   -1.3515    0.0000 C   0  0  0  0  0  0  0  0  0  0  0  0
  1  2  1  0
  2  3  1  0
  3  4  1  0
  4  5  1  0
  5  6  1  0
  6  7  1  0
  7  8  1  0
  8  9  2  0
  8 10  1  0
 10 11  1  0
 11 12  2  0
 12 13  1  0
 13 14  2  0
 14 15  1  0
 15 16  2  0
  7 17  1  0
 17  2  1  0
 16 11  1  0
M  END
>  <Title>  (212) 
idAAGJgen7

$$$$

     RDKit          2D

 30 30  0  0  0  0  0  0  0  0999 V2000
    8.4368    0.0000    0.0000 C   0  0  0  0  0  0  0  0  0  0  0  0
    6.9368    0.0000    0.0000 C   0  0  0  0  0  0  0  0  0  0  0  0
    6.7746    1.4912    0.0000 C   0  0  0  0  0  0  0  0  0  0  0  0
    6.2957    2.9127    0.0000 C   0  0  0  0  0  0  0  0  0  0  0  0
    5.5223    4.1980    0.0000 C   0  0  0  0  0  0  0  0  0  0  0  0
    4.4908    5.2870    0.0000 C   0  0  0  0  0  0  0  0  0  0  0  0
    3.2493    6.1287    0.0000 C   0  0  0  0  0  0  0  0  0  0  0  0
    1.8558    6.6840    0.0000 C   0  0  0  0  0  0  0  0  0  0  0  0
    0.3756    6.9266    0.0000 C   0  0  0  0  0  0  0  0  0  0  0  0
   -1.1222    6.8454    0.0000 C   0  0  0  0  0  0  0  0  0  0  0  0
   -2.5676    6.4441    0.0000 C   0  0  0  0  0  0  0  0  0  0  0  0
   -3.8928    5.7415    0.0000 C   0  0  0  0  0  0  0  0  0  0  0  0
   -5.0361    4.7704    0.0000 C   0  0  0  0  0  0  0  0  0  0  0  0
   -5.9438    3.5763    0.0000 C   0  0  0  0  0  0  0  0  0  0  0  0
   -6.5737    2.2149    0.0000 C   0  0  0  0  0  0  0  0  0  0  0  0
   -6.8961    0.7500    0.0000 C   0  0  0  0  0  0  0  0  0  0  0  0
   -6.8961   -0.7500    0.0000 C   0  0  0  0  0  0  0  0  0  0  0  0
   -6.5737   -2.2149    0.0000 C   0  0  0  0  0  0  0  0  0  0  0  0
   -5.9438   -3.5763    0.0000 C   0  0  0  0  0  0  0  0  0  0  0  0
   -5.0361   -4.7704    0.0000 C   0  0  0  0  0  0  0  0  0  0  0  0
   -3.8928   -5.7415    0.0000 C   0  0  0  0  0  0  0  0  0  0  0  0
   -2.5676   -6.4441    0.0000 C   0  0  0  0  0  0  0  0  0  0  0  0
   -1.1222   -6.8454    0.0000 C   0  0  0  0  0  0  0  0  0  0  0  0
    0.3756   -6.9266    0.0000 C   0  0  0  0  0  0  0  0  0  0  0  0
    1.8558   -6.6840    0.0000 C   0  0  0  0  0  0  0  0  0  0  0  0
    3.2493   -6.1287    0.0000 C   0  0  0  0  0  0  0  0  0  0  0  0
    4.4908   -5.2870    0.0000 C   0  0  0  0  0  0  0  0  0  0  0  0
    5.5223   -4.1980    0.0000 C   0  0  0  0  0  0  0  0  0  0  0  0
    6.2957   -2.9127    0.0000 C   0  0  0  0  0  0  0  0  0  0  0  0
    6.7746   -1.4912    0.0000 N   0  0  0  0  0  0  0  0  0  0  0  0
  1  2  1  0
  2  3  1  0
  3  4  1  0
  4  5  1  0
  5  6  1  0
  6  7  1  0
  7  8  1  0
  8  9  1  0
  9 10  1  0
 10 11  1  0
 11 12  1  0
 12 13  1  0
 13 14  1  0
 14 15  1  0
 15 16  1  0
 16 17  1  0
 17 18  1  0
 18 19  1  0
 19 20  1  0
 20 21  1  0
 21 22  1  0
 22 23  1  0
 23 24  1  0
 24 25  1  0
 25 26  1  0
 26 27  1  0
 27 28  1  0
 28 29  1  0
 29 30  1  0
 30  2  1  0
M  END
>  <Title>  (213) 
idAAGKgen7

$$$$

     RDKit          2D

 10 10  0  0  0  0  0  0  0  0999 V2000
    3.6929    0.0000    0.0000 C   0  0  0  0  0  0  0  0  0  0  0  0
    2.1929    0.0000    0.0000 C   0  0  0  0  0  0  0  0  0  0  0  0
    1.6798    1.4095    0.0000 C   0  0  0  0  0  0  0  0  0  0  0  0
    0.3808    2.1595    0.0000 C   0  0  0  0  0  0  0  0  0  0  0  0
   -1.0964    1.8991    0.0000 C   0  0  0  0  0  0  0  0  0  0  0  0
   -2.0606    0.7500    0.0000 C   0  0  0  0  0  0  0  0  0  0  0  0
   -2.0606   -0.7500    0.0000 C   0  0  0  0  0  0  0  0  0  0  0  0
   -1.0964   -1.8991    0.0000 C   0  0  0  0  0  0  0  0  0  0  0  0
    0.3808   -2.1595    0.0000 C   0  0  0  0  0  0  0  0  0  0  0  0
    1.6798   -1.4095    0.0000 C   0  0  0  0  0  0  0  0  0  0  0  0
  1  2  1  0
  2  3  1  0
  3  4  1  0
  4  5  2  0
  5  6  1  0
  6  7  1  0
  7  8  1  0
  8  9  1  0
  9 10  1  0
 10  2  1  0
M  END
>  <Title>  (214) 
idAAGLgen7

$$$$

     RDKit          2D

 13 13  0  0  0  0  0  0  0  0999 V2000
   13.2760   -0.0000    0.0000 N   0  0  0  0  0  0  0  0  0  0  0  0
   11.7760   -0.0000    0.0000 C   0  0  0  0  0  0  0  0  0  0  0  0
   10.2760   -0.0000    0.0000 C   0  0  0  0  0  0  0  0  0  0  0  0
    8.7760   -0.0000    0.0000 C   0  0  0  0  0  0  0  0  0  0  0  0
    7.2760   -0.0000    0.0000 C   0  0  0  0  0  0  0  0  0  0  0  0
    5.7760   -0.0000    0.0000 C   0  0  0  0  0  0  0  0  0  0  0  0
    4.2760   -0.0000    0.0000 C   0  0  0  0  0  0  0  0  0  0  0  0
    2.7760    0.0000    0.0000 C   0  0  0  0  0  0  0  0  0  0  0  0
    1.2760    0.0000    0.0000 C   0  0  0  0  0  0  0  0  0  0  0  0
    0.3943    1.2135    0.0000 C   0  0  0  0  0  0  0  0  0  0  0  0
   -1.0323    0.7500    0.0000 C   0  0  0  0  0  0  0  0  0  0  0  0
   -1.0323   -0.7500    0.0000 C   0  0  0  0  0  0  0  0  0  0  0  0
    0.3943   -1.2135    0.0000 C   0  0  0  0  0  0  0  0  0  0  0  0
  1  2  3  0
  2  3  1  0
  3  4  3  0
  4  5  1  0
  5  6  3  0
  6  7  1  0
  7  8  3  0
  8  9  1  0
  9 10  2  0
 10 11  1  0
 11 12  1  0
 12 13  2  0
 13  9  1  0
M  END
>  <Title>  (215) 
idAAGMgen7

$$$$

     RDKit          2D

  8  8  0  0  0  0  0  0  0  0999 V2000
    4.5000    0.0000    0.0000 N   0  0  0  0  0  0  0  0  0  0  0  0
    3.0000    0.0000    0.0000 C   0  0  0  0  0  0  0  0  0  0  0  0
    1.5000    0.0000    0.0000 C   0  0  0  0  0  0  0  0  0  0  0  0
    0.7500   -1.2990    0.0000 C   0  0  0  0  0  0  0  0  0  0  0  0
   -0.7500   -1.2990    0.0000 C   0  0  0  0  0  0  0  0  0  0  0  0
   -1.5000    0.0000    0.0000 C   0  0  0  0  0  0  0  0  0  0  0  0
   -0.7500    1.2990    0.0000 C   0  0  0  0  0  0  0  0  0  0  0  0
    0.7500    1.2990    0.0000 C   0  0  0  0  0  0  0  0  0  0  0  0
  1  2  3  0
  2  3  1  0
  3  4  2  0
  4  5  1  0
  5  6  1  0
  6  7  2  0
  7  8  1  0
  8  3  1  0
M  END
>  <Title>  (216) 
idAAGNgen7

$$$$

     RDKit          2D

 62 62  0  0  0  0  0  0  0  0999 V2000
   16.0691    0.0000    0.0000 C   0  0  0  0  0  0  0  0  0  0  0  0
   14.5691    0.0000    0.0000 C   0  0  0  0  0  0  0  0  0  0  0  0
   14.4919    1.4980    0.0000 C   0  0  0  0  0  0  0  0  0  0  0  0
   14.2611    2.9801    0.0000 C   0  0  0  0  0  0  0  0  0  0  0  0
   13.8791    4.4307    0.0000 C   0  0  0  0  0  0  0  0  0  0  0  0
   13.3499    5.8343    0.0000 C   0  0  0  0  0  0  0  0  0  0  0  0
   12.6793    7.1760    0.0000 C   0  0  0  0  0  0  0  0  0  0  0  0
   11.8742    8.4417    0.0000 C   0  0  0  0  0  0  0  0  0  0  0  0
   10.9433    9.6178    0.0000 C   0  0  0  0  0  0  0  0  0  0  0  0
    9.8964   10.6921    0.0000 C   0  0  0  0  0  0  0  0  0  0  0  0
    8.7446   11.6530    0.0000 C   0  0  0  0  0  0  0  0  0  0  0  0
    7.5001   12.4903    0.0000 C   0  0  0  0  0  0  0  0  0  0  0  0
    6.1761   13.1953    0.0000 C   0  0  0  0  0  0  0  0  0  0  0  0
    4.7866   13.7604    0.0000 C   0  0  0  0  0  0  0  0  0  0  0  0
    3.3463   14.1796    0.0000 C   0  0  0  0  0  0  0  0  0  0  0  0
    1.8707   14.4485    0.0000 C   0  0  0  0  0  0  0  0  0  0  0  0
    0.3751   14.5643    0.0000 C   0  0  0  0  0  0  0  0  0  0  0  0
   -1.1244   14.5257    0.0000 C   0  0  0  0  0  0  0  0  0  0  0  0
   -2.6120   14.3331    0.0000 C   0  0  0  0  0  0  0  0  0  0  0  0
   -4.0719   13.9885    0.0000 C   0  0  0  0  0  0  0  0  0  0  0  0
   -5.4886   13.4957    0.0000 C   0  0  0  0  0  0  0  0  0  0  0  0
   -6.8471   12.8599    0.0000 C   0  0  0  0  0  0  0  0  0  0  0  0
   -8.1331   12.0877    0.0000 C   0  0  0  0  0  0  0  0  0  0  0  0
   -9.3329   11.1873    0.0000 C   0  0  0  0  0  0  0  0  0  0  0  0
  -10.4337   10.1684    0.0000 C   0  0  0  0  0  0  0  0  0  0  0  0
  -11.4239    9.0417    0.0000 C   0  0  0  0  0  0  0  0  0  0  0  0
  -12.2931    7.8192    0.0000 C   0  0  0  0  0  0  0  0  0  0  0  0
  -13.0319    6.5138    0.0000 C   0  0  0  0  0  0  0  0  0  0  0  0
  -13.6326    5.1393    0.0000 C   0  0  0  0  0  0  0  0  0  0  0  0
  -14.0887    3.7103    0.0000 C   0  0  0  0  0  0  0  0  0  0  0  0
  -14.3956    2.2420    0.0000 C   0  0  0  0  0  0  0  0  0  0  0  0
  -14.5498    0.7500    0.0000 C   0  0  0  0  0  0  0  0  0  0  0  0
  -14.5498   -0.7500    0.0000 C   0  0  0  0  0  0  0  0  0  0  0  0
  -14.3956   -2.2420    0.0000 C   0  0  0  0  0  0  0  0  0  0  0  0
  -14.0887   -3.7103    0.0000 C   0  0  0  0  0  0  0  0  0  0  0  0
  -13.6326   -5.1393    0.0000 C   0  0  0  0  0  0  0  0  0  0  0  0
  -13.0319   -6.5138    0.0000 C   0  0  0  0  0  0  0  0  0  0  0  0
  -12.2931   -7.8192    0.0000 C   0  0  0  0  0  0  0  0  0  0  0  0
  -11.4239   -9.0417    0.0000 C   0  0  0  0  0  0  0  0  0  0  0  0
  -10.4337  -10.1684    0.0000 C   0  0  0  0  0  0  0  0  0  0  0  0
   -9.3329  -11.1873    0.0000 C   0  0  0  0  0  0  0  0  0  0  0  0
   -8.1331  -12.0877    0.0000 C   0  0  0  0  0  0  0  0  0  0  0  0
   -6.8471  -12.8599    0.0000 C   0  0  0  0  0  0  0  0  0  0  0  0
   -5.4886  -13.4957    0.0000 C   0  0  0  0  0  0  0  0  0  0  0  0
   -4.0719  -13.9885    0.0000 C   0  0  0  0  0  0  0  0  0  0  0  0
   -2.6120  -14.3331    0.0000 C   0  0  0  0  0  0  0  0  0  0  0  0
   -1.1244  -14.5257    0.0000 C   0  0  0  0  0  0  0  0  0  0  0  0
    0.3751  -14.5643    0.0000 C   0  0  0  0  0  0  0  0  0  0  0  0
    1.8707  -14.4485    0.0000 C   0  0  0  0  0  0  0  0  0  0  0  0
    3.3463  -14.1796    0.0000 C   0  0  0  0  0  0  0  0  0  0  0  0
    4.7866  -13.7604    0.0000 C   0  0  0  0  0  0  0  0  0  0  0  0
    6.1761  -13.1953    0.0000 C   0  0  0  0  0  0  0  0  0  0  0  0
    7.5001  -12.4903    0.0000 C   0  0  0  0  0  0  0  0  0  0  0  0
    8.7446  -11.6530    0.0000 C   0  0  0  0  0  0  0  0  0  0  0  0
    9.8964  -10.6921    0.0000 C   0  0  0  0  0  0  0  0  0  0  0  0
   10.9433   -9.6178    0.0000 C   0  0  0  0  0  0  0  0  0  0  0  0
   11.8742   -8.4417    0.0000 C   0  0  0  0  0  0  0  0  0  0  0  0
   12.6793   -7.1760    0.0000 C   0  0  0  0  0  0  0  0  0  0  0  0
   13.3499   -5.8343    0.0000 C   0  0  0  0  0  0  0  0  0  0  0  0
   13.8791   -4.4307    0.0000 C   0  0  0  0  0  0  0  0  0  0  0  0
   14.2611   -2.9801    0.0000 C   0  0  0  0  0  0  0  0  0  0  0  0
   14.4919   -1.4980    0.0000 C   0  0  0  0  0  0  0  0  0  0  0  0
  1  2  1  0
  2  3  1  0
  3  4  1  0
  4  5  1  0
  5  6  1  0
  6  7  1  0
  7  8  1  0
  8  9  1  0
  9 10  1  0
 10 11  1  0
 11 12  1  0
 12 13  1  0
 13 14  1  0
 14 15  1  0
 15 16  1  0
 16 17  1  0
 17 18  2  0
 18 19  1  0
 19 20  2  0
 20 21  1  0
 21 22  2  0
 22 23  1  0
 23 24  2  0
 24 25  1  0
 25 26  2  0
 26 27  1  0
 27 28  2  0
 28 29  1  0
 29 30  2  0
 30 31  1  0
 31 32  2  0
 32 33  1  0
 33 34  1  0
 34 35  1  0
 35 36  1  0
 36 37  1  0
 37 38  1  0
 38 39  1  0
 39 40  1  0
 40 41  1  0
 41 42  1  0
 42 43  1  0
 43 44  1  0
 44 45  1  0
 45 46  1  0
 46 47  1  0
 47 48  1  0
 48 49  1  0
 49 50  1  0
 50 51  1  0
 51 52  1  0
 52 53  1  0
 53 54  1  0
 54 55  1  0
 55 56  1  0
 56 57  1  0
 57 58  1  0
 58 59  1  0
 59 60  1  0
 60 61  1  0
 61 62  1  0
 62  2  1  0
M  END
>  <Title>  (217) 
idAAGOgen7

$$$$

     RDKit          2D

 57 57  0  0  0  0  0  0  0  0999 V2000
   14.8760    0.0000    0.0000 C   0  0  0  0  0  0  0  0  0  0  0  0
   13.3760    0.0000    0.0000 C   0  0  0  0  0  0  0  0  0  0  0  0
   13.2919   -1.4976    0.0000 C   0  0  0  0  0  0  0  0  0  0  0  0
   13.0407   -2.9764    0.0000 C   0  0  0  0  0  0  0  0  0  0  0  0
   12.6254   -4.4178    0.0000 C   0  0  0  0  0  0  0  0  0  0  0  0
   12.0514   -5.8036    0.0000 C   0  0  0  0  0  0  0  0  0  0  0  0
   11.3258   -7.1165    0.0000 C   0  0  0  0  0  0  0  0  0  0  0  0
   10.4578   -8.3398    0.0000 C   0  0  0  0  0  0  0  0  0  0  0  0
    9.4583   -9.4583    0.0000 C   0  0  0  0  0  0  0  0  0  0  0  0
    8.3398  -10.4578    0.0000 C   0  0  0  0  0  0  0  0  0  0  0  0
    7.1165  -11.3258    0.0000 C   0  0  0  0  0  0  0  0  0  0  0  0
    5.8036  -12.0514    0.0000 C   0  0  0  0  0  0  0  0  0  0  0  0
    4.4178  -12.6254    0.0000 C   0  0  0  0  0  0  0  0  0  0  0  0
    2.9764  -13.0407    0.0000 C   0  0  0  0  0  0  0  0  0  0  0  0
    1.4976  -13.2919    0.0000 C   0  0  0  0  0  0  0  0  0  0  0  0
   -0.0000  -13.3760    0.0000 C   0  0  0  0  0  0  0  0  0  0  0  0
   -1.4976  -13.2919    0.0000 C   0  0  0  0  0  0  0  0  0  0  0  0
   -2.9764  -13.0407    0.0000 C   0  0  0  0  0  0  0  0  0  0  0  0
   -4.4178  -12.6254    0.0000 C   0  0  0  0  0  0  0  0  0  0  0  0
   -5.8036  -12.0514    0.0000 C   0  0  0  0  0  0  0  0  0  0  0  0
   -7.1165  -11.3258    0.0000 C   0  0  0  0  0  0  0  0  0  0  0  0
   -8.3398  -10.4578    0.0000 C   0  0  0  0  0  0  0  0  0  0  0  0
   -9.4583   -9.4583    0.0000 C   0  0  0  0  0  0  0  0  0  0  0  0
  -10.4578   -8.3398    0.0000 C   0  0  0  0  0  0  0  0  0  0  0  0
  -11.3258   -7.1165    0.0000 C   0  0  0  0  0  0  0  0  0  0  0  0
  -12.0514   -5.8036    0.0000 C   0  0  0  0  0  0  0  0  0  0  0  0
  -12.6254   -4.4178    0.0000 C   0  0  0  0  0  0  0  0  0  0  0  0
  -13.0407   -2.9764    0.0000 C   0  0  0  0  0  0  0  0  0  0  0  0
  -13.2919   -1.4976    0.0000 C   0  0  0  0  0  0  0  0  0  0  0  0
  -13.3760    0.0000    0.0000 C   0  0  0  0  0  0  0  0  0  0  0  0
  -13.2919    1.4976    0.0000 C   0  0  0  0  0  0  0  0  0  0  0  0
  -13.0407    2.9764    0.0000 C   0  0  0  0  0  0  0  0  0  0  0  0
  -12.6254    4.4178    0.0000 C   0  0  0  0  0  0  0  0  0  0  0  0
  -12.0514    5.8036    0.0000 C   0  0  0  0  0  0  0  0  0  0  0  0
  -11.3258    7.1165    0.0000 C   0  0  0  0  0  0  0  0  0  0  0  0
  -10.4578    8.3398    0.0000 C   0  0  0  0  0  0  0  0  0  0  0  0
   -9.4583    9.4583    0.0000 C   0  0  0  0  0  0  0  0  0  0  0  0
   -8.3398   10.4578    0.0000 C   0  0  0  0  0  0  0  0  0  0  0  0
   -7.1165   11.3258    0.0000 C   0  0  0  0  0  0  0  0  0  0  0  0
   -5.8036   12.0514    0.0000 C   0  0  0  0  0  0  0  0  0  0  0  0
   -4.4178   12.6254    0.0000 C   0  0  0  0  0  0  0  0  0  0  0  0
   -2.9764   13.0407    0.0000 C   0  0  0  0  0  0  0  0  0  0  0  0
   -1.4976   13.2919    0.0000 C   0  0  0  0  0  0  0  0  0  0  0  0
    0.0000   13.3760    0.0000 C   0  0  0  0  0  0  0  0  0  0  0  0
    1.4976   13.2919    0.0000 C   0  0  0  0  0  0  0  0  0  0  0  0
    2.9764   13.0407    0.0000 C   0  0  0  0  0  0  0  0  0  0  0  0
    4.4178   12.6254    0.0000 C   0  0  0  0  0  0  0  0  0  0  0  0
    5.8036   12.0514    0.0000 C   0  0  0  0  0  0  0  0  0  0  0  0
    7.1165   11.3258    0.0000 C   0  0  0  0  0  0  0  0  0  0  0  0
    8.3398   10.4578    0.0000 C   0  0  0  0  0  0  0  0  0  0  0  0
    9.4583    9.4583    0.0000 C   0  0  0  0  0  0  0  0  0  0  0  0
   10.4578    8.3398    0.0000 C   0  0  0  0  0  0  0  0  0  0  0  0
   11.3258    7.1165    0.0000 C   0  0  0  0  0  0  0  0  0  0  0  0
   12.0514    5.8036    0.0000 C   0  0  0  0  0  0  0  0  0  0  0  0
   12.6254    4.4178    0.0000 C   0  0  0  0  0  0  0  0  0  0  0  0
   13.0407    2.9764    0.0000 C   0  0  0  0  0  0  0  0  0  0  0  0
   13.2919    1.4976    0.0000 C   0  0  0  0  0  0  0  0  0  0  0  0
  1  2  1  0
  2  3  1  0
  3  4  1  0
  4  5  1  0
  5  6  2  0
  6  7  1  0
  7  8  2  0
  8  9  1  0
  9 10  1  0
 10 11  1  0
 11 12  1  0
 12 13  1  0
 13 14  1  0
 14 15  1  0
 15 16  1  0
 16 17  1  0
 17 18  1  0
 18 19  1  0
 19 20  1  0
 20 21  1  0
 21 22  1  0
 22 23  1  0
 23 24  1  0
 24 25  1  0
 25 26  1  0
 26 27  1  0
 27 28  1  0
 28 29  1  0
 29 30  1  0
 30 31  1  0
 31 32  1  0
 32 33  1  0
 33 34  1  0
 34 35  1  0
 35 36  1  0
 36 37  1  0
 37 38  1  0
 38 39  1  0
 39 40  1  0
 40 41  1  0
 41 42  1  0
 42 43  1  0
 43 44  1  0
 44 45  1  0
 45 46  1  0
 46 47  1  0
 47 48  1  0
 48 49  1  0
 49 50  1  0
 50 51  1  0
 51 52  1  0
 52 53  1  0
 53 54  1  0
 54 55  1  0
 55 56  1  0
 56 57  1  0
 57  2  1  0
M  END
>  <Title>  (218) 
idAAGPgen7

$$$$

     RDKit          2D

 21 22  0  0  0  0  0  0  0  0999 V2000
    3.5260    1.2990    0.0000 O   0  0  0  0  0  0  0  0  0  0  0  0
    2.7760    0.0000    0.0000 C   0  0  0  0  0  0  0  0  0  0  0  0
    3.5260   -1.2990    0.0000 O   0  0  0  0  0  0  0  0  0  0  0  0
    1.2760    0.0000    0.0000 C   0  0  0  0  0  0  0  0  0  0  0  0
    0.3943    1.2135    0.0000 C   0  0  0  0  0  0  0  0  0  0  0  0
   -1.0323    0.7500    0.0000 C   0  0  0  0  0  0  0  0  0  0  0  0
   -1.0323   -0.7500    0.0000 N   0  0  0  0  0  0  0  0  0  0  0  0
   -2.2458   -1.6317    0.0000 C   0  0  0  0  0  0  0  0  0  0  0  0
   -2.0890   -3.1235    0.0000 O   0  0  0  0  0  0  0  0  0  0  0  0
   -3.6161   -1.0216    0.0000 C   0  0  0  0  0  0  0  0  0  0  0  0
   -4.9864   -0.4115    0.0000 C   0  0  0  0  0  0  0  0  0  0  0  0
   -6.3568    0.1986    0.0000 C   0  0  0  0  0  0  0  0  0  0  0  0
   -6.5136    1.6904    0.0000 O   0  0  0  0  0  0  0  0  0  0  0  0
   -7.5703   -0.6830    0.0000 N   0  0  0  0  0  0  0  0  0  0  0  0
   -7.5703   -2.1830    0.0000 C   0  0  0  0  0  0  0  0  0  0  0  0
   -8.9969   -2.6466    0.0000 C   0  0  0  0  0  0  0  0  0  0  0  0
   -9.8786   -1.4330    0.0000 C   0  0  0  0  0  0  0  0  0  0  0  0
   -8.9969   -0.2195    0.0000 C   0  0  0  0  0  0  0  0  0  0  0  0
   -9.4604    1.2071    0.0000 O   0  0  0  0  0  0  0  0  0  0  0  0
    0.3943   -1.2135    0.0000 C   0  0  0  0  0  0  0  0  0  0  0  0
    0.8578   -2.6401    0.0000 O   0  0  0  0  0  0  0  0  0  0  0  0
  1  2  2  0
  2  3  1  0
  2  4  1  0
  4  5  1  0
  5  6  1  0
  6  7  1  0
  7  8  1  0
  8  9  2  0
  8 10  1  0
 10 11  3  0
 11 12  1  0
 12 13  2  0
 12 14  1  0
 14 15  1  0
 15 16  1  0
 16 17  1  0
 17 18  1  0
 18 19  2  0
  7 20  1  0
 20 21  2  0
 20  4  1  0
 18 14  1  0
M  END
>  <Title>  (219) 
idAAGQgen7

$$$$

     RDKit          2D

 33 37  0  0  0  0  0  0  0  0999 V2000
    1.2135   -7.3421    0.0000 C   0  0  0  0  0  0  0  0  0  0  0  0
    0.7500   -5.9156    0.0000 C   0  0  0  0  0  0  0  0  0  0  0  0
    1.9635   -5.0339    0.0000 C   0  0  0  0  0  0  0  0  0  0  0  0
    2.4271   -3.6073    0.0000 C   0  0  0  0  0  0  0  0  0  0  0  0
    1.9635   -2.1807    0.0000 C   0  0  0  0  0  0  0  0  0  0  0  0
    3.1771   -1.2990    0.0000 C   0  0  0  0  0  0  0  0  0  0  0  0
    3.0203    0.1927    0.0000 O   0  0  0  0  0  0  0  0  0  0  0  0
    4.5474   -1.9091    0.0000 N   0  0  0  0  0  0  0  0  0  0  0  0
    5.7609   -1.0275    0.0000 C   0  0  0  0  0  0  0  0  0  0  0  0
    7.1312   -1.6376    0.0000 N   0  0  0  0  0  0  0  0  0  0  0  0
    8.3447   -0.7559    0.0000 N   0  0  0  0  0  0  0  0  0  0  0  0
    8.1879    0.7359    0.0000 N   0  0  0  0  0  0  0  0  0  0  0  0
    6.8176    1.3460    0.0000 N   0  0  0  0  0  0  0  0  0  0  0  0
    5.6041    0.4643    0.0000 N   0  0  0  0  0  0  0  0  0  0  0  0
    0.7500   -1.2990    0.0000 C   0  0  0  0  0  0  0  0  0  0  0  0
    1.5000    0.0000    0.0000 C   0  0  0  0  0  0  0  0  0  0  0  0
    0.7500    1.2990    0.0000 C   0  0  0  0  0  0  0  0  0  0  0  0
   -0.7500    1.2990    0.0000 C   0  0  0  0  0  0  0  0  0  0  0  0
   -1.5000    0.0000    0.0000 C   0  0  0  0  0  0  0  0  0  0  0  0
   -0.7500   -1.2990    0.0000 C   0  0  0  0  0  0  0  0  0  0  0  0
   -1.9635   -2.1807    0.0000 C   0  0  0  0  0  0  0  0  0  0  0  0
   -2.9672   -1.0660    0.0000 C   0  0  0  0  0  0  0  0  0  0  0  0
   -4.4344   -1.3779    0.0000 C   0  0  0  0  0  0  0  0  0  0  0  0
   -4.8980   -2.8045    0.0000 C   0  0  0  0  0  0  0  0  0  0  0  0
   -3.8943   -3.9192    0.0000 C   0  0  0  0  0  0  0  0  0  0  0  0
   -2.4271   -3.6073    0.0000 C   0  0  0  0  0  0  0  0  0  0  0  0
   -1.9635   -5.0339    0.0000 C   0  0  0  0  0  0  0  0  0  0  0  0
   -3.3338   -5.6440    0.0000 C   0  0  0  0  0  0  0  0  0  0  0  0
   -3.4906   -7.1358    0.0000 C   0  0  0  0  0  0  0  0  0  0  0  0
   -2.2771   -8.0175    0.0000 C   0  0  0  0  0  0  0  0  0  0  0  0
   -2.4339   -9.5092    0.0000 N   0  0  0  0  0  0  0  0  0  0  0  0
   -0.9068   -7.4073    0.0000 C   0  0  0  0  0  0  0  0  0  0  0  0
   -0.7500   -5.9156    0.0000 C   0  0  0  0  0  0  0  0  0  0  0  0
  1  2  1  0
  2  3  1  0
  3  4  1  0
  4  5  1  0
  5  6  1  0
  6  7  2  0
  6  8  1  0
  8  9  1  0
  9 10  2  0
 10 11  1  0
 11 12  2  0
 12 13  1  0
 13 14  2  0
  5 15  1  0
 15 16  2  0
 16 17  1  0
 17 18  2  0
 18 19  1  0
 19 20  2  0
 20 21  1  0
 21 22  2  0
 22 23  1  0
 23 24  2  0
 24 25  1  0
 25 26  2  0
 26 27  1  0
 27 28  2  0
 28 29  1  0
 29 30  2  0
 30 31  1  0
 30 32  1  0
 32 33  2  0
 33  2  1  0
 14  9  1  0
 20 15  1  0
 26 21  1  0
 33 27  1  0
M  END
>  <Title>  (220) 
idAAGRgen7

$$$$

     RDKit          2D

 22 24  0  0  0  0  0  0  0  0999 V2000
   -0.7500   -3.8971    0.0000 O   0  0  0  0  0  0  0  0  0  0  0  0
    0.7500   -3.8971    0.0000 C   0  0  0  0  0  0  0  0  0  0  0  0
    1.5000   -2.5981    0.0000 N   0  0  0  0  0  0  0  0  0  0  0  0
    0.7500   -1.2990    0.0000 C   0  0  0  0  0  0  0  0  0  0  0  0
    1.5000    0.0000    0.0000 N   0  0  0  0  0  0  0  0  0  0  0  0
    0.7500    1.2990    0.0000 N   0  0  0  0  0  0  0  0  0  0  0  0
   -0.7500    1.2990    0.0000 N   0  0  0  0  0  0  0  0  0  0  0  0
   -1.5000    0.0000    0.0000 N   0  0  0  0  0  0  0  0  0  0  0  0
   -0.7500   -1.2990    0.0000 N   0  0  0  0  0  0  0  0  0  0  0  0
    1.5000   -5.1962    0.0000 C   0  0  0  0  0  0  0  0  0  0  0  0
    2.9918   -5.3529    0.0000 C   0  0  0  0  0  0  0  0  0  0  0  0
    3.3037   -6.8202    0.0000 C   0  0  0  0  0  0  0  0  0  0  0  0
    2.0046   -7.5702    0.0000 N   0  0  0  0  0  0  0  0  0  0  0  0
    1.8478   -9.0619    0.0000 C   0  0  0  0  0  0  0  0  0  0  0  0
    3.0613   -9.9436    0.0000 O   0  0  0  0  0  0  0  0  0  0  0  0
    0.4775   -9.6721    0.0000 C   0  0  0  0  0  0  0  0  0  0  0  0
    0.3207  -11.1638    0.0000 C   0  0  0  0  0  0  0  0  0  0  0  0
    1.4354  -12.1675    0.0000 C   0  0  0  0  0  0  0  0  0  0  0  0
    0.8253  -13.5379    0.0000 C   0  0  0  0  0  0  0  0  0  0  0  0
   -0.6665  -13.3811    0.0000 C   0  0  0  0  0  0  0  0  0  0  0  0
   -0.9783  -11.9138    0.0000 C   0  0  0  0  0  0  0  0  0  0  0  0
    0.8899   -6.5665    0.0000 C   0  0  0  0  0  0  0  0  0  0  0  0
  1  2  2  0
  2  3  1  0
  3  4  1  0
  4  5  2  0
  5  6  1  0
  6  7  2  0
  7  8  1  0
  8  9  2  0
  2 10  1  0
 10 11  1  0
 11 12  1  0
 12 13  1  0
 13 14  1  0
 14 15  2  0
 14 16  1  0
 16 17  1  0
 17 18  2  0
 18 19  1  0
 19 20  1  0
 20 21  1  0
 13 22  1  0
  9  4  1  0
 22 10  1  0
 21 17  1  0
M  END
>  <Title>  (221) 
idAAGSgen7

$$$$

     RDKit          2D

 88 88  0  0  0  0  0  0  0  0999 V2000
   22.2742   -0.0000    0.0000 O   0  0  0  0  0  0  0  0  0  0  0  0
   20.7742    0.0000    0.0000 C   0  0  0  0  0  0  0  0  0  0  0  0
   20.7201    1.4990    0.0000 C   0  0  0  0  0  0  0  0  0  0  0  0
   20.5579    2.9902    0.0000 C   0  0  0  0  0  0  0  0  0  0  0  0
   20.2885    4.4658    0.0000 C   0  0  0  0  0  0  0  0  0  0  0  0
   19.9134    5.9182    0.0000 C   0  0  0  0  0  0  0  0  0  0  0  0
   19.4345    7.3397    0.0000 C   0  0  0  0  0  0  0  0  0  0  0  0
   18.8542    8.7229    0.0000 C   0  0  0  0  0  0  0  0  0  0  0  0
   18.1756   10.0606    0.0000 C   0  0  0  0  0  0  0  0  0  0  0  0
   17.4023   11.3459    0.0000 C   0  0  0  0  0  0  0  0  0  0  0  0
   16.5382   12.5720    0.0000 C   0  0  0  0  0  0  0  0  0  0  0  0
   15.5879   13.7326    0.0000 C   0  0  0  0  0  0  0  0  0  0  0  0
   14.5564   14.8216    0.0000 C   0  0  0  0  0  0  0  0  0  0  0  0
   13.4490   15.8333    0.0000 C   0  0  0  0  0  0  0  0  0  0  0  0
   12.2714   16.7625    0.0000 C   0  0  0  0  0  0  0  0  0  0  0  0
   11.0299   17.6043    0.0000 C   0  0  0  0  0  0  0  0  0  0  0  0
    9.7308   18.3543    0.0000 C   0  0  0  0  0  0  0  0  0  0  0  0
    8.3811   19.0086    0.0000 C   0  0  0  0  0  0  0  0  0  0  0  0
    6.9876   19.5638    0.0000 C   0  0  0  0  0  0  0  0  0  0  0  0
    5.5577   20.0170    0.0000 C   0  0  0  0  0  0  0  0  0  0  0  0
    4.0988   20.3659    0.0000 C   0  0  0  0  0  0  0  0  0  0  0  0
    2.6186   20.6085    0.0000 C   0  0  0  0  0  0  0  0  0  0  0  0
    1.1247   20.7438    0.0000 C   0  0  0  0  0  0  0  0  0  0  0  0
   -0.3751   20.7708    0.0000 C   0  0  0  0  0  0  0  0  0  0  0  0
   -1.8729   20.6896    0.0000 C   0  0  0  0  0  0  0  0  0  0  0  0
   -3.3609   20.5006    0.0000 C   0  0  0  0  0  0  0  0  0  0  0  0
   -4.8314   20.2046    0.0000 C   0  0  0  0  0  0  0  0  0  0  0  0
   -6.2767   19.8033    0.0000 C   0  0  0  0  0  0  0  0  0  0  0  0
   -7.6893   19.2988    0.0000 C   0  0  0  0  0  0  0  0  0  0  0  0
   -9.0618   18.6936    0.0000 C   0  0  0  0  0  0  0  0  0  0  0  0
  -10.3871   17.9910    0.0000 C   0  0  0  0  0  0  0  0  0  0  0  0
  -11.6582   17.1946    0.0000 C   0  0  0  0  0  0  0  0  0  0  0  0
  -12.8686   16.3086    0.0000 C   0  0  0  0  0  0  0  0  0  0  0  0
  -14.0118   15.3375    0.0000 C   0  0  0  0  0  0  0  0  0  0  0  0
  -15.0820   14.2864    0.0000 C   0  0  0  0  0  0  0  0  0  0  0  0
  -16.0736   13.1609    0.0000 C   0  0  0  0  0  0  0  0  0  0  0  0
  -16.9813   11.9668    0.0000 C   0  0  0  0  0  0  0  0  0  0  0  0
  -17.8006   10.7102    0.0000 C   0  0  0  0  0  0  0  0  0  0  0  0
  -18.5270    9.3979    0.0000 C   0  0  0  0  0  0  0  0  0  0  0  0
  -19.1568    8.0365    0.0000 C   0  0  0  0  0  0  0  0  0  0  0  0
  -19.6868    6.6332    0.0000 C   0  0  0  0  0  0  0  0  0  0  0  0
  -20.1141    5.1954    0.0000 C   0  0  0  0  0  0  0  0  0  0  0  0
  -20.4365    3.7305    0.0000 C   0  0  0  0  0  0  0  0  0  0  0  0
  -20.6525    2.2461    0.0000 C   0  0  0  0  0  0  0  0  0  0  0  0
  -20.7607    0.7500    0.0000 C   0  0  0  0  0  0  0  0  0  0  0  0
  -20.7607   -0.7500    0.0000 C   0  0  0  0  0  0  0  0  0  0  0  0
  -20.6525   -2.2461    0.0000 C   0  0  0  0  0  0  0  0  0  0  0  0
  -20.4365   -3.7305    0.0000 C   0  0  0  0  0  0  0  0  0  0  0  0
  -20.1141   -5.1954    0.0000 C   0  0  0  0  0  0  0  0  0  0  0  0
  -19.6868   -6.6332    0.0000 C   0  0  0  0  0  0  0  0  0  0  0  0
  -19.1568   -8.0365    0.0000 C   0  0  0  0  0  0  0  0  0  0  0  0
  -18.5270   -9.3979    0.0000 C   0  0  0  0  0  0  0  0  0  0  0  0
  -17.8006  -10.7102    0.0000 C   0  0  0  0  0  0  0  0  0  0  0  0
  -16.9813  -11.9668    0.0000 C   0  0  0  0  0  0  0  0  0  0  0  0
  -16.0736  -13.1609    0.0000 C   0  0  0  0  0  0  0  0  0  0  0  0
  -15.0820  -14.2864    0.0000 C   0  0  0  0  0  0  0  0  0  0  0  0
  -14.0118  -15.3375    0.0000 C   0  0  0  0  0  0  0  0  0  0  0  0
  -12.8686  -16.3086    0.0000 C   0  0  0  0  0  0  0  0  0  0  0  0
  -11.6582  -17.1946    0.0000 C   0  0  0  0  0  0  0  0  0  0  0  0
  -10.3871  -17.9910    0.0000 C   0  0  0  0  0  0  0  0  0  0  0  0
   -9.0618  -18.6936    0.0000 C   0  0  0  0  0  0  0  0  0  0  0  0
   -7.6893  -19.2988    0.0000 C   0  0  0  0  0  0  0  0  0  0  0  0
   -6.2767  -19.8033    0.0000 C   0  0  0  0  0  0  0  0  0  0  0  0
   -4.8314  -20.2046    0.0000 C   0  0  0  0  0  0  0  0  0  0  0  0
   -3.3609  -20.5006    0.0000 C   0  0  0  0  0  0  0  0  0  0  0  0
   -1.8729  -20.6896    0.0000 C   0  0  0  0  0  0  0  0  0  0  0  0
   -0.3751  -20.7708    0.0000 C   0  0  0  0  0  0  0  0  0  0  0  0
    1.1247  -20.7438    0.0000 C   0  0  0  0  0  0  0  0  0  0  0  0
    2.6186  -20.6085    0.0000 C   0  0  0  0  0  0  0  0  0  0  0  0
    4.0988  -20.3659    0.0000 C   0  0  0  0  0  0  0  0  0  0  0  0
    5.5577  -20.0170    0.0000 C   0  0  0  0  0  0  0  0  0  0  0  0
    6.9876  -19.5638    0.0000 C   0  0  0  0  0  0  0  0  0  0  0  0
    8.3811  -19.0086    0.0000 C   0  0  0  0  0  0  0  0  0  0  0  0
    9.7308  -18.3543    0.0000 C   0  0  0  0  0  0  0  0  0  0  0  0
   11.0299  -17.6043    0.0000 C   0  0  0  0  0  0  0  0  0  0  0  0
   12.2714  -16.7625    0.0000 C   0  0  0  0  0  0  0  0  0  0  0  0
   13.4490  -15.8333    0.0000 C   0  0  0  0  0  0  0  0  0  0  0  0
   14.5564  -14.8216    0.0000 C   0  0  0  0  0  0  0  0  0  0  0  0
   15.5879  -13.7326    0.0000 C   0  0  0  0  0  0  0  0  0  0  0  0
   16.5382  -12.5720    0.0000 C   0  0  0  0  0  0  0  0  0  0  0  0
   17.4023  -11.3459    0.0000 C   0  0  0  0  0  0  0  0  0  0  0  0
   18.1756  -10.0606    0.0000 C   0  0  0  0  0  0  0  0  0  0  0  0
   18.8542   -8.7229    0.0000 C   0  0  0  0  0  0  0  0  0  0  0  0
   19.4345   -7.3397    0.0000 C   0  0  0  0  0  0  0  0  0  0  0  0
   19.9134   -5.9182    0.0000 C   0  0  0  0  0  0  0  0  0  0  0  0
   20.2885   -4.4658    0.0000 C   0  0  0  0  0  0  0  0  0  0  0  0
   20.5579   -2.9902    0.0000 C   0  0  0  0  0  0  0  0  0  0  0  0
   20.7201   -1.4990    0.0000 C   0  0  0  0  0  0  0  0  0  0  0  0
  1  2  1  0
  2  3  2  0
  3  4  1  0
  4  5  1  0
  5  6  1  0
  6  7  1  0
  7  8  1  0
  8  9  1  0
  9 10  1  0
 10 11  1  0
 11 12  1  0
 12 13  1  0
 13 14  1  0
 14 15  1  0
 15 16  1  0
 16 17  1  0
 17 18  1  0
 18 19  1  0
 19 20  1  0
 20 21  1  0
 21 22  1  0
 22 23  1  0
 23 24  1  0
 24 25  1  0
 25 26  1  0
 26 27  1  0
 27 28  1  0
 28 29  1  0
 29 30  1  0
 30 31  1  0
 31 32  1  0
 32 33  1  0
 33 34  1  0
 34 35  1  0
 35 36  1  0
 36 37  1  0
 37 38  1  0
 38 39  1  0
 39 40  1  0
 40 41  1  0
 41 42  1  0
 42 43  1  0
 43 44  1  0
 44 45  1  0
 45 46  1  0
 46 47  1  0
 47 48  1  0
 48 49  1  0
 49 50  1  0
 50 51  1  0
 51 52  1  0
 52 53  1  0
 53 54  1  0
 54 55  1  0
 55 56  1  0
 56 57  1  0
 57 58  1  0
 58 59  1  0
 59 60  1  0
 60 61  1  0
 61 62  1  0
 62 63  1  0
 63 64  1  0
 64 65  1  0
 65 66  1  0
 66 67  1  0
 67 68  1  0
 68 69  1  0
 69 70  1  0
 70 71  1  0
 71 72  1  0
 72 73  1  0
 73 74  1  0
 74 75  1  0
 75 76  1  0
 76 77  1  0
 77 78  1  0
 78 79  1  0
 79 80  1  0
 80 81  1  0
 81 82  1  0
 82 83  1  0
 83 84  1  0
 84 85  1  0
 85 86  1  0
 86 87  1  0
 87 88  1  0
 88  2  1  0
M  END
>  <Title>  (222) 
idAAGTgen7

$$$$

     RDKit          2D

100102  0  0  0  0  0  0  0  0999 V2000
   -8.6138   -1.4794    0.0000 C   0  0  0  0  0  0  0  0  0  0  0  0
   -8.0459   -2.8678    0.0000 C   0  0  0  0  0  0  0  0  0  0  0  0
   -9.4134   -3.4843    0.0000 C   0  0  0  0  0  0  0  0  0  0  0  0
  -10.7339   -4.1958    0.0000 C   0  0  0  0  0  0  0  0  0  0  0  0
  -12.0009   -4.9987    0.0000 C   0  0  0  0  0  0  0  0  0  0  0  0
  -13.2082   -5.8889    0.0000 C   0  0  0  0  0  0  0  0  0  0  0  0
  -14.3497   -6.8620    0.0000 C   0  0  0  0  0  0  0  0  0  0  0  0
  -15.4197   -7.9133    0.0000 C   0  0  0  0  0  0  0  0  0  0  0  0
  -16.4128   -9.0374    0.0000 C   0  0  0  0  0  0  0  0  0  0  0  0
  -17.3242  -10.2288    0.0000 C   0  0  0  0  0  0  0  0  0  0  0  0
  -18.1493  -11.4815    0.0000 C   0  0  0  0  0  0  0  0  0  0  0  0
  -18.8840  -12.7893    0.0000 C   0  0  0  0  0  0  0  0  0  0  0  0
  -19.5245  -14.1456    0.0000 C   0  0  0  0  0  0  0  0  0  0  0  0
  -20.0679  -15.5437    0.0000 C   0  0  0  0  0  0  0  0  0  0  0  0
  -20.5112  -16.9767    0.0000 C   0  0  0  0  0  0  0  0  0  0  0  0
  -20.8524  -18.4374    0.0000 C   0  0  0  0  0  0  0  0  0  0  0  0
  -21.0896  -19.9185    0.0000 C   0  0  0  0  0  0  0  0  0  0  0  0
  -21.2218  -21.4127    0.0000 C   0  0  0  0  0  0  0  0  0  0  0  0
  -21.2483  -22.9125    0.0000 C   0  0  0  0  0  0  0  0  0  0  0  0
  -21.1689  -24.4104    0.0000 C   0  0  0  0  0  0  0  0  0  0  0  0
  -20.9841  -25.8989    0.0000 N   0  0  0  0  0  0  0  0  0  0  0  0
  -20.6947  -27.3707    0.0000 C   0  0  0  0  0  0  0  0  0  0  0  0
  -20.3022  -28.8185    0.0000 C   0  0  0  0  0  0  0  0  0  0  0  0
  -19.8085  -30.2349    0.0000 C   0  0  0  0  0  0  0  0  0  0  0  0
  -19.2162  -31.6130    0.0000 C   0  0  0  0  0  0  0  0  0  0  0  0
  -18.5282  -32.9459    0.0000 C   0  0  0  0  0  0  0  0  0  0  0  0
  -17.7478  -34.2269    0.0000 C   0  0  0  0  0  0  0  0  0  0  0  0
  -16.8790  -35.4497    0.0000 C   0  0  0  0  0  0  0  0  0  0  0  0
  -15.9262  -36.6082    0.0000 C   0  0  0  0  0  0  0  0  0  0  0  0
  -14.8940  -37.6966    0.0000 C   0  0  0  0  0  0  0  0  0  0  0  0
  -13.7875  -38.7094    0.0000 C   0  0  0  0  0  0  0  0  0  0  0  0
  -12.6124  -39.6417    0.0000 C   0  0  0  0  0  0  0  0  0  0  0  0
  -11.3745  -40.4887    0.0000 C   0  0  0  0  0  0  0  0  0  0  0  0
  -10.0799  -41.2464    0.0000 C   0  0  0  0  0  0  0  0  0  0  0  0
   -8.7351  -41.9108    0.0000 C   0  0  0  0  0  0  0  0  0  0  0  0
   -7.3467  -42.4787    0.0000 C   0  0  0  0  0  0  0  0  0  0  0  0
   -5.9218  -42.9473    0.0000 C   0  0  0  0  0  0  0  0  0  0  0  0
   -4.4674  -43.3141    0.0000 C   0  0  0  0  0  0  0  0  0  0  0  0
   -2.9907  -43.5775    0.0000 C   0  0  0  0  0  0  0  0  0  0  0  0
   -1.4991  -43.7361    0.0000 C   0  0  0  0  0  0  0  0  0  0  0  0
    0.0000  -43.7890    0.0000 C   0  0  0  0  0  0  0  0  0  0  0  0
    1.4991  -43.7361    0.0000 C   0  0  0  0  0  0  0  0  0  0  0  0
    2.9907  -43.5775    0.0000 C   0  0  0  0  0  0  0  0  0  0  0  0
    4.4674  -43.3141    0.0000 C   0  0  0  0  0  0  0  0  0  0  0  0
    5.9218  -42.9473    0.0000 C   0  0  0  0  0  0  0  0  0  0  0  0
    7.3467  -42.4787    0.0000 C   0  0  0  0  0  0  0  0  0  0  0  0
    8.7351  -41.9108    0.0000 C   0  0  0  0  0  0  0  0  0  0  0  0
   10.0799  -41.2464    0.0000 C   0  0  0  0  0  0  0  0  0  0  0  0
   11.3745  -40.4887    0.0000 C   0  0  0  0  0  0  0  0  0  0  0  0
   12.6124  -39.6417    0.0000 C   0  0  0  0  0  0  0  0  0  0  0  0
   13.7875  -38.7094    0.0000 C   0  0  0  0  0  0  0  0  0  0  0  0
   14.8940  -37.6966    0.0000 C   0  0  0  0  0  0  0  0  0  0  0  0
   15.9262  -36.6082    0.0000 C   0  0  0  0  0  0  0  0  0  0  0  0
   16.8790  -35.4497    0.0000 C   0  0  0  0  0  0  0  0  0  0  0  0
   17.7478  -34.2269    0.0000 C   0  0  0  0  0  0  0  0  0  0  0  0
   18.5282  -32.9459    0.0000 C   0  0  0  0  0  0  0  0  0  0  0  0
   19.2162  -31.6130    0.0000 C   0  0  0  0  0  0  0  0  0  0  0  0
   19.8085  -30.2349    0.0000 C   0  0  0  0  0  0  0  0  0  0  0  0
   20.3022  -28.8185    0.0000 C   0  0  0  0  0  0  0  0  0  0  0  0
   20.6947  -27.3707    0.0000 C   0  0  0  0  0  0  0  0  0  0  0  0
   20.9841  -25.8989    0.0000 C   0  0  0  0  0  0  0  0  0  0  0  0
   21.1689  -24.4104    0.0000 C   0  0  0  0  0  0  0  0  0  0  0  0
   21.2483  -22.9125    0.0000 C   0  0  0  0  0  0  0  0  0  0  0  0
   21.2218  -21.4127    0.0000 C   0  0  0  0  0  0  0  0  0  0  0  0
   21.0896  -19.9185    0.0000 C   0  0  0  0  0  0  0  0  0  0  0  0
   20.8524  -18.4374    0.0000 C   0  0  0  0  0  0  0  0  0  0  0  0
   20.5112  -16.9767    0.0000 C   0  0  0  0  0  0  0  0  0  0  0  0
   20.0679  -15.5437    0.0000 C   0  0  0  0  0  0  0  0  0  0  0  0
   19.5245  -14.1456    0.0000 C   0  0  0  0  0  0  0  0  0  0  0  0
   18.8840  -12.7893    0.0000 C   0  0  0  0  0  0  0  0  0  0  0  0
   18.1493  -11.4815    0.0000 C   0  0  0  0  0  0  0  0  0  0  0  0
   17.3242  -10.2288    0.0000 C   0  0  0  0  0  0  0  0  0  0  0  0
   16.4128   -9.0374    0.0000 C   0  0  0  0  0  0  0  0  0  0  0  0
   15.4197   -7.9133    0.0000 C   0  0  0  0  0  0  0  0  0  0  0  0
   14.3497   -6.8620    0.0000 C   0  0  0  0  0  0  0  0  0  0  0  0
   13.2082   -5.8889    0.0000 C   0  0  0  0  0  0  0  0  0  0  0  0
   12.0009   -4.9987    0.0000 C   0  0  0  0  0  0  0  0  0  0  0  0
   10.7339   -4.1958    0.0000 C   0  0  0  0  0  0  0  0  0  0  0  0
    9.4134   -3.4843    0.0000 C   0  0  0  0  0  0  0  0  0  0  0  0
    8.0459   -2.8678    0.0000 C   0  0  0  0  0  0  0  0  0  0  0  0
    6.6384   -2.3492    0.0000 C   0  0  0  0  0  0  0  0  0  0  0  0
    5.1978   -1.9313    0.0000 C   0  0  0  0  0  0  0  0  0  0  0  0
    3.7313   -1.6159    0.0000 C   0  0  0  0  0  0  0  0  0  0  0  0
    2.2463   -1.4048    0.0000 C   0  0  0  0  0  0  0  0  0  0  0  0
    2.4048    0.0868    0.0000 C   0  0  0  0  0  0  0  0  0  0  0  0
    0.7500   -1.2990    0.0000 C   0  0  0  0  0  0  0  0  0  0  0  0
    1.5000    0.0000    0.0000 C   0  0  0  0  0  0  0  0  0  0  0  0
    0.7500    1.2990    0.0000 C   0  0  0  0  0  0  0  0  0  0  0  0
   -0.7500    1.2990    0.0000 C   0  0  0  0  0  0  0  0  0  0  0  0
   -1.5000    0.0000    0.0000 C   0  0  0  0  0  0  0  0  0  0  0  0
   -0.7500   -1.2990    0.0000 C   0  0  0  0  0  0  0  0  0  0  0  0
   -2.2463   -1.4048    0.0000 C   0  0  0  0  0  0  0  0  0  0  0  0
   -1.3209   -2.5854    0.0000 C   0  0  0  0  0  0  0  0  0  0  0  0
   -1.8806   -3.9771    0.0000 C   0  0  0  0  0  0  0  0  0  0  0  0
   -3.3657   -4.1882    0.0000 C   0  0  0  0  0  0  0  0  0  0  0  0
   -4.2911   -3.0076    0.0000 C   0  0  0  0  0  0  0  0  0  0  0  0
   -3.7313   -1.6159    0.0000 C   0  0  0  0  0  0  0  0  0  0  0  0
   -5.1978   -1.9313    0.0000 N   0  0  0  0  0  0  0  0  0  0  0  0
   -6.6384   -2.3492    0.0000 C   0  0  0  0  0  0  0  0  0  0  0  0
   -7.1070   -0.9243    0.0000 O   0  0  0  0  0  0  0  0  0  0  0  0
  1  2  1  0
  2  3  1  0
  3  4  1  0
  4  5  1  0
  5  6  1  0
  6  7  1  0
  7  8  1  0
  8  9  1  0
  9 10  1  0
 10 11  1  0
 11 12  1  0
 12 13  1  0
 13 14  1  0
 14 15  1  0
 15 16  1  0
 16 17  1  0
 17 18  1  0
 18 19  1  0
 19 20  1  0
 20 21  1  0
 21 22  1  0
 22 23  1  0
 23 24  1  0
 24 25  1  0
 25 26  1  0
 26 27  1  0
 27 28  1  0
 28 29  1  0
 29 30  1  0
 30 31  1  0
 31 32  1  0
 32 33  1  0
 33 34  1  0
 34 35  1  0
 35 36  1  0
 36 37  1  0
 37 38  1  0
 38 39  1  0
 39 40  1  0
 40 41  1  0
 41 42  1  0
 42 43  1  0
 43 44  1  0
 44 45  1  0
 45 46  1  0
 46 47  1  0
 47 48  1  0
 48 49  1  0
 49 50  1  0
 50 51  1  0
 51 52  1  0
 52 53  1  0
 53 54  1  0
 54 55  1  0
 55 56  1  0
 56 57  1  0
 57 58  1  0
 58 59  1  0
 59 60  1  0
 60 61  1  0
 61 62  1  0
 62 63  1  0
 63 64  1  0
 64 65  1  0
 65 66  1  0
 66 67  1  0
 67 68  1  0
 68 69  1  0
 69 70  1  0
 70 71  1  0
 71 72  1  0
 72 73  1  0
 73 74  1  0
 74 75  1  0
 75 76  1  0
 76 77  1  0
 77 78  1  0
 78 79  1  0
 79 80  1  0
 80 81  1  0
 81 82  1  0
 82 83  1  0
 83 84  1  0
 84 85  1  0
 84 86  1  0
 86 87  2  0
 87 88  1  0
 88 89  2  0
 89 90  1  0
 90 91  2  0
 91 92  1  0
 92 93  2  0
 93 94  1  0
 94 95  2  0
 95 96  1  0
 96 97  2  0
 97 98  1  0
 98 99  1  0
 99100  2  0
 99  2  1  0
 91 86  1  0
 97 92  1  0
M  END
>  <Title>  (223) 
idAAGUgen7

$$$$

     RDKit          2D

  4  3  0  0  0  0  0  0  0  0999 V2000
    0.0000    0.0000    0.0000 C   0  0  0  0  0  0  0  0  0  0  0  0
    1.2990    0.7500    0.0000 C   0  0  0  0  0  0  0  0  0  0  0  0
    2.5981   -0.0000    0.0000 C   0  0  0  0  0  0  0  0  0  0  0  0
    1.2990    2.2500    0.0000 N   0  0  0  0  0  0  0  0  0  0  0  0
  1  2  1  0
  2  3  1  0
  2  4  2  0
M  END
>  <Title>  (224) 
idAAGVgen7

$$$$

     RDKit          2D

  8  8  0  0  0  0  0  0  0  0999 V2000
    2.7760    0.0000    0.0000 C   0  0  0  0  0  0  0  0  0  0  0  0
    1.2760    0.0000    0.0000 C   0  0  0  0  0  0  0  0  0  0  0  0
    0.3943    1.2135    0.0000 C   0  0  0  0  0  0  0  0  0  0  0  0
   -1.0323    0.7500    0.0000 C   0  0  0  0  0  0  0  0  0  0  0  0
   -1.0323   -0.7500    0.0000 C   0  0  0  0  0  0  0  0  0  0  0  0
   -2.2458   -1.6317    0.0000 C   0  0  0  0  0  0  0  0  0  0  0  0
    0.3943   -1.2135    0.0000 C   0  0  0  0  0  0  0  0  0  0  0  0
    0.8578   -2.6401    0.0000 O   0  0  0  0  0  0  0  0  0  0  0  0
  1  2  1  0
  2  3  2  0
  3  4  1  0
  4  5  2  0
  5  6  1  0
  5  7  1  0
  7  8  2  0
  7  2  1  0
M  END
>  <Title>  (225) 
idAAGWgen7

$$$$

     RDKit          2D

 10 10  0  0  0  0  0  0  0  0999 V2000
    2.7760    0.0000    0.0000 C   0  0  0  0  0  0  0  0  0  0  0  0
    1.2760    0.0000    0.0000 C   0  0  0  0  0  0  0  0  0  0  0  0
    0.3943    1.2135    0.0000 C   0  0  0  0  0  0  0  0  0  0  0  0
   -1.0323    0.7500    0.0000 C   0  0  0  0  0  0  0  0  0  0  0  0
   -1.0323   -0.7500    0.0000 C   0  0  0  0  0  0  0  0  0  0  0  0
   -2.2458   -1.6317    0.0000 C   0  0  0  0  0  0  0  0  0  0  0  0
   -2.0890   -3.1235    0.0000 O   0  0  0  0  0  0  0  0  0  0  0  0
   -3.6161   -1.0216    0.0000 O   0  0  0  0  0  0  0  0  0  0  0  0
    0.3943   -1.2135    0.0000 C   0  0  0  0  0  0  0  0  0  0  0  0
    0.8578   -2.6401    0.0000 O   0  0  0  0  0  0  0  0  0  0  0  0
  1  2  1  0
  2  3  2  0
  3  4  1  0
  4  5  2  0
  5  6  1  0
  6  7  2  0
  6  8  1  0
  5  9  1  0
  9 10  2  0
  9  2  1  0
M  END
>  <Title>  (226) 
idAAGXgen7

$$$$

     RDKit          2D

  7  7  0  0  0  0  0  0  0  0999 V2000
    3.5260   -1.2990    0.0000 C   0  0  0  0  0  0  0  0  0  0  0  0
    2.7760    0.0000    0.0000 O   0  0  0  0  0  0  0  0  0  0  0  0
    1.2760    0.0000    0.0000 C   0  0  0  0  0  0  0  0  0  0  0  0
    0.3943    1.2135    0.0000 C   0  0  0  0  0  0  0  0  0  0  0  0
   -1.0323    0.7500    0.0000 C   0  0  0  0  0  0  0  0  0  0  0  0
   -1.0323   -0.7500    0.0000 C   0  0  0  0  0  0  0  0  0  0  0  0
    0.3943   -1.2135    0.0000 C   0  0  0  0  0  0  0  0  0  0  0  0
  1  2  1  0
  2  3  1  0
  3  4  2  0
  4  5  1  0
  5  6  1  0
  6  7  1  0
  7  3  1  0
M  END
>  <Title>  (227) 
idAAGYgen7

$$$$

     RDKit          2D

  5  4  0  0  0  0  0  0  0  0999 V2000
    1.2990    2.2500    0.0000 O   0  0  0  0  0  0  0  0  0  0  0  0
    1.2990    0.7500    0.0000 C   0  0  0  0  0  0  0  0  0  0  0  0
    2.5981   -0.0000    0.0000 O   0  0  0  0  0  0  0  0  0  0  0  0
    0.0000    0.0000    0.0000 C   0  0  0  0  0  0  0  0  0  0  0  0
   -1.2990    0.7500    0.0000 O   0  0  0  0  0  0  0  0  0  0  0  0
  1  2  2  0
  2  3  1  0
  2  4  1  0
  4  5  1  0
M  END
>  <Title>  (228) 
idAAGZgen7

$$$$

     RDKit          2D

 48 52  0  0  0  0  0  0  0  0999 V2000
    0.6237   -5.9492    0.0000 C   0  0  0  0  0  0  0  0  0  0  0  0
   -0.0000   -4.5850    0.0000 C   0  0  0  0  0  0  0  0  0  0  0  0
   -0.9352   -5.7578    0.0000 C   0  0  0  0  0  0  0  0  0  0  0  0
    1.3515   -3.9342    0.0000 C   0  0  0  0  0  0  0  0  0  0  0  0
    1.4075   -5.4331    0.0000 C   0  0  0  0  0  0  0  0  0  0  0  0
    1.8497   -6.8665    0.0000 C   0  0  0  0  0  0  0  0  0  0  0  0
    2.6477   -8.1366    0.0000 C   0  0  0  0  0  0  0  0  0  0  0  0
    1.4927   -9.0936    0.0000 C   0  0  0  0  0  0  0  0  0  0  0  0
    0.0864   -8.5718    0.0000 O   0  0  0  0  0  0  0  0  0  0  0  0
    1.7439  -10.5724    0.0000 N   0  0  0  0  0  0  0  0  0  0  0  0
    0.5889  -11.5294    0.0000 C   0  0  0  0  0  0  0  0  0  0  0  0
   -0.8174  -11.0076    0.0000 N   0  0  0  0  0  0  0  0  0  0  0  0
   -1.9725  -11.9646    0.0000 N   0  0  0  0  0  0  0  0  0  0  0  0
   -1.7212  -13.4434    0.0000 N   0  0  0  0  0  0  0  0  0  0  0  0
   -0.3149  -13.9652    0.0000 N   0  0  0  0  0  0  0  0  0  0  0  0
    0.8401  -13.0082    0.0000 N   0  0  0  0  0  0  0  0  0  0  0  0
    3.7473   -9.1568    0.0000 C   0  0  0  0  0  0  0  0  0  0  0  0
    5.0735   -9.8577    0.0000 C   0  0  0  0  0  0  0  0  0  0  0  0
    6.5359  -10.1915    0.0000 C   0  0  0  0  0  0  0  0  0  0  0  0
    8.0348  -10.1354    0.0000 C   0  0  0  0  0  0  0  0  0  0  0  0
    9.4682   -9.6933    0.0000 C   0  0  0  0  0  0  0  0  0  0  0  0
   10.7383   -8.8952    0.0000 C   0  0  0  0  0  0  0  0  0  0  0  0
   11.7585   -7.7957    0.0000 C   0  0  0  0  0  0  0  0  0  0  0  0
   12.4594   -6.4695    0.0000 C   0  0  0  0  0  0  0  0  0  0  0  0
   12.7932   -5.0071    0.0000 C   0  0  0  0  0  0  0  0  0  0  0  0
   12.7371   -3.5082    0.0000 C   0  0  0  0  0  0  0  0  0  0  0  0
   12.2950   -2.0748    0.0000 C   0  0  0  0  0  0  0  0  0  0  0  0
   11.4969   -0.8047    0.0000 C   0  0  0  0  0  0  0  0  0  0  0  0
   10.3974    0.2155    0.0000 C   0  0  0  0  0  0  0  0  0  0  0  0
    9.0712    0.9165    0.0000 C   0  0  0  0  0  0  0  0  0  0  0  0
    7.6088    1.2502    0.0000 C   0  0  0  0  0  0  0  0  0  0  0  0
    6.1098    1.1941    0.0000 C   0  0  0  0  0  0  0  0  0  0  0  0
    4.6765    0.7520    0.0000 C   0  0  0  0  0  0  0  0  0  0  0  0
    3.4064   -0.0460    0.0000 C   0  0  0  0  0  0  0  0  0  0  0  0
    2.3861   -1.1456    0.0000 C   0  0  0  0  0  0  0  0  0  0  0  0
    1.6852   -2.4718    0.0000 C   0  0  0  0  0  0  0  0  0  0  0  0
    0.7500   -1.2990    0.0000 C   0  0  0  0  0  0  0  0  0  0  0  0
    1.5000    0.0000    0.0000 C   0  0  0  0  0  0  0  0  0  0  0  0
    0.7500    1.2990    0.0000 C   0  0  0  0  0  0  0  0  0  0  0  0
   -0.7500    1.2990    0.0000 C   0  0  0  0  0  0  0  0  0  0  0  0
   -1.5000    0.0000    0.0000 C   0  0  0  0  0  0  0  0  0  0  0  0
   -0.7500   -1.2990    0.0000 C   0  0  0  0  0  0  0  0  0  0  0  0
   -1.6852   -2.4718    0.0000 C   0  0  0  0  0  0  0  0  0  0  0  0
   -3.1186   -2.0297    0.0000 C   0  0  0  0  0  0  0  0  0  0  0  0
   -4.2182   -3.0499    0.0000 C   0  0  0  0  0  0  0  0  0  0  0  0
   -3.8844   -4.5123    0.0000 C   0  0  0  0  0  0  0  0  0  0  0  0
   -2.4510   -4.9544    0.0000 C   0  0  0  0  0  0  0  0  0  0  0  0
   -1.3515   -3.9342    0.0000 C   0  0  0  0  0  0  0  0  0  0  0  0
  1  2  1  0
  2  3  1  0
  2  4  1  0
  4  5  2  0
  5  6  1  0
  6  7  2  0
  7  8  1  0
  8  9  2  0
  8 10  1  0
 10 11  1  0
 11 12  2  0
 12 13  1  0
 13 14  2  0
 14 15  1  0
 15 16  2  0
  7 17  1  0
 17 18  2  0
 18 19  1  0
 19 20  2  0
 20 21  1  0
 21 22  2  0
 22 23  1  0
 23 24  2  0
 24 25  1  0
 25 26  2  0
 26 27  1  0
 27 28  2  0
 28 29  1  0
 29 30  2  0
 30 31  1  0
 31 32  2  0
 32 33  1  0
 33 34  2  0
 34 35  1  0
 35 36  2  0
 36 37  1  0
 37 38  2  0
 38 39  1  0
 39 40  2  0
 40 41  1  0
 41 42  2  0
 42 43  1  0
 43 44  2  0
 44 45  1  0
 45 46  2  0
 46 47  1  0
 47 48  2  0
 48  2  1  0
 36  4  1  0
 42 37  1  0
 48 43  1  0
 16 11  1  0
M  END
>  <Title>  (229) 
idAAHAgen7

$$$$

     RDKit          2D

 13 13  0  0  0  0  0  0  0  0999 V2000
    7.2760    2.5981    0.0000 C   0  0  0  0  0  0  0  0  0  0  0  0
    5.7760    2.5981    0.0000 C   0  0  0  0  0  0  0  0  0  0  0  0
    5.0260    1.2990    0.0000 C   0  0  0  0  0  0  0  0  0  0  0  0
    3.5260    1.2990    0.0000 C   0  0  0  0  0  0  0  0  0  0  0  0
    2.7760    2.5981    0.0000 O   0  0  0  0  0  0  0  0  0  0  0  0
    2.7760    0.0000    0.0000 C   0  0  0  0  0  0  0  0  0  0  0  0
    3.5260   -1.2990    0.0000 C   0  0  0  0  0  0  0  0  0  0  0  0
    4.2760   -2.5981    0.0000 N   0  0  0  0  0  0  0  0  0  0  0  0
    1.2760    0.0000    0.0000 C   0  0  0  0  0  0  0  0  0  0  0  0
    0.3943    1.2135    0.0000 C   0  0  0  0  0  0  0  0  0  0  0  0
   -1.0323    0.7500    0.0000 C   0  0  0  0  0  0  0  0  0  0  0  0
   -1.0323   -0.7500    0.0000 C   0  0  0  0  0  0  0  0  0  0  0  0
    0.3943   -1.2135    0.0000 C   0  0  0  0  0  0  0  0  0  0  0  0
  1  2  2  0
  2  3  1  0
  3  4  1  0
  4  5  2  0
  4  6  1  0
  6  7  1  0
  7  8  3  0
  6  9  1  0
  9 10  1  0
 10 11  1  0
 11 12  1  0
 12 13  1  0
 13  9  1  0
M  END
>  <Title>  (230) 
idAAHBgen7

$$$$

     RDKit          2D

  9  9  0  0  0  0  0  0  0  0999 V2000
    6.5260   -1.2990    0.0000 N   0  0  0  0  0  0  0  0  0  0  0  0
    5.0260   -1.2990    0.0000 C   0  0  0  0  0  0  0  0  0  0  0  0
    3.5260   -1.2990    0.0000 C   0  0  0  0  0  0  0  0  0  0  0  0
    2.7760    0.0000    0.0000 C   0  0  0  0  0  0  0  0  0  0  0  0
    1.2760    0.0000    0.0000 C   0  0  0  0  0  0  0  0  0  0  0  0
    0.3943    1.2135    0.0000 C   0  0  0  0  0  0  0  0  0  0  0  0
   -1.0323    0.7500    0.0000 C   0  0  0  0  0  0  0  0  0  0  0  0
   -1.0323   -0.7500    0.0000 C   0  0  0  0  0  0  0  0  0  0  0  0
    0.3943   -1.2135    0.0000 C   0  0  0  0  0  0  0  0  0  0  0  0
  1  2  3  0
  2  3  1  0
  3  4  1  0
  4  5  1  0
  5  6  2  0
  6  7  1  0
  7  8  1  0
  8  9  1  0
  9  5  1  0
M  END
>  <Title>  (231) 
idAAHCgen7

$$$$

     RDKit          2D

120120  0  0  0  0  0  0  0  0999 V2000
   28.6512    0.0000    0.0000 C   0  0  0  0  0  0  0  0  0  0  0  0
   28.6119   -1.4995    0.0000 C   0  0  0  0  0  0  0  0  0  0  0  0
   28.4942   -2.9949    0.0000 C   0  0  0  0  0  0  0  0  0  0  0  0
   28.2984   -4.4820    0.0000 C   0  0  0  0  0  0  0  0  0  0  0  0
   28.0251   -5.9569    0.0000 C   0  0  0  0  0  0  0  0  0  0  0  0
   27.6749   -7.4155    0.0000 C   0  0  0  0  0  0  0  0  0  0  0  0
   27.2489   -8.8537    0.0000 C   0  0  0  0  0  0  0  0  0  0  0  0
   26.7482  -10.2677    0.0000 C   0  0  0  0  0  0  0  0  0  0  0  0
   26.1741  -11.6535    0.0000 C   0  0  0  0  0  0  0  0  0  0  0  0
   25.5284  -13.0074    0.0000 C   0  0  0  0  0  0  0  0  0  0  0  0
   24.8126  -14.3256    0.0000 C   0  0  0  0  0  0  0  0  0  0  0  0
   24.0289  -15.6045    0.0000 C   0  0  0  0  0  0  0  0  0  0  0  0
   23.1793  -16.8407    0.0000 C   0  0  0  0  0  0  0  0  0  0  0  0
   22.2661  -18.0308    0.0000 C   0  0  0  0  0  0  0  0  0  0  0  0
   21.2920  -19.1714    0.0000 C   0  0  0  0  0  0  0  0  0  0  0  0
   20.2594  -20.2594    0.0000 C   0  0  0  0  0  0  0  0  0  0  0  0
   19.1714  -21.2920    0.0000 C   0  0  0  0  0  0  0  0  0  0  0  0
   18.0308  -22.2661    0.0000 C   0  0  0  0  0  0  0  0  0  0  0  0
   16.8407  -23.1793    0.0000 C   0  0  0  0  0  0  0  0  0  0  0  0
   15.6045  -24.0289    0.0000 C   0  0  0  0  0  0  0  0  0  0  0  0
   14.3256  -24.8126    0.0000 C   0  0  0  0  0  0  0  0  0  0  0  0
   13.0074  -25.5284    0.0000 C   0  0  0  0  0  0  0  0  0  0  0  0
   11.6535  -26.1741    0.0000 C   0  0  0  0  0  0  0  0  0  0  0  0
   10.2677  -26.7482    0.0000 C   0  0  0  0  0  0  0  0  0  0  0  0
    8.8537  -27.2489    0.0000 C   0  0  0  0  0  0  0  0  0  0  0  0
    7.4155  -27.6749    0.0000 C   0  0  0  0  0  0  0  0  0  0  0  0
    5.9569  -28.0251    0.0000 C   0  0  0  0  0  0  0  0  0  0  0  0
    4.4820  -28.2984    0.0000 C   0  0  0  0  0  0  0  0  0  0  0  0
    2.9949  -28.4942    0.0000 C   0  0  0  0  0  0  0  0  0  0  0  0
    1.4995  -28.6119    0.0000 C   0  0  0  0  0  0  0  0  0  0  0  0
   -0.0000  -28.6512    0.0000 C   0  0  0  0  0  0  0  0  0  0  0  0
   -1.4995  -28.6119    0.0000 C   0  0  0  0  0  0  0  0  0  0  0  0
   -2.9949  -28.4942    0.0000 C   0  0  0  0  0  0  0  0  0  0  0  0
   -4.4820  -28.2984    0.0000 C   0  0  0  0  0  0  0  0  0  0  0  0
   -5.9569  -28.0251    0.0000 C   0  0  0  0  0  0  0  0  0  0  0  0
   -7.4155  -27.6749    0.0000 C   0  0  0  0  0  0  0  0  0  0  0  0
   -8.8537  -27.2489    0.0000 C   0  0  0  0  0  0  0  0  0  0  0  0
  -10.2677  -26.7482    0.0000 C   0  0  0  0  0  0  0  0  0  0  0  0
  -11.6535  -26.1741    0.0000 C   0  0  0  0  0  0  0  0  0  0  0  0
  -13.0074  -25.5284    0.0000 C   0  0  0  0  0  0  0  0  0  0  0  0
  -14.3256  -24.8126    0.0000 C   0  0  0  0  0  0  0  0  0  0  0  0
  -15.6045  -24.0289    0.0000 C   0  0  0  0  0  0  0  0  0  0  0  0
  -16.8407  -23.1793    0.0000 C   0  0  0  0  0  0  0  0  0  0  0  0
  -18.0308  -22.2661    0.0000 C   0  0  0  0  0  0  0  0  0  0  0  0
  -19.1714  -21.2920    0.0000 C   0  0  0  0  0  0  0  0  0  0  0  0
  -20.2594  -20.2594    0.0000 C   0  0  0  0  0  0  0  0  0  0  0  0
  -21.2920  -19.1714    0.0000 C   0  0  0  0  0  0  0  0  0  0  0  0
  -22.2661  -18.0308    0.0000 C   0  0  0  0  0  0  0  0  0  0  0  0
  -23.1793  -16.8407    0.0000 C   0  0  0  0  0  0  0  0  0  0  0  0
  -24.0289  -15.6045    0.0000 C   0  0  0  0  0  0  0  0  0  0  0  0
  -24.8126  -14.3256    0.0000 C   0  0  0  0  0  0  0  0  0  0  0  0
  -25.5284  -13.0074    0.0000 C   0  0  0  0  0  0  0  0  0  0  0  0
  -26.1741  -11.6535    0.0000 C   0  0  0  0  0  0  0  0  0  0  0  0
  -26.7482  -10.2677    0.0000 C   0  0  0  0  0  0  0  0  0  0  0  0
  -27.2489   -8.8537    0.0000 C   0  0  0  0  0  0  0  0  0  0  0  0
  -27.6749   -7.4155    0.0000 C   0  0  0  0  0  0  0  0  0  0  0  0
  -28.0251   -5.9569    0.0000 C   0  0  0  0  0  0  0  0  0  0  0  0
  -28.2984   -4.4820    0.0000 C   0  0  0  0  0  0  0  0  0  0  0  0
  -28.4942   -2.9949    0.0000 C   0  0  0  0  0  0  0  0  0  0  0  0
  -28.6119   -1.4995    0.0000 C   0  0  0  0  0  0  0  0  0  0  0  0
  -28.6512    0.0000    0.0000 C   0  0  0  0  0  0  0  0  0  0  0  0
  -28.6119    1.4995    0.0000 C   0  0  0  0  0  0  0  0  0  0  0  0
  -28.4942    2.9949    0.0000 C   0  0  0  0  0  0  0  0  0  0  0  0
  -28.2984    4.4820    0.0000 C   0  0  0  0  0  0  0  0  0  0  0  0
  -28.0251    5.9569    0.0000 C   0  0  0  0  0  0  0  0  0  0  0  0
  -27.6749    7.4155    0.0000 C   0  0  0  0  0  0  0  0  0  0  0  0
  -27.2489    8.8537    0.0000 C   0  0  0  0  0  0  0  0  0  0  0  0
  -26.7482   10.2677    0.0000 C   0  0  0  0  0  0  0  0  0  0  0  0
  -26.1741   11.6535    0.0000 C   0  0  0  0  0  0  0  0  0  0  0  0
  -25.5284   13.0074    0.0000 C   0  0  0  0  0  0  0  0  0  0  0  0
  -24.8126   14.3256    0.0000 C   0  0  0  0  0  0  0  0  0  0  0  0
  -24.0289   15.6045    0.0000 C   0  0  0  0  0  0  0  0  0  0  0  0
  -23.1793   16.8407    0.0000 C   0  0  0  0  0  0  0  0  0  0  0  0
  -22.2661   18.0308    0.0000 C   0  0  0  0  0  0  0  0  0  0  0  0
  -21.2920   19.1714    0.0000 C   0  0  0  0  0  0  0  0  0  0  0  0
  -20.2594   20.2594    0.0000 C   0  0  0  0  0  0  0  0  0  0  0  0
  -19.1714   21.2920    0.0000 C   0  0  0  0  0  0  0  0  0  0  0  0
  -18.0308   22.2661    0.0000 C   0  0  0  0  0  0  0  0  0  0  0  0
  -16.8407   23.1793    0.0000 C   0  0  0  0  0  0  0  0  0  0  0  0
  -15.6045   24.0289    0.0000 C   0  0  0  0  0  0  0  0  0  0  0  0
  -14.3256   24.8126    0.0000 C   0  0  0  0  0  0  0  0  0  0  0  0
  -13.0074   25.5284    0.0000 C   0  0  0  0  0  0  0  0  0  0  0  0
  -11.6535   26.1741    0.0000 C   0  0  0  0  0  0  0  0  0  0  0  0
  -10.2677   26.7482    0.0000 C   0  0  0  0  0  0  0  0  0  0  0  0
   -8.8537   27.2489    0.0000 C   0  0  0  0  0  0  0  0  0  0  0  0
   -7.4155   27.6749    0.0000 C   0  0  0  0  0  0  0  0  0  0  0  0
   -5.9569   28.0251    0.0000 C   0  0  0  0  0  0  0  0  0  0  0  0
   -4.4820   28.2984    0.0000 C   0  0  0  0  0  0  0  0  0  0  0  0
   -2.9949   28.4942    0.0000 C   0  0  0  0  0  0  0  0  0  0  0  0
   -1.4995   28.6119    0.0000 C   0  0  0  0  0  0  0  0  0  0  0  0
    0.0000   28.6512    0.0000 C   0  0  0  0  0  0  0  0  0  0  0  0
    1.4995   28.6119    0.0000 C   0  0  0  0  0  0  0  0  0  0  0  0
    2.9949   28.4942    0.0000 C   0  0  0  0  0  0  0  0  0  0  0  0
    4.4820   28.2984    0.0000 C   0  0  0  0  0  0  0  0  0  0  0  0
    5.9569   28.0251    0.0000 C   0  0  0  0  0  0  0  0  0  0  0  0
    7.4155   27.6749    0.0000 C   0  0  0  0  0  0  0  0  0  0  0  0
    8.8537   27.2489    0.0000 C   0  0  0  0  0  0  0  0  0  0  0  0
   10.2677   26.7482    0.0000 C   0  0  0  0  0  0  0  0  0  0  0  0
   11.6535   26.1741    0.0000 C   0  0  0  0  0  0  0  0  0  0  0  0
   13.0074   25.5284    0.0000 C   0  0  0  0  0  0  0  0  0  0  0  0
   14.3256   24.8126    0.0000 C   0  0  0  0  0  0  0  0  0  0  0  0
   15.6045   24.0289    0.0000 C   0  0  0  0  0  0  0  0  0  0  0  0
   16.8407   23.1793    0.0000 C   0  0  0  0  0  0  0  0  0  0  0  0
   18.0308   22.2661    0.0000 C   0  0  0  0  0  0  0  0  0  0  0  0
   19.1714   21.2920    0.0000 C   0  0  0  0  0  0  0  0  0  0  0  0
   20.2594   20.2594    0.0000 C   0  0  0  0  0  0  0  0  0  0  0  0
   21.2920   19.1714    0.0000 C   0  0  0  0  0  0  0  0  0  0  0  0
   22.2661   18.0308    0.0000 C   0  0  0  0  0  0  0  0  0  0  0  0
   23.1793   16.8407    0.0000 C   0  0  0  0  0  0  0  0  0  0  0  0
   24.0289   15.6045    0.0000 C   0  0  0  0  0  0  0  0  0  0  0  0
   24.8126   14.3256    0.0000 C   0  0  0  0  0  0  0  0  0  0  0  0
   25.5284   13.0074    0.0000 C   0  0  0  0  0  0  0  0  0  0  0  0
   26.1741   11.6535    0.0000 C   0  0  0  0  0  0  0  0  0  0  0  0
   26.7482   10.2677    0.0000 C   0  0  0  0  0  0  0  0  0  0  0  0
   27.2489    8.8537    0.0000 C   0  0  0  0  0  0  0  0  0  0  0  0
   27.6749    7.4155    0.0000 C   0  0  0  0  0  0  0  0  0  0  0  0
   28.0251    5.9569    0.0000 C   0  0  0  0  0  0  0  0  0  0  0  0
   28.2984    4.4820    0.0000 C   0  0  0  0  0  0  0  0  0  0  0  0
   28.4942    2.9949    0.0000 C   0  0  0  0  0  0  0  0  0  0  0  0
   28.6119    1.4995    0.0000 C   0  0  0  0  0  0  0  0  0  0  0  0
  1  2  1  0
  2  3  1  0
  3  4  1  0
  4  5  1  0
  5  6  1  0
  6  7  1  0
  7  8  1  0
  8  9  1  0
  9 10  1  0
 10 11  1  0
 11 12  1  0
 12 13  1  0
 13 14  1  0
 14 15  1  0
 15 16  1  0
 16 17  1  0
 17 18  1  0
 18 19  1  0
 19 20  1  0
 20 21  1  0
 21 22  1  0
 22 23  1  0
 23 24  1  0
 24 25  1  0
 25 26  1  0
 26 27  1  0
 27 28  1  0
 28 29  1  0
 29 30  1  0
 30 31  1  0
 31 32  1  0
 32 33  1  0
 33 34  1  0
 34 35  1  0
 35 36  1  0
 36 37  1  0
 37 38  1  0
 38 39  1  0
 39 40  1  0
 40 41  1  0
 41 42  1  0
 42 43  1  0
 43 44  1  0
 44 45  1  0
 45 46  1  0
 46 47  1  0
 47 48  1  0
 48 49  1  0
 49 50  1  0
 50 51  1  0
 51 52  1  0
 52 53  1  0
 53 54  1  0
 54 55  1  0
 55 56  1  0
 56 57  1  0
 57 58  1  0
 58 59  1  0
 59 60  1  0
 60 61  1  0
 61 62  1  0
 62 63  1  0
 63 64  1  0
 64 65  1  0
 65 66  1  0
 66 67  1  0
 67 68  1  0
 68 69  1  0
 69 70  1  0
 70 71  1  0
 71 72  1  0
 72 73  1  0
 73 74  1  0
 74 75  1  0
 75 76  1  0
 76 77  1  0
 77 78  1  0
 78 79  1  0
 79 80  1  0
 80 81  1  0
 81 82  1  0
 82 83  1  0
 83 84  1  0
 84 85  1  0
 85 86  1  0
 86 87  1  0
 87 88  1  0
 88 89  1  0
 89 90  1  0
 90 91  1  0
 91 92  1  0
 92 93  1  0
 93 94  1  0
 94 95  1  0
 95 96  1  0
 96 97  1  0
 97 98  1  0
 98 99  1  0
 99100  1  0
100101  1  0
101102  1  0
102103  1  0
103104  1  0
104105  1  0
105106  1  0
106107  1  0
107108  1  0
108109  1  0
109110  1  0
110111  1  0
111112  1  0
112113  1  0
113114  1  0
114115  1  0
115116  1  0
116117  1  0
117118  1  0
118119  1  0
119120  1  0
120  1  1  0
M  END
>  <Title>  (232) 
idAAHDgen7

$$$$

     RDKit          2D

  9  9  0  0  0  0  0  0  0  0999 V2000
    7.2760   -0.0000    0.0000 N   0  0  0  0  0  0  0  0  0  0  0  0
    5.7760   -0.0000    0.0000 C   0  0  0  0  0  0  0  0  0  0  0  0
    4.2760   -0.0000    0.0000 C   0  0  0  0  0  0  0  0  0  0  0  0
    2.7760    0.0000    0.0000 C   0  0  0  0  0  0  0  0  0  0  0  0
    1.2760    0.0000    0.0000 C   0  0  0  0  0  0  0  0  0  0  0  0
    0.3943    1.2135    0.0000 C   0  0  0  0  0  0  0  0  0  0  0  0
   -1.0323    0.7500    0.0000 C   0  0  0  0  0  0  0  0  0  0  0  0
   -1.0323   -0.7500    0.0000 C   0  0  0  0  0  0  0  0  0  0  0  0
    0.3943   -1.2135    0.0000 C   0  0  0  0  0  0  0  0  0  0  0  0
  1  2  3  0
  2  3  1  0
  3  4  3  0
  4  5  1  0
  5  6  2  0
  6  7  1  0
  7  8  1  0
  8  9  2  0
  9  5  1  0
M  END
>  <Title>  (233) 
idAAHEgen7

$$$$

     RDKit          2D

 84 87  0  0  0  0  0  0  0  0999 V2000
   -5.6459   -0.7306    0.0000 C   0  0  0  0  0  0  0  0  0  0  0  0
   -5.1553   -2.1481    0.0000 C   0  0  0  0  0  0  0  0  0  0  0  0
   -6.5479   -2.7056    0.0000 C   0  0  0  0  0  0  0  0  0  0  0  0
   -7.8811   -3.3929    0.0000 C   0  0  0  0  0  0  0  0  0  0  0  0
   -9.1430   -4.2039    0.0000 C   0  0  0  0  0  0  0  0  0  0  0  0
  -10.3221   -5.1311    0.0000 C   0  0  0  0  0  0  0  0  0  0  0  0
  -11.4077   -6.1662    0.0000 C   0  0  0  0  0  0  0  0  0  0  0  0
  -12.3900   -7.2999    0.0000 C   0  0  0  0  0  0  0  0  0  0  0  0
  -13.2601   -8.5217    0.0000 C   0  0  0  0  0  0  0  0  0  0  0  0
  -14.0101   -9.8208    0.0000 C   0  0  0  0  0  0  0  0  0  0  0  0
  -14.6332  -11.1852    0.0000 C   0  0  0  0  0  0  0  0  0  0  0  0
  -15.1238  -12.6027    0.0000 C   0  0  0  0  0  0  0  0  0  0  0  0
  -15.4774  -14.0604    0.0000 C   0  0  0  0  0  0  0  0  0  0  0  0
  -15.6909  -15.5452    0.0000 C   0  0  0  0  0  0  0  0  0  0  0  0
  -15.7623  -17.0435    0.0000 C   0  0  0  0  0  0  0  0  0  0  0  0
  -15.6909  -18.5418    0.0000 C   0  0  0  0  0  0  0  0  0  0  0  0
  -15.4774  -20.0265    0.0000 C   0  0  0  0  0  0  0  0  0  0  0  0
  -15.1238  -21.4842    0.0000 C   0  0  0  0  0  0  0  0  0  0  0  0
  -14.6332  -22.9017    0.0000 C   0  0  0  0  0  0  0  0  0  0  0  0
  -14.0101  -24.2662    0.0000 C   0  0  0  0  0  0  0  0  0  0  0  0
  -13.2601  -25.5652    0.0000 C   0  0  0  0  0  0  0  0  0  0  0  0
  -12.3900  -26.7871    0.0000 C   0  0  0  0  0  0  0  0  0  0  0  0
  -11.4077  -27.9207    0.0000 C   0  0  0  0  0  0  0  0  0  0  0  0
  -10.3221  -28.9558    0.0000 C   0  0  0  0  0  0  0  0  0  0  0  0
   -9.1430  -29.8831    0.0000 C   0  0  0  0  0  0  0  0  0  0  0  0
   -7.8811  -30.6940    0.0000 C   0  0  0  0  0  0  0  0  0  0  0  0
   -6.5479  -31.3814    0.0000 C   0  0  0  0  0  0  0  0  0  0  0  0
   -5.1553  -31.9389    0.0000 C   0  0  0  0  0  0  0  0  0  0  0  0
   -3.7161  -32.3615    0.0000 C   0  0  0  0  0  0  0  0  0  0  0  0
   -2.2432  -32.6453    0.0000 C   0  0  0  0  0  0  0  0  0  0  0  0
   -0.7500  -32.7879    0.0000 C   0  0  0  0  0  0  0  0  0  0  0  0
    0.7500  -32.7879    0.0000 C   0  0  0  0  0  0  0  0  0  0  0  0
    2.2432  -32.6453    0.0000 C   0  0  0  0  0  0  0  0  0  0  0  0
    3.7161  -32.3615    0.0000 C   0  0  0  0  0  0  0  0  0  0  0  0
    5.1553  -31.9389    0.0000 C   0  0  0  0  0  0  0  0  0  0  0  0
    6.5479  -31.3814    0.0000 C   0  0  0  0  0  0  0  0  0  0  0  0
    7.8811  -30.6940    0.0000 C   0  0  0  0  0  0  0  0  0  0  0  0
    9.1430  -29.8831    0.0000 C   0  0  0  0  0  0  0  0  0  0  0  0
   10.3221  -28.9558    0.0000 C   0  0  0  0  0  0  0  0  0  0  0  0
   11.4077  -27.9207    0.0000 C   0  0  0  0  0  0  0  0  0  0  0  0
   12.3900  -26.7871    0.0000 C   0  0  0  0  0  0  0  0  0  0  0  0
   13.2601  -25.5652    0.0000 C   0  0  0  0  0  0  0  0  0  0  0  0
   14.0101  -24.2662    0.0000 C   0  0  0  0  0  0  0  0  0  0  0  0
   14.6332  -22.9017    0.0000 C   0  0  0  0  0  0  0  0  0  0  0  0
   15.1238  -21.4842    0.0000 C   0  0  0  0  0  0  0  0  0  0  0  0
   15.4774  -20.0265    0.0000 C   0  0  0  0  0  0  0  0  0  0  0  0
   15.6909  -18.5418    0.0000 C   0  0  0  0  0  0  0  0  0  0  0  0
   15.7623  -17.0435    0.0000 C   0  0  0  0  0  0  0  0  0  0  0  0
   15.6909  -15.5452    0.0000 C   0  0  0  0  0  0  0  0  0  0  0  0
   15.4774  -14.0604    0.0000 C   0  0  0  0  0  0  0  0  0  0  0  0
   15.1238  -12.6027    0.0000 C   0  0  0  0  0  0  0  0  0  0  0  0
   14.6332  -11.1852    0.0000 C   0  0  0  0  0  0  0  0  0  0  0  0
   14.0101   -9.8208    0.0000 C   0  0  0  0  0  0  0  0  0  0  0  0
   13.2601   -8.5217    0.0000 C   0  0  0  0  0  0  0  0  0  0  0  0
   12.3900   -7.2999    0.0000 C   0  0  0  0  0  0  0  0  0  0  0  0
   11.4077   -6.1662    0.0000 C   0  0  0  0  0  0  0  0  0  0  0  0
   10.3221   -5.1311    0.0000 C   0  0  0  0  0  0  0  0  0  0  0  0
    9.1430   -4.2039    0.0000 C   0  0  0  0  0  0  0  0  0  0  0  0
    7.8811   -3.3929    0.0000 C   0  0  0  0  0  0  0  0  0  0  0  0
    6.5479   -2.7056    0.0000 C   0  0  0  0  0  0  0  0  0  0  0  0
    5.1553   -2.1481    0.0000 C   0  0  0  0  0  0  0  0  0  0  0  0
    3.7161   -1.7255    0.0000 C   0  0  0  0  0  0  0  0  0  0  0  0
    2.2432   -1.4416    0.0000 C   0  0  0  0  0  0  0  0  0  0  0  0
    2.4567    0.0431    0.0000 C   0  0  0  0  0  0  0  0  0  0  0  0
    1.6290    1.1096    0.0000 O   0  0  0  0  0  0  0  0  0  0  0  0
    3.8492    0.6006    0.0000 C   0  0  0  0  0  0  0  0  0  0  0  0
    4.0627    2.0853    0.0000 C   0  0  0  0  0  0  0  0  0  0  0  0
    5.4553    2.6428    0.0000 N   0  0  0  0  0  0  0  0  0  0  0  0
    5.6687    4.1276    0.0000 N   0  0  0  0  0  0  0  0  0  0  0  0
    4.4896    5.0548    0.0000 N   0  0  0  0  0  0  0  0  0  0  0  0
    3.0971    4.4973    0.0000 N   0  0  0  0  0  0  0  0  0  0  0  0
    2.8836    3.0126    0.0000 N   0  0  0  0  0  0  0  0  0  0  0  0
    0.7500   -1.2990    0.0000 C   0  0  0  0  0  0  0  0  0  0  0  0
    1.5000    0.0000    0.0000 C   0  0  0  0  0  0  0  0  0  0  0  0
    0.7500    1.2990    0.0000 C   0  0  0  0  0  0  0  0  0  0  0  0
   -0.7500    1.2990    0.0000 C   0  0  0  0  0  0  0  0  0  0  0  0
   -1.5000    0.0000    0.0000 C   0  0  0  0  0  0  0  0  0  0  0  0
   -0.7500   -1.2990    0.0000 C   0  0  0  0  0  0  0  0  0  0  0  0
   -2.2432   -1.4416    0.0000 C   0  0  0  0  0  0  0  0  0  0  0  0
   -1.2609   -2.5752    0.0000 C   0  0  0  0  0  0  0  0  0  0  0  0
   -1.7515   -3.9927    0.0000 C   0  0  0  0  0  0  0  0  0  0  0  0
   -3.2244   -4.2766    0.0000 C   0  0  0  0  0  0  0  0  0  0  0  0
   -4.2067   -3.1430    0.0000 C   0  0  0  0  0  0  0  0  0  0  0  0
   -3.7161   -1.7255    0.0000 C   0  0  0  0  0  0  0  0  0  0  0  0
  1  2  1  0
  2  3  1  0
  3  4  1  0
  4  5  1  0
  5  6  1  0
  6  7  1  0
  7  8  1  0
  8  9  1  0
  9 10  1  0
 10 11  1  0
 11 12  1  0
 12 13  1  0
 13 14  1  0
 14 15  1  0
 15 16  1  0
 16 17  1  0
 17 18  1  0
 18 19  1  0
 19 20  1  0
 20 21  1  0
 21 22  1  0
 22 23  1  0
 23 24  1  0
 24 25  1  0
 25 26  1  0
 26 27  1  0
 27 28  1  0
 28 29  1  0
 29 30  1  0
 30 31  1  0
 31 32  1  0
 32 33  1  0
 33 34  1  0
 34 35  1  0
 35 36  1  0
 36 37  1  0
 37 38  1  0
 38 39  1  0
 39 40  1  0
 40 41  2  0
 41 42  1  0
 42 43  2  0
 43 44  1  0
 44 45  2  0
 45 46  1  0
 46 47  2  0
 47 48  1  0
 48 49  2  0
 49 50  1  0
 50 51  2  0
 51 52  1  0
 52 53  2  0
 53 54  1  0
 54 55  2  0
 55 56  1  0
 56 57  2  0
 57 58  1  0
 58 59  2  0
 59 60  1  0
 60 61  2  0
 61 62  1  0
 62 63  2  0
 63 64  1  0
 64 65  2  0
 64 66  1  0
 66 67  1  0
 67 68  2  0
 68 69  1  0
 69 70  2  0
 70 71  1  0
 71 72  2  0
 63 73  1  0
 73 74  2  0
 74 75  1  0
 75 76  2  0
 76 77  1  0
 77 78  2  0
 78 79  1  0
 79 80  2  0
 80 81  1  0
 81 82  2  0
 82 83  1  0
 83 84  2  0
 84  2  1  0
 72 67  1  0
 78 73  1  0
 84 79  1  0
M  END
>  <Title>  (234) 
idAAHFgen7

$$$$

     RDKit          2D

104104  0  0  0  0  0  0  0  0999 V2000
   26.0933    0.0000    0.0000 C   0  0  0  0  0  0  0  0  0  0  0  0
   24.5933    0.0000    0.0000 C   0  0  0  0  0  0  0  0  0  0  0  0
   24.5475    1.4993    0.0000 C   0  0  0  0  0  0  0  0  0  0  0  0
   24.4104    2.9930    0.0000 C   0  0  0  0  0  0  0  0  0  0  0  0
   24.1826    4.4756    0.0000 C   0  0  0  0  0  0  0  0  0  0  0  0
   23.8647    5.9416    0.0000 C   0  0  0  0  0  0  0  0  0  0  0  0
   23.4581    7.3854    0.0000 C   0  0  0  0  0  0  0  0  0  0  0  0
   22.9643    8.8018    0.0000 C   0  0  0  0  0  0  0  0  0  0  0  0
   22.3850   10.1854    0.0000 C   0  0  0  0  0  0  0  0  0  0  0  0
   21.7224   11.5311    0.0000 C   0  0  0  0  0  0  0  0  0  0  0  0
   20.9790   12.8339    0.0000 C   0  0  0  0  0  0  0  0  0  0  0  0
   20.1576   14.0890    0.0000 C   0  0  0  0  0  0  0  0  0  0  0  0
   19.2611   15.2917    0.0000 C   0  0  0  0  0  0  0  0  0  0  0  0
   18.2931   16.4375    0.0000 C   0  0  0  0  0  0  0  0  0  0  0  0
   17.2569   17.5222    0.0000 C   0  0  0  0  0  0  0  0  0  0  0  0
   16.1566   18.5416    0.0000 C   0  0  0  0  0  0  0  0  0  0  0  0
   14.9962   19.4921    0.0000 C   0  0  0  0  0  0  0  0  0  0  0  0
   13.7800   20.3701    0.0000 C   0  0  0  0  0  0  0  0  0  0  0  0
   12.5125   21.1723    0.0000 C   0  0  0  0  0  0  0  0  0  0  0  0
   11.1985   21.8957    0.0000 C   0  0  0  0  0  0  0  0  0  0  0  0
    9.8428   22.5377    0.0000 C   0  0  0  0  0  0  0  0  0  0  0  0
    8.4505   23.0958    0.0000 C   0  0  0  0  0  0  0  0  0  0  0  0
    7.0268   23.5680    0.0000 C   0  0  0  0  0  0  0  0  0  0  0  0
    5.5769   23.9526    0.0000 C   0  0  0  0  0  0  0  0  0  0  0  0
    4.1063   24.2480    0.0000 C   0  0  0  0  0  0  0  0  0  0  0  0
    2.6204   24.4532    0.0000 C   0  0  0  0  0  0  0  0  0  0  0  0
    1.1248   24.5675    0.0000 C   0  0  0  0  0  0  0  0  0  0  0  0
   -0.3750   24.5904    0.0000 C   0  0  0  0  0  0  0  0  0  0  0  0
   -1.8735   24.5218    0.0000 C   0  0  0  0  0  0  0  0  0  0  0  0
   -3.3649   24.3620    0.0000 C   0  0  0  0  0  0  0  0  0  0  0  0
   -4.8439   24.1115    0.0000 C   0  0  0  0  0  0  0  0  0  0  0  0
   -6.3048   23.7714    0.0000 C   0  0  0  0  0  0  0  0  0  0  0  0
   -7.7423   23.3428    0.0000 C   0  0  0  0  0  0  0  0  0  0  0  0
   -9.1509   22.8274    0.0000 C   0  0  0  0  0  0  0  0  0  0  0  0
  -10.5256   22.2270    0.0000 C   0  0  0  0  0  0  0  0  0  0  0  0
  -11.8610   21.5440    0.0000 C   0  0  0  0  0  0  0  0  0  0  0  0
  -13.1524   20.7808    0.0000 C   0  0  0  0  0  0  0  0  0  0  0  0
  -14.3948   19.9404    0.0000 C   0  0  0  0  0  0  0  0  0  0  0  0
  -15.5837   19.0257    0.0000 C   0  0  0  0  0  0  0  0  0  0  0  0
  -16.7146   18.0403    0.0000 C   0  0  0  0  0  0  0  0  0  0  0  0
  -17.7833   16.9877    0.0000 C   0  0  0  0  0  0  0  0  0  0  0  0
  -18.7858   15.8720    0.0000 C   0  0  0  0  0  0  0  0  0  0  0  0
  -19.7185   14.6972    0.0000 C   0  0  0  0  0  0  0  0  0  0  0  0
  -20.5778   13.4678    0.0000 C   0  0  0  0  0  0  0  0  0  0  0  0
  -21.3606   12.1882    0.0000 C   0  0  0  0  0  0  0  0  0  0  0  0
  -22.0639   10.8633    0.0000 C   0  0  0  0  0  0  0  0  0  0  0  0
  -22.6852    9.4980    0.0000 C   0  0  0  0  0  0  0  0  0  0  0  0
  -23.2220    8.0973    0.0000 C   0  0  0  0  0  0  0  0  0  0  0  0
  -23.6724    6.6666    0.0000 C   0  0  0  0  0  0  0  0  0  0  0  0
  -24.0348    5.2110    0.0000 C   0  0  0  0  0  0  0  0  0  0  0  0
  -24.3078    3.7361    0.0000 C   0  0  0  0  0  0  0  0  0  0  0  0
  -24.4904    2.2472    0.0000 C   0  0  0  0  0  0  0  0  0  0  0  0
  -24.5818    0.7500    0.0000 C   0  0  0  0  0  0  0  0  0  0  0  0
  -24.5818   -0.7500    0.0000 C   0  0  0  0  0  0  0  0  0  0  0  0
  -24.4904   -2.2472    0.0000 C   0  0  0  0  0  0  0  0  0  0  0  0
  -24.3078   -3.7361    0.0000 C   0  0  0  0  0  0  0  0  0  0  0  0
  -24.0348   -5.2110    0.0000 C   0  0  0  0  0  0  0  0  0  0  0  0
  -23.6724   -6.6666    0.0000 C   0  0  0  0  0  0  0  0  0  0  0  0
  -23.2220   -8.0973    0.0000 C   0  0  0  0  0  0  0  0  0  0  0  0
  -22.6852   -9.4980    0.0000 C   0  0  0  0  0  0  0  0  0  0  0  0
  -22.0639  -10.8633    0.0000 C   0  0  0  0  0  0  0  0  0  0  0  0
  -21.3606  -12.1882    0.0000 C   0  0  0  0  0  0  0  0  0  0  0  0
  -20.5778  -13.4678    0.0000 C   0  0  0  0  0  0  0  0  0  0  0  0
  -19.7185  -14.6972    0.0000 C   0  0  0  0  0  0  0  0  0  0  0  0
  -18.7858  -15.8720    0.0000 C   0  0  0  0  0  0  0  0  0  0  0  0
  -17.7833  -16.9877    0.0000 C   0  0  0  0  0  0  0  0  0  0  0  0
  -16.7146  -18.0403    0.0000 C   0  0  0  0  0  0  0  0  0  0  0  0
  -15.5837  -19.0257    0.0000 C   0  0  0  0  0  0  0  0  0  0  0  0
  -14.3948  -19.9404    0.0000 C   0  0  0  0  0  0  0  0  0  0  0  0
  -13.1524  -20.7808    0.0000 C   0  0  0  0  0  0  0  0  0  0  0  0
  -11.8610  -21.5440    0.0000 C   0  0  0  0  0  0  0  0  0  0  0  0
  -10.5256  -22.2270    0.0000 C   0  0  0  0  0  0  0  0  0  0  0  0
   -9.1509  -22.8274    0.0000 C   0  0  0  0  0  0  0  0  0  0  0  0
   -7.7423  -23.3428    0.0000 C   0  0  0  0  0  0  0  0  0  0  0  0
   -6.3048  -23.7714    0.0000 C   0  0  0  0  0  0  0  0  0  0  0  0
   -4.8439  -24.1115    0.0000 C   0  0  0  0  0  0  0  0  0  0  0  0
   -3.3649  -24.3620    0.0000 C   0  0  0  0  0  0  0  0  0  0  0  0
   -1.8735  -24.5218    0.0000 C   0  0  0  0  0  0  0  0  0  0  0  0
   -0.3750  -24.5904    0.0000 C   0  0  0  0  0  0  0  0  0  0  0  0
    1.1248  -24.5675    0.0000 C   0  0  0  0  0  0  0  0  0  0  0  0
    2.6204  -24.4532    0.0000 C   0  0  0  0  0  0  0  0  0  0  0  0
    4.1063  -24.2480    0.0000 C   0  0  0  0  0  0  0  0  0  0  0  0
    5.5769  -23.9526    0.0000 C   0  0  0  0  0  0  0  0  0  0  0  0
    7.0268  -23.5680    0.0000 C   0  0  0  0  0  0  0  0  0  0  0  0
    8.4505  -23.0958    0.0000 C   0  0  0  0  0  0  0  0  0  0  0  0
    9.8428  -22.5377    0.0000 C   0  0  0  0  0  0  0  0  0  0  0  0
   11.1985  -21.8957    0.0000 C   0  0  0  0  0  0  0  0  0  0  0  0
   12.5125  -21.1723    0.0000 C   0  0  0  0  0  0  0  0  0  0  0  0
   13.7800  -20.3701    0.0000 C   0  0  0  0  0  0  0  0  0  0  0  0
   14.9962  -19.4921    0.0000 C   0  0  0  0  0  0  0  0  0  0  0  0
   16.1566  -18.5416    0.0000 C   0  0  0  0  0  0  0  0  0  0  0  0
   17.2569  -17.5222    0.0000 C   0  0  0  0  0  0  0  0  0  0  0  0
   18.2931  -16.4375    0.0000 C   0  0  0  0  0  0  0  0  0  0  0  0
   19.2611  -15.2917    0.0000 C   0  0  0  0  0  0  0  0  0  0  0  0
   20.1576  -14.0890    0.0000 C   0  0  0  0  0  0  0  0  0  0  0  0
   20.9790  -12.8339    0.0000 C   0  0  0  0  0  0  0  0  0  0  0  0
   21.7224  -11.5311    0.0000 C   0  0  0  0  0  0  0  0  0  0  0  0
   22.3850  -10.1854    0.0000 C   0  0  0  0  0  0  0  0  0  0  0  0
   22.9643   -8.8018    0.0000 C   0  0  0  0  0  0  0  0  0  0  0  0
   23.4581   -7.3854    0.0000 C   0  0  0  0  0  0  0  0  0  0  0  0
   23.8647   -5.9416    0.0000 C   0  0  0  0  0  0  0  0  0  0  0  0
   24.1826   -4.4756    0.0000 C   0  0  0  0  0  0  0  0  0  0  0  0
   24.4104   -2.9930    0.0000 C   0  0  0  0  0  0  0  0  0  0  0  0
   24.5475   -1.4993    0.0000 C   0  0  0  0  0  0  0  0  0  0  0  0
  1  2  1  0
  2  3  1  0
  3  4  1  0
  4  5  1  0
  5  6  1  0
  6  7  1  0
  7  8  1  0
  8  9  1  0
  9 10  1  0
 10 11  1  0
 11 12  1  0
 12 13  1  0
 13 14  1  0
 14 15  1  0
 15 16  1  0
 16 17  1  0
 17 18  1  0
 18 19  1  0
 19 20  1  0
 20 21  1  0
 21 22  1  0
 22 23  1  0
 23 24  1  0
 24 25  1  0
 25 26  1  0
 26 27  1  0
 27 28  1  0
 28 29  1  0
 29 30  1  0
 30 31  1  0
 31 32  1  0
 32 33  1  0
 33 34  1  0
 34 35  1  0
 35 36  1  0
 36 37  1  0
 37 38  1  0
 38 39  1  0
 39 40  1  0
 40 41  1  0
 41 42  1  0
 42 43  1  0
 43 44  1  0
 44 45  1  0
 45 46  1  0
 46 47  1  0
 47 48  1  0
 48 49  1  0
 49 50  1  0
 50 51  1  0
 51 52  1  0
 52 53  1  0
 53 54  1  0
 54 55  1  0
 55 56  1  0
 56 57  1  0
 57 58  1  0
 58 59  1  0
 59 60  1  0
 60 61  1  0
 61 62  1  0
 62 63  1  0
 63 64  1  0
 64 65  1  0
 65 66  1  0
 66 67  1  0
 67 68  1  0
 68 69  1  0
 69 70  1  0
 70 71  1  0
 71 72  1  0
 72 73  1  0
 73 74  1  0
 74 75  1  0
 75 76  1  0
 76 77  1  0
 77 78  1  0
 78 79  1  0
 79 80  1  0
 80 81  1  0
 81 82  1  0
 82 83  1  0
 83 84  1  0
 84 85  1  0
 85 86  1  0
 86 87  1  0
 87 88  1  0
 88 89  1  0
 89 90  1  0
 90 91  1  0
 91 92  1  0
 92 93  1  0
 93 94  1  0
 94 95  1  0
 95 96  1  0
 96 97  1  0
 97 98  1  0
 98 99  1  0
 99100  1  0
100101  1  0
101102  1  0
102103  1  0
103104  1  0
104  2  1  0
M  END
>  <Title>  (235) 
idAAHGgen7

$$$$

     RDKit          2D

105105  0  0  0  0  0  0  0  0999 V2000
   26.3319    0.0000    0.0000 O   0  0  0  0  0  0  0  0  0  0  0  0
   24.8319    0.0000    0.0000 C   0  0  0  0  0  0  0  0  0  0  0  0
   24.7866   -1.4993    0.0000 C   0  0  0  0  0  0  0  0  0  0  0  0
   24.6509   -2.9932    0.0000 C   0  0  0  0  0  0  0  0  0  0  0  0
   24.4252   -4.4761    0.0000 C   0  0  0  0  0  0  0  0  0  0  0  0
   24.1104   -5.9427    0.0000 C   0  0  0  0  0  0  0  0  0  0  0  0
   23.7076   -7.3876    0.0000 C   0  0  0  0  0  0  0  0  0  0  0  0
   23.2183   -8.8055    0.0000 C   0  0  0  0  0  0  0  0  0  0  0  0
   22.6442  -10.1913    0.0000 C   0  0  0  0  0  0  0  0  0  0  0  0
   21.9876  -11.5400    0.0000 C   0  0  0  0  0  0  0  0  0  0  0  0
   21.2507  -12.8465    0.0000 C   0  0  0  0  0  0  0  0  0  0  0  0
   20.4363  -14.1062    0.0000 C   0  0  0  0  0  0  0  0  0  0  0  0
   19.5473  -15.3143    0.0000 C   0  0  0  0  0  0  0  0  0  0  0  0
   18.5870  -16.4666    0.0000 C   0  0  0  0  0  0  0  0  0  0  0  0
   17.5588  -17.5588    0.0000 C   0  0  0  0  0  0  0  0  0  0  0  0
   16.4666  -18.5870    0.0000 C   0  0  0  0  0  0  0  0  0  0  0  0
   15.3143  -19.5473    0.0000 C   0  0  0  0  0  0  0  0  0  0  0  0
   14.1062  -20.4363    0.0000 C   0  0  0  0  0  0  0  0  0  0  0  0
   12.8465  -21.2507    0.0000 C   0  0  0  0  0  0  0  0  0  0  0  0
   11.5400  -21.9876    0.0000 C   0  0  0  0  0  0  0  0  0  0  0  0
   10.1913  -22.6442    0.0000 C   0  0  0  0  0  0  0  0  0  0  0  0
    8.8055  -23.2183    0.0000 C   0  0  0  0  0  0  0  0  0  0  0  0
    7.3876  -23.7076    0.0000 C   0  0  0  0  0  0  0  0  0  0  0  0
    5.9427  -24.1104    0.0000 C   0  0  0  0  0  0  0  0  0  0  0  0
    4.4761  -24.4252    0.0000 C   0  0  0  0  0  0  0  0  0  0  0  0
    2.9932  -24.6509    0.0000 C   0  0  0  0  0  0  0  0  0  0  0  0
    1.4993  -24.7866    0.0000 C   0  0  0  0  0  0  0  0  0  0  0  0
   -0.0000  -24.8319    0.0000 C   0  0  0  0  0  0  0  0  0  0  0  0
   -1.4993  -24.7866    0.0000 C   0  0  0  0  0  0  0  0  0  0  0  0
   -2.9932  -24.6509    0.0000 C   0  0  0  0  0  0  0  0  0  0  0  0
   -4.4761  -24.4252    0.0000 C   0  0  0  0  0  0  0  0  0  0  0  0
   -5.9427  -24.1104    0.0000 C   0  0  0  0  0  0  0  0  0  0  0  0
   -7.3876  -23.7076    0.0000 C   0  0  0  0  0  0  0  0  0  0  0  0
   -8.8055  -23.2183    0.0000 C   0  0  0  0  0  0  0  0  0  0  0  0
  -10.1913  -22.6442    0.0000 C   0  0  0  0  0  0  0  0  0  0  0  0
  -11.5400  -21.9876    0.0000 C   0  0  0  0  0  0  0  0  0  0  0  0
  -12.8465  -21.2507    0.0000 C   0  0  0  0  0  0  0  0  0  0  0  0
  -14.1062  -20.4363    0.0000 C   0  0  0  0  0  0  0  0  0  0  0  0
  -15.3143  -19.5473    0.0000 C   0  0  0  0  0  0  0  0  0  0  0  0
  -16.4666  -18.5870    0.0000 C   0  0  0  0  0  0  0  0  0  0  0  0
  -17.5588  -17.5588    0.0000 C   0  0  0  0  0  0  0  0  0  0  0  0
  -18.5870  -16.4666    0.0000 C   0  0  0  0  0  0  0  0  0  0  0  0
  -19.5473  -15.3143    0.0000 C   0  0  0  0  0  0  0  0  0  0  0  0
  -20.4363  -14.1062    0.0000 C   0  0  0  0  0  0  0  0  0  0  0  0
  -21.2507  -12.8465    0.0000 C   0  0  0  0  0  0  0  0  0  0  0  0
  -21.9876  -11.5400    0.0000 C   0  0  0  0  0  0  0  0  0  0  0  0
  -22.6442  -10.1913    0.0000 C   0  0  0  0  0  0  0  0  0  0  0  0
  -23.2183   -8.8055    0.0000 C   0  0  0  0  0  0  0  0  0  0  0  0
  -23.7076   -7.3876    0.0000 C   0  0  0  0  0  0  0  0  0  0  0  0
  -24.1104   -5.9427    0.0000 C   0  0  0  0  0  0  0  0  0  0  0  0
  -24.4252   -4.4761    0.0000 C   0  0  0  0  0  0  0  0  0  0  0  0
  -24.6509   -2.9932    0.0000 C   0  0  0  0  0  0  0  0  0  0  0  0
  -24.7866   -1.4993    0.0000 C   0  0  0  0  0  0  0  0  0  0  0  0
  -24.8319    0.0000    0.0000 C   0  0  0  0  0  0  0  0  0  0  0  0
  -24.7866    1.4993    0.0000 C   0  0  0  0  0  0  0  0  0  0  0  0
  -24.6509    2.9932    0.0000 C   0  0  0  0  0  0  0  0  0  0  0  0
  -24.4252    4.4761    0.0000 C   0  0  0  0  0  0  0  0  0  0  0  0
  -24.1104    5.9427    0.0000 C   0  0  0  0  0  0  0  0  0  0  0  0
  -23.7076    7.3876    0.0000 C   0  0  0  0  0  0  0  0  0  0  0  0
  -23.2183    8.8055    0.0000 C   0  0  0  0  0  0  0  0  0  0  0  0
  -22.6442   10.1913    0.0000 C   0  0  0  0  0  0  0  0  0  0  0  0
  -21.9876   11.5400    0.0000 C   0  0  0  0  0  0  0  0  0  0  0  0
  -21.2507   12.8465    0.0000 C   0  0  0  0  0  0  0  0  0  0  0  0
  -20.4363   14.1062    0.0000 C   0  0  0  0  0  0  0  0  0  0  0  0
  -19.5473   15.3143    0.0000 C   0  0  0  0  0  0  0  0  0  0  0  0
  -18.5870   16.4666    0.0000 C   0  0  0  0  0  0  0  0  0  0  0  0
  -17.5588   17.5588    0.0000 C   0  0  0  0  0  0  0  0  0  0  0  0
  -16.4666   18.5870    0.0000 C   0  0  0  0  0  0  0  0  0  0  0  0
  -15.3143   19.5473    0.0000 C   0  0  0  0  0  0  0  0  0  0  0  0
  -14.1062   20.4363    0.0000 C   0  0  0  0  0  0  0  0  0  0  0  0
  -12.8465   21.2507    0.0000 C   0  0  0  0  0  0  0  0  0  0  0  0
  -11.5400   21.9876    0.0000 C   0  0  0  0  0  0  0  0  0  0  0  0
  -10.1913   22.6442    0.0000 C   0  0  0  0  0  0  0  0  0  0  0  0
   -8.8055   23.2183    0.0000 C   0  0  0  0  0  0  0  0  0  0  0  0
   -7.3876   23.7076    0.0000 C   0  0  0  0  0  0  0  0  0  0  0  0
   -5.9427   24.1104    0.0000 C   0  0  0  0  0  0  0  0  0  0  0  0
   -4.4761   24.4252    0.0000 C   0  0  0  0  0  0  0  0  0  0  0  0
   -2.9932   24.6509    0.0000 C   0  0  0  0  0  0  0  0  0  0  0  0
   -1.4993   24.7866    0.0000 C   0  0  0  0  0  0  0  0  0  0  0  0
    0.0000   24.8319    0.0000 C   0  0  0  0  0  0  0  0  0  0  0  0
    1.4993   24.7866    0.0000 C   0  0  0  0  0  0  0  0  0  0  0  0
    2.9932   24.6509    0.0000 C   0  0  0  0  0  0  0  0  0  0  0  0
    4.4761   24.4252    0.0000 C   0  0  0  0  0  0  0  0  0  0  0  0
    5.9427   24.1104    0.0000 C   0  0  0  0  0  0  0  0  0  0  0  0
    7.3876   23.7076    0.0000 C   0  0  0  0  0  0  0  0  0  0  0  0
    8.8055   23.2183    0.0000 C   0  0  0  0  0  0  0  0  0  0  0  0
   10.1913   22.6442    0.0000 C   0  0  0  0  0  0  0  0  0  0  0  0
   11.5400   21.9876    0.0000 C   0  0  0  0  0  0  0  0  0  0  0  0
   12.8465   21.2507    0.0000 C   0  0  0  0  0  0  0  0  0  0  0  0
   14.1062   20.4363    0.0000 C   0  0  0  0  0  0  0  0  0  0  0  0
   15.3143   19.5473    0.0000 C   0  0  0  0  0  0  0  0  0  0  0  0
   16.4666   18.5870    0.0000 C   0  0  0  0  0  0  0  0  0  0  0  0
   17.5588   17.5588    0.0000 C   0  0  0  0  0  0  0  0  0  0  0  0
   18.5870   16.4666    0.0000 C   0  0  0  0  0  0  0  0  0  0  0  0
   19.5473   15.3143    0.0000 C   0  0  0  0  0  0  0  0  0  0  0  0
   20.4363   14.1062    0.0000 C   0  0  0  0  0  0  0  0  0  0  0  0
   21.2507   12.8465    0.0000 C   0  0  0  0  0  0  0  0  0  0  0  0
   21.9876   11.5400    0.0000 C   0  0  0  0  0  0  0  0  0  0  0  0
   22.6442   10.1913    0.0000 C   0  0  0  0  0  0  0  0  0  0  0  0
   23.2183    8.8055    0.0000 C   0  0  0  0  0  0  0  0  0  0  0  0
   23.7076    7.3876    0.0000 C   0  0  0  0  0  0  0  0  0  0  0  0
   24.1104    5.9427    0.0000 C   0  0  0  0  0  0  0  0  0  0  0  0
   24.4252    4.4761    0.0000 C   0  0  0  0  0  0  0  0  0  0  0  0
   24.6509    2.9932    0.0000 C   0  0  0  0  0  0  0  0  0  0  0  0
   24.7866    1.4993    0.0000 C   0  0  0  0  0  0  0  0  0  0  0  0
  1  2  2  0
  2  3  1  0
  3  4  1  0
  4  5  1  0
  5  6  1  0
  6  7  1  0
  7  8  1  0
  8  9  1  0
  9 10  1  0
 10 11  1  0
 11 12  1  0
 12 13  1  0
 13 14  1  0
 14 15  1  0
 15 16  1  0
 16 17  1  0
 17 18  1  0
 18 19  1  0
 19 20  1  0
 20 21  1  0
 21 22  1  0
 22 23  1  0
 23 24  1  0
 24 25  1  0
 25 26  1  0
 26 27  1  0
 27 28  1  0
 28 29  1  0
 29 30  1  0
 30 31  1  0
 31 32  1  0
 32 33  1  0
 33 34  1  0
 34 35  1  0
 35 36  1  0
 36 37  1  0
 37 38  1  0
 38 39  1  0
 39 40  1  0
 40 41  1  0
 41 42  1  0
 42 43  1  0
 43 44  1  0
 44 45  1  0
 45 46  1  0
 46 47  1  0
 47 48  1  0
 48 49  1  0
 49 50  1  0
 50 51  1  0
 51 52  1  0
 52 53  1  0
 53 54  1  0
 54 55  1  0
 55 56  1  0
 56 57  1  0
 57 58  1  0
 58 59  1  0
 59 60  1  0
 60 61  1  0
 61 62  1  0
 62 63  1  0
 63 64  1  0
 64 65  1  0
 65 66  1  0
 66 67  1  0
 67 68  1  0
 68 69  1  0
 69 70  1  0
 70 71  1  0
 71 72  1  0
 72 73  1  0
 73 74  1  0
 74 75  1  0
 75 76  1  0
 76 77  1  0
 77 78  1  0
 78 79  1  0
 79 80  1  0
 80 81  1  0
 81 82  1  0
 82 83  1  0
 83 84  1  0
 84 85  1  0
 85 86  1  0
 86 87  1  0
 87 88  1  0
 88 89  1  0
 89 90  1  0
 90 91  1  0
 91 92  1  0
 92 93  1  0
 93 94  1  0
 94 95  1  0
 95 96  1  0
 96 97  1  0
 97 98  1  0
 98 99  1  0
 99100  1  0
100101  1  0
101102  1  0
102103  1  0
103104  1  0
104105  1  0
105  2  1  0
M  END
>  <Title>  (236) 
idAAHHgen7

$$$$

     RDKit          2D

 27 30  0  0  0  0  0  0  0  0999 V2000
   -0.7500   -3.8971    0.0000 O   0  0  0  0  0  0  0  0  0  0  0  0
    0.7500   -3.8971    0.0000 C   0  0  0  0  0  0  0  0  0  0  0  0
    1.5000   -2.5981    0.0000 N   0  0  0  0  0  0  0  0  0  0  0  0
    0.7500   -1.2990    0.0000 C   0  0  0  0  0  0  0  0  0  0  0  0
    1.5000    0.0000    0.0000 N   0  0  0  0  0  0  0  0  0  0  0  0
    0.7500    1.2990    0.0000 N   0  0  0  0  0  0  0  0  0  0  0  0
   -0.7500    1.2990    0.0000 N   0  0  0  0  0  0  0  0  0  0  0  0
   -1.5000    0.0000    0.0000 N   0  0  0  0  0  0  0  0  0  0  0  0
   -0.7500   -1.2990    0.0000 N   0  0  0  0  0  0  0  0  0  0  0  0
    1.5000   -5.1962    0.0000 C   0  0  0  0  0  0  0  0  0  0  0  0
    2.9918   -5.3529    0.0000 C   0  0  0  0  0  0  0  0  0  0  0  0
    3.3037   -6.8202    0.0000 C   0  0  0  0  0  0  0  0  0  0  0  0
    2.0046   -7.5702    0.0000 C   0  0  0  0  0  0  0  0  0  0  0  0
    1.8478   -9.0619    0.0000 N   0  0  0  0  0  0  0  0  0  0  0  0
    2.9625  -10.0656    0.0000 C   0  0  0  0  0  0  0  0  0  0  0  0
    2.3524  -11.4360    0.0000 C   0  0  0  0  0  0  0  0  0  0  0  0
    0.8606  -11.2792    0.0000 N   0  0  0  0  0  0  0  0  0  0  0  0
   -0.1430  -12.3939    0.0000 C   0  0  0  0  0  0  0  0  0  0  0  0
    0.3205  -13.8205    0.0000 O   0  0  0  0  0  0  0  0  0  0  0  0
   -1.6103  -12.0820    0.0000 C   0  0  0  0  0  0  0  0  0  0  0  0
   -2.6140  -13.1967    0.0000 C   0  0  0  0  0  0  0  0  0  0  0  0
   -2.3021  -14.6640    0.0000 C   0  0  0  0  0  0  0  0  0  0  0  0
   -3.6011  -15.4140    0.0000 C   0  0  0  0  0  0  0  0  0  0  0  0
   -4.7159  -14.4103    0.0000 C   0  0  0  0  0  0  0  0  0  0  0  0
   -4.1057  -13.0399    0.0000 C   0  0  0  0  0  0  0  0  0  0  0  0
    0.5488   -9.8119    0.0000 C   0  0  0  0  0  0  0  0  0  0  0  0
    0.8899   -6.5665    0.0000 C   0  0  0  0  0  0  0  0  0  0  0  0
  1  2  2  0
  2  3  1  0
  3  4  1  0
  4  5  2  0
  5  6  1  0
  6  7  2  0
  7  8  1  0
  8  9  2  0
  2 10  1  0
 10 11  1  0
 11 12  1  0
 12 13  1  0
 13 14  1  0
 14 15  1  0
 15 16  1  0
 16 17  1  0
 17 18  1  0
 18 19  2  0
 18 20  1  0
 20 21  1  0
 21 22  2  0
 22 23  1  0
 23 24  1  0
 24 25  2  0
 17 26  1  0
 13 27  1  0
  9  4  1  0
 27 10  1  0
 26 14  1  0
 25 21  1  0
M  END
>  <Title>  (237) 
idAAHIgen7

$$$$

     RDKit          2D

 16 16  0  0  0  0  0  0  0  0999 V2000
    8.0260    1.2990    0.0000 C   0  0  0  0  0  0  0  0  0  0  0  0
    6.5260    1.2990    0.0000 C   0  0  0  0  0  0  0  0  0  0  0  0
    5.0260    1.2990    0.0000 C   0  0  0  0  0  0  0  0  0  0  0  0
    3.5260    1.2990    0.0000 C   0  0  0  0  0  0  0  0  0  0  0  0
    2.7760    2.5981    0.0000 O   0  0  0  0  0  0  0  0  0  0  0  0
    2.7760    0.0000    0.0000 C   0  0  0  0  0  0  0  0  0  0  0  0
    3.5260   -1.2990    0.0000 O   0  0  0  0  0  0  0  0  0  0  0  0
    1.2760    0.0000    0.0000 N   0  0  0  0  0  0  0  0  0  0  0  0
    0.3943    1.2135    0.0000 C   0  0  0  0  0  0  0  0  0  0  0  0
   -1.0323    0.7500    0.0000 C   0  0  0  0  0  0  0  0  0  0  0  0
   -1.0323   -0.7500    0.0000 C   0  0  0  0  0  0  0  0  0  0  0  0
   -2.2458   -1.6317    0.0000 C   0  0  0  0  0  0  0  0  0  0  0  0
   -2.0890   -3.1235    0.0000 O   0  0  0  0  0  0  0  0  0  0  0  0
   -3.6161   -1.0216    0.0000 O   0  0  0  0  0  0  0  0  0  0  0  0
    0.3943   -1.2135    0.0000 C   0  0  0  0  0  0  0  0  0  0  0  0
    0.8578   -2.6401    0.0000 O   0  0  0  0  0  0  0  0  0  0  0  0
  1  2  1  0
  2  3  3  0
  3  4  1  0
  4  5  2  0
  4  6  1  0
  6  7  2  0
  6  8  1  0
  8  9  1  0
  9 10  1  0
 10 11  1  0
 11 12  1  0
 12 13  2  0
 12 14  1  0
 11 15  1  0
 15 16  2  0
 15  8  1  0
M  END
>  <Title>  (238) 
idAAHJgen7

$$$$

     RDKit          2D

  9  9  0  0  0  0  0  0  0  0999 V2000
    7.2760   -0.0000    0.0000 N   0  0  0  0  0  0  0  0  0  0  0  0
    5.7760   -0.0000    0.0000 C   0  0  0  0  0  0  0  0  0  0  0  0
    4.2760   -0.0000    0.0000 C   0  0  0  0  0  0  0  0  0  0  0  0
    2.7760    0.0000    0.0000 C   0  0  0  0  0  0  0  0  0  0  0  0
    1.2760    0.0000    0.0000 C   0  0  0  0  0  0  0  0  0  0  0  0
    0.3943    1.2135    0.0000 C   0  0  0  0  0  0  0  0  0  0  0  0
   -1.0323    0.7500    0.0000 C   0  0  0  0  0  0  0  0  0  0  0  0
   -1.0323   -0.7500    0.0000 C   0  0  0  0  0  0  0  0  0  0  0  0
    0.3943   -1.2135    0.0000 C   0  0  0  0  0  0  0  0  0  0  0  0
  1  2  3  0
  2  3  1  0
  3  4  3  0
  4  5  1  0
  5  6  2  0
  6  7  1  0
  7  8  2  0
  8  9  1  0
  9  5  1  0
M  END
>  <Title>  (239) 
idAAHKgen7

$$$$

     RDKit          2D

 23 25  0  0  0  0  0  0  0  0999 V2000
   -3.1476   -2.1380    0.0000 C   0  0  0  0  0  0  0  0  0  0  0  0
   -1.6852   -2.4718    0.0000 C   0  0  0  0  0  0  0  0  0  0  0  0
   -1.3515   -3.9342    0.0000 C   0  0  0  0  0  0  0  0  0  0  0  0
   -0.0000   -4.5850    0.0000 C   0  0  0  0  0  0  0  0  0  0  0  0
    1.3515   -3.9342    0.0000 C   0  0  0  0  0  0  0  0  0  0  0  0
    1.6852   -2.4718    0.0000 C   0  0  0  0  0  0  0  0  0  0  0  0
    3.1476   -2.1380    0.0000 C   0  0  0  0  0  0  0  0  0  0  0  0
    3.5898   -0.7046    0.0000 O   0  0  0  0  0  0  0  0  0  0  0  0
    4.1679   -3.2376    0.0000 N   0  0  0  0  0  0  0  0  0  0  0  0
    5.6303   -2.9038    0.0000 C   0  0  0  0  0  0  0  0  0  0  0  0
    6.6505   -4.0034    0.0000 N   0  0  0  0  0  0  0  0  0  0  0  0
    8.1129   -3.6696    0.0000 N   0  0  0  0  0  0  0  0  0  0  0  0
    8.5551   -2.2362    0.0000 N   0  0  0  0  0  0  0  0  0  0  0  0
    7.5348   -1.1367    0.0000 N   0  0  0  0  0  0  0  0  0  0  0  0
    6.0724   -1.4704    0.0000 N   0  0  0  0  0  0  0  0  0  0  0  0
    0.7500   -1.2990    0.0000 C   0  0  0  0  0  0  0  0  0  0  0  0
    1.5000    0.0000    0.0000 C   0  0  0  0  0  0  0  0  0  0  0  0
    0.7500    1.2990    0.0000 C   0  0  0  0  0  0  0  0  0  0  0  0
   -0.7500    1.2990    0.0000 C   0  0  0  0  0  0  0  0  0  0  0  0
   -1.5000    2.5981    0.0000 C   0  0  0  0  0  0  0  0  0  0  0  0
   -2.2500    3.8971    0.0000 N   0  0  0  0  0  0  0  0  0  0  0  0
   -1.5000    0.0000    0.0000 C   0  0  0  0  0  0  0  0  0  0  0  0
   -0.7500   -1.2990    0.0000 C   0  0  0  0  0  0  0  0  0  0  0  0
  1  2  1  0
  2  3  2  0
  3  4  1  0
  4  5  1  0
  5  6  1  0
  6  7  1  0
  7  8  2  0
  7  9  1  0
  9 10  1  0
 10 11  2  0
 11 12  1  0
 12 13  2  0
 13 14  1  0
 14 15  2  0
  6 16  1  0
 16 17  2  0
 17 18  1  0
 18 19  2  0
 19 20  1  0
 20 21  3  0
 19 22  1  0
 22 23  2  0
 23  2  1  0
 15 10  1  0
 23 16  1  0
M  END
>  <Title>  (240) 
idAAHLgen7

$$$$

     RDKit          2D

  8  8  0  0  0  0  0  0  0  0999 V2000
    2.7760    0.0000    0.0000 C   0  0  0  0  0  0  0  0  0  0  0  0
    1.2760    0.0000    0.0000 C   0  0  0  0  0  0  0  0  0  0  0  0
    0.3943    1.2135    0.0000 C   0  0  0  0  0  0  0  0  0  0  0  0
   -1.0323    0.7500    0.0000 C   0  0  0  0  0  0  0  0  0  0  0  0
   -1.0323   -0.7500    0.0000 C   0  0  0  0  0  0  0  0  0  0  0  0
   -2.2458   -1.6317    0.0000 C   0  0  0  0  0  0  0  0  0  0  0  0
   -3.4593   -2.5134    0.0000 N   0  0  0  0  0  0  0  0  0  0  0  0
    0.3943   -1.2135    0.0000 C   0  0  0  0  0  0  0  0  0  0  0  0
  1  2  1  0
  2  3  1  0
  3  4  1  0
  4  5  2  0
  5  6  1  0
  6  7  3  0
  5  8  1  0
  8  2  1  0
M  END
>  <Title>  (241) 
idAAHMgen7

$$$$

     RDKit          2D

  6  5  0  0  0  0  0  0  0  0999 V2000
    0.0000    0.0000    0.0000 C   0  0  0  0  0  0  0  0  0  0  0  0
    1.2990    0.7500    0.0000 C   0  0  0  0  0  0  0  0  0  0  0  0
    1.2990    2.2500    0.0000 O   0  0  0  0  0  0  0  0  0  0  0  0
    2.5981   -0.0000    0.0000 C   0  0  0  0  0  0  0  0  0  0  0  0
    2.5981   -1.5000    0.0000 O   0  0  0  0  0  0  0  0  0  0  0  0
    3.8971    0.7500    0.0000 O   0  0  0  0  0  0  0  0  0  0  0  0
  1  2  1  0
  2  3  2  0
  2  4  1  0
  4  5  2  0
  4  6  1  0
M  END
>  <Title>  (242) 
idAAHNgen7

$$$$

     RDKit          2D

 45 45  0  0  0  0  0  0  0  0999 V2000
   12.0132    0.0000    0.0000 C   0  0  0  0  0  0  0  0  0  0  0  0
   10.5132    0.0000    0.0000 C   0  0  0  0  0  0  0  0  0  0  0  0
   10.4061   -1.4962    0.0000 C   0  0  0  0  0  0  0  0  0  0  0  0
   10.0873   -2.9619    0.0000 C   0  0  0  0  0  0  0  0  0  0  0  0
    9.5631   -4.3673    0.0000 C   0  0  0  0  0  0  0  0  0  0  0  0
    8.8442   -5.6838    0.0000 C   0  0  0  0  0  0  0  0  0  0  0  0
    7.9453   -6.8847    0.0000 C   0  0  0  0  0  0  0  0  0  0  0  0
    6.8847   -7.9453    0.0000 C   0  0  0  0  0  0  0  0  0  0  0  0
    5.6838   -8.8442    0.0000 C   0  0  0  0  0  0  0  0  0  0  0  0
    4.3673   -9.5631    0.0000 C   0  0  0  0  0  0  0  0  0  0  0  0
    2.9619  -10.0873    0.0000 C   0  0  0  0  0  0  0  0  0  0  0  0
    1.4962  -10.4061    0.0000 C   0  0  0  0  0  0  0  0  0  0  0  0
   -0.0000  -10.5132    0.0000 C   0  0  0  0  0  0  0  0  0  0  0  0
   -1.4962  -10.4061    0.0000 C   0  0  0  0  0  0  0  0  0  0  0  0
   -2.9619  -10.0873    0.0000 C   0  0  0  0  0  0  0  0  0  0  0  0
   -4.3673   -9.5631    0.0000 C   0  0  0  0  0  0  0  0  0  0  0  0
   -5.6838   -8.8442    0.0000 C   0  0  0  0  0  0  0  0  0  0  0  0
   -6.8847   -7.9453    0.0000 C   0  0  0  0  0  0  0  0  0  0  0  0
   -7.9453   -6.8847    0.0000 C   0  0  0  0  0  0  0  0  0  0  0  0
   -8.8442   -5.6838    0.0000 C   0  0  0  0  0  0  0  0  0  0  0  0
   -9.5631   -4.3673    0.0000 C   0  0  0  0  0  0  0  0  0  0  0  0
  -10.0873   -2.9619    0.0000 C   0  0  0  0  0  0  0  0  0  0  0  0
  -10.4061   -1.4962    0.0000 C   0  0  0  0  0  0  0  0  0  0  0  0
  -10.5132    0.0000    0.0000 C   0  0  0  0  0  0  0  0  0  0  0  0
  -10.4061    1.4962    0.0000 C   0  0  0  0  0  0  0  0  0  0  0  0
  -10.0873    2.9619    0.0000 C   0  0  0  0  0  0  0  0  0  0  0  0
   -9.5631    4.3673    0.0000 C   0  0  0  0  0  0  0  0  0  0  0  0
   -8.8442    5.6838    0.0000 C   0  0  0  0  0  0  0  0  0  0  0  0
   -7.9453    6.8847    0.0000 C   0  0  0  0  0  0  0  0  0  0  0  0
   -6.8847    7.9453    0.0000 C   0  0  0  0  0  0  0  0  0  0  0  0
   -5.6838    8.8442    0.0000 C   0  0  0  0  0  0  0  0  0  0  0  0
   -4.3673    9.5631    0.0000 C   0  0  0  0  0  0  0  0  0  0  0  0
   -2.9619   10.0873    0.0000 C   0  0  0  0  0  0  0  0  0  0  0  0
   -1.4962   10.4061    0.0000 C   0  0  0  0  0  0  0  0  0  0  0  0
    0.0000   10.5132    0.0000 C   0  0  0  0  0  0  0  0  0  0  0  0
    1.4962   10.4061    0.0000 C   0  0  0  0  0  0  0  0  0  0  0  0
    2.9619   10.0873    0.0000 C   0  0  0  0  0  0  0  0  0  0  0  0
    4.3673    9.5631    0.0000 C   0  0  0  0  0  0  0  0  0  0  0  0
    5.6838    8.8442    0.0000 C   0  0  0  0  0  0  0  0  0  0  0  0
    6.8847    7.9453    0.0000 C   0  0  0  0  0  0  0  0  0  0  0  0
    7.9453    6.8847    0.0000 C   0  0  0  0  0  0  0  0  0  0  0  0
    8.8442    5.6838    0.0000 C   0  0  0  0  0  0  0  0  0  0  0  0
    9.5631    4.3673    0.0000 C   0  0  0  0  0  0  0  0  0  0  0  0
   10.0873    2.9619    0.0000 C   0  0  0  0  0  0  0  0  0  0  0  0
   10.4061    1.4962    0.0000 C   0  0  0  0  0  0  0  0  0  0  0  0
  1  2  1  0
  2  3  1  0
  3  4  1  0
  4  5  1  0
  5  6  1  0
  6  7  1  0
  7  8  1  0
  8  9  1  0
  9 10  1  0
 10 11  1  0
 11 12  1  0
 12 13  1  0
 13 14  1  0
 14 15  1  0
 15 16  1  0
 16 17  1  0
 17 18  1  0
 18 19  1  0
 19 20  1  0
 20 21  1  0
 21 22  1  0
 22 23  1  0
 23 24  1  0
 24 25  1  0
 25 26  1  0
 26 27  1  0
 27 28  1  0
 28 29  1  0
 29 30  1  0
 30 31  1  0
 31 32  1  0
 32 33  1  0
 33 34  1  0
 34 35  1  0
 35 36  1  0
 36 37  1  0
 37 38  1  0
 38 39  1  0
 39 40  1  0
 40 41  1  0
 41 42  1  0
 42 43  1  0
 43 44  1  0
 44 45  1  0
 45  2  1  0
M  END
>  <Title>  (243) 
idAAHOgen7

$$$$

     RDKit          2D

  9  9  0  0  0  0  0  0  0  0999 V2000
    4.2760   -0.0000    0.0000 N   0  0  0  0  0  0  0  0  0  0  0  0
    2.7760    0.0000    0.0000 C   0  0  0  0  0  0  0  0  0  0  0  0
    1.2760    0.0000    0.0000 C   0  0  0  0  0  0  0  0  0  0  0  0
    0.3943    1.2135    0.0000 C   0  0  0  0  0  0  0  0  0  0  0  0
   -1.0323    0.7500    0.0000 C   0  0  0  0  0  0  0  0  0  0  0  0
   -1.0323   -0.7500    0.0000 C   0  0  0  0  0  0  0  0  0  0  0  0
   -2.2458   -1.6317    0.0000 C   0  0  0  0  0  0  0  0  0  0  0  0
   -3.4593   -2.5134    0.0000 N   0  0  0  0  0  0  0  0  0  0  0  0
    0.3943   -1.2135    0.0000 C   0  0  0  0  0  0  0  0  0  0  0  0
  1  2  3  0
  2  3  1  0
  3  4  2  0
  4  5  1  0
  5  6  2  0
  6  7  1  0
  7  8  3  0
  6  9  1  0
  9  3  1  0
M  END
>  <Title>  (244) 
idAAHPgen7

$$$$

     RDKit          2D

 14 14  0  0  0  0  0  0  0  0999 V2000
    4.6339    0.0000    0.0000 C   0  0  0  0  0  0  0  0  0  0  0  0
    3.1339    0.0000    0.0000 C   0  0  0  0  0  0  0  0  0  0  0  0
    2.7750    1.4564    0.0000 C   0  0  0  0  0  0  0  0  0  0  0  0
    1.7803    2.5792    0.0000 C   0  0  0  0  0  0  0  0  0  0  0  0
    0.3778    3.1111    0.0000 C   0  0  0  0  0  0  0  0  0  0  0  0
   -1.1113    2.9303    0.0000 C   0  0  0  0  0  0  0  0  0  0  0  0
   -2.3458    2.0782    0.0000 C   0  0  0  0  0  0  0  0  0  0  0  0
   -3.0429    0.7500    0.0000 C   0  0  0  0  0  0  0  0  0  0  0  0
   -3.0429   -0.7500    0.0000 C   0  0  0  0  0  0  0  0  0  0  0  0
   -2.3458   -2.0782    0.0000 C   0  0  0  0  0  0  0  0  0  0  0  0
   -1.1113   -2.9303    0.0000 C   0  0  0  0  0  0  0  0  0  0  0  0
    0.3778   -3.1111    0.0000 C   0  0  0  0  0  0  0  0  0  0  0  0
    1.7803   -2.5792    0.0000 C   0  0  0  0  0  0  0  0  0  0  0  0
    2.7750   -1.4564    0.0000 C   0  0  0  0  0  0  0  0  0  0  0  0
  1  2  1  0
  2  3  1  0
  3  4  1  0
  4  5  2  0
  5  6  1  0
  6  7  2  0
  7  8  1  0
  8  9  1  0
  9 10  1  0
 10 11  1  0
 11 12  1  0
 12 13  1  0
 13 14  1  0
 14  2  1  0
M  END
>  <Title>  (245) 
idAAHQgen7

$$$$

     RDKit          2D

  9  9  0  0  0  0  0  0  0  0999 V2000
    2.7760   -2.5981    0.0000 O   0  0  0  0  0  0  0  0  0  0  0  0
    3.5260   -1.2990    0.0000 C   0  0  0  0  0  0  0  0  0  0  0  0
    5.0260   -1.2990    0.0000 O   0  0  0  0  0  0  0  0  0  0  0  0
    2.7760    0.0000    0.0000 O   0  0  0  0  0  0  0  0  0  0  0  0
    1.2760    0.0000    0.0000 C   0  0  0  0  0  0  0  0  0  0  0  0
    0.3943    1.2135    0.0000 C   0  0  0  0  0  0  0  0  0  0  0  0
   -1.0323    0.7500    0.0000 C   0  0  0  0  0  0  0  0  0  0  0  0
   -1.0323   -0.7500    0.0000 C   0  0  0  0  0  0  0  0  0  0  0  0
    0.3943   -1.2135    0.0000 C   0  0  0  0  0  0  0  0  0  0  0  0
  1  2  2  0
  2  3  1  0
  2  4  1  0
  4  5  1  0
  5  6  1  0
  6  7  1  0
  7  8  1  0
  8  9  1  0
  9  5  1  0
M  END
>  <Title>  (246) 
idAAHRgen7

$$$$

     RDKit          2D

 96 97  0  0  0  0  0  0  0  0999 V2000
   21.7969    0.0000    0.0000 C   0  0  0  0  0  0  0  0  0  0  0  0
   20.2969    0.0000    0.0000 C   0  0  0  0  0  0  0  0  0  0  0  0
   20.2414    1.4990    0.0000 C   0  0  0  0  0  0  0  0  0  0  0  0
   20.0755    2.9898    0.0000 C   0  0  0  0  0  0  0  0  0  0  0  0
   19.7998    4.4642    0.0000 C   0  0  0  0  0  0  0  0  0  0  0  0
   21.2631    4.7941    0.0000 N   0  0  0  0  0  0  0  0  0  0  0  0
   22.2805    3.6919    0.0000 C   0  0  0  0  0  0  0  0  0  0  0  0
   21.8346    2.2597    0.0000 O   0  0  0  0  0  0  0  0  0  0  0  0
   23.7437    4.0218    0.0000 N   0  0  0  0  0  0  0  0  0  0  0  0
   24.7611    2.9195    0.0000 C   0  0  0  0  0  0  0  0  0  0  0  0
   24.3152    1.4873    0.0000 N   0  0  0  0  0  0  0  0  0  0  0  0
   25.3325    0.3851    0.0000 N   0  0  0  0  0  0  0  0  0  0  0  0
   26.7958    0.7150    0.0000 N   0  0  0  0  0  0  0  0  0  0  0  0
   27.2417    2.1472    0.0000 N   0  0  0  0  0  0  0  0  0  0  0  0
   26.2244    3.2494    0.0000 N   0  0  0  0  0  0  0  0  0  0  0  0
   19.4161    5.9143    0.0000 C   0  0  0  0  0  0  0  0  0  0  0  0
   18.9263    7.3321    0.0000 C   0  0  0  0  0  0  0  0  0  0  0  0
   18.3331    8.7098    0.0000 C   0  0  0  0  0  0  0  0  0  0  0  0
   17.6398   10.0400    0.0000 C   0  0  0  0  0  0  0  0  0  0  0  0
   16.8501   11.3153    0.0000 C   0  0  0  0  0  0  0  0  0  0  0  0
   15.9685   12.5288    0.0000 C   0  0  0  0  0  0  0  0  0  0  0  0
   14.9996   13.6739    0.0000 C   0  0  0  0  0  0  0  0  0  0  0  0
   13.9488   14.7443    0.0000 C   0  0  0  0  0  0  0  0  0  0  0  0
   12.8218   15.7342    0.0000 C   0  0  0  0  0  0  0  0  0  0  0  0
   11.6247   16.6382    0.0000 C   0  0  0  0  0  0  0  0  0  0  0  0
   10.3642   17.4513    0.0000 C   0  0  0  0  0  0  0  0  0  0  0  0
    9.0471   18.1690    0.0000 C   0  0  0  0  0  0  0  0  0  0  0  0
    7.6806   18.7876    0.0000 C   0  0  0  0  0  0  0  0  0  0  0  0
    6.2721   19.3035    0.0000 C   0  0  0  0  0  0  0  0  0  0  0  0
    4.8293   19.7140    0.0000 C   0  0  0  0  0  0  0  0  0  0  0  0
    3.3602   20.0168    0.0000 C   0  0  0  0  0  0  0  0  0  0  0  0
    1.8728   20.2103    0.0000 C   0  0  0  0  0  0  0  0  0  0  0  0
    0.3751   20.2934    0.0000 C   0  0  0  0  0  0  0  0  0  0  0  0
   -1.1247   20.2657    0.0000 C   0  0  0  0  0  0  0  0  0  0  0  0
   -2.6183   20.1273    0.0000 C   0  0  0  0  0  0  0  0  0  0  0  0
   -4.0976   19.8790    0.0000 C   0  0  0  0  0  0  0  0  0  0  0  0
   -5.5545   19.5221    0.0000 C   0  0  0  0  0  0  0  0  0  0  0  0
   -6.9811   19.0585    0.0000 C   0  0  0  0  0  0  0  0  0  0  0  0
   -8.3695   18.4909    0.0000 C   0  0  0  0  0  0  0  0  0  0  0  0
   -9.7123   17.8223    0.0000 C   0  0  0  0  0  0  0  0  0  0  0  0
  -11.0020   17.0564    0.0000 C   0  0  0  0  0  0  0  0  0  0  0  0
  -12.2316   16.1973    0.0000 C   0  0  0  0  0  0  0  0  0  0  0  0
  -13.3944   15.2497    0.0000 C   0  0  0  0  0  0  0  0  0  0  0  0
  -14.4841   14.2188    0.0000 C   0  0  0  0  0  0  0  0  0  0  0  0
  -15.4946   13.1103    0.0000 C   0  0  0  0  0  0  0  0  0  0  0  0
  -16.4205   11.9302    0.0000 C   0  0  0  0  0  0  0  0  0  0  0  0
  -17.2568   10.6849    0.0000 C   0  0  0  0  0  0  0  0  0  0  0  0
  -17.9987    9.3813    0.0000 C   0  0  0  0  0  0  0  0  0  0  0  0
  -18.6424    8.0264    0.0000 C   0  0  0  0  0  0  0  0  0  0  0  0
  -19.1843    6.6277    0.0000 C   0  0  0  0  0  0  0  0  0  0  0  0
  -19.6214    5.1928    0.0000 C   0  0  0  0  0  0  0  0  0  0  0  0
  -19.9513    3.7295    0.0000 C   0  0  0  0  0  0  0  0  0  0  0  0
  -20.1722    2.2459    0.0000 C   0  0  0  0  0  0  0  0  0  0  0  0
  -20.2830    0.7500    0.0000 C   0  0  0  0  0  0  0  0  0  0  0  0
  -20.2830   -0.7500    0.0000 C   0  0  0  0  0  0  0  0  0  0  0  0
  -20.1722   -2.2459    0.0000 C   0  0  0  0  0  0  0  0  0  0  0  0
  -19.9513   -3.7295    0.0000 C   0  0  0  0  0  0  0  0  0  0  0  0
  -19.6214   -5.1928    0.0000 C   0  0  0  0  0  0  0  0  0  0  0  0
  -19.1843   -6.6277    0.0000 C   0  0  0  0  0  0  0  0  0  0  0  0
  -18.6424   -8.0264    0.0000 C   0  0  0  0  0  0  0  0  0  0  0  0
  -17.9987   -9.3813    0.0000 C   0  0  0  0  0  0  0  0  0  0  0  0
  -17.2568  -10.6849    0.0000 C   0  0  0  0  0  0  0  0  0  0  0  0
  -16.4205  -11.9302    0.0000 C   0  0  0  0  0  0  0  0  0  0  0  0
  -15.4946  -13.1103    0.0000 C   0  0  0  0  0  0  0  0  0  0  0  0
  -14.4841  -14.2188    0.0000 C   0  0  0  0  0  0  0  0  0  0  0  0
  -13.3944  -15.2497    0.0000 C   0  0  0  0  0  0  0  0  0  0  0  0
  -12.2316  -16.1973    0.0000 C   0  0  0  0  0  0  0  0  0  0  0  0
  -11.0020  -17.0564    0.0000 C   0  0  0  0  0  0  0  0  0  0  0  0
   -9.7123  -17.8223    0.0000 C   0  0  0  0  0  0  0  0  0  0  0  0
   -8.3695  -18.4909    0.0000 C   0  0  0  0  0  0  0  0  0  0  0  0
   -6.9811  -19.0585    0.0000 C   0  0  0  0  0  0  0  0  0  0  0  0
   -5.5545  -19.5221    0.0000 C   0  0  0  0  0  0  0  0  0  0  0  0
   -4.0976  -19.8790    0.0000 C   0  0  0  0  0  0  0  0  0  0  0  0
   -2.6183  -20.1273    0.0000 C   0  0  0  0  0  0  0  0  0  0  0  0
   -1.1247  -20.2657    0.0000 C   0  0  0  0  0  0  0  0  0  0  0  0
    0.3751  -20.2934    0.0000 C   0  0  0  0  0  0  0  0  0  0  0  0
    1.8728  -20.2103    0.0000 C   0  0  0  0  0  0  0  0  0  0  0  0
    3.3602  -20.0168    0.0000 C   0  0  0  0  0  0  0  0  0  0  0  0
    4.8293  -19.7140    0.0000 C   0  0  0  0  0  0  0  0  0  0  0  0
    6.2721  -19.3035    0.0000 C   0  0  0  0  0  0  0  0  0  0  0  0
    7.6806  -18.7876    0.0000 C   0  0  0  0  0  0  0  0  0  0  0  0
    9.0471  -18.1690    0.0000 C   0  0  0  0  0  0  0  0  0  0  0  0
   10.3642  -17.4513    0.0000 C   0  0  0  0  0  0  0  0  0  0  0  0
   11.6247  -16.6382    0.0000 C   0  0  0  0  0  0  0  0  0  0  0  0
   12.8218  -15.7342    0.0000 C   0  0  0  0  0  0  0  0  0  0  0  0
   13.9488  -14.7443    0.0000 C   0  0  0  0  0  0  0  0  0  0  0  0
   14.9996  -13.6739    0.0000 C   0  0  0  0  0  0  0  0  0  0  0  0
   15.9685  -12.5288    0.0000 C   0  0  0  0  0  0  0  0  0  0  0  0
   16.8501  -11.3153    0.0000 C   0  0  0  0  0  0  0  0  0  0  0  0
   17.6398  -10.0400    0.0000 C   0  0  0  0  0  0  0  0  0  0  0  0
   18.3331   -8.7098    0.0000 C   0  0  0  0  0  0  0  0  0  0  0  0
   18.9263   -7.3321    0.0000 C   0  0  0  0  0  0  0  0  0  0  0  0
   19.4161   -5.9143    0.0000 C   0  0  0  0  0  0  0  0  0  0  0  0
   19.7998   -4.4642    0.0000 C   0  0  0  0  0  0  0  0  0  0  0  0
   20.0755   -2.9898    0.0000 C   0  0  0  0  0  0  0  0  0  0  0  0
   20.2414   -1.4990    0.0000 C   0  0  0  0  0  0  0  0  0  0  0  0
  1  2  1  0
  2  3  1  0
  3  4  2  0
  4  5  1  0
  5  6  1  0
  6  7  1  0
  7  8  2  0
  7  9  1  0
  9 10  1  0
 10 11  2  0
 11 12  1  0
 12 13  2  0
 13 14  1  0
 14 15  2  0
  5 16  1  0
 16 17  1  0
 17 18  1  0
 18 19  1  0
 19 20  1  0
 20 21  1  0
 21 22  1  0
 22 23  1  0
 23 24  1  0
 24 25  1  0
 25 26  1  0
 26 27  1  0
 27 28  1  0
 28 29  1  0
 29 30  1  0
 30 31  1  0
 31 32  1  0
 32 33  1  0
 33 34  1  0
 34 35  1  0
 35 36  1  0
 36 37  1  0
 37 38  1  0
 38 39  1  0
 39 40  1  0
 40 41  1  0
 41 42  1  0
 42 43  1  0
 43 44  1  0
 44 45  1  0
 45 46  1  0
 46 47  1  0
 47 48  1  0
 48 49  1  0
 49 50  1  0
 50 51  1  0
 51 52  1  0
 52 53  1  0
 53 54  1  0
 54 55  1  0
 55 56  1  0
 56 57  1  0
 57 58  1  0
 58 59  1  0
 59 60  1  0
 60 61  1  0
 61 62  1  0
 62 63  1  0
 63 64  1  0
 64 65  1  0
 65 66  1  0
 66 67  1  0
 67 68  1  0
 68 69  1  0
 69 70  1  0
 70 71  1  0
 71 72  1  0
 72 73  1  0
 73 74  1  0
 74 75  1  0
 75 76  1  0
 76 77  1  0
 77 78  1  0
 78 79  1  0
 79 80  1  0
 80 81  1  0
 81 82  1  0
 82 83  1  0
 83 84  1  0
 84 85  1  0
 85 86  1  0
 86 87  1  0
 87 88  1  0
 88 89  1  0
 89 90  1  0
 90 91  1  0
 91 92  1  0
 92 93  1  0
 93 94  1  0
 94 95  1  0
 95 96  1  0
 96  2  1  0
 15 10  1  0
M  END
>  <Title>  (247) 
idAAHSgen7

$$$$

     RDKit          2D

 12 12  0  0  0  0  0  0  0  0999 V2000
    5.7760    2.5981    0.0000 C   0  0  0  0  0  0  0  0  0  0  0  0
    5.0260    1.2990    0.0000 C   0  0  0  0  0  0  0  0  0  0  0  0
    5.7760   -0.0000    0.0000 C   0  0  0  0  0  0  0  0  0  0  0  0
    3.5260    1.2990    0.0000 C   0  0  0  0  0  0  0  0  0  0  0  0
    2.7760    2.5981    0.0000 O   0  0  0  0  0  0  0  0  0  0  0  0
    2.7760    0.0000    0.0000 N   0  0  0  0  0  0  0  0  0  0  0  0
    1.2760    0.0000    0.0000 C   0  0  0  0  0  0  0  0  0  0  0  0
    0.3943    1.2135    0.0000 C   0  0  0  0  0  0  0  0  0  0  0  0
   -1.0323    0.7500    0.0000 C   0  0  0  0  0  0  0  0  0  0  0  0
   -1.0323   -0.7500    0.0000 C   0  0  0  0  0  0  0  0  0  0  0  0
    0.3943   -1.2135    0.0000 C   0  0  0  0  0  0  0  0  0  0  0  0
    0.8578   -2.6401    0.0000 C   0  0  0  0  0  0  0  0  0  0  0  0
  1  2  1  0
  2  3  1  0
  2  4  1  0
  4  5  2  0
  4  6  1  0
  6  7  1  0
  7  8  1  0
  8  9  2  0
  9 10  1  0
 10 11  1  0
 11 12  1  0
 11  7  1  0
M  END
>  <Title>  (248) 
idAAHTgen7

$$$$

     RDKit          2D

 74 74  0  0  0  0  0  0  0  0999 V2000
   18.4555    0.0000    0.0000 C   0  0  0  0  0  0  0  0  0  0  0  0
   16.9555    0.0000    0.0000 C   0  0  0  0  0  0  0  0  0  0  0  0
   16.8892    1.4985    0.0000 C   0  0  0  0  0  0  0  0  0  0  0  0
   16.6907    2.9853    0.0000 C   0  0  0  0  0  0  0  0  0  0  0  0
   16.3615    4.4488    0.0000 C   0  0  0  0  0  0  0  0  0  0  0  0
   15.9043    5.8774    0.0000 C   0  0  0  0  0  0  0  0  0  0  0  0
   15.3226    7.2600    0.0000 C   0  0  0  0  0  0  0  0  0  0  0  0
   14.6210    8.5858    0.0000 C   0  0  0  0  0  0  0  0  0  0  0  0
   13.8050    9.8444    0.0000 C   0  0  0  0  0  0  0  0  0  0  0  0
   15.0263   10.7153    0.0000 C   0  0  0  0  0  0  0  0  0  0  0  0
   16.2475   11.5862    0.0000 N   0  0  0  0  0  0  0  0  0  0  0  0
   12.8809   11.0260    0.0000 C   0  0  0  0  0  0  0  0  0  0  0  0
   11.8560   12.1213    0.0000 C   0  0  0  0  0  0  0  0  0  0  0  0
   10.7383   13.1217    0.0000 C   0  0  0  0  0  0  0  0  0  0  0  0
    9.5366   14.0194    0.0000 C   0  0  0  0  0  0  0  0  0  0  0  0
    8.2603   14.8074    0.0000 C   0  0  0  0  0  0  0  0  0  0  0  0
    6.9193   15.4795    0.0000 C   0  0  0  0  0  0  0  0  0  0  0  0
    5.5241   16.0304    0.0000 C   0  0  0  0  0  0  0  0  0  0  0  0
    4.0857   16.4559    0.0000 C   0  0  0  0  0  0  0  0  0  0  0  0
    2.6154   16.7526    0.0000 C   0  0  0  0  0  0  0  0  0  0  0  0
    1.1245   16.9182    0.0000 C   0  0  0  0  0  0  0  0  0  0  0  0
   -0.3751   16.9514    0.0000 C   0  0  0  0  0  0  0  0  0  0  0  0
   -1.8718   16.8519    0.0000 C   0  0  0  0  0  0  0  0  0  0  0  0
   -3.3538   16.6205    0.0000 C   0  0  0  0  0  0  0  0  0  0  0  0
   -4.8096   16.2591    0.0000 C   0  0  0  0  0  0  0  0  0  0  0  0
   -6.2278   15.7704    0.0000 C   0  0  0  0  0  0  0  0  0  0  0  0
   -7.5972   15.1582    0.0000 C   0  0  0  0  0  0  0  0  0  0  0  0
   -8.9072   14.4275    0.0000 C   0  0  0  0  0  0  0  0  0  0  0  0
  -10.1474   13.5838    0.0000 C   0  0  0  0  0  0  0  0  0  0  0  0
  -11.3082   12.6338    0.0000 C   0  0  0  0  0  0  0  0  0  0  0  0
  -12.3806   11.5850    0.0000 C   0  0  0  0  0  0  0  0  0  0  0  0
  -13.3560   10.4454    0.0000 C   0  0  0  0  0  0  0  0  0  0  0  0
  -14.2269    9.2242    0.0000 C   0  0  0  0  0  0  0  0  0  0  0  0
  -14.9865    7.9307    0.0000 C   0  0  0  0  0  0  0  0  0  0  0  0
  -15.6287    6.5751    0.0000 C   0  0  0  0  0  0  0  0  0  0  0  0
  -16.1487    5.1681    0.0000 C   0  0  0  0  0  0  0  0  0  0  0  0
  -16.5423    3.7207    0.0000 C   0  0  0  0  0  0  0  0  0  0  0  0
  -16.8064    2.2441    0.0000 C   0  0  0  0  0  0  0  0  0  0  0  0
  -16.9389    0.7500    0.0000 C   0  0  0  0  0  0  0  0  0  0  0  0
  -16.9389   -0.7500    0.0000 C   0  0  0  0  0  0  0  0  0  0  0  0
  -16.8064   -2.2441    0.0000 C   0  0  0  0  0  0  0  0  0  0  0  0
  -16.5423   -3.7207    0.0000 C   0  0  0  0  0  0  0  0  0  0  0  0
  -16.1487   -5.1681    0.0000 C   0  0  0  0  0  0  0  0  0  0  0  0
  -15.6287   -6.5751    0.0000 C   0  0  0  0  0  0  0  0  0  0  0  0
  -14.9865   -7.9307    0.0000 C   0  0  0  0  0  0  0  0  0  0  0  0
  -14.2269   -9.2242    0.0000 C   0  0  0  0  0  0  0  0  0  0  0  0
  -13.3560  -10.4454    0.0000 C   0  0  0  0  0  0  0  0  0  0  0  0
  -12.3806  -11.5850    0.0000 C   0  0  0  0  0  0  0  0  0  0  0  0
  -11.3082  -12.6338    0.0000 C   0  0  0  0  0  0  0  0  0  0  0  0
  -10.1474  -13.5838    0.0000 C   0  0  0  0  0  0  0  0  0  0  0  0
   -8.9072  -14.4275    0.0000 C   0  0  0  0  0  0  0  0  0  0  0  0
   -7.5972  -15.1582    0.0000 C   0  0  0  0  0  0  0  0  0  0  0  0
   -6.2278  -15.7704    0.0000 C   0  0  0  0  0  0  0  0  0  0  0  0
   -4.8096  -16.2591    0.0000 C   0  0  0  0  0  0  0  0  0  0  0  0
   -3.3538  -16.6205    0.0000 C   0  0  0  0  0  0  0  0  0  0  0  0
   -1.8718  -16.8519    0.0000 C   0  0  0  0  0  0  0  0  0  0  0  0
   -0.3751  -16.9514    0.0000 C   0  0  0  0  0  0  0  0  0  0  0  0
    1.1245  -16.9182    0.0000 C   0  0  0  0  0  0  0  0  0  0  0  0
    2.6154  -16.7526    0.0000 C   0  0  0  0  0  0  0  0  0  0  0  0
    4.0857  -16.4559    0.0000 C   0  0  0  0  0  0  0  0  0  0  0  0
    5.5241  -16.0304    0.0000 C   0  0  0  0  0  0  0  0  0  0  0  0
    6.9193  -15.4795    0.0000 C   0  0  0  0  0  0  0  0  0  0  0  0
    8.2603  -14.8074    0.0000 N   0  0  0  0  0  0  0  0  0  0  0  0
    9.5366  -14.0194    0.0000 C   0  0  0  0  0  0  0  0  0  0  0  0
   10.7383  -13.1217    0.0000 C   0  0  0  0  0  0  0  0  0  0  0  0
   11.8560  -12.1213    0.0000 C   0  0  0  0  0  0  0  0  0  0  0  0
   12.8809  -11.0260    0.0000 C   0  0  0  0  0  0  0  0  0  0  0  0
   13.8050   -9.8444    0.0000 C   0  0  0  0  0  0  0  0  0  0  0  0
   14.6210   -8.5858    0.0000 C   0  0  0  0  0  0  0  0  0  0  0  0
   15.3226   -7.2600    0.0000 C   0  0  0  0  0  0  0  0  0  0  0  0
   15.9043   -5.8774    0.0000 C   0  0  0  0  0  0  0  0  0  0  0  0
   16.3615   -4.4488    0.0000 C   0  0  0  0  0  0  0  0  0  0  0  0
   16.6907   -2.9853    0.0000 C   0  0  0  0  0  0  0  0  0  0  0  0
   16.8892   -1.4985    0.0000 C   0  0  0  0  0  0  0  0  0  0  0  0
  1  2  1  0
  2  3  1  0
  3  4  2  0
  4  5  1  0
  5  6  2  0
  6  7  1  0
  7  8  2  0
  8  9  1  0
  9 10  1  0
 10 11  3  0
  9 12  1  0
 12 13  1  0
 13 14  1  0
 14 15  1  0
 15 16  1  0
 16 17  1  0
 17 18  1  0
 18 19  1  0
 19 20  1  0
 20 21  1  0
 21 22  1  0
 22 23  1  0
 23 24  1  0
 24 25  1  0
 25 26  1  0
 26 27  1  0
 27 28  1  0
 28 29  1  0
 29 30  1  0
 30 31  1  0
 31 32  1  0
 32 33  1  0
 33 34  1  0
 34 35  1  0
 35 36  1  0
 36 37  1  0
 37 38  1  0
 38 39  1  0
 39 40  1  0
 40 41  1  0
 41 42  1  0
 42 43  1  0
 43 44  1  0
 44 45  1  0
 45 46  1  0
 46 47  1  0
 47 48  1  0
 48 49  1  0
 49 50  1  0
 50 51  1  0
 51 52  1  0
 52 53  1  0
 53 54  1  0
 54 55  1  0
 55 56  1  0
 56 57  1  0
 57 58  1  0
 58 59  1  0
 59 60  1  0
 60 61  1  0
 61 62  1  0
 62 63  1  0
 63 64  1  0
 64 65  1  0
 65 66  1  0
 66 67  1  0
 67 68  1  0
 68 69  1  0
 69 70  2  0
 70 71  1  0
 71 72  2  0
 72 73  1  0
 73 74  1  0
 74  2  1  0
M  END
>  <Title>  (249) 
idAAHUgen7

$$$$

     RDKit          2D

  9  9  0  0  0  0  0  0  0  0999 V2000
    2.7760    0.0000    0.0000 C   0  0  0  0  0  0  0  0  0  0  0  0
    1.2760    0.0000    0.0000 C   0  0  0  0  0  0  0  0  0  0  0  0
    0.3943    1.2135    0.0000 C   0  0  0  0  0  0  0  0  0  0  0  0
   -1.0323    0.7500    0.0000 C   0  0  0  0  0  0  0  0  0  0  0  0
   -1.0323   -0.7500    0.0000 C   0  0  0  0  0  0  0  0  0  0  0  0
    0.3943   -1.2135    0.0000 C   0  0  0  0  0  0  0  0  0  0  0  0
    0.8578   -2.6401    0.0000 C   0  0  0  0  0  0  0  0  0  0  0  0
   -0.1459   -3.7548    0.0000 C   0  0  0  0  0  0  0  0  0  0  0  0
    0.3177   -5.1814    0.0000 N   0  0  0  0  0  0  0  0  0  0  0  0
  1  2  1  0
  2  3  1  0
  3  4  1  0
  4  5  2  0
  5  6  1  0
  6  7  1  0
  7  8  1  0
  8  9  1  0
  6  2  1  0
M  END
>  <Title>  (250) 
idAAHVgen7

$$$$

     RDKit          2D

 55 55  0  0  0  0  0  0  0  0999 V2000
   55.2760   31.1769    0.0000 C   0  0  0  0  0  0  0  0  0  0  0  0
   54.5260   29.8779    0.0000 C   0  0  0  0  0  0  0  0  0  0  0  0
   53.0260   29.8779    0.0000 C   0  0  0  0  0  0  0  0  0  0  0  0
   52.2760   28.5788    0.0000 C   0  0  0  0  0  0  0  0  0  0  0  0
   50.7760   28.5788    0.0000 C   0  0  0  0  0  0  0  0  0  0  0  0
   50.0260   27.2798    0.0000 C   0  0  0  0  0  0  0  0  0  0  0  0
   48.5260   27.2798    0.0000 C   0  0  0  0  0  0  0  0  0  0  0  0
   47.7760   25.9808    0.0000 C   0  0  0  0  0  0  0  0  0  0  0  0
   46.2760   25.9808    0.0000 C   0  0  0  0  0  0  0  0  0  0  0  0
   45.5260   24.6817    0.0000 C   0  0  0  0  0  0  0  0  0  0  0  0
   44.0260   24.6817    0.0000 C   0  0  0  0  0  0  0  0  0  0  0  0
   43.2760   23.3827    0.0000 C   0  0  0  0  0  0  0  0  0  0  0  0
   41.7760   23.3827    0.0000 C   0  0  0  0  0  0  0  0  0  0  0  0
   41.0260   22.0836    0.0000 C   0  0  0  0  0  0  0  0  0  0  0  0
   39.5260   22.0836    0.0000 C   0  0  0  0  0  0  0  0  0  0  0  0
   38.7760   20.7846    0.0000 C   0  0  0  0  0  0  0  0  0  0  0  0
   37.2760   20.7846    0.0000 C   0  0  0  0  0  0  0  0  0  0  0  0
   36.5260   19.4856    0.0000 C   0  0  0  0  0  0  0  0  0  0  0  0
   35.0260   19.4856    0.0000 C   0  0  0  0  0  0  0  0  0  0  0  0
   34.2760   18.1865    0.0000 C   0  0  0  0  0  0  0  0  0  0  0  0
   32.7760   18.1865    0.0000 C   0  0  0  0  0  0  0  0  0  0  0  0
   32.0260   16.8875    0.0000 C   0  0  0  0  0  0  0  0  0  0  0  0
   30.5260   16.8875    0.0000 C   0  0  0  0  0  0  0  0  0  0  0  0
   29.7760   15.5885    0.0000 C   0  0  0  0  0  0  0  0  0  0  0  0
   28.2760   15.5885    0.0000 C   0  0  0  0  0  0  0  0  0  0  0  0
   27.5260   14.2894    0.0000 C   0  0  0  0  0  0  0  0  0  0  0  0
   26.0260   14.2894    0.0000 C   0  0  0  0  0  0  0  0  0  0  0  0
   25.2760   12.9904    0.0000 C   0  0  0  0  0  0  0  0  0  0  0  0
   23.7760   12.9904    0.0000 C   0  0  0  0  0  0  0  0  0  0  0  0
   23.0260   11.6913    0.0000 C   0  0  0  0  0  0  0  0  0  0  0  0
   21.5260   11.6913    0.0000 C   0  0  0  0  0  0  0  0  0  0  0  0
   20.7760   10.3923    0.0000 C   0  0  0  0  0  0  0  0  0  0  0  0
   19.2760   10.3923    0.0000 C   0  0  0  0  0  0  0  0  0  0  0  0
   18.5260    9.0933    0.0000 C   0  0  0  0  0  0  0  0  0  0  0  0
   17.0260    9.0933    0.0000 C   0  0  0  0  0  0  0  0  0  0  0  0
   16.2760    7.7942    0.0000 C   0  0  0  0  0  0  0  0  0  0  0  0
   14.7760    7.7942    0.0000 C   0  0  0  0  0  0  0  0  0  0  0  0
   14.0260    6.4952    0.0000 C   0  0  0  0  0  0  0  0  0  0  0  0
   12.5260    6.4952    0.0000 C   0  0  0  0  0  0  0  0  0  0  0  0
   11.7760    5.1962    0.0000 C   0  0  0  0  0  0  0  0  0  0  0  0
   10.2760    5.1962    0.0000 C   0  0  0  0  0  0  0  0  0  0  0  0
    9.5260    3.8971    0.0000 C   0  0  0  0  0  0  0  0  0  0  0  0
    8.0260    3.8971    0.0000 C   0  0  0  0  0  0  0  0  0  0  0  0
    7.2760    2.5981    0.0000 C   0  0  0  0  0  0  0  0  0  0  0  0
    5.7760    2.5981    0.0000 C   0  0  0  0  0  0  0  0  0  0  0  0
    5.0260    1.2990    0.0000 C   0  0  0  0  0  0  0  0  0  0  0  0
    3.5260    1.2990    0.0000 C   0  0  0  0  0  0  0  0  0  0  0  0
    2.7760    0.0000    0.0000 C   0  0  0  0  0  0  0  0  0  0  0  0
    1.2760    0.0000    0.0000 C   0  0  0  0  0  0  0  0  0  0  0  0
    0.3943    1.2135    0.0000 C   0  0  0  0  0  0  0  0  0  0  0  0
   -1.0323    0.7500    0.0000 C   0  0  0  0  0  0  0  0  0  0  0  0
   -2.2458    1.6317    0.0000 C   0  0  0  0  0  0  0  0  0  0  0  0
   -1.0323   -0.7500    0.0000 C   0  0  0  0  0  0  0  0  0  0  0  0
    0.3943   -1.2135    0.0000 C   0  0  0  0  0  0  0  0  0  0  0  0
    0.8578   -2.6401    0.0000 C   0  0  0  0  0  0  0  0  0  0  0  0
  1  2  1  0
  2  3  1  0
  3  4  1  0
  4  5  1  0
  5  6  1  0
  6  7  1  0
  7  8  1  0
  8  9  1  0
  9 10  1  0
 10 11  1  0
 11 12  1  0
 12 13  1  0
 13 14  1  0
 14 15  1  0
 15 16  1  0
 16 17  1  0
 17 18  1  0
 18 19  1  0
 19 20  1  0
 20 21  1  0
 21 22  1  0
 22 23  1  0
 23 24  1  0
 24 25  1  0
 25 26  1  0
 26 27  1  0
 27 28  1  0
 28 29  1  0
 29 30  1  0
 30 31  1  0
 31 32  1  0
 32 33  1  0
 33 34  1  0
 34 35  1  0
 35 36  1  0
 36 37  1  0
 37 38  1  0
 38 39  1  0
 39 40  1  0
 40 41  1  0
 41 42  1  0
 42 43  1  0
 43 44  1  0
 44 45  1  0
 45 46  1  0
 46 47  1  0
 47 48  1  0
 48 49  1  0
 49 50  1  0
 50 51  1  0
 51 52  1  0
 51 53  1  0
 53 54  1  0
 54 55  1  0
 54 49  1  0
M  END
>  <Title>  (251) 
idAAHWgen7

$$$$

     RDKit          2D

 57 57  0  0  0  0  0  0  0  0999 V2000
   13.6146    0.0000    0.0000 C   0  0  0  0  0  0  0  0  0  0  0  0
   13.5320    1.4977    0.0000 C   0  0  0  0  0  0  0  0  0  0  0  0
   13.2851    2.9773    0.0000 C   0  0  0  0  0  0  0  0  0  0  0  0
   12.8770    4.4207    0.0000 C   0  0  0  0  0  0  0  0  0  0  0  0
   12.3125    5.8104    0.0000 C   0  0  0  0  0  0  0  0  0  0  0  0
   11.5986    7.1296    0.0000 C   0  0  0  0  0  0  0  0  0  0  0  0
   10.7439    8.3623    0.0000 C   0  0  0  0  0  0  0  0  0  0  0  0
    9.7587    9.4934    0.0000 C   0  0  0  0  0  0  0  0  0  0  0  0
    8.6551   10.5094    0.0000 C   0  0  0  0  0  0  0  0  0  0  0  0
    7.4465   11.3977    0.0000 C   0  0  0  0  0  0  0  0  0  0  0  0
    6.1475   12.1477    0.0000 C   0  0  0  0  0  0  0  0  0  0  0  0
    4.7738   12.7503    0.0000 C   0  0  0  0  0  0  0  0  0  0  0  0
    3.3422   13.1980    0.0000 C   0  0  0  0  0  0  0  0  0  0  0  0
    1.8700   13.4856    0.0000 C   0  0  0  0  0  0  0  0  0  0  0  0
    0.3751   13.6095    0.0000 C   0  0  0  0  0  0  0  0  0  0  0  0
   -1.1243   13.5681    0.0000 C   0  0  0  0  0  0  0  0  0  0  0  0
   -2.6101   13.3621    0.0000 C   0  0  0  0  0  0  0  0  0  0  0  0
   -4.0642   12.9939    0.0000 C   0  0  0  0  0  0  0  0  0  0  0  0
   -5.4689   12.4679    0.0000 C   0  0  0  0  0  0  0  0  0  0  0  0
   -6.8073   11.7906    0.0000 C   0  0  0  0  0  0  0  0  0  0  0  0
   -8.0631   10.9702    0.0000 C   0  0  0  0  0  0  0  0  0  0  0  0
   -9.2209   10.0166    0.0000 C   0  0  0  0  0  0  0  0  0  0  0  0
  -10.2669    8.9414    0.0000 C   0  0  0  0  0  0  0  0  0  0  0  0
  -11.1882    7.7577    0.0000 C   0  0  0  0  0  0  0  0  0  0  0  0
  -11.9737    6.4799    0.0000 C   0  0  0  0  0  0  0  0  0  0  0  0
  -12.6139    5.1233    0.0000 C   0  0  0  0  0  0  0  0  0  0  0  0
  -13.1009    3.7046    0.0000 C   0  0  0  0  0  0  0  0  0  0  0  0
  -13.4290    2.2409    0.0000 C   0  0  0  0  0  0  0  0  0  0  0  0
  -13.5940    0.7500    0.0000 C   0  0  0  0  0  0  0  0  0  0  0  0
  -13.5940   -0.7500    0.0000 C   0  0  0  0  0  0  0  0  0  0  0  0
  -13.4290   -2.2409    0.0000 C   0  0  0  0  0  0  0  0  0  0  0  0
  -13.1009   -3.7046    0.0000 C   0  0  0  0  0  0  0  0  0  0  0  0
  -12.6139   -5.1233    0.0000 C   0  0  0  0  0  0  0  0  0  0  0  0
  -11.9737   -6.4799    0.0000 C   0  0  0  0  0  0  0  0  0  0  0  0
  -11.1882   -7.7577    0.0000 C   0  0  0  0  0  0  0  0  0  0  0  0
  -10.2669   -8.9414    0.0000 C   0  0  0  0  0  0  0  0  0  0  0  0
   -9.2209  -10.0166    0.0000 C   0  0  0  0  0  0  0  0  0  0  0  0
   -8.0631  -10.9702    0.0000 C   0  0  0  0  0  0  0  0  0  0  0  0
   -6.8073  -11.7906    0.0000 C   0  0  0  0  0  0  0  0  0  0  0  0
   -5.4689  -12.4679    0.0000 C   0  0  0  0  0  0  0  0  0  0  0  0
   -4.0642  -12.9939    0.0000 C   0  0  0  0  0  0  0  0  0  0  0  0
   -2.6101  -13.3621    0.0000 C   0  0  0  0  0  0  0  0  0  0  0  0
   -1.1243  -13.5681    0.0000 C   0  0  0  0  0  0  0  0  0  0  0  0
    0.3751  -13.6095    0.0000 C   0  0  0  0  0  0  0  0  0  0  0  0
    1.8700  -13.4856    0.0000 C   0  0  0  0  0  0  0  0  0  0  0  0
    3.3422  -13.1980    0.0000 C   0  0  0  0  0  0  0  0  0  0  0  0
    4.7738  -12.7503    0.0000 C   0  0  0  0  0  0  0  0  0  0  0  0
    6.1475  -12.1477    0.0000 C   0  0  0  0  0  0  0  0  0  0  0  0
    7.4465  -11.3977    0.0000 C   0  0  0  0  0  0  0  0  0  0  0  0
    8.6551  -10.5094    0.0000 C   0  0  0  0  0  0  0  0  0  0  0  0
    9.7587   -9.4934    0.0000 C   0  0  0  0  0  0  0  0  0  0  0  0
   10.7439   -8.3623    0.0000 C   0  0  0  0  0  0  0  0  0  0  0  0
   11.5986   -7.1296    0.0000 C   0  0  0  0  0  0  0  0  0  0  0  0
   12.3125   -5.8104    0.0000 C   0  0  0  0  0  0  0  0  0  0  0  0
   12.8770   -4.4207    0.0000 C   0  0  0  0  0  0  0  0  0  0  0  0
   13.2851   -2.9773    0.0000 C   0  0  0  0  0  0  0  0  0  0  0  0
   13.5320   -1.4977    0.0000 C   0  0  0  0  0  0  0  0  0  0  0  0
  1  2  1  0
  2  3  1  0
  3  4  1  0
  4  5  1  0
  5  6  1  0
  6  7  1  0
  7  8  1  0
  8  9  1  0
  9 10  1  0
 10 11  1  0
 11 12  1  0
 12 13  1  0
 13 14  1  0
 14 15  1  0
 15 16  1  0
 16 17  1  0
 17 18  1  0
 18 19  1  0
 19 20  1  0
 20 21  1  0
 21 22  1  0
 22 23  1  0
 23 24  1  0
 24 25  1  0
 25 26  1  0
 26 27  1  0
 27 28  1  0
 28 29  1  0
 29 30  1  0
 30 31  1  0
 31 32  1  0
 32 33  1  0
 33 34  1  0
 34 35  1  0
 35 36  1  0
 36 37  1  0
 37 38  1  0
 38 39  1  0
 39 40  1  0
 40 41  1  0
 41 42  1  0
 42 43  1  0
 43 44  1  0
 44 45  1  0
 45 46  1  0
 46 47  1  0
 47 48  1  0
 48 49  1  0
 49 50  1  0
 50 51  1  0
 51 52  1  0
 52 53  1  0
 53 54  1  0
 54 55  1  0
 55 56  1  0
 56 57  1  0
 57  1  1  0
M  END
>  <Title>  (252) 
idAAHXgen7

$$$$

     RDKit          2D

 11 11  0  0  0  0  0  0  0  0999 V2000
    5.7760   -5.1962    0.0000 N   0  0  0  0  0  0  0  0  0  0  0  0
    5.0260   -3.8971    0.0000 C   0  0  0  0  0  0  0  0  0  0  0  0
    4.2760   -2.5981    0.0000 C   0  0  0  0  0  0  0  0  0  0  0  0
    3.5260   -1.2990    0.0000 C   0  0  0  0  0  0  0  0  0  0  0  0
    2.7760    0.0000    0.0000 C   0  0  0  0  0  0  0  0  0  0  0  0
    3.5260    1.2990    0.0000 O   0  0  0  0  0  0  0  0  0  0  0  0
    1.2760    0.0000    0.0000 C   0  0  0  0  0  0  0  0  0  0  0  0
    0.3943    1.2135    0.0000 C   0  0  0  0  0  0  0  0  0  0  0  0
   -1.0323    0.7500    0.0000 C   0  0  0  0  0  0  0  0  0  0  0  0
   -1.0323   -0.7500    0.0000 C   0  0  0  0  0  0  0  0  0  0  0  0
    0.3943   -1.2135    0.0000 C   0  0  0  0  0  0  0  0  0  0  0  0
  1  2  3  0
  2  3  1  0
  3  4  3  0
  4  5  1  0
  5  6  2  0
  5  7  1  0
  7  8  2  0
  8  9  1  0
  9 10  1  0
 10 11  2  0
 11  7  1  0
M  END
>  <Title>  (253) 
idAAHYgen7

$$$$

     RDKit          2D

 56 64  0  0  0  0  0  0  0  0999 V2000
    5.8191   -5.5525    0.0000 C   0  0  0  0  0  0  0  0  0  0  0  0
    4.3191   -5.5525    0.0000 C   0  0  0  0  0  0  0  0  0  0  0  0
    4.0586   -4.0753    0.0000 C   0  0  0  0  0  0  0  0  0  0  0  0
    3.3086   -2.7762    0.0000 C   0  0  0  0  0  0  0  0  0  0  0  0
    2.1595   -1.8121    0.0000 C   0  0  0  0  0  0  0  0  0  0  0  0
    2.9095   -0.5130    0.0000 C   0  0  0  0  0  0  0  0  0  0  0  0
    2.1595    0.7860    0.0000 O   0  0  0  0  0  0  0  0  0  0  0  0
    4.4095   -0.5130    0.0000 N   0  0  0  0  0  0  0  0  0  0  0  0
    5.1595    0.7860    0.0000 C   0  0  0  0  0  0  0  0  0  0  0  0
    6.6595    0.7860    0.0000 N   0  0  0  0  0  0  0  0  0  0  0  0
    7.4095    2.0850    0.0000 N   0  0  0  0  0  0  0  0  0  0  0  0
    6.6595    3.3841    0.0000 N   0  0  0  0  0  0  0  0  0  0  0  0
    5.1595    3.3841    0.0000 N   0  0  0  0  0  0  0  0  0  0  0  0
    4.4095    2.0850    0.0000 N   0  0  0  0  0  0  0  0  0  0  0  0
    0.7500   -1.2990    0.0000 C   0  0  0  0  0  0  0  0  0  0  0  0
    1.5000    0.0000    0.0000 C   0  0  0  0  0  0  0  0  0  0  0  0
    0.7500    1.2990    0.0000 C   0  0  0  0  0  0  0  0  0  0  0  0
   -0.7500    1.2990    0.0000 C   0  0  0  0  0  0  0  0  0  0  0  0
   -1.5000    0.0000    0.0000 C   0  0  0  0  0  0  0  0  0  0  0  0
   -0.7500   -1.2990    0.0000 C   0  0  0  0  0  0  0  0  0  0  0  0
   -2.1595   -1.8121    0.0000 C   0  0  0  0  0  0  0  0  0  0  0  0
   -2.4200   -0.3349    0.0000 C   0  0  0  0  0  0  0  0  0  0  0  0
   -3.8296    0.1782    0.0000 C   0  0  0  0  0  0  0  0  0  0  0  0
   -4.9786   -0.7860    0.0000 C   0  0  0  0  0  0  0  0  0  0  0  0
   -4.7181   -2.2632    0.0000 C   0  0  0  0  0  0  0  0  0  0  0  0
   -3.3086   -2.7762    0.0000 C   0  0  0  0  0  0  0  0  0  0  0  0
   -4.0586   -4.0753    0.0000 C   0  0  0  0  0  0  0  0  0  0  0  0
   -5.2077   -3.1111    0.0000 C   0  0  0  0  0  0  0  0  0  0  0  0
   -6.6172   -3.6241    0.0000 C   0  0  0  0  0  0  0  0  0  0  0  0
   -6.8777   -5.1013    0.0000 C   0  0  0  0  0  0  0  0  0  0  0  0
   -5.7286   -6.0655    0.0000 C   0  0  0  0  0  0  0  0  0  0  0  0
   -4.3191   -5.5525    0.0000 C   0  0  0  0  0  0  0  0  0  0  0  0
   -4.0586   -7.0297    0.0000 C   0  0  0  0  0  0  0  0  0  0  0  0
   -5.5586   -7.0297    0.0000 C   0  0  0  0  0  0  0  0  0  0  0  0
   -6.3086   -8.3287    0.0000 C   0  0  0  0  0  0  0  0  0  0  0  0
   -5.5586   -9.6278    0.0000 C   0  0  0  0  0  0  0  0  0  0  0  0
   -4.0586   -9.6278    0.0000 C   0  0  0  0  0  0  0  0  0  0  0  0
   -3.3086   -8.3287    0.0000 C   0  0  0  0  0  0  0  0  0  0  0  0
   -2.1595   -9.2929    0.0000 C   0  0  0  0  0  0  0  0  0  0  0  0
   -3.3086  -10.2571    0.0000 C   0  0  0  0  0  0  0  0  0  0  0  0
   -3.0481  -11.7343    0.0000 C   0  0  0  0  0  0  0  0  0  0  0  0
   -1.6386  -12.2474    0.0000 C   0  0  0  0  0  0  0  0  0  0  0  0
   -0.4895  -11.2832    0.0000 C   0  0  0  0  0  0  0  0  0  0  0  0
   -0.7500   -9.8060    0.0000 C   0  0  0  0  0  0  0  0  0  0  0  0
    0.7500   -9.8060    0.0000 C   0  0  0  0  0  0  0  0  0  0  0  0
    0.4895  -11.2832    0.0000 C   0  0  0  0  0  0  0  0  0  0  0  0
    1.6386  -12.2474    0.0000 C   0  0  0  0  0  0  0  0  0  0  0  0
    3.0481  -11.7343    0.0000 C   0  0  0  0  0  0  0  0  0  0  0  0
    3.3086  -10.2571    0.0000 C   0  0  0  0  0  0  0  0  0  0  0  0
    2.1595   -9.2929    0.0000 C   0  0  0  0  0  0  0  0  0  0  0  0
    3.3086   -8.3287    0.0000 C   0  0  0  0  0  0  0  0  0  0  0  0
    4.0586   -9.6278    0.0000 C   0  0  0  0  0  0  0  0  0  0  0  0
    5.5586   -9.6278    0.0000 C   0  0  0  0  0  0  0  0  0  0  0  0
    6.3086   -8.3287    0.0000 C   0  0  0  0  0  0  0  0  0  0  0  0
    5.5586   -7.0297    0.0000 C   0  0  0  0  0  0  0  0  0  0  0  0
    4.0586   -7.0297    0.0000 C   0  0  0  0  0  0  0  0  0  0  0  0
  1  2  1  0
  2  3  1  0
  3  4  1  0
  4  5  1  0
  5  6  1  0
  6  7  2  0
  6  8  1  0
  8  9  1  0
  9 10  2  0
 10 11  1  0
 11 12  2  0
 12 13  1  0
 13 14  2  0
  5 15  1  0
 15 16  2  0
 16 17  1  0
 17 18  2  0
 18 19  1  0
 19 20  2  0
 20 21  1  0
 21 22  2  0
 22 23  1  0
 23 24  2  0
 24 25  1  0
 25 26  2  0
 26 27  1  0
 27 28  2  0
 28 29  1  0
 29 30  2  0
 30 31  1  0
 31 32  2  0
 32 33  1  0
 33 34  2  0
 34 35  1  0
 35 36  2  0
 36 37  1  0
 37 38  2  0
 38 39  1  0
 39 40  2  0
 40 41  1  0
 41 42  2  0
 42 43  1  0
 43 44  2  0
 44 45  1  0
 45 46  2  0
 46 47  1  0
 47 48  2  0
 48 49  1  0
 49 50  2  0
 50 51  1  0
 51 52  2  0
 52 53  1  0
 53 54  2  0
 54 55  1  0
 55 56  2  0
 56  2  1  0
 14  9  1  0
 20 15  1  0
 26 21  1  0
 32 27  1  0
 38 33  1  0
 44 39  1  0
 50 45  1  0
 56 51  1  0
M  END
>  <Title>  (254) 
idAAHZgen7

$$$$

     RDKit          2D

 17 18  0  0  0  0  0  0  0  0999 V2000
    2.7760    0.0000    0.0000 C   0  0  0  0  0  0  0  0  0  0  0  0
    1.2760    0.0000    0.0000 C   0  0  0  0  0  0  0  0  0  0  0  0
    0.3943    1.2135    0.0000 C   0  0  0  0  0  0  0  0  0  0  0  0
   -1.0323    0.7500    0.0000 C   0  0  0  0  0  0  0  0  0  0  0  0
   -1.0323   -0.7500    0.0000 C   0  0  0  0  0  0  0  0  0  0  0  0
    0.3943   -1.2135    0.0000 C   0  0  0  0  0  0  0  0  0  0  0  0
    0.8578   -2.6401    0.0000 C   0  0  0  0  0  0  0  0  0  0  0  0
   -0.1459   -3.7548    0.0000 C   0  0  0  0  0  0  0  0  0  0  0  0
    0.3177   -5.1814    0.0000 C   0  0  0  0  0  0  0  0  0  0  0  0
    1.7849   -5.4933    0.0000 O   0  0  0  0  0  0  0  0  0  0  0  0
   -0.6860   -6.2961    0.0000 N   0  0  0  0  0  0  0  0  0  0  0  0
   -0.2225   -7.7227    0.0000 C   0  0  0  0  0  0  0  0  0  0  0  0
   -1.2262   -8.8374    0.0000 C   0  0  0  0  0  0  0  0  0  0  0  0
   -0.9143  -10.3047    0.0000 C   0  0  0  0  0  0  0  0  0  0  0  0
   -2.2134  -11.0547    0.0000 C   0  0  0  0  0  0  0  0  0  0  0  0
   -3.3281  -10.0510    0.0000 C   0  0  0  0  0  0  0  0  0  0  0  0
   -2.7180   -8.6806    0.0000 C   0  0  0  0  0  0  0  0  0  0  0  0
  1  2  1  0
  2  3  1  0
  3  4  1  0
  4  5  2  0
  5  6  1  0
  6  7  1  0
  7  8  1  0
  8  9  1  0
  9 10  2  0
  9 11  1  0
 11 12  1  0
 12 13  1  0
 13 14  2  0
 14 15  1  0
 15 16  1  0
 16 17  1  0
  6  2  1  0
 17 13  1  0
M  END
>  <Title>  (255) 
idAAIAgen7

$$$$

     RDKit          2D

 37 37  0  0  0  0  0  0  0  0999 V2000
   11.3669   -0.0000    0.0000 N   0  0  0  0  0  0  0  0  0  0  0  0
    9.8669    0.0000    0.0000 C   0  0  0  0  0  0  0  0  0  0  0  0
    8.3669    0.0000    0.0000 C   0  0  0  0  0  0  0  0  0  0  0  0
    8.2324    1.4940    0.0000 C   0  0  0  0  0  0  0  0  0  0  0  0
    7.8334    2.9399    0.0000 C   0  0  0  0  0  0  0  0  0  0  0  0
    7.1825    4.2914    0.0000 C   0  0  0  0  0  0  0  0  0  0  0  0
    6.3008    5.5049    0.0000 C   0  0  0  0  0  0  0  0  0  0  0  0
    5.2167    6.5415    0.0000 C   0  0  0  0  0  0  0  0  0  0  0  0
    3.9648    7.3678    0.0000 C   0  0  0  0  0  0  0  0  0  0  0  0
    2.5855    7.9574    0.0000 C   0  0  0  0  0  0  0  0  0  0  0  0
    1.1231    8.2911    0.0000 C   0  0  0  0  0  0  0  0  0  0  0  0
   -0.3754    8.3584    0.0000 C   0  0  0  0  0  0  0  0  0  0  0  0
   -1.8618    8.1571    0.0000 C   0  0  0  0  0  0  0  0  0  0  0  0
   -3.2884    7.6936    0.0000 C   0  0  0  0  0  0  0  0  0  0  0  0
   -4.6093    6.9828    0.0000 C   0  0  0  0  0  0  0  0  0  0  0  0
   -5.7820    6.0475    0.0000 C   0  0  0  0  0  0  0  0  0  0  0  0
   -6.7689    4.9179    0.0000 C   0  0  0  0  0  0  0  0  0  0  0  0
   -7.5383    3.6302    0.0000 C   0  0  0  0  0  0  0  0  0  0  0  0
   -8.0653    2.2259    0.0000 C   0  0  0  0  0  0  0  0  0  0  0  0
   -8.3332    0.7500    0.0000 C   0  0  0  0  0  0  0  0  0  0  0  0
   -8.3332   -0.7500    0.0000 C   0  0  0  0  0  0  0  0  0  0  0  0
   -8.0653   -2.2259    0.0000 C   0  0  0  0  0  0  0  0  0  0  0  0
   -7.5383   -3.6302    0.0000 C   0  0  0  0  0  0  0  0  0  0  0  0
   -6.7689   -4.9179    0.0000 C   0  0  0  0  0  0  0  0  0  0  0  0
   -5.7820   -6.0475    0.0000 C   0  0  0  0  0  0  0  0  0  0  0  0
   -4.6093   -6.9828    0.0000 C   0  0  0  0  0  0  0  0  0  0  0  0
   -3.2884   -7.6936    0.0000 C   0  0  0  0  0  0  0  0  0  0  0  0
   -1.8618   -8.1571    0.0000 C   0  0  0  0  0  0  0  0  0  0  0  0
   -0.3754   -8.3584    0.0000 C   0  0  0  0  0  0  0  0  0  0  0  0
    1.1231   -8.2911    0.0000 C   0  0  0  0  0  0  0  0  0  0  0  0
    2.5855   -7.9574    0.0000 C   0  0  0  0  0  0  0  0  0  0  0  0
    3.9648   -7.3678    0.0000 C   0  0  0  0  0  0  0  0  0  0  0  0
    5.2167   -6.5415    0.0000 C   0  0  0  0  0  0  0  0  0  0  0  0
    6.3008   -5.5049    0.0000 C   0  0  0  0  0  0  0  0  0  0  0  0
    7.1825   -4.2914    0.0000 C   0  0  0  0  0  0  0  0  0  0  0  0
    7.8334   -2.9399    0.0000 C   0  0  0  0  0  0  0  0  0  0  0  0
    8.2324   -1.4940    0.0000 C   0  0  0  0  0  0  0  0  0  0  0  0
  1  2  3  0
  2  3  1  0
  3  4  1  0
  4  5  1  0
  5  6  1  0
  6  7  1  0
  7  8  1  0
  8  9  1  0
  9 10  1  0
 10 11  1  0
 11 12  1  0
 12 13  1  0
 13 14  1  0
 14 15  1  0
 15 16  1  0
 16 17  1  0
 17 18  1  0
 18 19  1  0
 19 20  1  0
 20 21  1  0
 21 22  1  0
 22 23  1  0
 23 24  1  0
 24 25  1  0
 25 26  1  0
 26 27  1  0
 27 28  1  0
 28 29  1  0
 29 30  1  0
 30 31  1  0
 31 32  1  0
 32 33  1  0
 33 34  1  0
 34 35  1  0
 35 36  1  0
 36 37  1  0
 37  3  1  0
M  END
>  <Title>  (256) 
idAAIBgen7

$$$$

     RDKit          2D

 24 26  0  0  0  0  0  0  0  0999 V2000
   -3.1981   -1.5132    0.0000 C   0  0  0  0  0  0  0  0  0  0  0  0
   -1.8991   -2.2632    0.0000 C   0  0  0  0  0  0  0  0  0  0  0  0
   -2.1595   -3.7404    0.0000 C   0  0  0  0  0  0  0  0  0  0  0  0
   -1.4095   -5.0395    0.0000 C   0  0  0  0  0  0  0  0  0  0  0  0
   -0.0000   -5.5525    0.0000 C   0  0  0  0  0  0  0  0  0  0  0  0
    1.4095   -5.0395    0.0000 C   0  0  0  0  0  0  0  0  0  0  0  0
    2.1595   -3.7404    0.0000 C   0  0  0  0  0  0  0  0  0  0  0  0
    1.8991   -2.2632    0.0000 C   0  0  0  0  0  0  0  0  0  0  0  0
    3.1981   -1.5132    0.0000 C   0  0  0  0  0  0  0  0  0  0  0  0
    4.4971   -2.2632    0.0000 C   0  0  0  0  0  0  0  0  0  0  0  0
    4.4971   -3.7632    0.0000 O   0  0  0  0  0  0  0  0  0  0  0  0
    5.7962   -1.5132    0.0000 N   0  0  0  0  0  0  0  0  0  0  0  0
    7.0952   -2.2632    0.0000 C   0  0  0  0  0  0  0  0  0  0  0  0
    7.0952   -3.7632    0.0000 N   0  0  0  0  0  0  0  0  0  0  0  0
    8.3943   -4.5132    0.0000 N   0  0  0  0  0  0  0  0  0  0  0  0
    9.6933   -3.7632    0.0000 N   0  0  0  0  0  0  0  0  0  0  0  0
    9.6933   -2.2632    0.0000 N   0  0  0  0  0  0  0  0  0  0  0  0
    8.3943   -1.5132    0.0000 N   0  0  0  0  0  0  0  0  0  0  0  0
    0.7500   -1.2990    0.0000 C   0  0  0  0  0  0  0  0  0  0  0  0
    1.5000    0.0000    0.0000 C   0  0  0  0  0  0  0  0  0  0  0  0
    0.7500    1.2990    0.0000 C   0  0  0  0  0  0  0  0  0  0  0  0
   -0.7500    1.2990    0.0000 C   0  0  0  0  0  0  0  0  0  0  0  0
   -1.5000    0.0000    0.0000 C   0  0  0  0  0  0  0  0  0  0  0  0
   -0.7500   -1.2990    0.0000 C   0  0  0  0  0  0  0  0  0  0  0  0
  1  2  1  0
  2  3  1  0
  3  4  1  0
  4  5  1  0
  5  6  1  0
  6  7  1  0
  7  8  1  0
  8  9  1  0
  9 10  1  0
 10 11  2  0
 10 12  1  0
 12 13  1  0
 13 14  2  0
 14 15  1  0
 15 16  2  0
 16 17  1  0
 17 18  2  0
  8 19  1  0
 19 20  2  0
 20 21  1  0
 21 22  2  0
 22 23  1  0
 23 24  2  0
 24  2  1  0
 18 13  1  0
 24 19  1  0
M  END
>  <Title>  (257) 
idAAICgen7

$$$$

     RDKit          2D

108108  0  0  0  0  0  0  0  0999 V2000
   30.5933   -0.0000    0.0000 C   0  0  0  0  0  0  0  0  0  0  0  0
   29.0933   -0.0000    0.0000 C   0  0  0  0  0  0  0  0  0  0  0  0
   27.5933   -0.0000    0.0000 C   0  0  0  0  0  0  0  0  0  0  0  0
   26.0933    0.0000    0.0000 C   0  0  0  0  0  0  0  0  0  0  0  0
   24.5933    0.0000    0.0000 C   0  0  0  0  0  0  0  0  0  0  0  0
   24.5475    1.4993    0.0000 C   0  0  0  0  0  0  0  0  0  0  0  0
   24.4104    2.9930    0.0000 C   0  0  0  0  0  0  0  0  0  0  0  0
   24.1826    4.4756    0.0000 C   0  0  0  0  0  0  0  0  0  0  0  0
   23.8647    5.9416    0.0000 C   0  0  0  0  0  0  0  0  0  0  0  0
   23.4581    7.3854    0.0000 C   0  0  0  0  0  0  0  0  0  0  0  0
   22.9643    8.8018    0.0000 C   0  0  0  0  0  0  0  0  0  0  0  0
   22.3850   10.1854    0.0000 C   0  0  0  0  0  0  0  0  0  0  0  0
   21.7224   11.5311    0.0000 C   0  0  0  0  0  0  0  0  0  0  0  0
   20.9790   12.8339    0.0000 C   0  0  0  0  0  0  0  0  0  0  0  0
   20.1576   14.0890    0.0000 C   0  0  0  0  0  0  0  0  0  0  0  0
   19.2611   15.2917    0.0000 C   0  0  0  0  0  0  0  0  0  0  0  0
   18.2931   16.4375    0.0000 C   0  0  0  0  0  0  0  0  0  0  0  0
   17.2569   17.5222    0.0000 C   0  0  0  0  0  0  0  0  0  0  0  0
   16.1566   18.5416    0.0000 C   0  0  0  0  0  0  0  0  0  0  0  0
   14.9962   19.4921    0.0000 C   0  0  0  0  0  0  0  0  0  0  0  0
   13.7800   20.3701    0.0000 C   0  0  0  0  0  0  0  0  0  0  0  0
   12.5125   21.1723    0.0000 C   0  0  0  0  0  0  0  0  0  0  0  0
   11.1985   21.8957    0.0000 C   0  0  0  0  0  0  0  0  0  0  0  0
    9.8428   22.5377    0.0000 C   0  0  0  0  0  0  0  0  0  0  0  0
    8.4505   23.0958    0.0000 C   0  0  0  0  0  0  0  0  0  0  0  0
    7.0268   23.5680    0.0000 C   0  0  0  0  0  0  0  0  0  0  0  0
    5.5769   23.9526    0.0000 C   0  0  0  0  0  0  0  0  0  0  0  0
    4.1063   24.2480    0.0000 C   0  0  0  0  0  0  0  0  0  0  0  0
    2.6204   24.4532    0.0000 C   0  0  0  0  0  0  0  0  0  0  0  0
    1.1248   24.5675    0.0000 C   0  0  0  0  0  0  0  0  0  0  0  0
   -0.3750   24.5904    0.0000 C   0  0  0  0  0  0  0  0  0  0  0  0
   -1.8735   24.5218    0.0000 C   0  0  0  0  0  0  0  0  0  0  0  0
   -3.3649   24.3620    0.0000 C   0  0  0  0  0  0  0  0  0  0  0  0
   -4.8439   24.1115    0.0000 C   0  0  0  0  0  0  0  0  0  0  0  0
   -6.3048   23.7714    0.0000 C   0  0  0  0  0  0  0  0  0  0  0  0
   -7.7423   23.3428    0.0000 C   0  0  0  0  0  0  0  0  0  0  0  0
   -9.1509   22.8274    0.0000 C   0  0  0  0  0  0  0  0  0  0  0  0
  -10.5256   22.2270    0.0000 C   0  0  0  0  0  0  0  0  0  0  0  0
  -11.8610   21.5440    0.0000 C   0  0  0  0  0  0  0  0  0  0  0  0
  -13.1524   20.7808    0.0000 C   0  0  0  0  0  0  0  0  0  0  0  0
  -14.3948   19.9404    0.0000 C   0  0  0  0  0  0  0  0  0  0  0  0
  -15.5837   19.0257    0.0000 C   0  0  0  0  0  0  0  0  0  0  0  0
  -16.7146   18.0403    0.0000 C   0  0  0  0  0  0  0  0  0  0  0  0
  -17.7833   16.9877    0.0000 C   0  0  0  0  0  0  0  0  0  0  0  0
  -18.7858   15.8720    0.0000 C   0  0  0  0  0  0  0  0  0  0  0  0
  -19.7185   14.6972    0.0000 C   0  0  0  0  0  0  0  0  0  0  0  0
  -20.5778   13.4678    0.0000 C   0  0  0  0  0  0  0  0  0  0  0  0
  -21.3606   12.1882    0.0000 C   0  0  0  0  0  0  0  0  0  0  0  0
  -22.0639   10.8633    0.0000 C   0  0  0  0  0  0  0  0  0  0  0  0
  -22.6852    9.4980    0.0000 C   0  0  0  0  0  0  0  0  0  0  0  0
  -23.2220    8.0973    0.0000 C   0  0  0  0  0  0  0  0  0  0  0  0
  -23.6724    6.6666    0.0000 C   0  0  0  0  0  0  0  0  0  0  0  0
  -24.0348    5.2110    0.0000 C   0  0  0  0  0  0  0  0  0  0  0  0
  -24.3078    3.7361    0.0000 C   0  0  0  0  0  0  0  0  0  0  0  0
  -24.4904    2.2472    0.0000 C   0  0  0  0  0  0  0  0  0  0  0  0
  -24.5818    0.7500    0.0000 C   0  0  0  0  0  0  0  0  0  0  0  0
  -24.5818   -0.7500    0.0000 C   0  0  0  0  0  0  0  0  0  0  0  0
  -24.4904   -2.2472    0.0000 C   0  0  0  0  0  0  0  0  0  0  0  0
  -24.3078   -3.7361    0.0000 C   0  0  0  0  0  0  0  0  0  0  0  0
  -24.0348   -5.2110    0.0000 C   0  0  0  0  0  0  0  0  0  0  0  0
  -23.6724   -6.6666    0.0000 C   0  0  0  0  0  0  0  0  0  0  0  0
  -23.2220   -8.0973    0.0000 C   0  0  0  0  0  0  0  0  0  0  0  0
  -22.6852   -9.4980    0.0000 C   0  0  0  0  0  0  0  0  0  0  0  0
  -22.0639  -10.8633    0.0000 C   0  0  0  0  0  0  0  0  0  0  0  0
  -21.3606  -12.1882    0.0000 C   0  0  0  0  0  0  0  0  0  0  0  0
  -20.5778  -13.4678    0.0000 C   0  0  0  0  0  0  0  0  0  0  0  0
  -19.7185  -14.6972    0.0000 C   0  0  0  0  0  0  0  0  0  0  0  0
  -18.7858  -15.8720    0.0000 C   0  0  0  0  0  0  0  0  0  0  0  0
  -17.7833  -16.9877    0.0000 C   0  0  0  0  0  0  0  0  0  0  0  0
  -16.7146  -18.0403    0.0000 C   0  0  0  0  0  0  0  0  0  0  0  0
  -15.5837  -19.0257    0.0000 C   0  0  0  0  0  0  0  0  0  0  0  0
  -14.3948  -19.9404    0.0000 C   0  0  0  0  0  0  0  0  0  0  0  0
  -13.1524  -20.7808    0.0000 C   0  0  0  0  0  0  0  0  0  0  0  0
  -11.8610  -21.5440    0.0000 C   0  0  0  0  0  0  0  0  0  0  0  0
  -10.5256  -22.2270    0.0000 C   0  0  0  0  0  0  0  0  0  0  0  0
   -9.1509  -22.8274    0.0000 C   0  0  0  0  0  0  0  0  0  0  0  0
   -7.7423  -23.3428    0.0000 C   0  0  0  0  0  0  0  0  0  0  0  0
   -6.3048  -23.7714    0.0000 C   0  0  0  0  0  0  0  0  0  0  0  0
   -4.8439  -24.1115    0.0000 C   0  0  0  0  0  0  0  0  0  0  0  0
   -3.3649  -24.3620    0.0000 C   0  0  0  0  0  0  0  0  0  0  0  0
   -1.8735  -24.5218    0.0000 C   0  0  0  0  0  0  0  0  0  0  0  0
   -0.3750  -24.5904    0.0000 C   0  0  0  0  0  0  0  0  0  0  0  0
    1.1248  -24.5675    0.0000 C   0  0  0  0  0  0  0  0  0  0  0  0
    2.6204  -24.4532    0.0000 C   0  0  0  0  0  0  0  0  0  0  0  0
    4.1063  -24.2480    0.0000 C   0  0  0  0  0  0  0  0  0  0  0  0
    5.5769  -23.9526    0.0000 C   0  0  0  0  0  0  0  0  0  0  0  0
    7.0268  -23.5680    0.0000 C   0  0  0  0  0  0  0  0  0  0  0  0
    8.4505  -23.0958    0.0000 C   0  0  0  0  0  0  0  0  0  0  0  0
    9.8428  -22.5377    0.0000 C   0  0  0  0  0  0  0  0  0  0  0  0
   11.1985  -21.8957    0.0000 C   0  0  0  0  0  0  0  0  0  0  0  0
   12.5125  -21.1723    0.0000 C   0  0  0  0  0  0  0  0  0  0  0  0
   13.7800  -20.3701    0.0000 C   0  0  0  0  0  0  0  0  0  0  0  0
   14.9962  -19.4921    0.0000 C   0  0  0  0  0  0  0  0  0  0  0  0
   16.1566  -18.5416    0.0000 C   0  0  0  0  0  0  0  0  0  0  0  0
   17.1421  -19.6725    0.0000 C   0  0  0  0  0  0  0  0  0  0  0  0
   17.2569  -17.5222    0.0000 C   0  0  0  0  0  0  0  0  0  0  0  0
   18.2931  -16.4375    0.0000 C   0  0  0  0  0  0  0  0  0  0  0  0
   19.2611  -15.2917    0.0000 C   0  0  0  0  0  0  0  0  0  0  0  0
   20.1576  -14.0890    0.0000 C   0  0  0  0  0  0  0  0  0  0  0  0
   20.9790  -12.8339    0.0000 C   0  0  0  0  0  0  0  0  0  0  0  0
   21.7224  -11.5311    0.0000 C   0  0  0  0  0  0  0  0  0  0  0  0
   22.3850  -10.1854    0.0000 C   0  0  0  0  0  0  0  0  0  0  0  0
   22.9643   -8.8018    0.0000 C   0  0  0  0  0  0  0  0  0  0  0  0
   23.4581   -7.3854    0.0000 C   0  0  0  0  0  0  0  0  0  0  0  0
   23.8647   -5.9416    0.0000 C   0  0  0  0  0  0  0  0  0  0  0  0
   24.1826   -4.4756    0.0000 C   0  0  0  0  0  0  0  0  0  0  0  0
   24.4104   -2.9930    0.0000 C   0  0  0  0  0  0  0  0  0  0  0  0
   24.5475   -1.4993    0.0000 C   0  0  0  0  0  0  0  0  0  0  0  0
  1  2  3  0
  2  3  1  0
  3  4  3  0
  4  5  1  0
  5  6  1  0
  6  7  1  0
  7  8  1  0
  8  9  1  0
  9 10  1  0
 10 11  1  0
 11 12  1  0
 12 13  1  0
 13 14  1  0
 14 15  1  0
 15 16  1  0
 16 17  1  0
 17 18  1  0
 18 19  1  0
 19 20  1  0
 20 21  1  0
 21 22  1  0
 22 23  1  0
 23 24  1  0
 24 25  1  0
 25 26  1  0
 26 27  1  0
 27 28  1  0
 28 29  1  0
 29 30  1  0
 30 31  1  0
 31 32  1  0
 32 33  1  0
 33 34  1  0
 34 35  1  0
 35 36  1  0
 36 37  1  0
 37 38  1  0
 38 39  1  0
 39 40  1  0
 40 41  1  0
 41 42  1  0
 42 43  1  0
 43 44  1  0
 44 45  1  0
 45 46  1  0
 46 47  1  0
 47 48  1  0
 48 49  1  0
 49 50  1  0
 50 51  1  0
 51 52  1  0
 52 53  1  0
 53 54  1  0
 54 55  1  0
 55 56  1  0
 56 57  1  0
 57 58  1  0
 58 59  1  0
 59 60  1  0
 60 61  1  0
 61 62  1  0
 62 63  1  0
 63 64  1  0
 64 65  1  0
 65 66  1  0
 66 67  1  0
 67 68  1  0
 68 69  1  0
 69 70  1  0
 70 71  1  0
 71 72  1  0
 72 73  1  0
 73 74  1  0
 74 75  1  0
 75 76  1  0
 76 77  1  0
 77 78  1  0
 78 79  1  0
 79 80  1  0
 80 81  1  0
 81 82  1  0
 82 83  1  0
 83 84  1  0
 84 85  1  0
 85 86  1  0
 86 87  1  0
 87 88  1  0
 88 89  1  0
 89 90  1  0
 90 91  1  0
 91 92  1  0
 92 93  1  0
 93 94  1  0
 94 95  1  0
 94 96  1  0
 96 97  1  0
 97 98  1  0
 98 99  1  0
 99100  1  0
100101  1  0
101102  1  0
102103  1  0
103104  1  0
104105  1  0
105106  1  0
106107  1  0
107108  1  0
108  5  1  0
M  END
>  <Title>  (258) 
idAAIDgen7

$$$$

     RDKit          2D

 19 21  0  0  0  0  0  0  0  0999 V2000
   -2.6401   -3.1891    0.0000 C   0  0  0  0  0  0  0  0  0  0  0  0
   -1.2135   -2.7256    0.0000 C   0  0  0  0  0  0  0  0  0  0  0  0
   -0.0000   -3.6073    0.0000 C   0  0  0  0  0  0  0  0  0  0  0  0
    1.2135   -2.7256    0.0000 C   0  0  0  0  0  0  0  0  0  0  0  0
    2.6401   -3.1891    0.0000 C   0  0  0  0  0  0  0  0  0  0  0  0
    3.7548   -2.1855    0.0000 O   0  0  0  0  0  0  0  0  0  0  0  0
    2.9520   -4.6564    0.0000 N   0  0  0  0  0  0  0  0  0  0  0  0
    4.3786   -5.1199    0.0000 C   0  0  0  0  0  0  0  0  0  0  0  0
    4.6904   -6.5871    0.0000 N   0  0  0  0  0  0  0  0  0  0  0  0
    6.1170   -7.0506    0.0000 N   0  0  0  0  0  0  0  0  0  0  0  0
    7.2317   -6.0469    0.0000 N   0  0  0  0  0  0  0  0  0  0  0  0
    6.9199   -4.5797    0.0000 N   0  0  0  0  0  0  0  0  0  0  0  0
    5.4933   -4.1162    0.0000 N   0  0  0  0  0  0  0  0  0  0  0  0
    0.7500   -1.2990    0.0000 C   0  0  0  0  0  0  0  0  0  0  0  0
    1.5000    0.0000    0.0000 C   0  0  0  0  0  0  0  0  0  0  0  0
    0.7500    1.2990    0.0000 C   0  0  0  0  0  0  0  0  0  0  0  0
   -0.7500    1.2990    0.0000 C   0  0  0  0  0  0  0  0  0  0  0  0
   -1.5000    0.0000    0.0000 C   0  0  0  0  0  0  0  0  0  0  0  0
   -0.7500   -1.2990    0.0000 C   0  0  0  0  0  0  0  0  0  0  0  0
  1  2  1  0
  2  3  2  0
  3  4  1  0
  4  5  1  0
  5  6  2  0
  5  7  1  0
  7  8  1  0
  8  9  2  0
  9 10  1  0
 10 11  2  0
 11 12  1  0
 12 13  2  0
  4 14  1  0
 14 15  2  0
 15 16  1  0
 16 17  2  0
 17 18  1  0
 18 19  2  0
 19  2  1  0
 13  8  1  0
 19 14  1  0
M  END
>  <Title>  (259) 
idAAIEgen7

$$$$

     RDKit          2D

  9  9  0  0  0  0  0  0  0  0999 V2000
    3.0000    0.0000    0.0000 C   0  0  0  0  0  0  0  0  0  0  0  0
    1.5000    0.0000    0.0000 C   0  0  0  0  0  0  0  0  0  0  0  0
    0.7500   -1.2990    0.0000 C   0  0  0  0  0  0  0  0  0  0  0  0
   -0.7500   -1.2990    0.0000 C   0  0  0  0  0  0  0  0  0  0  0  0
   -1.5000    0.0000    0.0000 C   0  0  0  0  0  0  0  0  0  0  0  0
   -3.0000    0.0000    0.0000 O   0  0  0  0  0  0  0  0  0  0  0  0
   -0.7500    1.2990    0.0000 C   0  0  0  0  0  0  0  0  0  0  0  0
    0.7500    1.2990    0.0000 C   0  0  0  0  0  0  0  0  0  0  0  0
    1.5000    2.5981    0.0000 C   0  0  0  0  0  0  0  0  0  0  0  0
  1  2  1  0
  2  3  1  0
  3  4  1  0
  4  5  1  0
  5  6  1  0
  5  7  1  0
  7  8  1  0
  8  9  1  0
  8  2  1  0
M  END
>  <Title>  (260) 
idAAIFgen7

$$$$

     RDKit          2D

 29 32  0  0  0  0  0  0  0  0999 V2000
   -3.0000   -2.5981    0.0000 C   0  0  0  0  0  0  0  0  0  0  0  0
   -1.5000   -2.5981    0.0000 C   0  0  0  0  0  0  0  0  0  0  0  0
   -0.7500   -3.8971    0.0000 C   0  0  0  0  0  0  0  0  0  0  0  0
    0.7500   -3.8971    0.0000 C   0  0  0  0  0  0  0  0  0  0  0  0
    1.5000   -2.5981    0.0000 C   0  0  0  0  0  0  0  0  0  0  0  0
    3.0000   -2.5981    0.0000 C   0  0  0  0  0  0  0  0  0  0  0  0
    3.7500   -1.2990    0.0000 O   0  0  0  0  0  0  0  0  0  0  0  0
    3.7500   -3.8971    0.0000 N   0  0  0  0  0  0  0  0  0  0  0  0
    5.2500   -3.8971    0.0000 C   0  0  0  0  0  0  0  0  0  0  0  0
    6.0000   -5.1962    0.0000 N   0  0  0  0  0  0  0  0  0  0  0  0
    7.5000   -5.1962    0.0000 N   0  0  0  0  0  0  0  0  0  0  0  0
    8.2500   -3.8971    0.0000 N   0  0  0  0  0  0  0  0  0  0  0  0
    7.5000   -2.5981    0.0000 N   0  0  0  0  0  0  0  0  0  0  0  0
    6.0000   -2.5981    0.0000 N   0  0  0  0  0  0  0  0  0  0  0  0
    0.7500   -1.2990    0.0000 C   0  0  0  0  0  0  0  0  0  0  0  0
    1.5000    0.0000    0.0000 C   0  0  0  0  0  0  0  0  0  0  0  0
    0.7500    1.2990    0.0000 C   0  0  0  0  0  0  0  0  0  0  0  0
   -0.7500    1.2990    0.0000 C   0  0  0  0  0  0  0  0  0  0  0  0
   -1.5000    2.5981    0.0000 C   0  0  0  0  0  0  0  0  0  0  0  0
   -3.0000    2.5981    0.0000 O   0  0  0  0  0  0  0  0  0  0  0  0
   -0.7500    3.8971    0.0000 N   0  0  0  0  0  0  0  0  0  0  0  0
   -1.5000    5.1962    0.0000 C   0  0  0  0  0  0  0  0  0  0  0  0
   -0.7500    6.4952    0.0000 N   0  0  0  0  0  0  0  0  0  0  0  0
   -1.5000    7.7942    0.0000 N   0  0  0  0  0  0  0  0  0  0  0  0
   -3.0000    7.7942    0.0000 N   0  0  0  0  0  0  0  0  0  0  0  0
   -3.7500    6.4952    0.0000 N   0  0  0  0  0  0  0  0  0  0  0  0
   -3.0000    5.1962    0.0000 N   0  0  0  0  0  0  0  0  0  0  0  0
   -1.5000    0.0000    0.0000 C   0  0  0  0  0  0  0  0  0  0  0  0
   -0.7500   -1.2990    0.0000 C   0  0  0  0  0  0  0  0  0  0  0  0
  1  2  1  0
  2  3  1  0
  3  4  1  0
  4  5  1  0
  5  6  1  0
  6  7  2  0
  6  8  1  0
  8  9  1  0
  9 10  2  0
 10 11  1  0
 11 12  2  0
 12 13  1  0
 13 14  2  0
  5 15  1  0
 15 16  2  0
 16 17  1  0
 17 18  2  0
 18 19  1  0
 19 20  2  0
 19 21  1  0
 21 22  1  0
 22 23  2  0
 23 24  1  0
 24 25  2  0
 25 26  1  0
 26 27  2  0
 18 28  1  0
 28 29  2  0
 29  2  1  0
 14  9  1  0
 29 15  1  0
 27 22  1  0
M  END
>  <Title>  (261) 
idAAIGgen7

$$$$

     RDKit          2D

 20 22  0  0  0  0  0  0  0  0999 V2000
   -3.0000   -2.5981    0.0000 C   0  0  0  0  0  0  0  0  0  0  0  0
   -1.5000   -2.5981    0.0000 C   0  0  0  0  0  0  0  0  0  0  0  0
   -0.7500   -3.8971    0.0000 C   0  0  0  0  0  0  0  0  0  0  0  0
    0.7500   -3.8971    0.0000 C   0  0  0  0  0  0  0  0  0  0  0  0
    1.5000   -2.5981    0.0000 C   0  0  0  0  0  0  0  0  0  0  0  0
    3.0000   -2.5981    0.0000 C   0  0  0  0  0  0  0  0  0  0  0  0
    3.7500   -1.2990    0.0000 O   0  0  0  0  0  0  0  0  0  0  0  0
    3.7500   -3.8971    0.0000 N   0  0  0  0  0  0  0  0  0  0  0  0
    5.2500   -3.8971    0.0000 C   0  0  0  0  0  0  0  0  0  0  0  0
    6.0000   -5.1962    0.0000 N   0  0  0  0  0  0  0  0  0  0  0  0
    7.5000   -5.1962    0.0000 N   0  0  0  0  0  0  0  0  0  0  0  0
    8.2500   -3.8971    0.0000 N   0  0  0  0  0  0  0  0  0  0  0  0
    7.5000   -2.5981    0.0000 N   0  0  0  0  0  0  0  0  0  0  0  0
    6.0000   -2.5981    0.0000 N   0  0  0  0  0  0  0  0  0  0  0  0
    0.7500   -1.2990    0.0000 C   0  0  0  0  0  0  0  0  0  0  0  0
    1.5000    0.0000    0.0000 C   0  0  0  0  0  0  0  0  0  0  0  0
    0.7500    1.2990    0.0000 C   0  0  0  0  0  0  0  0  0  0  0  0
   -0.7500    1.2990    0.0000 C   0  0  0  0  0  0  0  0  0  0  0  0
   -1.5000    0.0000    0.0000 C   0  0  0  0  0  0  0  0  0  0  0  0
   -0.7500   -1.2990    0.0000 C   0  0  0  0  0  0  0  0  0  0  0  0
  1  2  1  0
  2  3  1  0
  3  4  1  0
  4  5  1  0
  5  6  1  0
  6  7  2  0
  6  8  1  0
  8  9  1  0
  9 10  2  0
 10 11  1  0
 11 12  2  0
 12 13  1  0
 13 14  2  0
  5 15  1  0
 15 16  2  0
 16 17  1  0
 17 18  2  0
 18 19  1  0
 19 20  2  0
 20  2  1  0
 14  9  1  0
 20 15  1  0
M  END
>  <Title>  (262) 
idAAIHgen7

$$$$

     RDKit          2D

 10 10  0  0  0  0  0  0  0  0999 V2000
    5.7760   -2.5981    0.0000 C   0  0  0  0  0  0  0  0  0  0  0  0
    5.0260   -1.2990    0.0000 C   0  0  0  0  0  0  0  0  0  0  0  0
    3.5260   -1.2990    0.0000 C   0  0  0  0  0  0  0  0  0  0  0  0
    2.7760   -2.5981    0.0000 O   0  0  0  0  0  0  0  0  0  0  0  0
    2.7760    0.0000    0.0000 N   0  0  0  0  0  0  0  0  0  0  0  0
    1.2760    0.0000    0.0000 C   0  0  0  0  0  0  0  0  0  0  0  0
    0.3943    1.2135    0.0000 C   0  0  0  0  0  0  0  0  0  0  0  0
   -1.0323    0.7500    0.0000 C   0  0  0  0  0  0  0  0  0  0  0  0
   -1.0323   -0.7500    0.0000 C   0  0  0  0  0  0  0  0  0  0  0  0
    0.3943   -1.2135    0.0000 C   0  0  0  0  0  0  0  0  0  0  0  0
  1  2  2  0
  2  3  1  0
  3  4  2  0
  3  5  1  0
  5  6  1  0
  6  7  2  0
  7  8  1  0
  8  9  1  0
  9 10  2  0
 10  6  1  0
M  END
>  <Title>  (263) 
idAAIIgen7

$$$$

     RDKit          2D

  8  8  0  0  0  0  0  0  0  0999 V2000
    2.6491    0.9642    0.0000 C   0  0  0  0  0  0  0  0  0  0  0  0
    1.5000    0.0000    0.0000 C   0  0  0  0  0  0  0  0  0  0  0  0
    2.6491   -0.9642    0.0000 C   0  0  0  0  0  0  0  0  0  0  0  0
    0.7500   -1.2990    0.0000 C   0  0  0  0  0  0  0  0  0  0  0  0
   -0.7500   -1.2990    0.0000 C   0  0  0  0  0  0  0  0  0  0  0  0
   -1.5000    0.0000    0.0000 C   0  0  0  0  0  0  0  0  0  0  0  0
   -0.7500    1.2990    0.0000 C   0  0  0  0  0  0  0  0  0  0  0  0
    0.7500    1.2990    0.0000 C   0  0  0  0  0  0  0  0  0  0  0  0
  1  2  1  0
  2  3  1  0
  2  4  1  0
  4  5  1  0
  5  6  1  0
  6  7  1  0
  7  8  1  0
  8  2  1  0
M  END
>  <Title>  (264) 
idAAIJgen7

$$$$

     RDKit          2D

 63 71  0  0  0  0  0  0  0  0999 V2000
   -0.0000   -9.9348    0.0000 C   0  0  0  0  0  0  0  0  0  0  0  0
   -0.0000   -8.4348    0.0000 C   0  0  0  0  0  0  0  0  0  0  0  0
    1.4672   -8.1229    0.0000 C   0  0  0  0  0  0  0  0  0  0  0  0
    2.6807   -7.2413    0.0000 C   0  0  0  0  0  0  0  0  0  0  0  0
    3.4307   -5.9422    0.0000 C   0  0  0  0  0  0  0  0  0  0  0  0
    3.5875   -4.4504    0.0000 C   0  0  0  0  0  0  0  0  0  0  0  0
    5.0793   -4.2937    0.0000 C   0  0  0  0  0  0  0  0  0  0  0  0
    5.6894   -2.9233    0.0000 O   0  0  0  0  0  0  0  0  0  0  0  0
    5.9610   -5.5072    0.0000 N   0  0  0  0  0  0  0  0  0  0  0  0
    7.4528   -5.3504    0.0000 C   0  0  0  0  0  0  0  0  0  0  0  0
    8.2028   -4.0513    0.0000 N   0  0  0  0  0  0  0  0  0  0  0  0
    9.6700   -4.3632    0.0000 N   0  0  0  0  0  0  0  0  0  0  0  0
    9.8268   -5.8550    0.0000 N   0  0  0  0  0  0  0  0  0  0  0  0
    8.4565   -6.4651    0.0000 N   0  0  0  0  0  0  0  0  0  0  0  0
    8.1446   -7.9323    0.0000 C   0  0  0  0  0  0  0  0  0  0  0  0
    6.7180   -8.3958    0.0000 C   0  0  0  0  0  0  0  0  0  0  0  0
    6.4062   -9.8631    0.0000 C   0  0  0  0  0  0  0  0  0  0  0  0
    7.5209  -10.8668    0.0000 C   0  0  0  0  0  0  0  0  0  0  0  0
    8.9475  -10.4032    0.0000 C   0  0  0  0  0  0  0  0  0  0  0  0
    9.2593   -8.9360    0.0000 C   0  0  0  0  0  0  0  0  0  0  0  0
   10.6859   -8.4725    0.0000 C   0  0  0  0  0  0  0  0  0  0  0  0
   10.9978   -7.0053    0.0000 C   0  0  0  0  0  0  0  0  0  0  0  0
   12.4244   -6.5417    0.0000 C   0  0  0  0  0  0  0  0  0  0  0  0
   13.5391   -7.5454    0.0000 C   0  0  0  0  0  0  0  0  0  0  0  0
   13.2272   -9.0127    0.0000 C   0  0  0  0  0  0  0  0  0  0  0  0
   11.8006   -9.4762    0.0000 C   0  0  0  0  0  0  0  0  0  0  0  0
   11.4888  -10.9434    0.0000 C   0  0  0  0  0  0  0  0  0  0  0  0
   10.0622  -11.4069    0.0000 C   0  0  0  0  0  0  0  0  0  0  0  0
    9.7503  -12.8742    0.0000 C   0  0  0  0  0  0  0  0  0  0  0  0
   10.8650  -13.8779    0.0000 C   0  0  0  0  0  0  0  0  0  0  0  0
   12.2916  -13.4143    0.0000 C   0  0  0  0  0  0  0  0  0  0  0  0
   12.6035  -11.9471    0.0000 C   0  0  0  0  0  0  0  0  0  0  0  0
   14.0301  -11.4836    0.0000 C   0  0  0  0  0  0  0  0  0  0  0  0
   14.3419  -10.0164    0.0000 C   0  0  0  0  0  0  0  0  0  0  0  0
   15.7685   -9.5528    0.0000 C   0  0  0  0  0  0  0  0  0  0  0  0
   16.8832  -10.5565    0.0000 C   0  0  0  0  0  0  0  0  0  0  0  0
   16.5714  -12.0238    0.0000 C   0  0  0  0  0  0  0  0  0  0  0  0
   15.1448  -12.4873    0.0000 C   0  0  0  0  0  0  0  0  0  0  0  0
   14.8329  -13.9545    0.0000 O   0  0  0  0  0  0  0  0  0  0  0  0
    3.1240   -3.0239    0.0000 C   0  0  0  0  0  0  0  0  0  0  0  0
    4.4231   -2.2739    0.0000 O   0  0  0  0  0  0  0  0  0  0  0  0
    2.1203   -1.9091    0.0000 O   0  0  0  0  0  0  0  0  0  0  0  0
    0.7500   -1.2990    0.0000 C   0  0  0  0  0  0  0  0  0  0  0  0
    1.5000    0.0000    0.0000 C   0  0  0  0  0  0  0  0  0  0  0  0
    0.7500    1.2990    0.0000 C   0  0  0  0  0  0  0  0  0  0  0  0
   -0.7500    1.2990    0.0000 C   0  0  0  0  0  0  0  0  0  0  0  0
   -1.5000    0.0000    0.0000 C   0  0  0  0  0  0  0  0  0  0  0  0
   -0.7500   -1.2990    0.0000 C   0  0  0  0  0  0  0  0  0  0  0  0
   -2.1203   -1.9091    0.0000 C   0  0  0  0  0  0  0  0  0  0  0  0
   -3.0020   -0.6956    0.0000 O   0  0  0  0  0  0  0  0  0  0  0  0
   -3.1240   -3.0239    0.0000 C   0  0  0  0  0  0  0  0  0  0  0  0
   -3.5875   -4.4504    0.0000 C   0  0  0  0  0  0  0  0  0  0  0  0
   -4.9579   -3.8403    0.0000 C   0  0  0  0  0  0  0  0  0  0  0  0
   -6.1714   -4.7220    0.0000 C   0  0  0  0  0  0  0  0  0  0  0  0
   -6.0146   -6.2138    0.0000 C   0  0  0  0  0  0  0  0  0  0  0  0
   -4.6443   -6.8239    0.0000 C   0  0  0  0  0  0  0  0  0  0  0  0
   -3.4307   -5.9422    0.0000 C   0  0  0  0  0  0  0  0  0  0  0  0
   -2.6807   -7.2413    0.0000 C   0  0  0  0  0  0  0  0  0  0  0  0
   -4.0511   -7.8514    0.0000 C   0  0  0  0  0  0  0  0  0  0  0  0
   -4.2079   -9.3432    0.0000 C   0  0  0  0  0  0  0  0  0  0  0  0
   -2.9943  -10.2248    0.0000 C   0  0  0  0  0  0  0  0  0  0  0  0
   -1.6240   -9.6147    0.0000 C   0  0  0  0  0  0  0  0  0  0  0  0
   -1.4672   -8.1229    0.0000 C   0  0  0  0  0  0  0  0  0  0  0  0
  1  2  1  0
  2  3  2  0
  3  4  1  0
  4  5  1  0
  5  6  1  0
  6  7  1  0
  7  8  2  0
  7  9  1  0
  9 10  1  0
 10 11  2  0
 11 12  1  0
 12 13  2  0
 13 14  1  0
 14 15  1  0
 15 16  2  0
 16 17  1  0
 17 18  2  0
 18 19  1  0
 19 20  2  0
 20 21  1  0
 21 22  2  0
 22 23  1  0
 23 24  2  0
 24 25  1  0
 25 26  2  0
 26 27  1  0
 27 28  2  0
 28 29  1  0
 29 30  2  0
 30 31  1  0
 31 32  2  0
 32 33  1  0
 33 34  2  0
 34 35  1  0
 35 36  1  0
 36 37  1  0
 37 38  1  0
 38 39  2  0
  6 40  1  0
 40 41  2  0
 40 42  1  0
 42 43  1  0
 43 44  2  0
 44 45  1  0
 45 46  2  0
 46 47  1  0
 47 48  2  0
 48 49  1  0
 49 50  2  0
 49 51  1  0
 51 52  1  0
 52 53  2  0
 53 54  1  0
 54 55  2  0
 55 56  1  0
 56 57  2  0
 57 58  1  0
 58 59  2  0
 59 60  1  0
 60 61  2  0
 61 62  1  0
 62 63  2  0
 63  2  1  0
 14 10  1  0
 20 15  1  0
 26 21  1  0
 32 27  1  0
 38 33  1  0
 48 43  1  0
 57 52  1  0
 63 58  1  0
M  END
>  <Title>  (265) 
idAAIKgen7

$$$$

     RDKit          2D

 22 24  0  0  0  0  0  0  0  0999 V2000
   -0.7500   -3.8971    0.0000 O   0  0  0  0  0  0  0  0  0  0  0  0
    0.7500   -3.8971    0.0000 C   0  0  0  0  0  0  0  0  0  0  0  0
    1.5000   -2.5981    0.0000 N   0  0  0  0  0  0  0  0  0  0  0  0
    0.7500   -1.2990    0.0000 C   0  0  0  0  0  0  0  0  0  0  0  0
    1.5000    0.0000    0.0000 C   0  0  0  0  0  0  0  0  0  0  0  0
    0.7500    1.2990    0.0000 N   0  0  0  0  0  0  0  0  0  0  0  0
   -0.7500    1.2990    0.0000 N   0  0  0  0  0  0  0  0  0  0  0  0
   -1.5000    0.0000    0.0000 N   0  0  0  0  0  0  0  0  0  0  0  0
   -0.7500   -1.2990    0.0000 N   0  0  0  0  0  0  0  0  0  0  0  0
    1.5000   -5.1962    0.0000 C   0  0  0  0  0  0  0  0  0  0  0  0
    2.9918   -5.3529    0.0000 C   0  0  0  0  0  0  0  0  0  0  0  0
    3.3037   -6.8202    0.0000 C   0  0  0  0  0  0  0  0  0  0  0  0
    2.0046   -7.5702    0.0000 N   0  0  0  0  0  0  0  0  0  0  0  0
    1.8478   -9.0619    0.0000 C   0  0  0  0  0  0  0  0  0  0  0  0
    3.0613   -9.9436    0.0000 O   0  0  0  0  0  0  0  0  0  0  0  0
    0.4775   -9.6721    0.0000 N   0  0  0  0  0  0  0  0  0  0  0  0
    0.3207  -11.1638    0.0000 C   0  0  0  0  0  0  0  0  0  0  0  0
    1.4354  -12.1675    0.0000 C   0  0  0  0  0  0  0  0  0  0  0  0
    0.8253  -13.5379    0.0000 C   0  0  0  0  0  0  0  0  0  0  0  0
   -0.6665  -13.3811    0.0000 C   0  0  0  0  0  0  0  0  0  0  0  0
   -0.9783  -11.9138    0.0000 C   0  0  0  0  0  0  0  0  0  0  0  0
    0.8899   -6.5665    0.0000 C   0  0  0  0  0  0  0  0  0  0  0  0
  1  2  2  0
  2  3  1  0
  3  4  1  0
  4  5  2  0
  5  6  1  0
  6  7  2  0
  7  8  1  0
  8  9  2  0
  2 10  1  0
 10 11  1  0
 11 12  1  0
 12 13  1  0
 13 14  1  0
 14 15  2  0
 14 16  1  0
 16 17  1  0
 17 18  2  0
 18 19  1  0
 19 20  1  0
 20 21  1  0
 13 22  1  0
  9  4  1  0
 22 10  1  0
 21 17  1  0
M  END
>  <Title>  (266) 
idAAILgen7

$$$$

     RDKit          2D

  9  9  0  0  0  0  0  0  0  0999 V2000
    3.4598   -0.0000    0.0000 C   0  0  0  0  0  0  0  0  0  0  0  0
    1.9598    0.0000    0.0000 C   0  0  0  0  0  0  0  0  0  0  0  0
    1.3858   -1.3858    0.0000 C   0  0  0  0  0  0  0  0  0  0  0  0
   -0.0000   -1.9598    0.0000 C   0  0  0  0  0  0  0  0  0  0  0  0
   -1.3858   -1.3858    0.0000 C   0  0  0  0  0  0  0  0  0  0  0  0
   -1.9598    0.0000    0.0000 C   0  0  0  0  0  0  0  0  0  0  0  0
   -1.3858    1.3858    0.0000 C   0  0  0  0  0  0  0  0  0  0  0  0
    0.0000    1.9598    0.0000 N   0  0  0  0  0  0  0  0  0  0  0  0
    1.3858    1.3858    0.0000 C   0  0  0  0  0  0  0  0  0  0  0  0
  1  2  1  0
  2  3  2  0
  3  4  1  0
  4  5  1  0
  5  6  1  0
  6  7  1  0
  7  8  1  0
  8  9  2  0
  9  2  1  0
M  END
>  <Title>  (267) 
idAAIMgen7

$$$$

     RDKit          2D

 67 69  0  0  0  0  0  0  0  0999 V2000
   -8.6124   -2.4721    0.0000 C   0  0  0  0  0  0  0  0  0  0  0  0
   -7.7577   -3.7048    0.0000 C   0  0  0  0  0  0  0  0  0  0  0  0
   -8.9414   -4.6261    0.0000 C   0  0  0  0  0  0  0  0  0  0  0  0
  -10.0166   -5.6721    0.0000 C   0  0  0  0  0  0  0  0  0  0  0  0
  -10.9702   -6.8299    0.0000 C   0  0  0  0  0  0  0  0  0  0  0  0
  -11.7906   -8.0857    0.0000 C   0  0  0  0  0  0  0  0  0  0  0  0
  -12.4679   -9.4241    0.0000 C   0  0  0  0  0  0  0  0  0  0  0  0
  -12.9939  -10.8288    0.0000 C   0  0  0  0  0  0  0  0  0  0  0  0
  -13.3621  -12.2829    0.0000 C   0  0  0  0  0  0  0  0  0  0  0  0
  -13.5681  -13.7687    0.0000 C   0  0  0  0  0  0  0  0  0  0  0  0
  -13.6095  -15.2681    0.0000 C   0  0  0  0  0  0  0  0  0  0  0  0
  -13.4856  -16.7630    0.0000 C   0  0  0  0  0  0  0  0  0  0  0  0
  -13.1980  -18.2352    0.0000 C   0  0  0  0  0  0  0  0  0  0  0  0
  -12.7503  -19.6668    0.0000 C   0  0  0  0  0  0  0  0  0  0  0  0
  -12.1477  -21.0405    0.0000 C   0  0  0  0  0  0  0  0  0  0  0  0
  -11.3977  -22.3395    0.0000 C   0  0  0  0  0  0  0  0  0  0  0  0
  -10.5094  -23.5482    0.0000 C   0  0  0  0  0  0  0  0  0  0  0  0
   -9.4934  -24.6517    0.0000 C   0  0  0  0  0  0  0  0  0  0  0  0
   -8.3623  -25.6369    0.0000 C   0  0  0  0  0  0  0  0  0  0  0  0
   -7.1296  -26.4916    0.0000 C   0  0  0  0  0  0  0  0  0  0  0  0
   -5.8104  -27.2055    0.0000 C   0  0  0  0  0  0  0  0  0  0  0  0
   -4.4207  -27.7700    0.0000 C   0  0  0  0  0  0  0  0  0  0  0  0
   -2.9773  -28.1781    0.0000 C   0  0  0  0  0  0  0  0  0  0  0  0
   -1.4977  -28.4250    0.0000 C   0  0  0  0  0  0  0  0  0  0  0  0
    0.0000  -28.5076    0.0000 C   0  0  0  0  0  0  0  0  0  0  0  0
    1.4977  -28.4250    0.0000 C   0  0  0  0  0  0  0  0  0  0  0  0
    2.9773  -28.1781    0.0000 C   0  0  0  0  0  0  0  0  0  0  0  0
    4.4207  -27.7700    0.0000 C   0  0  0  0  0  0  0  0  0  0  0  0
    5.8104  -27.2055    0.0000 C   0  0  0  0  0  0  0  0  0  0  0  0
    7.1296  -26.4916    0.0000 C   0  0  0  0  0  0  0  0  0  0  0  0
    8.3623  -25.6369    0.0000 C   0  0  0  0  0  0  0  0  0  0  0  0
    9.4934  -24.6517    0.0000 C   0  0  0  0  0  0  0  0  0  0  0  0
   10.5094  -23.5482    0.0000 C   0  0  0  0  0  0  0  0  0  0  0  0
   11.3977  -22.3395    0.0000 C   0  0  0  0  0  0  0  0  0  0  0  0
   12.1477  -21.0405    0.0000 C   0  0  0  0  0  0  0  0  0  0  0  0
   12.7503  -19.6668    0.0000 C   0  0  0  0  0  0  0  0  0  0  0  0
   13.1980  -18.2352    0.0000 C   0  0  0  0  0  0  0  0  0  0  0  0
   13.4856  -16.7630    0.0000 C   0  0  0  0  0  0  0  0  0  0  0  0
   13.6095  -15.2681    0.0000 C   0  0  0  0  0  0  0  0  0  0  0  0
   13.5681  -13.7687    0.0000 C   0  0  0  0  0  0  0  0  0  0  0  0
   13.3621  -12.2829    0.0000 C   0  0  0  0  0  0  0  0  0  0  0  0
   12.9939  -10.8288    0.0000 C   0  0  0  0  0  0  0  0  0  0  0  0
   12.4679   -9.4241    0.0000 C   0  0  0  0  0  0  0  0  0  0  0  0
   11.7906   -8.0857    0.0000 C   0  0  0  0  0  0  0  0  0  0  0  0
   10.9702   -6.8299    0.0000 C   0  0  0  0  0  0  0  0  0  0  0  0
   10.0166   -5.6721    0.0000 C   0  0  0  0  0  0  0  0  0  0  0  0
    8.9414   -4.6261    0.0000 C   0  0  0  0  0  0  0  0  0  0  0  0
    7.7577   -3.7048    0.0000 C   0  0  0  0  0  0  0  0  0  0  0  0
    6.4799   -2.9193    0.0000 C   0  0  0  0  0  0  0  0  0  0  0  0
    5.1233   -2.2791    0.0000 C   0  0  0  0  0  0  0  0  0  0  0  0
    3.7046   -1.7921    0.0000 C   0  0  0  0  0  0  0  0  0  0  0  0
    2.2409   -1.4641    0.0000 C   0  0  0  0  0  0  0  0  0  0  0  0
    2.4878    0.0155    0.0000 C   0  0  0  0  0  0  0  0  0  0  0  0
    0.7500   -1.2990    0.0000 C   0  0  0  0  0  0  0  0  0  0  0  0
    1.5000    0.0000    0.0000 C   0  0  0  0  0  0  0  0  0  0  0  0
    0.7500    1.2990    0.0000 C   0  0  0  0  0  0  0  0  0  0  0  0
   -0.7500    1.2990    0.0000 C   0  0  0  0  0  0  0  0  0  0  0  0
   -1.5000    0.0000    0.0000 C   0  0  0  0  0  0  0  0  0  0  0  0
   -0.7500   -1.2990    0.0000 C   0  0  0  0  0  0  0  0  0  0  0  0
   -2.2409   -1.4641    0.0000 N   0  0  0  0  0  0  0  0  0  0  0  0
   -1.4766   -2.7547    0.0000 N   0  0  0  0  0  0  0  0  0  0  0  0
   -2.4680   -3.8805    0.0000 N   0  0  0  0  0  0  0  0  0  0  0  0
   -3.8449   -3.2855    0.0000 N   0  0  0  0  0  0  0  0  0  0  0  0
   -3.7046   -1.7921    0.0000 C   0  0  0  0  0  0  0  0  0  0  0  0
   -5.1233   -2.2791    0.0000 N   0  0  0  0  0  0  0  0  0  0  0  0
   -6.4799   -2.9193    0.0000 C   0  0  0  0  0  0  0  0  0  0  0  0
   -7.1938   -1.6001    0.0000 O   0  0  0  0  0  0  0  0  0  0  0  0
  1  2  1  0
  2  3  2  0
  3  4  1  0
  4  5  2  0
  5  6  1  0
  6  7  2  0
  7  8  1  0
  8  9  2  0
  9 10  1  0
 10 11  2  0
 11 12  1  0
 12 13  2  0
 13 14  1  0
 14 15  2  0
 15 16  1  0
 16 17  2  0
 17 18  1  0
 18 19  1  0
 19 20  1  0
 20 21  1  0
 21 22  1  0
 22 23  1  0
 23 24  1  0
 24 25  1  0
 25 26  1  0
 26 27  1  0
 27 28  1  0
 28 29  1  0
 29 30  1  0
 30 31  1  0
 31 32  1  0
 32 33  1  0
 33 34  1  0
 34 35  1  0
 35 36  1  0
 36 37  1  0
 37 38  1  0
 38 39  1  0
 39 40  1  0
 40 41  1  0
 41 42  1  0
 42 43  1  0
 43 44  1  0
 44 45  1  0
 45 46  1  0
 46 47  1  0
 47 48  1  0
 48 49  1  0
 49 50  1  0
 50 51  1  0
 51 52  1  0
 52 53  1  0
 52 54  1  0
 54 55  2  0
 55 56  1  0
 56 57  2  0
 57 58  1  0
 58 59  2  0
 59 60  1  0
 60 61  1  0
 61 62  2  0
 62 63  1  0
 63 64  2  0
 64 65  1  0
 65 66  1  0
 66 67  2  0
 66  2  1  0
 59 54  1  0
 64 60  1  0
M  END
>  <Title>  (268) 
idAAINgen7

$$$$

     RDKit          2D

  6  6  0  0  0  0  0  0  0  0999 V2000
    2.7760    0.0000    0.0000 C   0  0  0  0  0  0  0  0  0  0  0  0
    1.2760    0.0000    0.0000 C   0  0  0  0  0  0  0  0  0  0  0  0
    0.3943    1.2135    0.0000 C   0  0  0  0  0  0  0  0  0  0  0  0
   -1.0323    0.7500    0.0000 C   0  0  0  0  0  0  0  0  0  0  0  0
   -1.0323   -0.7500    0.0000 C   0  0  0  0  0  0  0  0  0  0  0  0
    0.3943   -1.2135    0.0000 C   0  0  0  0  0  0  0  0  0  0  0  0
  1  2  1  0
  2  3  1  0
  3  4  1  0
  4  5  2  0
  5  6  1  0
  6  2  1  0
M  END
>  <Title>  (269) 
idAAIOgen7

$$$$

     RDKit          2D

 15 16  0  0  0  0  0  0  0  0999 V2000
    1.8478   -9.0619    0.0000 C   0  0  0  0  0  0  0  0  0  0  0  0
    2.0046   -7.5702    0.0000 C   0  0  0  0  0  0  0  0  0  0  0  0
    3.3037   -6.8202    0.0000 C   0  0  0  0  0  0  0  0  0  0  0  0
    2.9918   -5.3529    0.0000 C   0  0  0  0  0  0  0  0  0  0  0  0
    1.5000   -5.1962    0.0000 C   0  0  0  0  0  0  0  0  0  0  0  0
    0.7500   -3.8971    0.0000 C   0  0  0  0  0  0  0  0  0  0  0  0
   -0.7500   -3.8971    0.0000 O   0  0  0  0  0  0  0  0  0  0  0  0
    1.5000   -2.5981    0.0000 N   0  0  0  0  0  0  0  0  0  0  0  0
    0.7500   -1.2990    0.0000 C   0  0  0  0  0  0  0  0  0  0  0  0
    1.5000    0.0000    0.0000 N   0  0  0  0  0  0  0  0  0  0  0  0
    0.7500    1.2990    0.0000 N   0  0  0  0  0  0  0  0  0  0  0  0
   -0.7500    1.2990    0.0000 N   0  0  0  0  0  0  0  0  0  0  0  0
   -1.5000    0.0000    0.0000 N   0  0  0  0  0  0  0  0  0  0  0  0
   -0.7500   -1.2990    0.0000 N   0  0  0  0  0  0  0  0  0  0  0  0
    0.8899   -6.5665    0.0000 C   0  0  0  0  0  0  0  0  0  0  0  0
  1  2  1  0
  2  3  1  0
  3  4  1  0
  4  5  1  0
  5  6  1  0
  6  7  2  0
  6  8  1  0
  8  9  1  0
  9 10  2  0
 10 11  1  0
 11 12  2  0
 12 13  1  0
 13 14  2  0
  5 15  1  0
 15  2  1  0
 14  9  1  0
M  END
>  <Title>  (270) 
idAAIPgen7

$$$$

     RDKit          2D

  6  6  0  0  0  0  0  0  0  0999 V2000
    2.5607    0.0000    0.0000 C   0  0  0  0  0  0  0  0  0  0  0  0
    1.0607    0.0000    0.0000 C   0  0  0  0  0  0  0  0  0  0  0  0
   -0.0000   -1.0607    0.0000 C   0  0  0  0  0  0  0  0  0  0  0  0
   -1.0607    0.0000    0.0000 C   0  0  0  0  0  0  0  0  0  0  0  0
   -2.5607    0.0000    0.0000 C   0  0  0  0  0  0  0  0  0  0  0  0
    0.0000    1.0607    0.0000 C   0  0  0  0  0  0  0  0  0  0  0  0
  1  2  1  0
  2  3  1  0
  3  4  1  0
  4  5  1  0
  4  6  1  0
  6  2  1  0
M  END
>  <Title>  (271) 
idAAIQgen7

$$$$

     RDKit          2D

 26 28  0  0  0  0  0  0  0  0999 V2000
    6.3579  -11.0239    0.0000 C   0  0  0  0  0  0  0  0  0  0  0  0
    6.2011   -9.5322    0.0000 C   0  0  0  0  0  0  0  0  0  0  0  0
    4.8308   -8.9221    0.0000 N   0  0  0  0  0  0  0  0  0  0  0  0
    4.6740   -7.4303    0.0000 C   0  0  0  0  0  0  0  0  0  0  0  0
    5.8875   -6.5486    0.0000 O   0  0  0  0  0  0  0  0  0  0  0  0
    3.3037   -6.8202    0.0000 C   0  0  0  0  0  0  0  0  0  0  0  0
    2.0046   -7.5702    0.0000 C   0  0  0  0  0  0  0  0  0  0  0  0
    0.8899   -6.5665    0.0000 C   0  0  0  0  0  0  0  0  0  0  0  0
    1.5000   -5.1962    0.0000 C   0  0  0  0  0  0  0  0  0  0  0  0
    0.7500   -3.8971    0.0000 C   0  0  0  0  0  0  0  0  0  0  0  0
   -0.7500   -3.8971    0.0000 O   0  0  0  0  0  0  0  0  0  0  0  0
    1.5000   -2.5981    0.0000 N   0  0  0  0  0  0  0  0  0  0  0  0
    0.7500   -1.2990    0.0000 C   0  0  0  0  0  0  0  0  0  0  0  0
    1.5000    0.0000    0.0000 N   0  0  0  0  0  0  0  0  0  0  0  0
    0.7500    1.2990    0.0000 N   0  0  0  0  0  0  0  0  0  0  0  0
   -0.7500    1.2990    0.0000 N   0  0  0  0  0  0  0  0  0  0  0  0
   -1.5000    0.0000    0.0000 N   0  0  0  0  0  0  0  0  0  0  0  0
   -0.7500   -1.2990    0.0000 N   0  0  0  0  0  0  0  0  0  0  0  0
    2.9918   -5.3529    0.0000 C   0  0  0  0  0  0  0  0  0  0  0  0
    3.9955   -4.2382    0.0000 O   0  0  0  0  0  0  0  0  0  0  0  0
    7.4146   -8.6505    0.0000 C   0  0  0  0  0  0  0  0  0  0  0  0
    8.7849   -9.2606    0.0000 C   0  0  0  0  0  0  0  0  0  0  0  0
    9.9984   -8.3789    0.0000 C   0  0  0  0  0  0  0  0  0  0  0  0
    9.8417   -6.8871    0.0000 C   0  0  0  0  0  0  0  0  0  0  0  0
    8.4713   -6.2770    0.0000 C   0  0  0  0  0  0  0  0  0  0  0  0
    7.2578   -7.1587    0.0000 C   0  0  0  0  0  0  0  0  0  0  0  0
  1  2  1  0
  2  3  1  0
  3  4  1  0
  4  5  2  0
  4  6  1  0
  6  7  1  0
  7  8  1  0
  8  9  1  0
  9 10  1  0
 10 11  2  0
 10 12  1  0
 12 13  1  0
 13 14  2  0
 14 15  1  0
 15 16  2  0
 16 17  1  0
 17 18  2  0
  9 19  1  0
 19 20  2  0
  2 21  1  0
 21 22  2  0
 22 23  1  0
 23 24  2  0
 24 25  1  0
 25 26  2  0
 19  6  1  0
 26 21  1  0
 18 13  1  0
M  END
>  <Title>  (272) 
idAAIRgen7

$$$$

     RDKit          2D

  7  7  0  0  0  0  0  0  0  0999 V2000
    3.0000    0.0000    0.0000 O   0  0  0  0  0  0  0  0  0  0  0  0
    1.5000    0.0000    0.0000 C   0  0  0  0  0  0  0  0  0  0  0  0
    0.7500   -1.2990    0.0000 C   0  0  0  0  0  0  0  0  0  0  0  0
   -0.7500   -1.2990    0.0000 C   0  0  0  0  0  0  0  0  0  0  0  0
   -1.5000    0.0000    0.0000 C   0  0  0  0  0  0  0  0  0  0  0  0
   -0.7500    1.2990    0.0000 C   0  0  0  0  0  0  0  0  0  0  0  0
    0.7500    1.2990    0.0000 C   0  0  0  0  0  0  0  0  0  0  0  0
  1  2  1  0
  2  3  2  0
  3  4  1  0
  4  5  1  0
  5  6  2  0
  6  7  1  0
  7  2  1  0
M  END
>  <Title>  (273) 
idAAISgen7

$$$$

     RDKit          2D

 75 75  0  0  0  0  0  0  0  0999 V2000
   19.1715    0.0000    0.0000 C   0  0  0  0  0  0  0  0  0  0  0  0
   17.6715    0.0000    0.0000 C   0  0  0  0  0  0  0  0  0  0  0  0
   17.6078   -1.4986    0.0000 C   0  0  0  0  0  0  0  0  0  0  0  0
   17.4173   -2.9865    0.0000 C   0  0  0  0  0  0  0  0  0  0  0  0
   17.1013   -4.4528    0.0000 C   0  0  0  0  0  0  0  0  0  0  0  0
   16.6621   -5.8871    0.0000 C   0  0  0  0  0  0  0  0  0  0  0  0
   16.1028   -7.2789    0.0000 C   0  0  0  0  0  0  0  0  0  0  0  0
   15.4275   -8.6183    0.0000 C   0  0  0  0  0  0  0  0  0  0  0  0
   14.6410   -9.8956    0.0000 C   0  0  0  0  0  0  0  0  0  0  0  0
   13.7491  -11.1016    0.0000 C   0  0  0  0  0  0  0  0  0  0  0  0
   12.7581  -12.2276    0.0000 C   0  0  0  0  0  0  0  0  0  0  0  0
   11.6751  -13.2655    0.0000 C   0  0  0  0  0  0  0  0  0  0  0  0
   10.5081  -14.2078    0.0000 C   0  0  0  0  0  0  0  0  0  0  0  0
    9.2653  -15.0478    0.0000 C   0  0  0  0  0  0  0  0  0  0  0  0
    7.9558  -15.7793    0.0000 C   0  0  0  0  0  0  0  0  0  0  0  0
    6.5889  -16.3972    0.0000 C   0  0  0  0  0  0  0  0  0  0  0  0
    5.1746  -16.8969    0.0000 C   0  0  0  0  0  0  0  0  0  0  0  0
    3.7230  -17.2749    0.0000 C   0  0  0  0  0  0  0  0  0  0  0  0
    2.2446  -17.5284    0.0000 C   0  0  0  0  0  0  0  0  0  0  0  0
    0.7500  -17.6556    0.0000 C   0  0  0  0  0  0  0  0  0  0  0  0
   -0.7500  -17.6556    0.0000 C   0  0  0  0  0  0  0  0  0  0  0  0
   -2.2446  -17.5284    0.0000 C   0  0  0  0  0  0  0  0  0  0  0  0
   -3.7230  -17.2749    0.0000 C   0  0  0  0  0  0  0  0  0  0  0  0
   -5.1746  -16.8969    0.0000 C   0  0  0  0  0  0  0  0  0  0  0  0
   -6.5889  -16.3972    0.0000 C   0  0  0  0  0  0  0  0  0  0  0  0
   -7.9558  -15.7793    0.0000 C   0  0  0  0  0  0  0  0  0  0  0  0
   -9.2653  -15.0478    0.0000 C   0  0  0  0  0  0  0  0  0  0  0  0
  -10.5081  -14.2078    0.0000 C   0  0  0  0  0  0  0  0  0  0  0  0
  -11.6751  -13.2655    0.0000 C   0  0  0  0  0  0  0  0  0  0  0  0
  -12.7581  -12.2276    0.0000 C   0  0  0  0  0  0  0  0  0  0  0  0
  -13.7491  -11.1016    0.0000 C   0  0  0  0  0  0  0  0  0  0  0  0
  -14.6410   -9.8956    0.0000 C   0  0  0  0  0  0  0  0  0  0  0  0
  -15.4275   -8.6183    0.0000 C   0  0  0  0  0  0  0  0  0  0  0  0
  -16.1028   -7.2789    0.0000 C   0  0  0  0  0  0  0  0  0  0  0  0
  -16.6621   -5.8871    0.0000 C   0  0  0  0  0  0  0  0  0  0  0  0
  -17.1013   -4.4528    0.0000 C   0  0  0  0  0  0  0  0  0  0  0  0
  -17.4173   -2.9865    0.0000 C   0  0  0  0  0  0  0  0  0  0  0  0
  -17.6078   -1.4986    0.0000 C   0  0  0  0  0  0  0  0  0  0  0  0
  -17.6715    0.0000    0.0000 C   0  0  0  0  0  0  0  0  0  0  0  0
  -17.6078    1.4986    0.0000 C   0  0  0  0  0  0  0  0  0  0  0  0
  -17.4173    2.9865    0.0000 C   0  0  0  0  0  0  0  0  0  0  0  0
  -17.1013    4.4528    0.0000 C   0  0  0  0  0  0  0  0  0  0  0  0
  -16.6621    5.8871    0.0000 C   0  0  0  0  0  0  0  0  0  0  0  0
  -16.1028    7.2789    0.0000 C   0  0  0  0  0  0  0  0  0  0  0  0
  -15.4275    8.6183    0.0000 C   0  0  0  0  0  0  0  0  0  0  0  0
  -14.6410    9.8956    0.0000 C   0  0  0  0  0  0  0  0  0  0  0  0
  -13.7491   11.1016    0.0000 C   0  0  0  0  0  0  0  0  0  0  0  0
  -12.7581   12.2276    0.0000 C   0  0  0  0  0  0  0  0  0  0  0  0
  -11.6751   13.2655    0.0000 C   0  0  0  0  0  0  0  0  0  0  0  0
  -10.5081   14.2078    0.0000 C   0  0  0  0  0  0  0  0  0  0  0  0
   -9.2653   15.0478    0.0000 C   0  0  0  0  0  0  0  0  0  0  0  0
   -7.9558   15.7793    0.0000 C   0  0  0  0  0  0  0  0  0  0  0  0
   -6.5889   16.3972    0.0000 C   0  0  0  0  0  0  0  0  0  0  0  0
   -5.1746   16.8969    0.0000 C   0  0  0  0  0  0  0  0  0  0  0  0
   -3.7230   17.2749    0.0000 C   0  0  0  0  0  0  0  0  0  0  0  0
   -2.2446   17.5284    0.0000 C   0  0  0  0  0  0  0  0  0  0  0  0
   -0.7500   17.6556    0.0000 C   0  0  0  0  0  0  0  0  0  0  0  0
    0.7500   17.6556    0.0000 C   0  0  0  0  0  0  0  0  0  0  0  0
    2.2446   17.5284    0.0000 C   0  0  0  0  0  0  0  0  0  0  0  0
    3.7230   17.2749    0.0000 C   0  0  0  0  0  0  0  0  0  0  0  0
    5.1746   16.8969    0.0000 C   0  0  0  0  0  0  0  0  0  0  0  0
    6.5889   16.3972    0.0000 C   0  0  0  0  0  0  0  0  0  0  0  0
    7.9558   15.7793    0.0000 C   0  0  0  0  0  0  0  0  0  0  0  0
    9.2653   15.0478    0.0000 C   0  0  0  0  0  0  0  0  0  0  0  0
   10.5081   14.2078    0.0000 C   0  0  0  0  0  0  0  0  0  0  0  0
   11.6751   13.2655    0.0000 C   0  0  0  0  0  0  0  0  0  0  0  0
   12.7581   12.2276    0.0000 C   0  0  0  0  0  0  0  0  0  0  0  0
   13.7491   11.1016    0.0000 C   0  0  0  0  0  0  0  0  0  0  0  0
   14.6410    9.8956    0.0000 C   0  0  0  0  0  0  0  0  0  0  0  0
   15.4275    8.6183    0.0000 C   0  0  0  0  0  0  0  0  0  0  0  0
   16.1028    7.2789    0.0000 C   0  0  0  0  0  0  0  0  0  0  0  0
   16.6621    5.8871    0.0000 C   0  0  0  0  0  0  0  0  0  0  0  0
   17.1013    4.4528    0.0000 C   0  0  0  0  0  0  0  0  0  0  0  0
   17.4173    2.9865    0.0000 C   0  0  0  0  0  0  0  0  0  0  0  0
   17.6078    1.4986    0.0000 C   0  0  0  0  0  0  0  0  0  0  0  0
  1  2  1  0
  2  3  1  0
  3  4  2  0
  4  5  1  0
  5  6  1  0
  6  7  1  0
  7  8  1  0
  8  9  2  0
  9 10  1  0
 10 11  1  0
 11 12  1  0
 12 13  1  0
 13 14  1  0
 14 15  1  0
 15 16  1  0
 16 17  1  0
 17 18  1  0
 18 19  1  0
 19 20  1  0
 20 21  1  0
 21 22  1  0
 22 23  1  0
 23 24  1  0
 24 25  1  0
 25 26  1  0
 26 27  1  0
 27 28  1  0
 28 29  1  0
 29 30  1  0
 30 31  1  0
 31 32  1  0
 32 33  1  0
 33 34  1  0
 34 35  1  0
 35 36  1  0
 36 37  1  0
 37 38  1  0
 38 39  1  0
 39 40  1  0
 40 41  1  0
 41 42  1  0
 42 43  1  0
 43 44  1  0
 44 45  1  0
 45 46  1  0
 46 47  1  0
 47 48  1  0
 48 49  1  0
 49 50  1  0
 50 51  1  0
 51 52  1  0
 52 53  1  0
 53 54  1  0
 54 55  1  0
 55 56  1  0
 56 57  1  0
 57 58  1  0
 58 59  1  0
 59 60  1  0
 60 61  1  0
 61 62  1  0
 62 63  1  0
 63 64  1  0
 64 65  1  0
 65 66  1  0
 66 67  1  0
 67 68  1  0
 68 69  1  0
 69 70  1  0
 70 71  1  0
 71 72  1  0
 72 73  1  0
 73 74  2  0
 74 75  1  0
 75  2  1  0
M  END
>  <Title>  (274) 
idAAITgen7

$$$$

     RDKit          2D

 34 38  0  0  0  0  0  0  0  0999 V2000
    1.2135   -7.3421    0.0000 C   0  0  0  0  0  0  0  0  0  0  0  0
    0.7500   -5.9156    0.0000 C   0  0  0  0  0  0  0  0  0  0  0  0
    1.9635   -5.0339    0.0000 C   0  0  0  0  0  0  0  0  0  0  0  0
    2.4271   -3.6073    0.0000 C   0  0  0  0  0  0  0  0  0  0  0  0
    1.9635   -2.1807    0.0000 C   0  0  0  0  0  0  0  0  0  0  0  0
    3.1771   -1.2990    0.0000 C   0  0  0  0  0  0  0  0  0  0  0  0
    3.0203    0.1927    0.0000 O   0  0  0  0  0  0  0  0  0  0  0  0
    4.5474   -1.9091    0.0000 N   0  0  0  0  0  0  0  0  0  0  0  0
    5.7609   -1.0275    0.0000 C   0  0  0  0  0  0  0  0  0  0  0  0
    7.1312   -1.6376    0.0000 N   0  0  0  0  0  0  0  0  0  0  0  0
    8.3447   -0.7559    0.0000 N   0  0  0  0  0  0  0  0  0  0  0  0
    8.1879    0.7359    0.0000 N   0  0  0  0  0  0  0  0  0  0  0  0
    6.8176    1.3460    0.0000 N   0  0  0  0  0  0  0  0  0  0  0  0
    5.6041    0.4643    0.0000 N   0  0  0  0  0  0  0  0  0  0  0  0
    0.7500   -1.2990    0.0000 C   0  0  0  0  0  0  0  0  0  0  0  0
    1.5000    0.0000    0.0000 C   0  0  0  0  0  0  0  0  0  0  0  0
    0.7500    1.2990    0.0000 C   0  0  0  0  0  0  0  0  0  0  0  0
   -0.7500    1.2990    0.0000 C   0  0  0  0  0  0  0  0  0  0  0  0
   -1.5000    0.0000    0.0000 C   0  0  0  0  0  0  0  0  0  0  0  0
   -0.7500   -1.2990    0.0000 C   0  0  0  0  0  0  0  0  0  0  0  0
   -1.9635   -2.1807    0.0000 C   0  0  0  0  0  0  0  0  0  0  0  0
   -2.9672   -1.0660    0.0000 C   0  0  0  0  0  0  0  0  0  0  0  0
   -4.4344   -1.3779    0.0000 C   0  0  0  0  0  0  0  0  0  0  0  0
   -4.8980   -2.8045    0.0000 C   0  0  0  0  0  0  0  0  0  0  0  0
   -6.3652   -3.1163    0.0000 C   0  0  0  0  0  0  0  0  0  0  0  0
   -7.8324   -3.4282    0.0000 N   0  0  0  0  0  0  0  0  0  0  0  0
   -3.8943   -3.9192    0.0000 C   0  0  0  0  0  0  0  0  0  0  0  0
   -2.4271   -3.6073    0.0000 C   0  0  0  0  0  0  0  0  0  0  0  0
   -1.9635   -5.0339    0.0000 C   0  0  0  0  0  0  0  0  0  0  0  0
   -3.3338   -5.6440    0.0000 C   0  0  0  0  0  0  0  0  0  0  0  0
   -3.4906   -7.1358    0.0000 C   0  0  0  0  0  0  0  0  0  0  0  0
   -2.2771   -8.0175    0.0000 C   0  0  0  0  0  0  0  0  0  0  0  0
   -0.9068   -7.4073    0.0000 C   0  0  0  0  0  0  0  0  0  0  0  0
   -0.7500   -5.9156    0.0000 C   0  0  0  0  0  0  0  0  0  0  0  0
  1  2  1  0
  2  3  1  0
  3  4  1  0
  4  5  1  0
  5  6  1  0
  6  7  2  0
  6  8  1  0
  8  9  1  0
  9 10  2  0
 10 11  1  0
 11 12  2  0
 12 13  1  0
 13 14  2  0
  5 15  1  0
 15 16  2  0
 16 17  1  0
 17 18  2  0
 18 19  1  0
 19 20  2  0
 20 21  1  0
 21 22  2  0
 22 23  1  0
 23 24  2  0
 24 25  1  0
 25 26  3  0
 24 27  1  0
 27 28  2  0
 28 29  1  0
 29 30  2  0
 30 31  1  0
 31 32  2  0
 32 33  1  0
 33 34  2  0
 34  2  1  0
 14  9  1  0
 20 15  1  0
 28 21  1  0
 34 29  1  0
M  END
>  <Title>  (275) 
idAAIUgen7

$$$$

     RDKit          2D

 28 28  0  0  0  0  0  0  0  0999 V2000
    7.9603    0.0000    0.0000 C   0  0  0  0  0  0  0  0  0  0  0  0
    6.4603    0.0000    0.0000 C   0  0  0  0  0  0  0  0  0  0  0  0
    6.2862    1.4899    0.0000 C   0  0  0  0  0  0  0  0  0  0  0  0
    5.7732    2.8994    0.0000 C   0  0  0  0  0  0  0  0  0  0  0  0
    4.9489    4.1526    0.0000 C   0  0  0  0  0  0  0  0  0  0  0  0
    3.8578    5.1820    0.0000 C   0  0  0  0  0  0  0  0  0  0  0  0
    2.5588    5.9320    0.0000 C   0  0  0  0  0  0  0  0  0  0  0  0
    1.1218    6.3622    0.0000 C   0  0  0  0  0  0  0  0  0  0  0  0
   -0.3756    6.4494    0.0000 C   0  0  0  0  0  0  0  0  0  0  0  0
   -1.8528    6.1889    0.0000 C   0  0  0  0  0  0  0  0  0  0  0  0
   -3.2302    5.5948    0.0000 C   0  0  0  0  0  0  0  0  0  0  0  0
   -4.4334    4.6991    0.0000 C   0  0  0  0  0  0  0  0  0  0  0  0
   -5.3975    3.5500    0.0000 C   0  0  0  0  0  0  0  0  0  0  0  0
   -6.0707    2.2096    0.0000 C   0  0  0  0  0  0  0  0  0  0  0  0
   -6.4167    0.7500    0.0000 C   0  0  0  0  0  0  0  0  0  0  0  0
   -6.4167   -0.7500    0.0000 C   0  0  0  0  0  0  0  0  0  0  0  0
   -6.0707   -2.2096    0.0000 C   0  0  0  0  0  0  0  0  0  0  0  0
   -5.3975   -3.5500    0.0000 C   0  0  0  0  0  0  0  0  0  0  0  0
   -4.4334   -4.6991    0.0000 C   0  0  0  0  0  0  0  0  0  0  0  0
   -3.2302   -5.5948    0.0000 C   0  0  0  0  0  0  0  0  0  0  0  0
   -1.8528   -6.1889    0.0000 C   0  0  0  0  0  0  0  0  0  0  0  0
   -0.3756   -6.4494    0.0000 C   0  0  0  0  0  0  0  0  0  0  0  0
    1.1218   -6.3622    0.0000 C   0  0  0  0  0  0  0  0  0  0  0  0
    2.5588   -5.9320    0.0000 C   0  0  0  0  0  0  0  0  0  0  0  0
    3.8578   -5.1820    0.0000 C   0  0  0  0  0  0  0  0  0  0  0  0
    4.9489   -4.1526    0.0000 C   0  0  0  0  0  0  0  0  0  0  0  0
    5.7732   -2.8994    0.0000 C   0  0  0  0  0  0  0  0  0  0  0  0
    6.2862   -1.4899    0.0000 C   0  0  0  0  0  0  0  0  0  0  0  0
  1  2  1  0
  2  3  1  0
  3  4  1  0
  4  5  2  0
  5  6  1  0
  6  7  2  0
  7  8  1  0
  8  9  1  0
  9 10  1  0
 10 11  1  0
 11 12  1  0
 12 13  1  0
 13 14  1  0
 14 15  1  0
 15 16  1  0
 16 17  1  0
 17 18  1  0
 18 19  1  0
 19 20  1  0
 20 21  1  0
 21 22  1  0
 22 23  1  0
 23 24  1  0
 24 25  1  0
 25 26  1  0
 26 27  1  0
 27 28  1  0
 28  2  1  0
M  END
>  <Title>  (276) 
idAAIVgen7

$$$$

     RDKit          2D

  8  8  0  0  0  0  0  0  0  0999 V2000
    3.7500   -1.2990    0.0000 N   0  0  0  0  0  0  0  0  0  0  0  0
    3.0000    0.0000    0.0000 C   0  0  0  0  0  0  0  0  0  0  0  0
    1.5000    0.0000    0.0000 C   0  0  0  0  0  0  0  0  0  0  0  0
    0.7500   -1.2990    0.0000 C   0  0  0  0  0  0  0  0  0  0  0  0
   -0.7500   -1.2990    0.0000 C   0  0  0  0  0  0  0  0  0  0  0  0
   -1.5000    0.0000    0.0000 S   0  0  0  0  0  0  0  0  0  0  0  0
   -0.7500    1.2990    0.0000 C   0  0  0  0  0  0  0  0  0  0  0  0
    0.7500    1.2990    0.0000 C   0  0  0  0  0  0  0  0  0  0  0  0
  1  2  1  0
  2  3  1  0
  3  4  1  0
  4  5  1  0
  5  6  1  0
  6  7  1  0
  7  8  1  0
  8  3  1  0
M  END
>  <Title>  (277) 
idAAIWgen7

$$$$

     RDKit          2D

 34 34  0  0  0  0  0  0  0  0999 V2000
    9.3901    0.0000    0.0000 C   0  0  0  0  0  0  0  0  0  0  0  0
    7.8901    0.0000    0.0000 C   0  0  0  0  0  0  0  0  0  0  0  0
    7.7475    1.4932    0.0000 C   0  0  0  0  0  0  0  0  0  0  0  0
    7.3249    2.9324    0.0000 C   0  0  0  0  0  0  0  0  0  0  0  0
    6.6376    4.2657    0.0000 C   0  0  0  0  0  0  0  0  0  0  0  0
    5.7103    5.4448    0.0000 C   0  0  0  0  0  0  0  0  0  0  0  0
    4.5767    6.4271    0.0000 C   0  0  0  0  0  0  0  0  0  0  0  0
    3.2777    7.1771    0.0000 C   0  0  0  0  0  0  0  0  0  0  0  0
    1.8602    7.6677    0.0000 C   0  0  0  0  0  0  0  0  0  0  0  0
    0.3754    7.8811    0.0000 C   0  0  0  0  0  0  0  0  0  0  0  0
   -1.1229    7.8098    0.0000 C   0  0  0  0  0  0  0  0  0  0  0  0
   -2.5806    7.4561    0.0000 C   0  0  0  0  0  0  0  0  0  0  0  0
   -3.9450    6.8330    0.0000 C   0  0  0  0  0  0  0  0  0  0  0  0
   -5.1669    5.9629    0.0000 C   0  0  0  0  0  0  0  0  0  0  0  0
   -6.2020    4.8773    0.0000 C   0  0  0  0  0  0  0  0  0  0  0  0
   -7.0130    3.6154    0.0000 C   0  0  0  0  0  0  0  0  0  0  0  0
   -7.5705    2.2229    0.0000 C   0  0  0  0  0  0  0  0  0  0  0  0
   -7.8544    0.7500    0.0000 C   0  0  0  0  0  0  0  0  0  0  0  0
   -7.8544   -0.7500    0.0000 C   0  0  0  0  0  0  0  0  0  0  0  0
   -7.5705   -2.2229    0.0000 C   0  0  0  0  0  0  0  0  0  0  0  0
   -7.0130   -3.6154    0.0000 C   0  0  0  0  0  0  0  0  0  0  0  0
   -6.2020   -4.8773    0.0000 C   0  0  0  0  0  0  0  0  0  0  0  0
   -5.1669   -5.9629    0.0000 C   0  0  0  0  0  0  0  0  0  0  0  0
   -3.9450   -6.8330    0.0000 C   0  0  0  0  0  0  0  0  0  0  0  0
   -2.5806   -7.4561    0.0000 C   0  0  0  0  0  0  0  0  0  0  0  0
   -1.1229   -7.8098    0.0000 C   0  0  0  0  0  0  0  0  0  0  0  0
    0.3754   -7.8811    0.0000 C   0  0  0  0  0  0  0  0  0  0  0  0
    1.8602   -7.6677    0.0000 C   0  0  0  0  0  0  0  0  0  0  0  0
    3.2777   -7.1771    0.0000 C   0  0  0  0  0  0  0  0  0  0  0  0
    4.5767   -6.4271    0.0000 C   0  0  0  0  0  0  0  0  0  0  0  0
    5.7103   -5.4448    0.0000 C   0  0  0  0  0  0  0  0  0  0  0  0
    6.6376   -4.2657    0.0000 C   0  0  0  0  0  0  0  0  0  0  0  0
    7.3249   -2.9324    0.0000 C   0  0  0  0  0  0  0  0  0  0  0  0
    7.7475   -1.4932    0.0000 C   0  0  0  0  0  0  0  0  0  0  0  0
  1  2  1  0
  2  3  1  0
  3  4  1  0
  4  5  2  0
  5  6  1  0
  6  7  2  0
  7  8  1  0
  8  9  2  0
  9 10  1  0
 10 11  2  0
 11 12  1  0
 12 13  2  0
 13 14  1  0
 14 15  2  0
 15 16  1  0
 16 17  2  0
 17 18  1  0
 18 19  2  0
 19 20  1  0
 20 21  1  0
 21 22  1  0
 22 23  1  0
 23 24  1  0
 24 25  1  0
 25 26  1  0
 26 27  1  0
 27 28  1  0
 28 29  1  0
 29 30  1  0
 30 31  1  0
 31 32  1  0
 32 33  1  0
 33 34  1  0
 34  2  1  0
M  END
>  <Title>  (278) 
idAAIXgen7

$$$$

     RDKit          2D

  9  9  0  0  0  0  0  0  0  0999 V2000
    4.2760   -2.5981    0.0000 N   0  0  0  0  0  0  0  0  0  0  0  0
    3.5260   -1.2990    0.0000 C   0  0  0  0  0  0  0  0  0  0  0  0
    2.7760    0.0000    0.0000 C   0  0  0  0  0  0  0  0  0  0  0  0
    3.5260    1.2990    0.0000 O   0  0  0  0  0  0  0  0  0  0  0  0
    1.2760    0.0000    0.0000 N   0  0  0  0  0  0  0  0  0  0  0  0
    0.3943    1.2135    0.0000 C   0  0  0  0  0  0  0  0  0  0  0  0
   -1.0323    0.7500    0.0000 C   0  0  0  0  0  0  0  0  0  0  0  0
   -1.0323   -0.7500    0.0000 C   0  0  0  0  0  0  0  0  0  0  0  0
    0.3943   -1.2135    0.0000 C   0  0  0  0  0  0  0  0  0  0  0  0
  1  2  3  0
  2  3  1  0
  3  4  2  0
  3  5  1  0
  5  6  1  0
  6  7  1  0
  7  8  1  0
  8  9  1  0
  9  5  1  0
M  END
>  <Title>  (279) 
idAAIYgen7

$$$$

     RDKit          2D

 19 20  0  0  0  0  0  0  0  0999 V2000
    0.3207  -11.1638    0.0000 C   0  0  0  0  0  0  0  0  0  0  0  0
    0.4775   -9.6721    0.0000 C   0  0  0  0  0  0  0  0  0  0  0  0
   -0.7360   -8.7904    0.0000 O   0  0  0  0  0  0  0  0  0  0  0  0
    1.8478   -9.0619    0.0000 C   0  0  0  0  0  0  0  0  0  0  0  0
    3.0613   -9.9436    0.0000 O   0  0  0  0  0  0  0  0  0  0  0  0
    2.0046   -7.5702    0.0000 N   0  0  0  0  0  0  0  0  0  0  0  0
    3.3037   -6.8202    0.0000 C   0  0  0  0  0  0  0  0  0  0  0  0
    2.9918   -5.3529    0.0000 C   0  0  0  0  0  0  0  0  0  0  0  0
    1.5000   -5.1962    0.0000 C   0  0  0  0  0  0  0  0  0  0  0  0
    0.7500   -3.8971    0.0000 C   0  0  0  0  0  0  0  0  0  0  0  0
   -0.7500   -3.8971    0.0000 O   0  0  0  0  0  0  0  0  0  0  0  0
    1.5000   -2.5981    0.0000 N   0  0  0  0  0  0  0  0  0  0  0  0
    0.7500   -1.2990    0.0000 C   0  0  0  0  0  0  0  0  0  0  0  0
    1.5000    0.0000    0.0000 N   0  0  0  0  0  0  0  0  0  0  0  0
    0.7500    1.2990    0.0000 N   0  0  0  0  0  0  0  0  0  0  0  0
   -0.7500    1.2990    0.0000 N   0  0  0  0  0  0  0  0  0  0  0  0
   -1.5000    0.0000    0.0000 N   0  0  0  0  0  0  0  0  0  0  0  0
   -0.7500   -1.2990    0.0000 N   0  0  0  0  0  0  0  0  0  0  0  0
    0.8899   -6.5665    0.0000 C   0  0  0  0  0  0  0  0  0  0  0  0
  1  2  1  0
  2  3  2  0
  2  4  1  0
  4  5  2  0
  4  6  1  0
  6  7  1  0
  7  8  1  0
  8  9  1  0
  9 10  1  0
 10 11  2  0
 10 12  1  0
 12 13  1  0
 13 14  2  0
 14 15  1  0
 15 16  2  0
 16 17  1  0
 17 18  2  0
  9 19  1  0
 19  6  1  0
 18 13  1  0
M  END
>  <Title>  (280) 
idAAIZgen7

$$$$

     RDKit          2D

 17 18  0  0  0  0  0  0  0  0999 V2000
    3.5260    1.2990    0.0000 O   0  0  0  0  0  0  0  0  0  0  0  0
    2.7760    0.0000    0.0000 C   0  0  0  0  0  0  0  0  0  0  0  0
    3.5260   -1.2990    0.0000 O   0  0  0  0  0  0  0  0  0  0  0  0
    1.2760    0.0000    0.0000 C   0  0  0  0  0  0  0  0  0  0  0  0
    0.3943    1.2135    0.0000 C   0  0  0  0  0  0  0  0  0  0  0  0
   -1.0323    0.7500    0.0000 C   0  0  0  0  0  0  0  0  0  0  0  0
   -1.0323   -0.7500    0.0000 N   0  0  0  0  0  0  0  0  0  0  0  0
   -2.2458   -1.6317    0.0000 C   0  0  0  0  0  0  0  0  0  0  0  0
   -2.0890   -3.1235    0.0000 O   0  0  0  0  0  0  0  0  0  0  0  0
   -3.6161   -1.0216    0.0000 C   0  0  0  0  0  0  0  0  0  0  0  0
   -4.8297   -1.9033    0.0000 C   0  0  0  0  0  0  0  0  0  0  0  0
   -4.8297   -3.4033    0.0000 C   0  0  0  0  0  0  0  0  0  0  0  0
   -6.2562   -3.8668    0.0000 C   0  0  0  0  0  0  0  0  0  0  0  0
   -7.1379   -2.6533    0.0000 C   0  0  0  0  0  0  0  0  0  0  0  0
   -6.2562   -1.4397    0.0000 C   0  0  0  0  0  0  0  0  0  0  0  0
    0.3943   -1.2135    0.0000 C   0  0  0  0  0  0  0  0  0  0  0  0
    0.8578   -2.6401    0.0000 O   0  0  0  0  0  0  0  0  0  0  0  0
  1  2  2  0
  2  3  1  0
  2  4  1  0
  4  5  1  0
  5  6  1  0
  6  7  1  0
  7  8  1  0
  8  9  2  0
  8 10  1  0
 10 11  1  0
 11 12  2  0
 12 13  1  0
 13 14  1  0
 14 15  2  0
  7 16  1  0
 16 17  2  0
 16  4  1  0
 15 11  1  0
M  END
>  <Title>  (281) 
idAAJAgen7

$$$$

     RDKit          2D

 18 18  0  0  0  0  0  0  0  0999 V2000
    5.5816    0.0000    0.0000 C   0  0  0  0  0  0  0  0  0  0  0  0
    4.0816    0.0000    0.0000 C   0  0  0  0  0  0  0  0  0  0  0  0
    3.8060    1.4745    0.0000 C   0  0  0  0  0  0  0  0  0  0  0  0
    3.0164    2.7498    0.0000 C   0  0  0  0  0  0  0  0  0  0  0  0
    1.8193    3.6537    0.0000 C   0  0  0  0  0  0  0  0  0  0  0  0
    0.3766    4.0642    0.0000 C   0  0  0  0  0  0  0  0  0  0  0  0
   -1.1170    3.9258    0.0000 C   0  0  0  0  0  0  0  0  0  0  0  0
   -2.4597    3.2572    0.0000 C   0  0  0  0  0  0  0  0  0  0  0  0
   -3.4703    2.1487    0.0000 C   0  0  0  0  0  0  0  0  0  0  0  0
   -4.0121    0.7500    0.0000 C   0  0  0  0  0  0  0  0  0  0  0  0
   -4.0121   -0.7500    0.0000 C   0  0  0  0  0  0  0  0  0  0  0  0
   -3.4703   -2.1487    0.0000 C   0  0  0  0  0  0  0  0  0  0  0  0
   -2.4597   -3.2572    0.0000 C   0  0  0  0  0  0  0  0  0  0  0  0
   -1.1170   -3.9258    0.0000 C   0  0  0  0  0  0  0  0  0  0  0  0
    0.3766   -4.0642    0.0000 C   0  0  0  0  0  0  0  0  0  0  0  0
    1.8193   -3.6537    0.0000 C   0  0  0  0  0  0  0  0  0  0  0  0
    3.0164   -2.7498    0.0000 C   0  0  0  0  0  0  0  0  0  0  0  0
    3.8060   -1.4745    0.0000 C   0  0  0  0  0  0  0  0  0  0  0  0
  1  2  1  0
  2  3  1  0
  3  4  1  0
  4  5  2  0
  5  6  1  0
  6  7  2  0
  7  8  1  0
  8  9  2  0
  9 10  1  0
 10 11  1  0
 11 12  1  0
 12 13  1  0
 13 14  1  0
 14 15  1  0
 15 16  1  0
 16 17  1  0
 17 18  1  0
 18  2  1  0
M  END
>  <Title>  (282) 
idAAJBgen7

$$$$

     RDKit          2D

 31 34  0  0  0  0  0  0  0  0999 V2000
    3.2286   -0.0000    0.0000 C   0  0  0  0  0  0  0  0  0  0  0  0
    1.7286    0.0000    0.0000 C   0  0  0  0  0  0  0  0  0  0  0  0
    1.0777    1.3515    0.0000 C   0  0  0  0  0  0  0  0  0  0  0  0
   -0.3846    1.6852    0.0000 C   0  0  0  0  0  0  0  0  0  0  0  0
   -1.5574    0.7500    0.0000 C   0  0  0  0  0  0  0  0  0  0  0  0
   -1.5574   -0.7500    0.0000 C   0  0  0  0  0  0  0  0  0  0  0  0
   -0.3846   -1.6852    0.0000 C   0  0  0  0  0  0  0  0  0  0  0  0
   -0.7184   -3.1476    0.0000 C   0  0  0  0  0  0  0  0  0  0  0  0
   -2.1518   -3.5898    0.0000 C   0  0  0  0  0  0  0  0  0  0  0  0
   -3.2514   -2.5695    0.0000 O   0  0  0  0  0  0  0  0  0  0  0  0
   -2.4856   -5.0522    0.0000 N   0  0  0  0  0  0  0  0  0  0  0  0
   -3.9189   -5.4943    0.0000 C   0  0  0  0  0  0  0  0  0  0  0  0
   -5.0185   -4.4740    0.0000 N   0  0  0  0  0  0  0  0  0  0  0  0
   -6.4519   -4.9162    0.0000 N   0  0  0  0  0  0  0  0  0  0  0  0
   -6.7856   -6.3785    0.0000 C   0  0  0  0  0  0  0  0  0  0  0  0
   -8.2190   -6.8207    0.0000 N   0  0  0  0  0  0  0  0  0  0  0  0
   -5.6861   -7.3988    0.0000 C   0  0  0  0  0  0  0  0  0  0  0  0
   -4.2527   -6.9567    0.0000 C   0  0  0  0  0  0  0  0  0  0  0  0
   -3.1531   -7.9769    0.0000 C   0  0  0  0  0  0  0  0  0  0  0  0
   -1.7198   -7.5348    0.0000 C   0  0  0  0  0  0  0  0  0  0  0  0
   -0.6202   -8.5551    0.0000 C   0  0  0  0  0  0  0  0  0  0  0  0
   -0.9540  -10.0175    0.0000 C   0  0  0  0  0  0  0  0  0  0  0  0
   -2.3873  -10.4596    0.0000 C   0  0  0  0  0  0  0  0  0  0  0  0
   -3.4869   -9.4393    0.0000 C   0  0  0  0  0  0  0  0  0  0  0  0
   -4.9203   -9.8815    0.0000 C   0  0  0  0  0  0  0  0  0  0  0  0
   -5.2541  -11.3439    0.0000 C   0  0  0  0  0  0  0  0  0  0  0  0
   -6.6874  -11.7860    0.0000 C   0  0  0  0  0  0  0  0  0  0  0  0
   -7.7870  -10.7657    0.0000 C   0  0  0  0  0  0  0  0  0  0  0  0
   -7.4532   -9.3033    0.0000 C   0  0  0  0  0  0  0  0  0  0  0  0
   -6.0198   -8.8612    0.0000 C   0  0  0  0  0  0  0  0  0  0  0  0
    1.0777   -1.3515    0.0000 C   0  0  0  0  0  0  0  0  0  0  0  0
  1  2  1  0
  2  3  1  0
  3  4  2  0
  4  5  1  0
  5  6  1  0
  6  7  1  0
  7  8  1  0
  8  9  1  0
  9 10  2  0
  9 11  1  0
 11 12  1  0
 12 13  2  0
 13 14  1  0
 14 15  2  0
 15 16  1  0
 15 17  1  0
 17 18  2  0
 18 19  1  0
 19 20  2  0
 20 21  1  0
 21 22  2  0
 22 23  1  0
 23 24  2  0
 24 25  1  0
 25 26  2  0
 26 27  1  0
 27 28  2  0
 28 29  1  0
 29 30  2  0
  7 31  1  0
 31  2  1  0
 18 12  1  0
 24 19  1  0
 30 25  1  0
M  END
>  <Title>  (283) 
idAAJCgen7

$$$$

     RDKit          2D

  7  7  0  0  0  0  0  0  0  0999 V2000
    3.0000    0.0000    0.0000 C   0  0  0  0  0  0  0  0  0  0  0  0
    1.5000    0.0000    0.0000 C   0  0  0  0  0  0  0  0  0  0  0  0
    0.7500   -1.2990    0.0000 C   0  0  0  0  0  0  0  0  0  0  0  0
   -0.7500   -1.2990    0.0000 C   0  0  0  0  0  0  0  0  0  0  0  0
   -1.5000    0.0000    0.0000 N   0  0  0  0  0  0  0  0  0  0  0  0
   -0.7500    1.2990    0.0000 C   0  0  0  0  0  0  0  0  0  0  0  0
    0.7500    1.2990    0.0000 C   0  0  0  0  0  0  0  0  0  0  0  0
  1  2  1  0
  2  3  1  0
  3  4  1  0
  4  5  2  0
  5  6  1  0
  6  7  1  0
  7  2  1  0
M  END
>  <Title>  (284) 
idAAJDgen7

$$$$

     RDKit          2D

 65 65  0  0  0  0  0  0  0  0999 V2000
   15.5237    0.0000    0.0000 C   0  0  0  0  0  0  0  0  0  0  0  0
   15.4512    1.4982    0.0000 C   0  0  0  0  0  0  0  0  0  0  0  0
   15.2344    2.9825    0.0000 C   0  0  0  0  0  0  0  0  0  0  0  0
   14.8755    4.4389    0.0000 C   0  0  0  0  0  0  0  0  0  0  0  0
   14.3776    5.8539    0.0000 C   0  0  0  0  0  0  0  0  0  0  0  0
   13.7455    7.2142    0.0000 C   0  0  0  0  0  0  0  0  0  0  0  0
   12.9851    8.5072    0.0000 C   0  0  0  0  0  0  0  0  0  0  0  0
   12.1034    9.7207    0.0000 C   0  0  0  0  0  0  0  0  0  0  0  0
   11.1087   10.8434    0.0000 C   0  0  0  0  0  0  0  0  0  0  0  0
   10.0103   11.8650    0.0000 C   0  0  0  0  0  0  0  0  0  0  0  0
    8.8184   12.7757    0.0000 C   0  0  0  0  0  0  0  0  0  0  0  0
    7.5442   13.5672    0.0000 C   0  0  0  0  0  0  0  0  0  0  0  0
    6.1996   14.2320    0.0000 C   0  0  0  0  0  0  0  0  0  0  0  0
    4.7971   14.7639    0.0000 C   0  0  0  0  0  0  0  0  0  0  0  0
    3.3498   15.1579    0.0000 C   0  0  0  0  0  0  0  0  0  0  0  0
    1.8712   15.4105    0.0000 C   0  0  0  0  0  0  0  0  0  0  0  0
    0.3751   15.5191    0.0000 C   0  0  0  0  0  0  0  0  0  0  0  0
   -1.1245   15.4829    0.0000 C   0  0  0  0  0  0  0  0  0  0  0  0
   -2.6135   15.3021    0.0000 C   0  0  0  0  0  0  0  0  0  0  0  0
   -4.0782   14.9784    0.0000 C   0  0  0  0  0  0  0  0  0  0  0  0
   -5.5048   14.5149    0.0000 C   0  0  0  0  0  0  0  0  0  0  0  0
   -6.8800   13.9158    0.0000 C   0  0  0  0  0  0  0  0  0  0  0  0
   -8.1909   13.1868    0.0000 C   0  0  0  0  0  0  0  0  0  0  0  0
   -9.4254   12.3347    0.0000 C   0  0  0  0  0  0  0  0  0  0  0  0
  -10.5719   11.3675    0.0000 C   0  0  0  0  0  0  0  0  0  0  0  0
  -11.6196   10.2941    0.0000 C   0  0  0  0  0  0  0  0  0  0  0  0
  -12.5589    9.1246    0.0000 C   0  0  0  0  0  0  0  0  0  0  0  0
  -13.3809    7.8699    0.0000 C   0  0  0  0  0  0  0  0  0  0  0  0
  -14.0780    6.5417    0.0000 C   0  0  0  0  0  0  0  0  0  0  0  0
  -14.6436    5.1524    0.0000 C   0  0  0  0  0  0  0  0  0  0  0  0
  -15.0726    3.7151    0.0000 C   0  0  0  0  0  0  0  0  0  0  0  0
  -15.3608    2.2430    0.0000 C   0  0  0  0  0  0  0  0  0  0  0  0
  -15.5055    0.7500    0.0000 C   0  0  0  0  0  0  0  0  0  0  0  0
  -15.5055   -0.7500    0.0000 C   0  0  0  0  0  0  0  0  0  0  0  0
  -15.3608   -2.2430    0.0000 C   0  0  0  0  0  0  0  0  0  0  0  0
  -15.0726   -3.7151    0.0000 C   0  0  0  0  0  0  0  0  0  0  0  0
  -14.6436   -5.1524    0.0000 C   0  0  0  0  0  0  0  0  0  0  0  0
  -14.0780   -6.5417    0.0000 C   0  0  0  0  0  0  0  0  0  0  0  0
  -13.3809   -7.8699    0.0000 C   0  0  0  0  0  0  0  0  0  0  0  0
  -12.5589   -9.1246    0.0000 C   0  0  0  0  0  0  0  0  0  0  0  0
  -11.6196  -10.2941    0.0000 C   0  0  0  0  0  0  0  0  0  0  0  0
  -10.5719  -11.3675    0.0000 C   0  0  0  0  0  0  0  0  0  0  0  0
   -9.4254  -12.3347    0.0000 C   0  0  0  0  0  0  0  0  0  0  0  0
   -8.1909  -13.1868    0.0000 C   0  0  0  0  0  0  0  0  0  0  0  0
   -6.8800  -13.9158    0.0000 C   0  0  0  0  0  0  0  0  0  0  0  0
   -5.5048  -14.5149    0.0000 C   0  0  0  0  0  0  0  0  0  0  0  0
   -4.0782  -14.9784    0.0000 C   0  0  0  0  0  0  0  0  0  0  0  0
   -2.6135  -15.3021    0.0000 C   0  0  0  0  0  0  0  0  0  0  0  0
   -1.1245  -15.4829    0.0000 C   0  0  0  0  0  0  0  0  0  0  0  0
    0.3751  -15.5191    0.0000 C   0  0  0  0  0  0  0  0  0  0  0  0
    1.8712  -15.4105    0.0000 C   0  0  0  0  0  0  0  0  0  0  0  0
    3.3498  -15.1579    0.0000 C   0  0  0  0  0  0  0  0  0  0  0  0
    4.7971  -14.7639    0.0000 C   0  0  0  0  0  0  0  0  0  0  0  0
    6.1996  -14.2320    0.0000 C   0  0  0  0  0  0  0  0  0  0  0  0
    7.5442  -13.5672    0.0000 C   0  0  0  0  0  0  0  0  0  0  0  0
    8.8184  -12.7757    0.0000 C   0  0  0  0  0  0  0  0  0  0  0  0
   10.0103  -11.8650    0.0000 C   0  0  0  0  0  0  0  0  0  0  0  0
   11.1087  -10.8434    0.0000 C   0  0  0  0  0  0  0  0  0  0  0  0
   12.1034   -9.7207    0.0000 C   0  0  0  0  0  0  0  0  0  0  0  0
   12.9851   -8.5072    0.0000 C   0  0  0  0  0  0  0  0  0  0  0  0
   13.7455   -7.2142    0.0000 C   0  0  0  0  0  0  0  0  0  0  0  0
   14.3776   -5.8539    0.0000 C   0  0  0  0  0  0  0  0  0  0  0  0
   14.8755   -4.4389    0.0000 C   0  0  0  0  0  0  0  0  0  0  0  0
   15.2344   -2.9825    0.0000 C   0  0  0  0  0  0  0  0  0  0  0  0
   15.4512   -1.4982    0.0000 C   0  0  0  0  0  0  0  0  0  0  0  0
  1  2  2  0
  2  3  1  0
  3  4  1  0
  4  5  1  0
  5  6  1  0
  6  7  1  0
  7  8  1  0
  8  9  1  0
  9 10  1  0
 10 11  1  0
 11 12  1  0
 12 13  1  0
 13 14  1  0
 14 15  1  0
 15 16  1  0
 16 17  1  0
 17 18  1  0
 18 19  1  0
 19 20  1  0
 20 21  1  0
 21 22  1  0
 22 23  1  0
 23 24  1  0
 24 25  1  0
 25 26  1  0
 26 27  1  0
 27 28  1  0
 28 29  1  0
 29 30  1  0
 30 31  1  0
 31 32  1  0
 32 33  1  0
 33 34  1  0
 34 35  1  0
 35 36  1  0
 36 37  1  0
 37 38  1  0
 38 39  1  0
 39 40  1  0
 40 41  1  0
 41 42  1  0
 42 43  1  0
 43 44  1  0
 44 45  1  0
 45 46  1  0
 46 47  1  0
 47 48  1  0
 48 49  1  0
 49 50  1  0
 50 51  1  0
 51 52  1  0
 52 53  1  0
 53 54  1  0
 54 55  1  0
 55 56  1  0
 56 57  1  0
 57 58  1  0
 58 59  1  0
 59 60  1  0
 60 61  1  0
 61 62  1  0
 62 63  1  0
 63 64  1  0
 64 65  1  0
 65  1  1  0
M  END
>  <Title>  (285) 
idAAJEgen7

$$$$

     RDKit          2D

 69 69  0  0  0  0  0  0  0  0999 V2000
   16.4782    0.0000    0.0000 C   0  0  0  0  0  0  0  0  0  0  0  0
   16.4100    1.4984    0.0000 C   0  0  0  0  0  0  0  0  0  0  0  0
   16.2057    2.9845    0.0000 C   0  0  0  0  0  0  0  0  0  0  0  0
   15.8672    4.4458    0.0000 C   0  0  0  0  0  0  0  0  0  0  0  0
   15.3972    5.8702    0.0000 C   0  0  0  0  0  0  0  0  0  0  0  0
   14.7996    7.2460    0.0000 C   0  0  0  0  0  0  0  0  0  0  0  0
   14.0793    8.5618    0.0000 C   0  0  0  0  0  0  0  0  0  0  0  0
   13.2424    9.8067    0.0000 C   0  0  0  0  0  0  0  0  0  0  0  0
   12.2958   10.9702    0.0000 C   0  0  0  0  0  0  0  0  0  0  0  0
   11.2473   12.0429    0.0000 C   0  0  0  0  0  0  0  0  0  0  0  0
   10.1056   13.0158    0.0000 C   0  0  0  0  0  0  0  0  0  0  0  0
    8.8801   13.8808    0.0000 C   0  0  0  0  0  0  0  0  0  0  0  0
    7.5811   14.6308    0.0000 C   0  0  0  0  0  0  0  0  0  0  0  0
    6.2192   15.2595    0.0000 C   0  0  0  0  0  0  0  0  0  0  0  0
    4.8058   15.7619    0.0000 C   0  0  0  0  0  0  0  0  0  0  0  0
    3.3526   16.1336    0.0000 C   0  0  0  0  0  0  0  0  0  0  0  0
    1.8716   16.3716    0.0000 C   0  0  0  0  0  0  0  0  0  0  0  0
    0.3751   16.4740    0.0000 C   0  0  0  0  0  0  0  0  0  0  0  0
   -1.1245   16.4398    0.0000 C   0  0  0  0  0  0  0  0  0  0  0  0
   -2.6148   16.2694    0.0000 C   0  0  0  0  0  0  0  0  0  0  0  0
   -4.0834   15.9643    0.0000 C   0  0  0  0  0  0  0  0  0  0  0  0
   -5.5182   15.5268    0.0000 C   0  0  0  0  0  0  0  0  0  0  0  0
   -6.9073   14.9607    0.0000 C   0  0  0  0  0  0  0  0  0  0  0  0
   -8.2391   14.2706    0.0000 C   0  0  0  0  0  0  0  0  0  0  0  0
   -9.5027   13.4622    0.0000 C   0  0  0  0  0  0  0  0  0  0  0  0
  -10.6875   12.5423    0.0000 C   0  0  0  0  0  0  0  0  0  0  0  0
  -11.7837   11.5185    0.0000 C   0  0  0  0  0  0  0  0  0  0  0  0
  -12.7823   10.3992    0.0000 C   0  0  0  0  0  0  0  0  0  0  0  0
  -13.6750    9.1938    0.0000 C   0  0  0  0  0  0  0  0  0  0  0  0
  -14.4544    7.9121    0.0000 C   0  0  0  0  0  0  0  0  0  0  0  0
  -15.1140    6.5649    0.0000 C   0  0  0  0  0  0  0  0  0  0  0  0
  -15.6484    5.1634    0.0000 C   0  0  0  0  0  0  0  0  0  0  0  0
  -16.0531    3.7190    0.0000 C   0  0  0  0  0  0  0  0  0  0  0  0
  -16.3248    2.2438    0.0000 C   0  0  0  0  0  0  0  0  0  0  0  0
  -16.4612    0.7500    0.0000 C   0  0  0  0  0  0  0  0  0  0  0  0
  -16.4612   -0.7500    0.0000 C   0  0  0  0  0  0  0  0  0  0  0  0
  -16.3248   -2.2438    0.0000 C   0  0  0  0  0  0  0  0  0  0  0  0
  -16.0531   -3.7190    0.0000 C   0  0  0  0  0  0  0  0  0  0  0  0
  -15.6484   -5.1634    0.0000 C   0  0  0  0  0  0  0  0  0  0  0  0
  -15.1140   -6.5649    0.0000 C   0  0  0  0  0  0  0  0  0  0  0  0
  -14.4544   -7.9121    0.0000 C   0  0  0  0  0  0  0  0  0  0  0  0
  -13.6750   -9.1938    0.0000 C   0  0  0  0  0  0  0  0  0  0  0  0
  -12.7823  -10.3992    0.0000 C   0  0  0  0  0  0  0  0  0  0  0  0
  -11.7837  -11.5185    0.0000 C   0  0  0  0  0  0  0  0  0  0  0  0
  -10.6875  -12.5423    0.0000 C   0  0  0  0  0  0  0  0  0  0  0  0
   -9.5027  -13.4622    0.0000 C   0  0  0  0  0  0  0  0  0  0  0  0
   -8.2391  -14.2706    0.0000 C   0  0  0  0  0  0  0  0  0  0  0  0
   -6.9073  -14.9607    0.0000 C   0  0  0  0  0  0  0  0  0  0  0  0
   -5.5182  -15.5268    0.0000 C   0  0  0  0  0  0  0  0  0  0  0  0
   -4.0834  -15.9643    0.0000 C   0  0  0  0  0  0  0  0  0  0  0  0
   -2.6148  -16.2694    0.0000 C   0  0  0  0  0  0  0  0  0  0  0  0
   -1.1245  -16.4398    0.0000 C   0  0  0  0  0  0  0  0  0  0  0  0
    0.3751  -16.4740    0.0000 C   0  0  0  0  0  0  0  0  0  0  0  0
    1.8716  -16.3716    0.0000 C   0  0  0  0  0  0  0  0  0  0  0  0
    3.3526  -16.1336    0.0000 C   0  0  0  0  0  0  0  0  0  0  0  0
    4.8058  -15.7619    0.0000 C   0  0  0  0  0  0  0  0  0  0  0  0
    6.2192  -15.2595    0.0000 C   0  0  0  0  0  0  0  0  0  0  0  0
    7.5811  -14.6308    0.0000 C   0  0  0  0  0  0  0  0  0  0  0  0
    8.8801  -13.8808    0.0000 C   0  0  0  0  0  0  0  0  0  0  0  0
   10.1056  -13.0158    0.0000 C   0  0  0  0  0  0  0  0  0  0  0  0
   11.2473  -12.0429    0.0000 C   0  0  0  0  0  0  0  0  0  0  0  0
   12.2958  -10.9702    0.0000 C   0  0  0  0  0  0  0  0  0  0  0  0
   13.2424   -9.8067    0.0000 C   0  0  0  0  0  0  0  0  0  0  0  0
   14.0793   -8.5618    0.0000 C   0  0  0  0  0  0  0  0  0  0  0  0
   14.7996   -7.2460    0.0000 C   0  0  0  0  0  0  0  0  0  0  0  0
   15.3972   -5.8702    0.0000 C   0  0  0  0  0  0  0  0  0  0  0  0
   15.8672   -4.4458    0.0000 C   0  0  0  0  0  0  0  0  0  0  0  0
   16.2057   -2.9845    0.0000 C   0  0  0  0  0  0  0  0  0  0  0  0
   16.4100   -1.4984    0.0000 C   0  0  0  0  0  0  0  0  0  0  0  0
  1  2  1  0
  2  3  1  0
  3  4  1  0
  4  5  1  0
  5  6  1  0
  6  7  1  0
  7  8  1  0
  8  9  1  0
  9 10  1  0
 10 11  1  0
 11 12  1  0
 12 13  1  0
 13 14  1  0
 14 15  1  0
 15 16  1  0
 16 17  1  0
 17 18  1  0
 18 19  1  0
 19 20  1  0
 20 21  1  0
 21 22  1  0
 22 23  1  0
 23 24  1  0
 24 25  1  0
 25 26  1  0
 26 27  1  0
 27 28  1  0
 28 29  1  0
 29 30  1  0
 30 31  1  0
 31 32  1  0
 32 33  1  0
 33 34  1  0
 34 35  1  0
 35 36  1  0
 36 37  1  0
 37 38  1  0
 38 39  1  0
 39 40  1  0
 40 41  1  0
 41 42  1  0
 42 43  1  0
 43 44  1  0
 44 45  1  0
 45 46  1  0
 46 47  1  0
 47 48  1  0
 48 49  1  0
 49 50  1  0
 50 51  1  0
 51 52  1  0
 52 53  1  0
 53 54  1  0
 54 55  1  0
 55 56  1  0
 56 57  1  0
 57 58  1  0
 58 59  1  0
 59 60  1  0
 60 61  1  0
 61 62  1  0
 62 63  1  0
 63 64  1  0
 64 65  1  0
 65 66  1  0
 66 67  1  0
 67 68  1  0
 68 69  1  0
 69  1  1  0
M  END
>  <Title>  (286) 
idAAJFgen7

$$$$

     RDKit          2D

  8  8  0  0  0  0  0  0  0  0999 V2000
    2.7760    0.0000    0.0000 C   0  0  0  0  0  0  0  0  0  0  0  0
    1.2760    0.0000    0.0000 C   0  0  0  0  0  0  0  0  0  0  0  0
    0.3943    1.2135    0.0000 C   0  0  0  0  0  0  0  0  0  0  0  0
   -1.0323    0.7500    0.0000 C   0  0  0  0  0  0  0  0  0  0  0  0
   -1.0323   -0.7500    0.0000 C   0  0  0  0  0  0  0  0  0  0  0  0
   -2.2458   -1.6317    0.0000 O   0  0  0  0  0  0  0  0  0  0  0  0
    0.3943   -1.2135    0.0000 C   0  0  0  0  0  0  0  0  0  0  0  0
    0.8578   -2.6401    0.0000 O   0  0  0  0  0  0  0  0  0  0  0  0
  1  2  1  0
  2  3  1  0
  3  4  1  0
  4  5  1  0
  5  6  1  0
  5  7  1  0
  7  8  2  0
  7  2  1  0
M  END
>  <Title>  (287) 
idAAJGgen7

$$$$

     RDKit          2D

 99 99  0  0  0  0  0  0  0  0999 V2000
   24.8998    0.0000    0.0000 O   0  0  0  0  0  0  0  0  0  0  0  0
   23.3998    0.0000    0.0000 C   0  0  0  0  0  0  0  0  0  0  0  0
   23.3517   -1.4992    0.0000 C   0  0  0  0  0  0  0  0  0  0  0  0
   23.2077   -2.9923    0.0000 C   0  0  0  0  0  0  0  0  0  0  0  0
   22.9683   -4.4731    0.0000 C   0  0  0  0  0  0  0  0  0  0  0  0
   22.6345   -5.9355    0.0000 C   0  0  0  0  0  0  0  0  0  0  0  0
   22.2077   -7.3735    0.0000 C   0  0  0  0  0  0  0  0  0  0  0  0
   21.6897   -8.7812    0.0000 C   0  0  0  0  0  0  0  0  0  0  0  0
   21.0825  -10.1528    0.0000 C   0  0  0  0  0  0  0  0  0  0  0  0
   20.3887  -11.4827    0.0000 C   0  0  0  0  0  0  0  0  0  0  0  0
   19.6111  -12.7654    0.0000 C   0  0  0  0  0  0  0  0  0  0  0  0
   18.7529  -13.9957    0.0000 C   0  0  0  0  0  0  0  0  0  0  0  0
   17.8177  -15.1684    0.0000 C   0  0  0  0  0  0  0  0  0  0  0  0
   16.8092  -16.2788    0.0000 C   0  0  0  0  0  0  0  0  0  0  0  0
   15.7317  -17.3223    0.0000 C   0  0  0  0  0  0  0  0  0  0  0  0
   14.5895  -18.2947    0.0000 C   0  0  0  0  0  0  0  0  0  0  0  0
   13.3874  -19.1919    0.0000 C   0  0  0  0  0  0  0  0  0  0  0  0
   12.1303  -20.0102    0.0000 C   0  0  0  0  0  0  0  0  0  0  0  0
   10.8233  -20.7462    0.0000 C   0  0  0  0  0  0  0  0  0  0  0  0
    9.4718  -21.3971    0.0000 C   0  0  0  0  0  0  0  0  0  0  0  0
    8.0815  -21.9600    0.0000 C   0  0  0  0  0  0  0  0  0  0  0  0
    6.6579  -22.4326    0.0000 C   0  0  0  0  0  0  0  0  0  0  0  0
    5.2069  -22.8131    0.0000 C   0  0  0  0  0  0  0  0  0  0  0  0
    3.7346  -23.0998    0.0000 C   0  0  0  0  0  0  0  0  0  0  0  0
    2.2469  -23.2917    0.0000 C   0  0  0  0  0  0  0  0  0  0  0  0
    0.7500  -23.3878    0.0000 C   0  0  0  0  0  0  0  0  0  0  0  0
   -0.7500  -23.3878    0.0000 C   0  0  0  0  0  0  0  0  0  0  0  0
   -2.2469  -23.2917    0.0000 C   0  0  0  0  0  0  0  0  0  0  0  0
   -3.7346  -23.0998    0.0000 C   0  0  0  0  0  0  0  0  0  0  0  0
   -5.2069  -22.8131    0.0000 C   0  0  0  0  0  0  0  0  0  0  0  0
   -6.6579  -22.4326    0.0000 C   0  0  0  0  0  0  0  0  0  0  0  0
   -8.0815  -21.9600    0.0000 C   0  0  0  0  0  0  0  0  0  0  0  0
   -9.4718  -21.3971    0.0000 C   0  0  0  0  0  0  0  0  0  0  0  0
  -10.8233  -20.7462    0.0000 C   0  0  0  0  0  0  0  0  0  0  0  0
  -12.1303  -20.0102    0.0000 C   0  0  0  0  0  0  0  0  0  0  0  0
  -13.3874  -19.1919    0.0000 C   0  0  0  0  0  0  0  0  0  0  0  0
  -14.5895  -18.2947    0.0000 C   0  0  0  0  0  0  0  0  0  0  0  0
  -15.7317  -17.3223    0.0000 C   0  0  0  0  0  0  0  0  0  0  0  0
  -16.8092  -16.2788    0.0000 C   0  0  0  0  0  0  0  0  0  0  0  0
  -17.8177  -15.1684    0.0000 C   0  0  0  0  0  0  0  0  0  0  0  0
  -18.7529  -13.9957    0.0000 C   0  0  0  0  0  0  0  0  0  0  0  0
  -19.6111  -12.7654    0.0000 C   0  0  0  0  0  0  0  0  0  0  0  0
  -20.3887  -11.4827    0.0000 C   0  0  0  0  0  0  0  0  0  0  0  0
  -21.0825  -10.1528    0.0000 C   0  0  0  0  0  0  0  0  0  0  0  0
  -21.6897   -8.7812    0.0000 C   0  0  0  0  0  0  0  0  0  0  0  0
  -22.2077   -7.3735    0.0000 C   0  0  0  0  0  0  0  0  0  0  0  0
  -22.6345   -5.9355    0.0000 C   0  0  0  0  0  0  0  0  0  0  0  0
  -22.9683   -4.4731    0.0000 C   0  0  0  0  0  0  0  0  0  0  0  0
  -23.2077   -2.9923    0.0000 C   0  0  0  0  0  0  0  0  0  0  0  0
  -23.3517   -1.4992    0.0000 C   0  0  0  0  0  0  0  0  0  0  0  0
  -23.3998    0.0000    0.0000 C   0  0  0  0  0  0  0  0  0  0  0  0
  -23.3517    1.4992    0.0000 C   0  0  0  0  0  0  0  0  0  0  0  0
  -23.2077    2.9923    0.0000 C   0  0  0  0  0  0  0  0  0  0  0  0
  -22.9683    4.4731    0.0000 C   0  0  0  0  0  0  0  0  0  0  0  0
  -22.6345    5.9355    0.0000 C   0  0  0  0  0  0  0  0  0  0  0  0
  -22.2077    7.3735    0.0000 C   0  0  0  0  0  0  0  0  0  0  0  0
  -21.6897    8.7812    0.0000 C   0  0  0  0  0  0  0  0  0  0  0  0
  -21.0825   10.1528    0.0000 C   0  0  0  0  0  0  0  0  0  0  0  0
  -20.3887   11.4827    0.0000 C   0  0  0  0  0  0  0  0  0  0  0  0
  -19.6111   12.7654    0.0000 C   0  0  0  0  0  0  0  0  0  0  0  0
  -18.7529   13.9957    0.0000 C   0  0  0  0  0  0  0  0  0  0  0  0
  -17.8177   15.1684    0.0000 C   0  0  0  0  0  0  0  0  0  0  0  0
  -16.8092   16.2788    0.0000 C   0  0  0  0  0  0  0  0  0  0  0  0
  -15.7317   17.3223    0.0000 C   0  0  0  0  0  0  0  0  0  0  0  0
  -14.5895   18.2947    0.0000 C   0  0  0  0  0  0  0  0  0  0  0  0
  -13.3874   19.1919    0.0000 C   0  0  0  0  0  0  0  0  0  0  0  0
  -12.1303   20.0102    0.0000 C   0  0  0  0  0  0  0  0  0  0  0  0
  -10.8233   20.7462    0.0000 C   0  0  0  0  0  0  0  0  0  0  0  0
   -9.4718   21.3971    0.0000 C   0  0  0  0  0  0  0  0  0  0  0  0
   -8.0815   21.9600    0.0000 C   0  0  0  0  0  0  0  0  0  0  0  0
   -6.6579   22.4326    0.0000 C   0  0  0  0  0  0  0  0  0  0  0  0
   -5.2069   22.8131    0.0000 C   0  0  0  0  0  0  0  0  0  0  0  0
   -3.7346   23.0998    0.0000 C   0  0  0  0  0  0  0  0  0  0  0  0
   -2.2469   23.2917    0.0000 C   0  0  0  0  0  0  0  0  0  0  0  0
   -0.7500   23.3878    0.0000 C   0  0  0  0  0  0  0  0  0  0  0  0
    0.7500   23.3878    0.0000 C   0  0  0  0  0  0  0  0  0  0  0  0
    2.2469   23.2917    0.0000 C   0  0  0  0  0  0  0  0  0  0  0  0
    3.7346   23.0998    0.0000 C   0  0  0  0  0  0  0  0  0  0  0  0
    5.2069   22.8131    0.0000 C   0  0  0  0  0  0  0  0  0  0  0  0
    6.6579   22.4326    0.0000 C   0  0  0  0  0  0  0  0  0  0  0  0
    8.0815   21.9600    0.0000 C   0  0  0  0  0  0  0  0  0  0  0  0
    9.4718   21.3971    0.0000 C   0  0  0  0  0  0  0  0  0  0  0  0
   10.8233   20.7462    0.0000 C   0  0  0  0  0  0  0  0  0  0  0  0
   12.1303   20.0102    0.0000 C   0  0  0  0  0  0  0  0  0  0  0  0
   13.3874   19.1919    0.0000 C   0  0  0  0  0  0  0  0  0  0  0  0
   14.5895   18.2947    0.0000 C   0  0  0  0  0  0  0  0  0  0  0  0
   15.7317   17.3223    0.0000 C   0  0  0  0  0  0  0  0  0  0  0  0
   16.8092   16.2788    0.0000 C   0  0  0  0  0  0  0  0  0  0  0  0
   17.8177   15.1684    0.0000 C   0  0  0  0  0  0  0  0  0  0  0  0
   18.7529   13.9957    0.0000 C   0  0  0  0  0  0  0  0  0  0  0  0
   19.6111   12.7654    0.0000 C   0  0  0  0  0  0  0  0  0  0  0  0
   20.3887   11.4827    0.0000 C   0  0  0  0  0  0  0  0  0  0  0  0
   21.0825   10.1528    0.0000 C   0  0  0  0  0  0  0  0  0  0  0  0
   21.6897    8.7812    0.0000 C   0  0  0  0  0  0  0  0  0  0  0  0
   22.2077    7.3735    0.0000 C   0  0  0  0  0  0  0  0  0  0  0  0
   22.6345    5.9355    0.0000 C   0  0  0  0  0  0  0  0  0  0  0  0
   22.9683    4.4731    0.0000 C   0  0  0  0  0  0  0  0  0  0  0  0
   23.2077    2.9923    0.0000 C   0  0  0  0  0  0  0  0  0  0  0  0
   23.3517    1.4992    0.0000 C   0  0  0  0  0  0  0  0  0  0  0  0
  1  2  1  0
  2  3  1  0
  3  4  1  0
  4  5  1  0
  5  6  1  0
  6  7  1  0
  7  8  1  0
  8  9  1  0
  9 10  1  0
 10 11  1  0
 11 12  1  0
 12 13  1  0
 13 14  1  0
 14 15  1  0
 15 16  1  0
 16 17  1  0
 17 18  1  0
 18 19  1  0
 19 20  1  0
 20 21  1  0
 21 22  1  0
 22 23  1  0
 23 24  1  0
 24 25  1  0
 25 26  1  0
 26 27  1  0
 27 28  1  0
 28 29  1  0
 29 30  1  0
 30 31  1  0
 31 32  1  0
 32 33  1  0
 33 34  1  0
 34 35  1  0
 35 36  1  0
 36 37  1  0
 37 38  1  0
 38 39  1  0
 39 40  1  0
 40 41  1  0
 41 42  1  0
 42 43  1  0
 43 44  1  0
 44 45  1  0
 45 46  1  0
 46 47  1  0
 47 48  1  0
 48 49  1  0
 49 50  1  0
 50 51  1  0
 51 52  1  0
 52 53  1  0
 53 54  1  0
 54 55  1  0
 55 56  1  0
 56 57  1  0
 57 58  1  0
 58 59  1  0
 59 60  1  0
 60 61  1  0
 61 62  1  0
 62 63  1  0
 63 64  1  0
 64 65  1  0
 65 66  1  0
 66 67  1  0
 67 68  1  0
 68 69  1  0
 69 70  1  0
 70 71  1  0
 71 72  1  0
 72 73  1  0
 73 74  1  0
 74 75  1  0
 75 76  1  0
 76 77  1  0
 77 78  1  0
 78 79  1  0
 79 80  1  0
 80 81  1  0
 81 82  1  0
 82 83  1  0
 83 84  1  0
 84 85  1  0
 85 86  1  0
 86 87  1  0
 87 88  1  0
 88 89  1  0
 89 90  1  0
 90 91  1  0
 91 92  1  0
 92 93  1  0
 93 94  1  0
 94 95  1  0
 95 96  1  0
 96 97  1  0
 97 98  1  0
 98 99  1  0
 99  2  1  0
M  END
>  <Title>  (288) 
idAAJHgen7

$$$$

     RDKit          2D

 23 25  0  0  0  0  0  0  0  0999 V2000
   -3.1965   -1.7857    0.0000 C   0  0  0  0  0  0  0  0  0  0  0  0
   -1.8107   -2.3597    0.0000 C   0  0  0  0  0  0  0  0  0  0  0  0
   -1.8107   -3.8597    0.0000 C   0  0  0  0  0  0  0  0  0  0  0  0
   -0.7500   -4.9204    0.0000 C   0  0  0  0  0  0  0  0  0  0  0  0
    0.7500   -4.9204    0.0000 C   0  0  0  0  0  0  0  0  0  0  0  0
    1.3240   -6.3062    0.0000 C   0  0  0  0  0  0  0  0  0  0  0  0
    2.8112   -6.5020    0.0000 O   0  0  0  0  0  0  0  0  0  0  0  0
    0.4109   -7.4962    0.0000 N   0  0  0  0  0  0  0  0  0  0  0  0
    0.9849   -8.8820    0.0000 C   0  0  0  0  0  0  0  0  0  0  0  0
    0.0718  -10.0721    0.0000 N   0  0  0  0  0  0  0  0  0  0  0  0
    0.6458  -11.4579    0.0000 N   0  0  0  0  0  0  0  0  0  0  0  0
    2.1330  -11.6537    0.0000 N   0  0  0  0  0  0  0  0  0  0  0  0
    3.0461  -10.4636    0.0000 N   0  0  0  0  0  0  0  0  0  0  0  0
    2.4721   -9.0778    0.0000 N   0  0  0  0  0  0  0  0  0  0  0  0
    1.8107   -3.8597    0.0000 C   0  0  0  0  0  0  0  0  0  0  0  0
    3.1965   -4.4337    0.0000 O   0  0  0  0  0  0  0  0  0  0  0  0
    1.8107   -2.3597    0.0000 N   0  0  0  0  0  0  0  0  0  0  0  0
    0.7500   -1.2990    0.0000 C   0  0  0  0  0  0  0  0  0  0  0  0
    1.5000    0.0000    0.0000 C   0  0  0  0  0  0  0  0  0  0  0  0
    0.7500    1.2990    0.0000 C   0  0  0  0  0  0  0  0  0  0  0  0
   -0.7500    1.2990    0.0000 C   0  0  0  0  0  0  0  0  0  0  0  0
   -1.5000    0.0000    0.0000 C   0  0  0  0  0  0  0  0  0  0  0  0
   -0.7500   -1.2990    0.0000 C   0  0  0  0  0  0  0  0  0  0  0  0
  1  2  1  0
  2  3  1  0
  3  4  1  0
  4  5  1  0
  5  6  1  0
  6  7  2  0
  6  8  1  0
  8  9  1  0
  9 10  2  0
 10 11  1  0
 11 12  2  0
 12 13  1  0
 13 14  2  0
  5 15  1  0
 15 16  2  0
 15 17  1  0
 17 18  1  0
 18 19  2  0
 19 20  1  0
 20 21  2  0
 21 22  1  0
 22 23  2  0
 23  2  1  0
 14  9  1  0
 23 18  1  0
M  END
>  <Title>  (289) 
idAAJIgen7

$$$$

     RDKit          2D

 21 22  0  0  0  0  0  0  0  0999 V2000
    1.2135   -7.3421    0.0000 C   0  0  0  0  0  0  0  0  0  0  0  0
    0.7500   -5.9156    0.0000 C   0  0  0  0  0  0  0  0  0  0  0  0
    1.9635   -5.0339    0.0000 C   0  0  0  0  0  0  0  0  0  0  0  0
    2.4271   -3.6073    0.0000 C   0  0  0  0  0  0  0  0  0  0  0  0
    1.9635   -2.1807    0.0000 C   0  0  0  0  0  0  0  0  0  0  0  0
    0.7500   -1.2990    0.0000 C   0  0  0  0  0  0  0  0  0  0  0  0
    1.5000    0.0000    0.0000 C   0  0  0  0  0  0  0  0  0  0  0  0
    0.7500    1.2990    0.0000 C   0  0  0  0  0  0  0  0  0  0  0  0
   -0.7500    1.2990    0.0000 C   0  0  0  0  0  0  0  0  0  0  0  0
   -1.5000    0.0000    0.0000 C   0  0  0  0  0  0  0  0  0  0  0  0
   -0.7500   -1.2990    0.0000 C   0  0  0  0  0  0  0  0  0  0  0  0
   -1.9635   -2.1807    0.0000 C   0  0  0  0  0  0  0  0  0  0  0  0
   -3.1771   -1.2990    0.0000 C   0  0  0  0  0  0  0  0  0  0  0  0
   -2.4271   -3.6073    0.0000 C   0  0  0  0  0  0  0  0  0  0  0  0
   -3.9271   -3.6073    0.0000 O   0  0  0  0  0  0  0  0  0  0  0  0
   -1.9635   -5.0339    0.0000 C   0  0  0  0  0  0  0  0  0  0  0  0
   -3.1771   -5.9156    0.0000 C   0  0  0  0  0  0  0  0  0  0  0  0
   -3.0203   -7.4073    0.0000 O   0  0  0  0  0  0  0  0  0  0  0  0
   -4.5474   -5.3055    0.0000 O   0  0  0  0  0  0  0  0  0  0  0  0
   -0.7500   -5.9156    0.0000 C   0  0  0  0  0  0  0  0  0  0  0  0
   -1.2135   -7.3421    0.0000 O   0  0  0  0  0  0  0  0  0  0  0  0
  1  2  1  0
  2  3  2  0
  3  4  1  0
  4  5  1  0
  5  6  1  0
  6  7  2  0
  7  8  1  0
  8  9  2  0
  9 10  1  0
 10 11  2  0
 11 12  1  0
 12 13  1  0
 12 14  1  0
 14 15  2  0
 14 16  1  0
 16 17  1  0
 17 18  2  0
 17 19  1  0
 16 20  1  0
 20 21  2  0
 20  2  1  0
 11  6  1  0
M  END
>  <Title>  (290) 
idAAJJgen7

$$$$

     RDKit          2D

  9  9  0  0  0  0  0  0  0  0999 V2000
    7.2760   -0.0000    0.0000 C   0  0  0  0  0  0  0  0  0  0  0  0
    5.7760   -0.0000    0.0000 C   0  0  0  0  0  0  0  0  0  0  0  0
    4.2760   -0.0000    0.0000 C   0  0  0  0  0  0  0  0  0  0  0  0
    2.7760    0.0000    0.0000 C   0  0  0  0  0  0  0  0  0  0  0  0
    1.2760    0.0000    0.0000 C   0  0  0  0  0  0  0  0  0  0  0  0
    0.3943    1.2135    0.0000 C   0  0  0  0  0  0  0  0  0  0  0  0
   -1.0323    0.7500    0.0000 C   0  0  0  0  0  0  0  0  0  0  0  0
   -1.0323   -0.7500    0.0000 C   0  0  0  0  0  0  0  0  0  0  0  0
    0.3943   -1.2135    0.0000 C   0  0  0  0  0  0  0  0  0  0  0  0
  1  2  3  0
  2  3  1  0
  3  4  3  0
  4  5  1  0
  5  6  2  0
  6  7  1  0
  7  8  2  0
  8  9  1  0
  9  5  1  0
M  END
>  <Title>  (291) 
idAAJKgen7

$$$$

     RDKit          2D

 89 89  0  0  0  0  0  0  0  0999 V2000
   22.2742   -0.0000    0.0000 C   0  0  0  0  0  0  0  0  0  0  0  0
   20.7742    0.0000    0.0000 C   0  0  0  0  0  0  0  0  0  0  0  0
   20.7201    1.4990    0.0000 C   0  0  0  0  0  0  0  0  0  0  0  0
   20.5579    2.9902    0.0000 C   0  0  0  0  0  0  0  0  0  0  0  0
   20.2885    4.4658    0.0000 C   0  0  0  0  0  0  0  0  0  0  0  0
   19.9134    5.9182    0.0000 C   0  0  0  0  0  0  0  0  0  0  0  0
   19.4345    7.3397    0.0000 C   0  0  0  0  0  0  0  0  0  0  0  0
   18.8542    8.7229    0.0000 C   0  0  0  0  0  0  0  0  0  0  0  0
   18.1756   10.0606    0.0000 C   0  0  0  0  0  0  0  0  0  0  0  0
   17.4023   11.3459    0.0000 C   0  0  0  0  0  0  0  0  0  0  0  0
   16.5382   12.5720    0.0000 C   0  0  0  0  0  0  0  0  0  0  0  0
   15.5879   13.7326    0.0000 C   0  0  0  0  0  0  0  0  0  0  0  0
   14.5564   14.8216    0.0000 C   0  0  0  0  0  0  0  0  0  0  0  0
   13.4490   15.8333    0.0000 C   0  0  0  0  0  0  0  0  0  0  0  0
   12.2714   16.7625    0.0000 C   0  0  0  0  0  0  0  0  0  0  0  0
   11.0299   17.6043    0.0000 C   0  0  0  0  0  0  0  0  0  0  0  0
    9.7308   18.3543    0.0000 C   0  0  0  0  0  0  0  0  0  0  0  0
    8.3811   19.0086    0.0000 C   0  0  0  0  0  0  0  0  0  0  0  0
    6.9876   19.5638    0.0000 C   0  0  0  0  0  0  0  0  0  0  0  0
    5.5577   20.0170    0.0000 C   0  0  0  0  0  0  0  0  0  0  0  0
    4.0988   20.3659    0.0000 C   0  0  0  0  0  0  0  0  0  0  0  0
    2.6186   20.6085    0.0000 C   0  0  0  0  0  0  0  0  0  0  0  0
    1.1247   20.7438    0.0000 C   0  0  0  0  0  0  0  0  0  0  0  0
   -0.3751   20.7708    0.0000 C   0  0  0  0  0  0  0  0  0  0  0  0
   -1.8729   20.6896    0.0000 C   0  0  0  0  0  0  0  0  0  0  0  0
   -3.3609   20.5006    0.0000 C   0  0  0  0  0  0  0  0  0  0  0  0
   -4.8314   20.2046    0.0000 C   0  0  0  0  0  0  0  0  0  0  0  0
   -6.2767   19.8033    0.0000 C   0  0  0  0  0  0  0  0  0  0  0  0
   -7.6893   19.2988    0.0000 C   0  0  0  0  0  0  0  0  0  0  0  0
   -9.0618   18.6936    0.0000 C   0  0  0  0  0  0  0  0  0  0  0  0
  -10.3871   17.9910    0.0000 C   0  0  0  0  0  0  0  0  0  0  0  0
  -11.6582   17.1946    0.0000 C   0  0  0  0  0  0  0  0  0  0  0  0
  -12.8686   16.3086    0.0000 C   0  0  0  0  0  0  0  0  0  0  0  0
  -14.0118   15.3375    0.0000 C   0  0  0  0  0  0  0  0  0  0  0  0
  -15.0820   14.2864    0.0000 C   0  0  0  0  0  0  0  0  0  0  0  0
  -16.0736   13.1609    0.0000 C   0  0  0  0  0  0  0  0  0  0  0  0
  -16.9813   11.9668    0.0000 C   0  0  0  0  0  0  0  0  0  0  0  0
  -17.8006   10.7102    0.0000 C   0  0  0  0  0  0  0  0  0  0  0  0
  -18.5270    9.3979    0.0000 C   0  0  0  0  0  0  0  0  0  0  0  0
  -19.1568    8.0365    0.0000 C   0  0  0  0  0  0  0  0  0  0  0  0
  -19.6868    6.6332    0.0000 C   0  0  0  0  0  0  0  0  0  0  0  0
  -20.1141    5.1954    0.0000 C   0  0  0  0  0  0  0  0  0  0  0  0
  -20.4365    3.7305    0.0000 C   0  0  0  0  0  0  0  0  0  0  0  0
  -20.6525    2.2461    0.0000 C   0  0  0  0  0  0  0  0  0  0  0  0
  -20.7607    0.7500    0.0000 C   0  0  0  0  0  0  0  0  0  0  0  0
  -20.7607   -0.7500    0.0000 C   0  0  0  0  0  0  0  0  0  0  0  0
  -20.6525   -2.2461    0.0000 C   0  0  0  0  0  0  0  0  0  0  0  0
  -20.4365   -3.7305    0.0000 C   0  0  0  0  0  0  0  0  0  0  0  0
  -20.1141   -5.1954    0.0000 C   0  0  0  0  0  0  0  0  0  0  0  0
  -19.6868   -6.6332    0.0000 C   0  0  0  0  0  0  0  0  0  0  0  0
  -19.1568   -8.0365    0.0000 C   0  0  0  0  0  0  0  0  0  0  0  0
  -18.5270   -9.3979    0.0000 C   0  0  0  0  0  0  0  0  0  0  0  0
  -17.8006  -10.7102    0.0000 C   0  0  0  0  0  0  0  0  0  0  0  0
  -16.9813  -11.9668    0.0000 C   0  0  0  0  0  0  0  0  0  0  0  0
  -16.0736  -13.1609    0.0000 C   0  0  0  0  0  0  0  0  0  0  0  0
  -15.0820  -14.2864    0.0000 C   0  0  0  0  0  0  0  0  0  0  0  0
  -14.0118  -15.3375    0.0000 C   0  0  0  0  0  0  0  0  0  0  0  0
  -12.8686  -16.3086    0.0000 C   0  0  0  0  0  0  0  0  0  0  0  0
  -11.6582  -17.1946    0.0000 C   0  0  0  0  0  0  0  0  0  0  0  0
  -10.3871  -17.9910    0.0000 C   0  0  0  0  0  0  0  0  0  0  0  0
   -9.0618  -18.6936    0.0000 C   0  0  0  0  0  0  0  0  0  0  0  0
   -7.6893  -19.2988    0.0000 C   0  0  0  0  0  0  0  0  0  0  0  0
   -6.2767  -19.8033    0.0000 C   0  0  0  0  0  0  0  0  0  0  0  0
   -4.8314  -20.2046    0.0000 C   0  0  0  0  0  0  0  0  0  0  0  0
   -3.3609  -20.5006    0.0000 C   0  0  0  0  0  0  0  0  0  0  0  0
   -1.8729  -20.6896    0.0000 C   0  0  0  0  0  0  0  0  0  0  0  0
   -2.0081  -22.1835    0.0000 C   0  0  0  0  0  0  0  0  0  0  0  0
   -0.3751  -20.7708    0.0000 C   0  0  0  0  0  0  0  0  0  0  0  0
    1.1247  -20.7438    0.0000 C   0  0  0  0  0  0  0  0  0  0  0  0
    2.6186  -20.6085    0.0000 C   0  0  0  0  0  0  0  0  0  0  0  0
    4.0988  -20.3659    0.0000 C   0  0  0  0  0  0  0  0  0  0  0  0
    5.5577  -20.0170    0.0000 C   0  0  0  0  0  0  0  0  0  0  0  0
    6.9876  -19.5638    0.0000 C   0  0  0  0  0  0  0  0  0  0  0  0
    8.3811  -19.0086    0.0000 C   0  0  0  0  0  0  0  0  0  0  0  0
    9.7308  -18.3543    0.0000 C   0  0  0  0  0  0  0  0  0  0  0  0
   11.0299  -17.6043    0.0000 C   0  0  0  0  0  0  0  0  0  0  0  0
   12.2714  -16.7625    0.0000 C   0  0  0  0  0  0  0  0  0  0  0  0
   13.4490  -15.8333    0.0000 C   0  0  0  0  0  0  0  0  0  0  0  0
   14.5564  -14.8216    0.0000 C   0  0  0  0  0  0  0  0  0  0  0  0
   15.5879  -13.7326    0.0000 C   0  0  0  0  0  0  0  0  0  0  0  0
   16.5382  -12.5720    0.0000 C   0  0  0  0  0  0  0  0  0  0  0  0
   17.4023  -11.3459    0.0000 C   0  0  0  0  0  0  0  0  0  0  0  0
   18.1756  -10.0606    0.0000 C   0  0  0  0  0  0  0  0  0  0  0  0
   18.8542   -8.7229    0.0000 C   0  0  0  0  0  0  0  0  0  0  0  0
   19.4345   -7.3397    0.0000 C   0  0  0  0  0  0  0  0  0  0  0  0
   19.9134   -5.9182    0.0000 C   0  0  0  0  0  0  0  0  0  0  0  0
   20.2885   -4.4658    0.0000 C   0  0  0  0  0  0  0  0  0  0  0  0
   20.5579   -2.9902    0.0000 C   0  0  0  0  0  0  0  0  0  0  0  0
   20.7201   -1.4990    0.0000 C   0  0  0  0  0  0  0  0  0  0  0  0
  1  2  1  0
  2  3  1  0
  3  4  1  0
  4  5  1  0
  5  6  1  0
  6  7  1  0
  7  8  1  0
  8  9  1  0
  9 10  1  0
 10 11  1  0
 11 12  1  0
 12 13  1  0
 13 14  1  0
 14 15  1  0
 15 16  1  0
 16 17  1  0
 17 18  1  0
 18 19  1  0
 19 20  1  0
 20 21  1  0
 21 22  1  0
 22 23  1  0
 23 24  1  0
 24 25  1  0
 25 26  1  0
 26 27  1  0
 27 28  1  0
 28 29  1  0
 29 30  1  0
 30 31  1  0
 31 32  1  0
 32 33  1  0
 33 34  1  0
 34 35  1  0
 35 36  1  0
 36 37  1  0
 37 38  1  0
 38 39  1  0
 39 40  1  0
 40 41  1  0
 41 42  1  0
 42 43  1  0
 43 44  1  0
 44 45  1  0
 45 46  1  0
 46 47  1  0
 47 48  1  0
 48 49  1  0
 49 50  1  0
 50 51  1  0
 51 52  1  0
 52 53  1  0
 53 54  1  0
 54 55  1  0
 55 56  1  0
 56 57  1  0
 57 58  1  0
 58 59  1  0
 59 60  1  0
 60 61  1  0
 61 62  1  0
 62 63  1  0
 63 64  1  0
 64 65  1  0
 65 66  1  0
 66 67  1  0
 66 68  1  0
 68 69  1  0
 69 70  1  0
 70 71  1  0
 71 72  1  0
 72 73  1  0
 73 74  1  0
 74 75  1  0
 75 76  1  0
 76 77  1  0
 77 78  1  0
 78 79  1  0
 79 80  1  0
 80 81  1  0
 81 82  1  0
 82 83  1  0
 83 84  1  0
 84 85  1  0
 85 86  1  0
 86 87  1  0
 87 88  1  0
 88 89  1  0
 89  2  1  0
M  END
>  <Title>  (292) 
idAAJLgen7

$$$$

     RDKit          2D

 98102  0  0  0  0  0  0  0  0999 V2000
  -11.4530   -3.2133    0.0000 C   0  0  0  0  0  0  0  0  0  0  0  0
  -10.6287   -4.4665    0.0000 C   0  0  0  0  0  0  0  0  0  0  0  0
  -11.8490   -5.3388    0.0000 C   0  0  0  0  0  0  0  0  0  0  0  0
  -12.9981   -6.3029    0.0000 C   0  0  0  0  0  0  0  0  0  0  0  0
  -14.0690   -7.3533    0.0000 C   0  0  0  0  0  0  0  0  0  0  0  0
  -15.0553   -8.4834    0.0000 C   0  0  0  0  0  0  0  0  0  0  0  0
  -15.9510   -9.6866    0.0000 C   0  0  0  0  0  0  0  0  0  0  0  0
  -16.7508  -10.9556    0.0000 C   0  0  0  0  0  0  0  0  0  0  0  0
  -17.4499  -12.2827    0.0000 C   0  0  0  0  0  0  0  0  0  0  0  0
  -18.0440  -13.6600    0.0000 C   0  0  0  0  0  0  0  0  0  0  0  0
  -18.5296  -15.0793    0.0000 C   0  0  0  0  0  0  0  0  0  0  0  0
  -18.9038  -16.5319    0.0000 C   0  0  0  0  0  0  0  0  0  0  0  0
  -19.1642  -18.0091    0.0000 C   0  0  0  0  0  0  0  0  0  0  0  0
  -19.3095  -19.5020    0.0000 C   0  0  0  0  0  0  0  0  0  0  0  0
  -19.3385  -21.0017    0.0000 C   0  0  0  0  0  0  0  0  0  0  0  0
  -19.2513  -22.4992    0.0000 C   0  0  0  0  0  0  0  0  0  0  0  0
  -19.0483  -23.9854    0.0000 C   0  0  0  0  0  0  0  0  0  0  0  0
  -18.7308  -25.4514    0.0000 C   0  0  0  0  0  0  0  0  0  0  0  0
  -18.3006  -26.8884    0.0000 C   0  0  0  0  0  0  0  0  0  0  0  0
  -17.7603  -28.2877    0.0000 C   0  0  0  0  0  0  0  0  0  0  0  0
  -17.1132  -29.6410    0.0000 C   0  0  0  0  0  0  0  0  0  0  0  0
  -16.3632  -30.9400    0.0000 C   0  0  0  0  0  0  0  0  0  0  0  0
  -15.5148  -32.1770    0.0000 C   0  0  0  0  0  0  0  0  0  0  0  0
  -14.5731  -33.3446    0.0000 C   0  0  0  0  0  0  0  0  0  0  0  0
  -13.5437  -34.4356    0.0000 C   0  0  0  0  0  0  0  0  0  0  0  0
  -12.4329  -35.4436    0.0000 C   0  0  0  0  0  0  0  0  0  0  0  0
  -11.2473  -36.3625    0.0000 C   0  0  0  0  0  0  0  0  0  0  0  0
   -9.9941  -37.1868    0.0000 C   0  0  0  0  0  0  0  0  0  0  0  0
   -8.6808  -37.9115    0.0000 C   0  0  0  0  0  0  0  0  0  0  0  0
   -7.3152  -38.5322    0.0000 C   0  0  0  0  0  0  0  0  0  0  0  0
   -5.9057  -39.0452    0.0000 C   0  0  0  0  0  0  0  0  0  0  0  0
   -4.4606  -39.4475    0.0000 C   0  0  0  0  0  0  0  0  0  0  0  0
   -2.9887  -39.7365    0.0000 C   0  0  0  0  0  0  0  0  0  0  0  0
   -1.4989  -39.9107    0.0000 C   0  0  0  0  0  0  0  0  0  0  0  0
   -0.0000  -39.9688    0.0000 C   0  0  0  0  0  0  0  0  0  0  0  0
    1.4989  -39.9107    0.0000 C   0  0  0  0  0  0  0  0  0  0  0  0
    2.9887  -39.7365    0.0000 C   0  0  0  0  0  0  0  0  0  0  0  0
    4.4606  -39.4475    0.0000 C   0  0  0  0  0  0  0  0  0  0  0  0
    5.9057  -39.0452    0.0000 C   0  0  0  0  0  0  0  0  0  0  0  0
    7.3152  -38.5322    0.0000 C   0  0  0  0  0  0  0  0  0  0  0  0
    8.6808  -37.9115    0.0000 C   0  0  0  0  0  0  0  0  0  0  0  0
    9.9941  -37.1868    0.0000 C   0  0  0  0  0  0  0  0  0  0  0  0
   11.2473  -36.3625    0.0000 C   0  0  0  0  0  0  0  0  0  0  0  0
   12.4329  -35.4436    0.0000 C   0  0  0  0  0  0  0  0  0  0  0  0
   13.5437  -34.4356    0.0000 C   0  0  0  0  0  0  0  0  0  0  0  0
   14.5731  -33.3446    0.0000 C   0  0  0  0  0  0  0  0  0  0  0  0
   15.5148  -32.1770    0.0000 C   0  0  0  0  0  0  0  0  0  0  0  0
   16.3632  -30.9400    0.0000 C   0  0  0  0  0  0  0  0  0  0  0  0
   17.1132  -29.6410    0.0000 C   0  0  0  0  0  0  0  0  0  0  0  0
   17.7603  -28.2877    0.0000 C   0  0  0  0  0  0  0  0  0  0  0  0
   18.3006  -26.8884    0.0000 C   0  0  0  0  0  0  0  0  0  0  0  0
   18.7308  -25.4514    0.0000 C   0  0  0  0  0  0  0  0  0  0  0  0
   19.0483  -23.9854    0.0000 C   0  0  0  0  0  0  0  0  0  0  0  0
   19.2513  -22.4992    0.0000 C   0  0  0  0  0  0  0  0  0  0  0  0
   19.3385  -21.0017    0.0000 C   0  0  0  0  0  0  0  0  0  0  0  0
   19.3095  -19.5020    0.0000 C   0  0  0  0  0  0  0  0  0  0  0  0
   19.1642  -18.0091    0.0000 C   0  0  0  0  0  0  0  0  0  0  0  0
   18.9038  -16.5319    0.0000 C   0  0  0  0  0  0  0  0  0  0  0  0
   18.5296  -15.0793    0.0000 C   0  0  0  0  0  0  0  0  0  0  0  0
   18.0440  -13.6600    0.0000 C   0  0  0  0  0  0  0  0  0  0  0  0
   17.4499  -12.2827    0.0000 C   0  0  0  0  0  0  0  0  0  0  0  0
   16.7508  -10.9556    0.0000 C   0  0  0  0  0  0  0  0  0  0  0  0
   15.9510   -9.6866    0.0000 C   0  0  0  0  0  0  0  0  0  0  0  0
   15.0553   -8.4834    0.0000 C   0  0  0  0  0  0  0  0  0  0  0  0
   14.0690   -7.3533    0.0000 C   0  0  0  0  0  0  0  0  0  0  0  0
   12.9981   -6.3029    0.0000 C   0  0  0  0  0  0  0  0  0  0  0  0
   11.8490   -5.3388    0.0000 C   0  0  0  0  0  0  0  0  0  0  0  0
   10.6287   -4.4665    0.0000 C   0  0  0  0  0  0  0  0  0  0  0  0
    9.3444   -3.6915    0.0000 C   0  0  0  0  0  0  0  0  0  0  0  0
    8.0040   -3.0183    0.0000 C   0  0  0  0  0  0  0  0  0  0  0  0
    6.6154   -2.4510    0.0000 C   0  0  0  0  0  0  0  0  0  0  0  0
    5.1870   -1.9930    0.0000 C   0  0  0  0  0  0  0  0  0  0  0  0
    3.7275   -1.6471    0.0000 C   0  0  0  0  0  0  0  0  0  0  0  0
    2.2455   -1.4153    0.0000 N   0  0  0  0  0  0  0  0  0  0  0  0
    0.7500   -1.2990    0.0000 C   0  0  0  0  0  0  0  0  0  0  0  0
    1.5000    0.0000    0.0000 C   0  0  0  0  0  0  0  0  0  0  0  0
    0.7500    1.2990    0.0000 C   0  0  0  0  0  0  0  0  0  0  0  0
   -0.7500    1.2990    0.0000 C   0  0  0  0  0  0  0  0  0  0  0  0
   -1.5000    0.0000    0.0000 C   0  0  0  0  0  0  0  0  0  0  0  0
   -0.7500   -1.2990    0.0000 C   0  0  0  0  0  0  0  0  0  0  0  0
   -2.2455   -1.4153    0.0000 C   0  0  0  0  0  0  0  0  0  0  0  0
   -1.3038   -2.5828    0.0000 C   0  0  0  0  0  0  0  0  0  0  0  0
   -1.8440   -3.9821    0.0000 C   0  0  0  0  0  0  0  0  0  0  0  0
   -3.3260   -4.2139    0.0000 C   0  0  0  0  0  0  0  0  0  0  0  0
   -4.2677   -3.0464    0.0000 C   0  0  0  0  0  0  0  0  0  0  0  0
   -3.7275   -1.6471    0.0000 C   0  0  0  0  0  0  0  0  0  0  0  0
   -5.1870   -1.9930    0.0000 C   0  0  0  0  0  0  0  0  0  0  0  0
   -4.8695   -0.5270    0.0000 C   0  0  0  0  0  0  0  0  0  0  0  0
   -5.9803    0.4810    0.0000 C   0  0  0  0  0  0  0  0  0  0  0  0
   -7.4087    0.0230    0.0000 C   0  0  0  0  0  0  0  0  0  0  0  0
   -7.7262   -1.4430    0.0000 C   0  0  0  0  0  0  0  0  0  0  0  0
   -6.6154   -2.4510    0.0000 C   0  0  0  0  0  0  0  0  0  0  0  0
   -8.0040   -3.0183    0.0000 C   0  0  0  0  0  0  0  0  0  0  0  0
   -6.7508   -3.8425    0.0000 C   0  0  0  0  0  0  0  0  0  0  0  0
   -6.8380   -5.3400    0.0000 C   0  0  0  0  0  0  0  0  0  0  0  0
   -8.1784   -6.0132    0.0000 C   0  0  0  0  0  0  0  0  0  0  0  0
   -9.4317   -5.1889    0.0000 C   0  0  0  0  0  0  0  0  0  0  0  0
   -9.3444   -3.6915    0.0000 C   0  0  0  0  0  0  0  0  0  0  0  0
  1  2  1  0
  2  3  1  0
  3  4  1  0
  4  5  1  0
  5  6  1  0
  6  7  1  0
  7  8  1  0
  8  9  1  0
  9 10  1  0
 10 11  1  0
 11 12  1  0
 12 13  1  0
 13 14  1  0
 14 15  1  0
 15 16  1  0
 16 17  1  0
 17 18  1  0
 18 19  1  0
 19 20  1  0
 20 21  1  0
 21 22  1  0
 22 23  1  0
 23 24  1  0
 24 25  1  0
 25 26  1  0
 26 27  1  0
 27 28  1  0
 28 29  1  0
 29 30  1  0
 30 31  1  0
 31 32  1  0
 32 33  1  0
 33 34  1  0
 34 35  1  0
 35 36  1  0
 36 37  1  0
 37 38  1  0
 38 39  1  0
 39 40  1  0
 40 41  1  0
 41 42  1  0
 42 43  1  0
 43 44  1  0
 44 45  1  0
 45 46  1  0
 46 47  1  0
 47 48  1  0
 48 49  1  0
 49 50  1  0
 50 51  1  0
 51 52  1  0
 52 53  1  0
 53 54  1  0
 54 55  1  0
 55 56  1  0
 56 57  1  0
 57 58  1  0
 58 59  1  0
 59 60  1  0
 60 61  1  0
 61 62  1  0
 62 63  1  0
 63 64  1  0
 64 65  1  0
 65 66  1  0
 66 67  1  0
 67 68  1  0
 68 69  1  0
 69 70  1  0
 70 71  1  0
 71 72  1  0
 72 73  1  0
 73 74  1  0
 74 75  1  0
 75 76  2  0
 76 77  1  0
 77 78  2  0
 78 79  1  0
 79 80  2  0
 80 81  1  0
 81 82  2  0
 82 83  1  0
 83 84  2  0
 84 85  1  0
 85 86  2  0
 86 87  1  0
 87 88  2  0
 88 89  1  0
 89 90  2  0
 90 91  1  0
 91 92  2  0
 92 93  1  0
 93 94  2  0
 94 95  1  0
 95 96  2  0
 96 97  1  0
 97 98  2  0
 98  2  1  0
 80 75  1  0
 86 81  1  0
 92 87  1  0
 98 93  1  0
M  END
>  <Title>  (293) 
idAAJMgen7

$$$$

     RDKit          2D

112112  0  0  0  0  0  0  0  0999 V2000
   28.5141   -1.2990    0.0000 O   0  0  0  0  0  0  0  0  0  0  0  0
   27.7641    0.0000    0.0000 O   0  0  0  0  0  0  0  0  0  0  0  0
   26.2641    0.0000    0.0000 C   0  0  0  0  0  0  0  0  0  0  0  0
   26.2213   -1.4994    0.0000 C   0  0  0  0  0  0  0  0  0  0  0  0
   26.0929   -2.9939    0.0000 C   0  0  0  0  0  0  0  0  0  0  0  0
   25.8795   -4.4786    0.0000 C   0  0  0  0  0  0  0  0  0  0  0  0
   25.5816   -5.9487    0.0000 C   0  0  0  0  0  0  0  0  0  0  0  0
   25.2003   -7.3995    0.0000 C   0  0  0  0  0  0  0  0  0  0  0  0
   24.7367   -8.8260    0.0000 C   0  0  0  0  0  0  0  0  0  0  0  0
   24.1925  -10.2238    0.0000 C   0  0  0  0  0  0  0  0  0  0  0  0
   23.5694  -11.5883    0.0000 C   0  0  0  0  0  0  0  0  0  0  0  0
   22.8694  -12.9149    0.0000 C   0  0  0  0  0  0  0  0  0  0  0  0
   22.0948  -14.1995    0.0000 C   0  0  0  0  0  0  0  0  0  0  0  0
   21.2481  -15.4377    0.0000 C   0  0  0  0  0  0  0  0  0  0  0  0
   20.3322  -16.6255    0.0000 C   0  0  0  0  0  0  0  0  0  0  0  0
   19.3499  -17.7591    0.0000 C   0  0  0  0  0  0  0  0  0  0  0  0
   18.3045  -18.8348    0.0000 C   0  0  0  0  0  0  0  0  0  0  0  0
   17.1994  -19.8491    0.0000 C   0  0  0  0  0  0  0  0  0  0  0  0
   16.0381  -20.7986    0.0000 C   0  0  0  0  0  0  0  0  0  0  0  0
   14.8246  -21.6803    0.0000 C   0  0  0  0  0  0  0  0  0  0  0  0
   13.5627  -22.4913    0.0000 C   0  0  0  0  0  0  0  0  0  0  0  0
   12.2566  -23.2289    0.0000 C   0  0  0  0  0  0  0  0  0  0  0  0
   10.9105  -23.8907    0.0000 C   0  0  0  0  0  0  0  0  0  0  0  0
    9.5288  -24.4746    0.0000 C   0  0  0  0  0  0  0  0  0  0  0  0
    8.1161  -24.9787    0.0000 C   0  0  0  0  0  0  0  0  0  0  0  0
    6.6768  -25.4013    0.0000 C   0  0  0  0  0  0  0  0  0  0  0  0
    5.2158  -25.7410    0.0000 C   0  0  0  0  0  0  0  0  0  0  0  0
    3.7378  -25.9968    0.0000 C   0  0  0  0  0  0  0  0  0  0  0  0
    2.2476  -26.1678    0.0000 C   0  0  0  0  0  0  0  0  0  0  0  0
    0.7500  -26.2534    0.0000 C   0  0  0  0  0  0  0  0  0  0  0  0
   -0.7500  -26.2534    0.0000 C   0  0  0  0  0  0  0  0  0  0  0  0
   -2.2476  -26.1678    0.0000 C   0  0  0  0  0  0  0  0  0  0  0  0
   -3.7378  -25.9968    0.0000 C   0  0  0  0  0  0  0  0  0  0  0  0
   -5.2158  -25.7410    0.0000 C   0  0  0  0  0  0  0  0  0  0  0  0
   -6.6768  -25.4013    0.0000 C   0  0  0  0  0  0  0  0  0  0  0  0
   -8.1161  -24.9787    0.0000 C   0  0  0  0  0  0  0  0  0  0  0  0
   -9.5288  -24.4746    0.0000 C   0  0  0  0  0  0  0  0  0  0  0  0
  -10.9105  -23.8907    0.0000 C   0  0  0  0  0  0  0  0  0  0  0  0
  -12.2566  -23.2289    0.0000 C   0  0  0  0  0  0  0  0  0  0  0  0
  -13.5627  -22.4913    0.0000 C   0  0  0  0  0  0  0  0  0  0  0  0
  -14.8246  -21.6803    0.0000 C   0  0  0  0  0  0  0  0  0  0  0  0
  -16.0381  -20.7986    0.0000 C   0  0  0  0  0  0  0  0  0  0  0  0
  -17.1994  -19.8491    0.0000 C   0  0  0  0  0  0  0  0  0  0  0  0
  -18.3045  -18.8348    0.0000 C   0  0  0  0  0  0  0  0  0  0  0  0
  -19.3499  -17.7591    0.0000 C   0  0  0  0  0  0  0  0  0  0  0  0
  -20.3322  -16.6255    0.0000 C   0  0  0  0  0  0  0  0  0  0  0  0
  -21.2481  -15.4377    0.0000 C   0  0  0  0  0  0  0  0  0  0  0  0
  -22.0948  -14.1995    0.0000 C   0  0  0  0  0  0  0  0  0  0  0  0
  -22.8694  -12.9149    0.0000 C   0  0  0  0  0  0  0  0  0  0  0  0
  -23.5694  -11.5883    0.0000 C   0  0  0  0  0  0  0  0  0  0  0  0
  -24.1925  -10.2238    0.0000 C   0  0  0  0  0  0  0  0  0  0  0  0
  -24.7367   -8.8260    0.0000 C   0  0  0  0  0  0  0  0  0  0  0  0
  -25.2003   -7.3995    0.0000 C   0  0  0  0  0  0  0  0  0  0  0  0
  -25.5816   -5.9487    0.0000 C   0  0  0  0  0  0  0  0  0  0  0  0
  -25.8795   -4.4786    0.0000 C   0  0  0  0  0  0  0  0  0  0  0  0
  -26.0929   -2.9939    0.0000 C   0  0  0  0  0  0  0  0  0  0  0  0
  -26.2213   -1.4994    0.0000 C   0  0  0  0  0  0  0  0  0  0  0  0
  -26.2641    0.0000    0.0000 C   0  0  0  0  0  0  0  0  0  0  0  0
  -26.2213    1.4994    0.0000 C   0  0  0  0  0  0  0  0  0  0  0  0
  -26.0929    2.9939    0.0000 C   0  0  0  0  0  0  0  0  0  0  0  0
  -25.8795    4.4786    0.0000 C   0  0  0  0  0  0  0  0  0  0  0  0
  -25.5816    5.9487    0.0000 C   0  0  0  0  0  0  0  0  0  0  0  0
  -25.2003    7.3995    0.0000 C   0  0  0  0  0  0  0  0  0  0  0  0
  -24.7367    8.8260    0.0000 C   0  0  0  0  0  0  0  0  0  0  0  0
  -24.1925   10.2238    0.0000 C   0  0  0  0  0  0  0  0  0  0  0  0
  -23.5694   11.5883    0.0000 C   0  0  0  0  0  0  0  0  0  0  0  0
  -22.8694   12.9149    0.0000 C   0  0  0  0  0  0  0  0  0  0  0  0
  -22.0948   14.1995    0.0000 C   0  0  0  0  0  0  0  0  0  0  0  0
  -21.2481   15.4377    0.0000 C   0  0  0  0  0  0  0  0  0  0  0  0
  -20.3322   16.6255    0.0000 C   0  0  0  0  0  0  0  0  0  0  0  0
  -19.3499   17.7591    0.0000 C   0  0  0  0  0  0  0  0  0  0  0  0
  -18.3045   18.8348    0.0000 C   0  0  0  0  0  0  0  0  0  0  0  0
  -17.1994   19.8491    0.0000 C   0  0  0  0  0  0  0  0  0  0  0  0
  -16.0381   20.7986    0.0000 C   0  0  0  0  0  0  0  0  0  0  0  0
  -14.8246   21.6803    0.0000 C   0  0  0  0  0  0  0  0  0  0  0  0
  -13.5627   22.4913    0.0000 C   0  0  0  0  0  0  0  0  0  0  0  0
  -12.2566   23.2289    0.0000 C   0  0  0  0  0  0  0  0  0  0  0  0
  -10.9105   23.8907    0.0000 C   0  0  0  0  0  0  0  0  0  0  0  0
   -9.5288   24.4746    0.0000 C   0  0  0  0  0  0  0  0  0  0  0  0
   -8.1161   24.9787    0.0000 C   0  0  0  0  0  0  0  0  0  0  0  0
   -6.6768   25.4013    0.0000 C   0  0  0  0  0  0  0  0  0  0  0  0
   -5.2158   25.7410    0.0000 C   0  0  0  0  0  0  0  0  0  0  0  0
   -3.7378   25.9968    0.0000 C   0  0  0  0  0  0  0  0  0  0  0  0
   -2.2476   26.1678    0.0000 C   0  0  0  0  0  0  0  0  0  0  0  0
   -0.7500   26.2534    0.0000 C   0  0  0  0  0  0  0  0  0  0  0  0
    0.7500   26.2534    0.0000 C   0  0  0  0  0  0  0  0  0  0  0  0
    2.2476   26.1678    0.0000 C   0  0  0  0  0  0  0  0  0  0  0  0
    3.7378   25.9968    0.0000 C   0  0  0  0  0  0  0  0  0  0  0  0
    5.2158   25.7410    0.0000 C   0  0  0  0  0  0  0  0  0  0  0  0
    6.6768   25.4013    0.0000 C   0  0  0  0  0  0  0  0  0  0  0  0
    8.1161   24.9787    0.0000 C   0  0  0  0  0  0  0  0  0  0  0  0
    9.5288   24.4746    0.0000 C   0  0  0  0  0  0  0  0  0  0  0  0
   10.9105   23.8907    0.0000 C   0  0  0  0  0  0  0  0  0  0  0  0
   12.2566   23.2289    0.0000 C   0  0  0  0  0  0  0  0  0  0  0  0
   13.5627   22.4913    0.0000 C   0  0  0  0  0  0  0  0  0  0  0  0
   14.8246   21.6803    0.0000 C   0  0  0  0  0  0  0  0  0  0  0  0
   16.0381   20.7986    0.0000 C   0  0  0  0  0  0  0  0  0  0  0  0
   17.1994   19.8491    0.0000 C   0  0  0  0  0  0  0  0  0  0  0  0
   18.3045   18.8348    0.0000 C   0  0  0  0  0  0  0  0  0  0  0  0
   19.3499   17.7591    0.0000 C   0  0  0  0  0  0  0  0  0  0  0  0
   20.3322   16.6255    0.0000 C   0  0  0  0  0  0  0  0  0  0  0  0
   21.2481   15.4377    0.0000 C   0  0  0  0  0  0  0  0  0  0  0  0
   22.0948   14.1995    0.0000 C   0  0  0  0  0  0  0  0  0  0  0  0
   22.8694   12.9149    0.0000 C   0  0  0  0  0  0  0  0  0  0  0  0
   23.5694   11.5883    0.0000 C   0  0  0  0  0  0  0  0  0  0  0  0
   24.1925   10.2238    0.0000 C   0  0  0  0  0  0  0  0  0  0  0  0
   24.7367    8.8260    0.0000 C   0  0  0  0  0  0  0  0  0  0  0  0
   25.2003    7.3995    0.0000 C   0  0  0  0  0  0  0  0  0  0  0  0
   25.5816    5.9487    0.0000 C   0  0  0  0  0  0  0  0  0  0  0  0
   25.8795    4.4786    0.0000 C   0  0  0  0  0  0  0  0  0  0  0  0
   26.0929    2.9939    0.0000 C   0  0  0  0  0  0  0  0  0  0  0  0
   26.2213    1.4994    0.0000 C   0  0  0  0  0  0  0  0  0  0  0  0
  1  2  1  0
  2  3  1  0
  3  4  1  0
  4  5  1  0
  5  6  2  0
  6  7  1  0
  7  8  1  0
  8  9  1  0
  9 10  1  0
 10 11  1  0
 11 12  1  0
 12 13  1  0
 13 14  1  0
 14 15  1  0
 15 16  1  0
 16 17  1  0
 17 18  1  0
 18 19  1  0
 19 20  1  0
 20 21  1  0
 21 22  1  0
 22 23  1  0
 23 24  1  0
 24 25  1  0
 25 26  1  0
 26 27  1  0
 27 28  1  0
 28 29  1  0
 29 30  1  0
 30 31  1  0
 31 32  1  0
 32 33  1  0
 33 34  1  0
 34 35  1  0
 35 36  1  0
 36 37  1  0
 37 38  1  0
 38 39  1  0
 39 40  1  0
 40 41  1  0
 41 42  1  0
 42 43  1  0
 43 44  1  0
 44 45  1  0
 45 46  1  0
 46 47  1  0
 47 48  1  0
 48 49  1  0
 49 50  1  0
 50 51  1  0
 51 52  1  0
 52 53  1  0
 53 54  1  0
 54 55  1  0
 55 56  1  0
 56 57  1  0
 57 58  1  0
 58 59  1  0
 59 60  1  0
 60 61  1  0
 61 62  1  0
 62 63  1  0
 63 64  1  0
 64 65  1  0
 65 66  1  0
 66 67  1  0
 67 68  1  0
 68 69  1  0
 69 70  1  0
 70 71  1  0
 71 72  1  0
 72 73  1  0
 73 74  1  0
 74 75  1  0
 75 76  1  0
 76 77  1  0
 77 78  1  0
 78 79  1  0
 79 80  1  0
 80 81  1  0
 81 82  1  0
 82 83  1  0
 83 84  1  0
 84 85  1  0
 85 86  1  0
 86 87  1  0
 87 88  1  0
 88 89  1  0
 89 90  1  0
 90 91  1  0
 91 92  1  0
 92 93  1  0
 93 94  1  0
 94 95  1  0
 95 96  1  0
 96 97  1  0
 97 98  1  0
 98 99  1  0
 99100  1  0
100101  1  0
101102  1  0
102103  1  0
103104  1  0
104105  1  0
105106  1  0
106107  1  0
107108  1  0
108109  1  0
109110  1  0
110111  1  0
111112  1  0
112  3  1  0
M  END
>  <Title>  (294) 
idAAJNgen7

$$$$

     RDKit          2D

  7  7  0  0  0  0  0  0  0  0999 V2000
    3.5260   -1.2990    0.0000 O   0  0  0  0  0  0  0  0  0  0  0  0
    2.7760    0.0000    0.0000 O   0  0  0  0  0  0  0  0  0  0  0  0
    1.2760    0.0000    0.0000 C   0  0  0  0  0  0  0  0  0  0  0  0
    0.3943    1.2135    0.0000 C   0  0  0  0  0  0  0  0  0  0  0  0
   -1.0323    0.7500    0.0000 C   0  0  0  0  0  0  0  0  0  0  0  0
   -1.0323   -0.7500    0.0000 C   0  0  0  0  0  0  0  0  0  0  0  0
    0.3943   -1.2135    0.0000 C   0  0  0  0  0  0  0  0  0  0  0  0
  1  2  1  0
  2  3  1  0
  3  4  2  0
  4  5  1  0
  5  6  1  0
  6  7  1  0
  7  3  1  0
M  END
>  <Title>  (295) 
idAAJOgen7

$$$$

     RDKit          2D

 10 10  0  0  0  0  0  0  0  0999 V2000
    3.6929    0.0000    0.0000 O   0  0  0  0  0  0  0  0  0  0  0  0
    2.1929    0.0000    0.0000 C   0  0  0  0  0  0  0  0  0  0  0  0
    1.6798    1.4095    0.0000 C   0  0  0  0  0  0  0  0  0  0  0  0
    0.3808    2.1595    0.0000 C   0  0  0  0  0  0  0  0  0  0  0  0
   -1.0964    1.8991    0.0000 C   0  0  0  0  0  0  0  0  0  0  0  0
   -2.0606    0.7500    0.0000 C   0  0  0  0  0  0  0  0  0  0  0  0
   -2.0606   -0.7500    0.0000 C   0  0  0  0  0  0  0  0  0  0  0  0
   -1.0964   -1.8991    0.0000 C   0  0  0  0  0  0  0  0  0  0  0  0
    0.3808   -2.1595    0.0000 C   0  0  0  0  0  0  0  0  0  0  0  0
    1.6798   -1.4095    0.0000 C   0  0  0  0  0  0  0  0  0  0  0  0
  1  2  1  0
  2  3  2  0
  3  4  1  0
  4  5  1  0
  5  6  1  0
  6  7  1  0
  7  8  1  0
  8  9  3  0
  9 10  1  0
 10  2  1  0
M  END
>  <Title>  (296) 
idAAJPgen7

$$$$

     RDKit          2D

 26 29  0  0  0  0  0  0  0  0999 V2000
   10.0355    0.6881    0.0000 C   0  0  0  0  0  0  0  0  0  0  0  0
    8.5683    0.3762    0.0000 C   0  0  0  0  0  0  0  0  0  0  0  0
    7.4536    1.3799    0.0000 C   0  0  0  0  0  0  0  0  0  0  0  0
    6.1545    0.6299    0.0000 C   0  0  0  0  0  0  0  0  0  0  0  0
    6.4664   -0.8373    0.0000 C   0  0  0  0  0  0  0  0  0  0  0  0
    5.4627   -1.9520    0.0000 C   0  0  0  0  0  0  0  0  0  0  0  0
    5.9262   -3.3786    0.0000 O   0  0  0  0  0  0  0  0  0  0  0  0
    3.9955   -1.6402    0.0000 N   0  0  0  0  0  0  0  0  0  0  0  0
    2.9918   -2.7549    0.0000 C   0  0  0  0  0  0  0  0  0  0  0  0
    3.3037   -4.2221    0.0000 N   0  0  0  0  0  0  0  0  0  0  0  0
    2.0046   -4.9721    0.0000 N   0  0  0  0  0  0  0  0  0  0  0  0
    0.8899   -3.9684    0.0000 N   0  0  0  0  0  0  0  0  0  0  0  0
    1.5000   -2.5981    0.0000 N   0  0  0  0  0  0  0  0  0  0  0  0
    0.7500   -1.2990    0.0000 C   0  0  0  0  0  0  0  0  0  0  0  0
    1.5000    0.0000    0.0000 C   0  0  0  0  0  0  0  0  0  0  0  0
    0.7500    1.2990    0.0000 C   0  0  0  0  0  0  0  0  0  0  0  0
   -0.7500    1.2990    0.0000 C   0  0  0  0  0  0  0  0  0  0  0  0
   -1.5000    0.0000    0.0000 C   0  0  0  0  0  0  0  0  0  0  0  0
   -0.7500   -1.2990    0.0000 C   0  0  0  0  0  0  0  0  0  0  0  0
   -1.5000   -2.5981    0.0000 C   0  0  0  0  0  0  0  0  0  0  0  0
   -3.0000   -2.5981    0.0000 C   0  0  0  0  0  0  0  0  0  0  0  0
   -3.7500   -3.8971    0.0000 C   0  0  0  0  0  0  0  0  0  0  0  0
   -3.0000   -5.1962    0.0000 C   0  0  0  0  0  0  0  0  0  0  0  0
   -1.5000   -5.1962    0.0000 C   0  0  0  0  0  0  0  0  0  0  0  0
   -0.7500   -3.8971    0.0000 C   0  0  0  0  0  0  0  0  0  0  0  0
    7.9582   -0.9941    0.0000 C   0  0  0  0  0  0  0  0  0  0  0  0
  1  2  1  0
  2  3  1  0
  3  4  1  0
  4  5  1  0
  5  6  1  0
  6  7  2  0
  6  8  1  0
  8  9  1  0
  9 10  2  0
 10 11  1  0
 11 12  2  0
 12 13  1  0
 13 14  1  0
 14 15  2  0
 15 16  1  0
 16 17  2  0
 17 18  1  0
 18 19  2  0
 19 20  1  0
 20 21  2  0
 21 22  1  0
 22 23  2  0
 23 24  1  0
 24 25  2  0
  5 26  1  0
 26  2  1  0
 13  9  1  0
 19 14  1  0
 25 20  1  0
M  END
>  <Title>  (297) 
idAAJQgen7

$$$$

     RDKit          2D

 15 16  0  0  0  0  0  0  0  0999 V2000
    1.8478   -9.0619    0.0000 C   0  0  0  0  0  0  0  0  0  0  0  0
    2.0046   -7.5702    0.0000 N   0  0  0  0  0  0  0  0  0  0  0  0
    3.3037   -6.8202    0.0000 C   0  0  0  0  0  0  0  0  0  0  0  0
    2.9918   -5.3529    0.0000 C   0  0  0  0  0  0  0  0  0  0  0  0
    1.5000   -5.1962    0.0000 C   0  0  0  0  0  0  0  0  0  0  0  0
    0.7500   -3.8971    0.0000 C   0  0  0  0  0  0  0  0  0  0  0  0
   -0.7500   -3.8971    0.0000 O   0  0  0  0  0  0  0  0  0  0  0  0
    1.5000   -2.5981    0.0000 N   0  0  0  0  0  0  0  0  0  0  0  0
    0.7500   -1.2990    0.0000 C   0  0  0  0  0  0  0  0  0  0  0  0
    1.5000    0.0000    0.0000 N   0  0  0  0  0  0  0  0  0  0  0  0
    0.7500    1.2990    0.0000 N   0  0  0  0  0  0  0  0  0  0  0  0
   -0.7500    1.2990    0.0000 N   0  0  0  0  0  0  0  0  0  0  0  0
   -1.5000    0.0000    0.0000 N   0  0  0  0  0  0  0  0  0  0  0  0
   -0.7500   -1.2990    0.0000 N   0  0  0  0  0  0  0  0  0  0  0  0
    0.8899   -6.5665    0.0000 C   0  0  0  0  0  0  0  0  0  0  0  0
  1  2  1  0
  2  3  1  0
  3  4  2  0
  4  5  1  0
  5  6  1  0
  6  7  2  0
  6  8  1  0
  8  9  1  0
  9 10  2  0
 10 11  1  0
 11 12  2  0
 12 13  1  0
 13 14  2  0
  5 15  1  0
 15  2  1  0
 14  9  1  0
M  END
>  <Title>  (298) 
idAAJRgen7

$$$$

     RDKit          2D

 10  9  0  0  0  0  0  0  0  0999 V2000
    0.0000    0.0000    0.0000 C   0  0  0  0  0  0  0  0  0  0  0  0
    1.2990    0.7500    0.0000 C   0  0  0  0  0  0  0  0  0  0  0  0
    1.2990    2.2500    0.0000 O   0  0  0  0  0  0  0  0  0  0  0  0
    2.5981   -0.0000    0.0000 C   0  0  0  0  0  0  0  0  0  0  0  0
    3.8971    0.7500    0.0000 C   0  0  0  0  0  0  0  0  0  0  0  0
    5.1962   -0.0000    0.0000 C   0  0  0  0  0  0  0  0  0  0  0  0
    5.1962   -1.5000    0.0000 O   0  0  0  0  0  0  0  0  0  0  0  0
    6.4952    0.7500    0.0000 C   0  0  0  0  0  0  0  0  0  0  0  0
    7.7942   -0.0000    0.0000 C   0  0  0  0  0  0  0  0  0  0  0  0
    6.4952    2.2500    0.0000 C   0  0  0  0  0  0  0  0  0  0  0  0
  1  2  1  0
  2  3  2  0
  2  4  1  0
  4  5  1  0
  5  6  1  0
  6  7  2  0
  6  8  1  0
  8  9  1  0
  8 10  1  0
M  END
>  <Title>  (299) 
idAAJSgen7

$$$$

     RDKit          2D

 45 45  0  0  0  0  0  0  0  0999 V2000
   11.5361    0.0000    0.0000 C   0  0  0  0  0  0  0  0  0  0  0  0
   10.0361    0.0000    0.0000 C   0  0  0  0  0  0  0  0  0  0  0  0
    9.9240   -1.4958    0.0000 C   0  0  0  0  0  0  0  0  0  0  0  0
    9.5902   -2.9582    0.0000 C   0  0  0  0  0  0  0  0  0  0  0  0
    9.0422   -4.3545    0.0000 C   0  0  0  0  0  0  0  0  0  0  0  0
    8.2922   -5.6535    0.0000 C   0  0  0  0  0  0  0  0  0  0  0  0
    7.3570   -6.8263    0.0000 C   0  0  0  0  0  0  0  0  0  0  0  0
    6.2574   -7.8466    0.0000 C   0  0  0  0  0  0  0  0  0  0  0  0
    5.0181   -8.6915    0.0000 C   0  0  0  0  0  0  0  0  0  0  0  0
    3.6666   -9.3424    0.0000 C   0  0  0  0  0  0  0  0  0  0  0  0
    2.2332   -9.7845    0.0000 C   0  0  0  0  0  0  0  0  0  0  0  0
    0.7500  -10.0081    0.0000 C   0  0  0  0  0  0  0  0  0  0  0  0
   -0.7500  -10.0081    0.0000 C   0  0  0  0  0  0  0  0  0  0  0  0
   -2.2332   -9.7845    0.0000 C   0  0  0  0  0  0  0  0  0  0  0  0
   -3.6666   -9.3424    0.0000 C   0  0  0  0  0  0  0  0  0  0  0  0
   -5.0181   -8.6915    0.0000 C   0  0  0  0  0  0  0  0  0  0  0  0
   -6.2574   -7.8466    0.0000 C   0  0  0  0  0  0  0  0  0  0  0  0
   -7.3570   -6.8263    0.0000 C   0  0  0  0  0  0  0  0  0  0  0  0
   -8.2922   -5.6535    0.0000 C   0  0  0  0  0  0  0  0  0  0  0  0
   -9.0422   -4.3545    0.0000 C   0  0  0  0  0  0  0  0  0  0  0  0
   -9.5902   -2.9582    0.0000 C   0  0  0  0  0  0  0  0  0  0  0  0
   -9.9240   -1.4958    0.0000 C   0  0  0  0  0  0  0  0  0  0  0  0
  -10.0361    0.0000    0.0000 C   0  0  0  0  0  0  0  0  0  0  0  0
   -9.9240    1.4958    0.0000 C   0  0  0  0  0  0  0  0  0  0  0  0
   -9.5902    2.9582    0.0000 C   0  0  0  0  0  0  0  0  0  0  0  0
   -9.0422    4.3545    0.0000 C   0  0  0  0  0  0  0  0  0  0  0  0
   -8.2922    5.6535    0.0000 C   0  0  0  0  0  0  0  0  0  0  0  0
   -7.3570    6.8263    0.0000 C   0  0  0  0  0  0  0  0  0  0  0  0
   -6.2574    7.8466    0.0000 C   0  0  0  0  0  0  0  0  0  0  0  0
   -5.0181    8.6915    0.0000 C   0  0  0  0  0  0  0  0  0  0  0  0
   -3.6666    9.3424    0.0000 C   0  0  0  0  0  0  0  0  0  0  0  0
   -2.2332    9.7845    0.0000 C   0  0  0  0  0  0  0  0  0  0  0  0
   -0.7500   10.0081    0.0000 C   0  0  0  0  0  0  0  0  0  0  0  0
    0.7500   10.0081    0.0000 C   0  0  0  0  0  0  0  0  0  0  0  0
    2.2332    9.7845    0.0000 C   0  0  0  0  0  0  0  0  0  0  0  0
    3.6666    9.3424    0.0000 C   0  0  0  0  0  0  0  0  0  0  0  0
    5.0181    8.6915    0.0000 C   0  0  0  0  0  0  0  0  0  0  0  0
    6.2574    7.8466    0.0000 C   0  0  0  0  0  0  0  0  0  0  0  0
    7.3570    6.8263    0.0000 C   0  0  0  0  0  0  0  0  0  0  0  0
    8.2922    5.6535    0.0000 C   0  0  0  0  0  0  0  0  0  0  0  0
    9.0422    4.3545    0.0000 C   0  0  0  0  0  0  0  0  0  0  0  0
    9.5902    2.9582    0.0000 C   0  0  0  0  0  0  0  0  0  0  0  0
   11.0236    3.4003    0.0000 C   0  0  0  0  0  0  0  0  0  0  0  0
    9.9240    1.4958    0.0000 C   0  0  0  0  0  0  0  0  0  0  0  0
   11.4073    1.7194    0.0000 O   0  0  0  0  0  0  0  0  0  0  0  0
  1  2  1  0
  2  3  1  0
  3  4  1  0
  4  5  1  0
  5  6  1  0
  6  7  1  0
  7  8  1  0
  8  9  1  0
  9 10  1  0
 10 11  1  0
 11 12  1  0
 12 13  1  0
 13 14  1  0
 14 15  1  0
 15 16  1  0
 16 17  1  0
 17 18  1  0
 18 19  1  0
 19 20  1  0
 20 21  1  0
 21 22  1  0
 22 23  1  0
 23 24  1  0
 24 25  1  0
 25 26  1  0
 26 27  1  0
 27 28  1  0
 28 29  1  0
 29 30  1  0
 30 31  1  0
 31 32  1  0
 32 33  1  0
 33 34  1  0
 34 35  1  0
 35 36  1  0
 36 37  1  0
 37 38  1  0
 38 39  1  0
 39 40  1  0
 40 41  1  0
 41 42  1  0
 42 43  1  0
 42 44  1  0
 44 45  2  0
 44  2  1  0
M  END
>  <Title>  (300) 
idAAJTgen7

$$$$

     RDKit          2D

  3  2  0  0  0  0  0  0  0  0999 V2000
    0.0000    0.0000    0.0000 C   0  0  0  0  0  0  0  0  0  0  0  0
   -0.0000   -1.5000    0.0000 C   0  0  0  0  0  0  0  0  0  0  0  0
   -0.0000   -3.0000    0.0000 C   0  0  0  0  0  0  0  0  0  0  0  0
  1  2  3  0
  2  3  1  0
M  END
>  <Title>  (301) 
idAAJUgen7

$$$$

     RDKit          2D

 12 12  0  0  0  0  0  0  0  0999 V2000
    3.4598   -0.0000    0.0000 C   0  0  0  0  0  0  0  0  0  0  0  0
    1.9598    0.0000    0.0000 C   0  0  0  0  0  0  0  0  0  0  0  0
    1.3858   -1.3858    0.0000 C   0  0  0  0  0  0  0  0  0  0  0  0
   -0.0000   -1.9598    0.0000 C   0  0  0  0  0  0  0  0  0  0  0  0
   -1.3858   -1.3858    0.0000 C   0  0  0  0  0  0  0  0  0  0  0  0
   -1.5816   -2.8730    0.0000 C   0  0  0  0  0  0  0  0  0  0  0  0
   -2.8730   -1.5816    0.0000 C   0  0  0  0  0  0  0  0  0  0  0  0
   -1.9598    0.0000    0.0000 C   0  0  0  0  0  0  0  0  0  0  0  0
   -1.3858    1.3858    0.0000 C   0  0  0  0  0  0  0  0  0  0  0  0
   -2.4465    2.4465    0.0000 O   0  0  0  0  0  0  0  0  0  0  0  0
    0.0000    1.9598    0.0000 C   0  0  0  0  0  0  0  0  0  0  0  0
    1.3858    1.3858    0.0000 C   0  0  0  0  0  0  0  0  0  0  0  0
  1  2  1  0
  2  3  1  0
  3  4  2  0
  4  5  1  0
  5  6  1  0
  5  7  1  0
  5  8  1  0
  8  9  1  0
  9 10  1  0
  9 11  1  0
 11 12  1  0
 12  2  1  0
M  END
>  <Title>  (302) 
idAAJVgen7

$$$$

     RDKit          2D

 77 77  0  0  0  0  0  0  0  0999 V2000
   19.6488    0.0000    0.0000 C   0  0  0  0  0  0  0  0  0  0  0  0
   18.1488    0.0000    0.0000 C   0  0  0  0  0  0  0  0  0  0  0  0
   18.0868   -1.4987    0.0000 C   0  0  0  0  0  0  0  0  0  0  0  0
   17.9013   -2.9872    0.0000 C   0  0  0  0  0  0  0  0  0  0  0  0
   17.5935   -4.4553    0.0000 C   0  0  0  0  0  0  0  0  0  0  0  0
   17.1655   -5.8929    0.0000 C   0  0  0  0  0  0  0  0  0  0  0  0
   16.6202   -7.2903    0.0000 C   0  0  0  0  0  0  0  0  0  0  0  0
   15.9614   -8.6379    0.0000 C   0  0  0  0  0  0  0  0  0  0  0  0
   15.1936   -9.9265    0.0000 C   0  0  0  0  0  0  0  0  0  0  0  0
   14.3220  -11.1472    0.0000 C   0  0  0  0  0  0  0  0  0  0  0  0
   13.3525  -12.2919    0.0000 C   0  0  0  0  0  0  0  0  0  0  0  0
   12.2919  -13.3525    0.0000 C   0  0  0  0  0  0  0  0  0  0  0  0
   11.1472  -14.3220    0.0000 C   0  0  0  0  0  0  0  0  0  0  0  0
    9.9265  -15.1936    0.0000 C   0  0  0  0  0  0  0  0  0  0  0  0
    8.6379  -15.9614    0.0000 C   0  0  0  0  0  0  0  0  0  0  0  0
    7.2903  -16.6202    0.0000 C   0  0  0  0  0  0  0  0  0  0  0  0
    5.8929  -17.1655    0.0000 C   0  0  0  0  0  0  0  0  0  0  0  0
    4.4553  -17.5935    0.0000 C   0  0  0  0  0  0  0  0  0  0  0  0
    2.9872  -17.9013    0.0000 C   0  0  0  0  0  0  0  0  0  0  0  0
    1.4987  -18.0868    0.0000 C   0  0  0  0  0  0  0  0  0  0  0  0
   -0.0000  -18.1488    0.0000 C   0  0  0  0  0  0  0  0  0  0  0  0
   -1.4987  -18.0868    0.0000 C   0  0  0  0  0  0  0  0  0  0  0  0
   -2.9872  -17.9013    0.0000 C   0  0  0  0  0  0  0  0  0  0  0  0
   -4.4553  -17.5935    0.0000 C   0  0  0  0  0  0  0  0  0  0  0  0
   -5.8929  -17.1655    0.0000 C   0  0  0  0  0  0  0  0  0  0  0  0
   -7.2903  -16.6202    0.0000 C   0  0  0  0  0  0  0  0  0  0  0  0
   -8.6379  -15.9614    0.0000 C   0  0  0  0  0  0  0  0  0  0  0  0
   -9.9265  -15.1936    0.0000 C   0  0  0  0  0  0  0  0  0  0  0  0
  -11.1472  -14.3220    0.0000 C   0  0  0  0  0  0  0  0  0  0  0  0
  -12.2919  -13.3525    0.0000 C   0  0  0  0  0  0  0  0  0  0  0  0
  -13.3525  -12.2919    0.0000 C   0  0  0  0  0  0  0  0  0  0  0  0
  -14.3220  -11.1472    0.0000 C   0  0  0  0  0  0  0  0  0  0  0  0
  -15.1936   -9.9265    0.0000 C   0  0  0  0  0  0  0  0  0  0  0  0
  -15.9614   -8.6379    0.0000 C   0  0  0  0  0  0  0  0  0  0  0  0
  -16.6202   -7.2903    0.0000 C   0  0  0  0  0  0  0  0  0  0  0  0
  -17.1655   -5.8929    0.0000 C   0  0  0  0  0  0  0  0  0  0  0  0
  -17.5935   -4.4553    0.0000 C   0  0  0  0  0  0  0  0  0  0  0  0
  -17.9013   -2.9872    0.0000 C   0  0  0  0  0  0  0  0  0  0  0  0
  -18.0868   -1.4987    0.0000 C   0  0  0  0  0  0  0  0  0  0  0  0
  -18.1488    0.0000    0.0000 C   0  0  0  0  0  0  0  0  0  0  0  0
  -18.0868    1.4987    0.0000 C   0  0  0  0  0  0  0  0  0  0  0  0
  -17.9013    2.9872    0.0000 C   0  0  0  0  0  0  0  0  0  0  0  0
  -17.5935    4.4553    0.0000 C   0  0  0  0  0  0  0  0  0  0  0  0
  -17.1655    5.8929    0.0000 C   0  0  0  0  0  0  0  0  0  0  0  0
  -16.6202    7.2903    0.0000 C   0  0  0  0  0  0  0  0  0  0  0  0
  -15.9614    8.6379    0.0000 C   0  0  0  0  0  0  0  0  0  0  0  0
  -15.1936    9.9265    0.0000 C   0  0  0  0  0  0  0  0  0  0  0  0
  -14.3220   11.1472    0.0000 C   0  0  0  0  0  0  0  0  0  0  0  0
  -13.3525   12.2919    0.0000 C   0  0  0  0  0  0  0  0  0  0  0  0
  -12.2919   13.3525    0.0000 C   0  0  0  0  0  0  0  0  0  0  0  0
  -11.1472   14.3220    0.0000 C   0  0  0  0  0  0  0  0  0  0  0  0
   -9.9265   15.1936    0.0000 C   0  0  0  0  0  0  0  0  0  0  0  0
   -8.6379   15.9614    0.0000 C   0  0  0  0  0  0  0  0  0  0  0  0
   -7.2903   16.6202    0.0000 C   0  0  0  0  0  0  0  0  0  0  0  0
   -5.8929   17.1655    0.0000 C   0  0  0  0  0  0  0  0  0  0  0  0
   -4.4553   17.5935    0.0000 C   0  0  0  0  0  0  0  0  0  0  0  0
   -2.9872   17.9013    0.0000 C   0  0  0  0  0  0  0  0  0  0  0  0
   -1.4987   18.0868    0.0000 C   0  0  0  0  0  0  0  0  0  0  0  0
    0.0000   18.1488    0.0000 C   0  0  0  0  0  0  0  0  0  0  0  0
    1.4987   18.0868    0.0000 C   0  0  0  0  0  0  0  0  0  0  0  0
    2.9872   17.9013    0.0000 C   0  0  0  0  0  0  0  0  0  0  0  0
    4.4553   17.5935    0.0000 C   0  0  0  0  0  0  0  0  0  0  0  0
    5.8929   17.1655    0.0000 C   0  0  0  0  0  0  0  0  0  0  0  0
    7.2903   16.6202    0.0000 C   0  0  0  0  0  0  0  0  0  0  0  0
    8.6379   15.9614    0.0000 C   0  0  0  0  0  0  0  0  0  0  0  0
    9.9265   15.1936    0.0000 C   0  0  0  0  0  0  0  0  0  0  0  0
   11.1472   14.3220    0.0000 C   0  0  0  0  0  0  0  0  0  0  0  0
   12.2919   13.3525    0.0000 C   0  0  0  0  0  0  0  0  0  0  0  0
   13.3525   12.2919    0.0000 C   0  0  0  0  0  0  0  0  0  0  0  0
   14.3220   11.1472    0.0000 C   0  0  0  0  0  0  0  0  0  0  0  0
   15.1936    9.9265    0.0000 C   0  0  0  0  0  0  0  0  0  0  0  0
   15.9614    8.6379    0.0000 C   0  0  0  0  0  0  0  0  0  0  0  0
   16.6202    7.2903    0.0000 C   0  0  0  0  0  0  0  0  0  0  0  0
   17.1655    5.8929    0.0000 C   0  0  0  0  0  0  0  0  0  0  0  0
   17.5935    4.4553    0.0000 C   0  0  0  0  0  0  0  0  0  0  0  0
   17.9013    2.9872    0.0000 C   0  0  0  0  0  0  0  0  0  0  0  0
   18.0868    1.4987    0.0000 C   0  0  0  0  0  0  0  0  0  0  0  0
  1  2  1  0
  2  3  1  0
  3  4  1  0
  4  5  1  0
  5  6  1  0
  6  7  1  0
  7  8  1  0
  8  9  1  0
  9 10  1  0
 10 11  1  0
 11 12  1  0
 12 13  1  0
 13 14  1  0
 14 15  1  0
 15 16  1  0
 16 17  1  0
 17 18  1  0
 18 19  1  0
 19 20  1  0
 20 21  1  0
 21 22  1  0
 22 23  1  0
 23 24  1  0
 24 25  1  0
 25 26  1  0
 26 27  1  0
 27 28  1  0
 28 29  1  0
 29 30  1  0
 30 31  1  0
 31 32  1  0
 32 33  1  0
 33 34  1  0
 34 35  1  0
 35 36  1  0
 36 37  1  0
 37 38  1  0
 38 39  1  0
 39 40  1  0
 40 41  1  0
 41 42  1  0
 42 43  1  0
 43 44  1  0
 44 45  1  0
 45 46  1  0
 46 47  1  0
 47 48  1  0
 48 49  1  0
 49 50  1  0
 50 51  1  0
 51 52  1  0
 52 53  1  0
 53 54  1  0
 54 55  1  0
 55 56  1  0
 56 57  1  0
 57 58  1  0
 58 59  1  0
 59 60  1  0
 60 61  1  0
 61 62  1  0
 62 63  1  0
 63 64  1  0
 64 65  1  0
 65 66  1  0
 66 67  1  0
 67 68  1  0
 68 69  1  0
 69 70  1  0
 70 71  1  0
 71 72  1  0
 72 73  1  0
 73 74  1  0
 74 75  1  0
 75 76  1  0
 76 77  1  0
 77  2  1  0
M  END
>  <Title>  (303) 
idAAJWgen7

$$$$

     RDKit          2D

  9  9  0  0  0  0  0  0  0  0999 V2000
    3.9786   -1.2990    0.0000 C   0  0  0  0  0  0  0  0  0  0  0  0
    3.2286   -0.0000    0.0000 O   0  0  0  0  0  0  0  0  0  0  0  0
    1.7286    0.0000    0.0000 C   0  0  0  0  0  0  0  0  0  0  0  0
    1.0777    1.3515    0.0000 C   0  0  0  0  0  0  0  0  0  0  0  0
   -0.3846    1.6852    0.0000 C   0  0  0  0  0  0  0  0  0  0  0  0
   -1.5574    0.7500    0.0000 C   0  0  0  0  0  0  0  0  0  0  0  0
   -1.5574   -0.7500    0.0000 C   0  0  0  0  0  0  0  0  0  0  0  0
   -0.3846   -1.6852    0.0000 C   0  0  0  0  0  0  0  0  0  0  0  0
    1.0777   -1.3515    0.0000 C   0  0  0  0  0  0  0  0  0  0  0  0
  1  2  1  0
  2  3  1  0
  3  4  2  0
  4  5  1  0
  5  6  1  0
  6  7  1  0
  7  8  2  0
  8  9  1  0
  9  3  1  0
M  END
>  <Title>  (304) 
idAAJXgen7

$$$$

     RDKit          2D

 20 20  0  0  0  0  0  0  0  0999 V2000
    4.7943    0.0000    0.0000 C   0  0  0  0  0  0  0  0  0  0  0  0
    4.5597   -1.4815    0.0000 C   0  0  0  0  0  0  0  0  0  0  0  0
    3.8787   -2.8180    0.0000 C   0  0  0  0  0  0  0  0  0  0  0  0
    2.8180   -3.8787    0.0000 C   0  0  0  0  0  0  0  0  0  0  0  0
    1.4815   -4.5597    0.0000 C   0  0  0  0  0  0  0  0  0  0  0  0
   -0.0000   -4.7943    0.0000 C   0  0  0  0  0  0  0  0  0  0  0  0
   -1.4815   -4.5597    0.0000 C   0  0  0  0  0  0  0  0  0  0  0  0
   -2.8180   -3.8787    0.0000 C   0  0  0  0  0  0  0  0  0  0  0  0
   -3.8787   -2.8180    0.0000 C   0  0  0  0  0  0  0  0  0  0  0  0
   -4.5597   -1.4815    0.0000 C   0  0  0  0  0  0  0  0  0  0  0  0
   -4.7943    0.0000    0.0000 C   0  0  0  0  0  0  0  0  0  0  0  0
   -4.5597    1.4815    0.0000 C   0  0  0  0  0  0  0  0  0  0  0  0
   -3.8787    2.8180    0.0000 C   0  0  0  0  0  0  0  0  0  0  0  0
   -2.8180    3.8787    0.0000 C   0  0  0  0  0  0  0  0  0  0  0  0
   -1.4815    4.5597    0.0000 C   0  0  0  0  0  0  0  0  0  0  0  0
    0.0000    4.7943    0.0000 C   0  0  0  0  0  0  0  0  0  0  0  0
    1.4815    4.5597    0.0000 C   0  0  0  0  0  0  0  0  0  0  0  0
    2.8180    3.8787    0.0000 C   0  0  0  0  0  0  0  0  0  0  0  0
    3.8787    2.8180    0.0000 C   0  0  0  0  0  0  0  0  0  0  0  0
    4.5597    1.4815    0.0000 C   0  0  0  0  0  0  0  0  0  0  0  0
  1  2  1  0
  2  3  1  0
  3  4  1  0
  4  5  1  0
  5  6  1  0
  6  7  1  0
  7  8  1  0
  8  9  1  0
  9 10  1  0
 10 11  1  0
 11 12  1  0
 12 13  1  0
 13 14  1  0
 14 15  1  0
 15 16  1  0
 16 17  1  0
 17 18  1  0
 18 19  1  0
 19 20  1  0
 20  1  1  0
M  END
>  <Title>  (305) 
idAAJYgen7

$$$$

     RDKit          2D

 13 14  0  0  0  0  0  0  0  0999 V2000
    3.0000    0.0000    0.0000 O   0  0  0  0  0  0  0  0  0  0  0  0
    1.5000    0.0000    0.0000 C   0  0  0  0  0  0  0  0  0  0  0  0
    0.7500   -1.2990    0.0000 C   0  0  0  0  0  0  0  0  0  0  0  0
   -0.7500   -1.2990    0.0000 C   0  0  0  0  0  0  0  0  0  0  0  0
   -1.5000    0.0000    0.0000 C   0  0  0  0  0  0  0  0  0  0  0  0
   -0.7500    1.2990    0.0000 C   0  0  0  0  0  0  0  0  0  0  0  0
   -1.5000    2.5981    0.0000 N   0  0  0  0  0  0  0  0  0  0  0  0
   -0.7500    3.8971    0.0000 C   0  0  0  0  0  0  0  0  0  0  0  0
   -1.5000    5.1962    0.0000 C   0  0  0  0  0  0  0  0  0  0  0  0
   -3.0000    5.1962    0.0000 C   0  0  0  0  0  0  0  0  0  0  0  0
   -3.7500    3.8971    0.0000 C   0  0  0  0  0  0  0  0  0  0  0  0
   -3.0000    2.5981    0.0000 C   0  0  0  0  0  0  0  0  0  0  0  0
    0.7500    1.2990    0.0000 C   0  0  0  0  0  0  0  0  0  0  0  0
  1  2  1  0
  2  3  2  0
  3  4  1  0
  4  5  1  0
  5  6  1  0
  6  7  1  0
  7  8  1  0
  8  9  1  0
  9 10  1  0
 10 11  1  0
 11 12  1  0
  6 13  1  0
 13  2  1  0
 12  7  1  0
M  END
>  <Title>  (306) 
idAAJZgen7

$$$$

     RDKit          2D

  7  7  0  0  0  0  0  0  0  0999 V2000
    3.0000    0.0000    0.0000 C   0  0  0  0  0  0  0  0  0  0  0  0
    1.5000    0.0000    0.0000 C   0  0  0  0  0  0  0  0  0  0  0  0
    0.7500   -1.2990    0.0000 C   0  0  0  0  0  0  0  0  0  0  0  0
   -0.7500   -1.2990    0.0000 C   0  0  0  0  0  0  0  0  0  0  0  0
   -1.5000    0.0000    0.0000 C   0  0  0  0  0  0  0  0  0  0  0  0
   -0.7500    1.2990    0.0000 C   0  0  0  0  0  0  0  0  0  0  0  0
    0.7500    1.2990    0.0000 C   0  0  0  0  0  0  0  0  0  0  0  0
  1  2  1  0
  2  3  1  0
  3  4  1  0
  4  5  2  0
  5  6  1  0
  6  7  1  0
  7  2  1  0
M  END
>  <Title>  (307) 
idAAKAgen7

$$$$

     RDKit          2D

 11 11  0  0  0  0  0  0  0  0999 V2000
    3.9271    0.0000    0.0000 C   0  0  0  0  0  0  0  0  0  0  0  0
    2.4271    0.0000    0.0000 C   0  0  0  0  0  0  0  0  0  0  0  0
    1.9635   -1.4266    0.0000 C   0  0  0  0  0  0  0  0  0  0  0  0
    0.7500   -2.3083    0.0000 C   0  0  0  0  0  0  0  0  0  0  0  0
   -0.7500   -2.3083    0.0000 C   0  0  0  0  0  0  0  0  0  0  0  0
   -1.9635   -1.4266    0.0000 C   0  0  0  0  0  0  0  0  0  0  0  0
   -2.4271    0.0000    0.0000 C   0  0  0  0  0  0  0  0  0  0  0  0
   -1.9635    1.4266    0.0000 C   0  0  0  0  0  0  0  0  0  0  0  0
   -0.7500    2.3083    0.0000 C   0  0  0  0  0  0  0  0  0  0  0  0
    0.7500    2.3083    0.0000 C   0  0  0  0  0  0  0  0  0  0  0  0
    1.9635    1.4266    0.0000 C   0  0  0  0  0  0  0  0  0  0  0  0
  1  2  1  0
  2  3  2  0
  3  4  1  0
  4  5  1  0
  5  6  2  0
  6  7  1  0
  7  8  2  0
  8  9  1  0
  9 10  2  0
 10 11  1  0
 11  2  1  0
M  END
>  <Title>  (308) 
idAAKBgen7

$$$$

     RDKit          2D

 11 12  0  0  0  0  0  0  0  0999 V2000
    2.7760    0.0000    0.0000 C   0  0  0  0  0  0  0  0  0  0  0  0
    1.2760    0.0000    0.0000 C   0  0  0  0  0  0  0  0  0  0  0  0
    0.3943    1.2135    0.0000 C   0  0  0  0  0  0  0  0  0  0  0  0
   -1.0323    0.7500    0.0000 C   0  0  0  0  0  0  0  0  0  0  0  0
   -1.0323   -0.7500    0.0000 C   0  0  0  0  0  0  0  0  0  0  0  0
   -2.2458   -1.6317    0.0000 N   0  0  0  0  0  0  0  0  0  0  0  0
   -2.2458   -3.1317    0.0000 C   0  0  0  0  0  0  0  0  0  0  0  0
   -3.6724   -3.5952    0.0000 C   0  0  0  0  0  0  0  0  0  0  0  0
   -4.5541   -2.3817    0.0000 C   0  0  0  0  0  0  0  0  0  0  0  0
   -3.6724   -1.1682    0.0000 C   0  0  0  0  0  0  0  0  0  0  0  0
    0.3943   -1.2135    0.0000 C   0  0  0  0  0  0  0  0  0  0  0  0
  1  2  1  0
  2  3  2  0
  3  4  1  0
  4  5  2  0
  5  6  1  0
  6  7  1  0
  7  8  2  0
  8  9  1  0
  9 10  2  0
  5 11  1  0
 11  2  1  0
 10  6  1  0
M  END
>  <Title>  (309) 
idAAKCgen7

$$$$

     RDKit          2D

 56 57  0  0  0  0  0  0  0  0999 V2000
   13.2059   -0.0000    0.0000 C   0  0  0  0  0  0  0  0  0  0  0  0
   11.7059    0.0000    0.0000 C   0  0  0  0  0  0  0  0  0  0  0  0
   11.6098    1.4969    0.0000 C   0  0  0  0  0  0  0  0  0  0  0  0
   11.3231    2.9693    0.0000 C   0  0  0  0  0  0  0  0  0  0  0  0
   10.8504    4.3928    0.0000 C   0  0  0  0  0  0  0  0  0  0  0  0
   10.1996    5.7443    0.0000 C   0  0  0  0  0  0  0  0  0  0  0  0
    9.3813    7.0014    0.0000 C   0  0  0  0  0  0  0  0  0  0  0  0
    8.4089    8.1436    0.0000 C   0  0  0  0  0  0  0  0  0  0  0  0
    7.2985    9.1520    0.0000 C   0  0  0  0  0  0  0  0  0  0  0  0
    6.0683   10.0102    0.0000 C   0  0  0  0  0  0  0  0  0  0  0  0
    4.7384   10.7040    0.0000 C   0  0  0  0  0  0  0  0  0  0  0  0
    3.3307   11.2221    0.0000 C   0  0  0  0  0  0  0  0  0  0  0  0
    1.8683   11.5559    0.0000 C   0  0  0  0  0  0  0  0  0  0  0  0
    0.3752   11.6999    0.0000 C   0  0  0  0  0  0  0  0  0  0  0  0
   -1.1240   11.6518    0.0000 C   0  0  0  0  0  0  0  0  0  0  0  0
   -2.6048   11.4124    0.0000 C   0  0  0  0  0  0  0  0  0  0  0  0
   -4.0428   10.9856    0.0000 C   0  0  0  0  0  0  0  0  0  0  0  0
   -5.4144   10.3784    0.0000 C   0  0  0  0  0  0  0  0  0  0  0  0
   -6.6971    9.6009    0.0000 C   0  0  0  0  0  0  0  0  0  0  0  0
   -7.8699    8.6656    0.0000 C   0  0  0  0  0  0  0  0  0  0  0  0
   -8.9134    7.5881    0.0000 C   0  0  0  0  0  0  0  0  0  0  0  0
   -9.8106    6.3860    0.0000 C   0  0  0  0  0  0  0  0  0  0  0  0
  -10.5467    5.0790    0.0000 C   0  0  0  0  0  0  0  0  0  0  0  0
  -11.1096    3.6886    0.0000 C   0  0  0  0  0  0  0  0  0  0  0  0
  -11.4900    2.2377    0.0000 C   0  0  0  0  0  0  0  0  0  0  0  0
  -11.6819    0.7500    0.0000 C   0  0  0  0  0  0  0  0  0  0  0  0
  -11.6819   -0.7500    0.0000 C   0  0  0  0  0  0  0  0  0  0  0  0
  -11.4900   -2.2377    0.0000 C   0  0  0  0  0  0  0  0  0  0  0  0
  -11.1096   -3.6886    0.0000 C   0  0  0  0  0  0  0  0  0  0  0  0
  -10.5467   -5.0790    0.0000 C   0  0  0  0  0  0  0  0  0  0  0  0
   -9.8106   -6.3860    0.0000 C   0  0  0  0  0  0  0  0  0  0  0  0
   -8.9134   -7.5881    0.0000 C   0  0  0  0  0  0  0  0  0  0  0  0
   -7.8699   -8.6656    0.0000 C   0  0  0  0  0  0  0  0  0  0  0  0
   -6.6971   -9.6009    0.0000 C   0  0  0  0  0  0  0  0  0  0  0  0
   -5.4144  -10.3784    0.0000 C   0  0  0  0  0  0  0  0  0  0  0  0
   -4.0428  -10.9856    0.0000 C   0  0  0  0  0  0  0  0  0  0  0  0
   -2.6048  -11.4124    0.0000 C   0  0  0  0  0  0  0  0  0  0  0  0
   -1.1240  -11.6518    0.0000 C   0  0  0  0  0  0  0  0  0  0  0  0
    0.3752  -11.6999    0.0000 C   0  0  0  0  0  0  0  0  0  0  0  0
    1.8683  -11.5559    0.0000 C   0  0  0  0  0  0  0  0  0  0  0  0
    3.3307  -11.2221    0.0000 C   0  0  0  0  0  0  0  0  0  0  0  0
    4.7384  -10.7040    0.0000 C   0  0  0  0  0  0  0  0  0  0  0  0
    6.0683  -10.0102    0.0000 C   0  0  0  0  0  0  0  0  0  0  0  0
    7.2985   -9.1520    0.0000 C   0  0  0  0  0  0  0  0  0  0  0  0
    8.4089   -8.1436    0.0000 C   0  0  0  0  0  0  0  0  0  0  0  0
    9.3813   -7.0014    0.0000 C   0  0  0  0  0  0  0  0  0  0  0  0
   10.1996   -5.7443    0.0000 C   0  0  0  0  0  0  0  0  0  0  0  0
   10.8504   -4.3928    0.0000 C   0  0  0  0  0  0  0  0  0  0  0  0
   12.2408   -4.9557    0.0000 C   0  0  0  0  0  0  0  0  0  0  0  0
   12.4485   -6.4413    0.0000 C   0  0  0  0  0  0  0  0  0  0  0  0
   13.8389   -7.0042    0.0000 C   0  0  0  0  0  0  0  0  0  0  0  0
   15.0215   -6.0815    0.0000 C   0  0  0  0  0  0  0  0  0  0  0  0
   14.8138   -4.5960    0.0000 C   0  0  0  0  0  0  0  0  0  0  0  0
   13.4234   -4.0331    0.0000 C   0  0  0  0  0  0  0  0  0  0  0  0
   11.3231   -2.9693    0.0000 C   0  0  0  0  0  0  0  0  0  0  0  0
   11.6098   -1.4969    0.0000 C   0  0  0  0  0  0  0  0  0  0  0  0
  1  2  1  0
  2  3  1  0
  3  4  1  0
  4  5  1  0
  5  6  1  0
  6  7  1  0
  7  8  1  0
  8  9  1  0
  9 10  1  0
 10 11  1  0
 11 12  1  0
 12 13  1  0
 13 14  1  0
 14 15  1  0
 15 16  1  0
 16 17  1  0
 17 18  1  0
 18 19  1  0
 19 20  1  0
 20 21  1  0
 21 22  1  0
 22 23  1  0
 23 24  1  0
 24 25  1  0
 25 26  1  0
 26 27  1  0
 27 28  1  0
 28 29  1  0
 29 30  1  0
 30 31  1  0
 31 32  1  0
 32 33  1  0
 33 34  1  0
 34 35  1  0
 35 36  1  0
 36 37  1  0
 37 38  1  0
 38 39  1  0
 39 40  1  0
 40 41  1  0
 41 42  1  0
 42 43  1  0
 43 44  1  0
 44 45  1  0
 45 46  1  0
 46 47  1  0
 47 48  1  0
 48 49  1  0
 49 50  2  0
 50 51  1  0
 51 52  2  0
 52 53  1  0
 53 54  2  0
 48 55  1  0
 55 56  1  0
 56  2  1  0
 54 49  1  0
M  END
>  <Title>  (310) 
idAAKDgen7

$$$$

     RDKit          2D

 16 17  0  0  0  0  0  0  0  0999 V2000
    1.8478   -9.0619    0.0000 C   0  0  0  0  0  0  0  0  0  0  0  0
    2.0046   -7.5702    0.0000 C   0  0  0  0  0  0  0  0  0  0  0  0
    3.3037   -6.8202    0.0000 C   0  0  0  0  0  0  0  0  0  0  0  0
    2.9918   -5.3529    0.0000 C   0  0  0  0  0  0  0  0  0  0  0  0
    1.5000   -5.1962    0.0000 C   0  0  0  0  0  0  0  0  0  0  0  0
    0.7500   -3.8971    0.0000 C   0  0  0  0  0  0  0  0  0  0  0  0
   -0.7500   -3.8971    0.0000 O   0  0  0  0  0  0  0  0  0  0  0  0
    1.5000   -2.5981    0.0000 N   0  0  0  0  0  0  0  0  0  0  0  0
    0.7500   -1.2990    0.0000 C   0  0  0  0  0  0  0  0  0  0  0  0
    1.5000    0.0000    0.0000 N   0  0  0  0  0  0  0  0  0  0  0  0
    0.7500    1.2990    0.0000 N   0  0  0  0  0  0  0  0  0  0  0  0
   -0.7500    1.2990    0.0000 N   0  0  0  0  0  0  0  0  0  0  0  0
   -1.5000    0.0000    0.0000 N   0  0  0  0  0  0  0  0  0  0  0  0
   -0.7500   -1.2990    0.0000 N   0  0  0  0  0  0  0  0  0  0  0  0
    0.8899   -6.5665    0.0000 C   0  0  0  0  0  0  0  0  0  0  0  0
   -0.5773   -6.8783    0.0000 O   0  0  0  0  0  0  0  0  0  0  0  0
  1  2  1  0
  2  3  2  0
  3  4  1  0
  4  5  2  0
  5  6  1  0
  6  7  2  0
  6  8  1  0
  8  9  1  0
  9 10  2  0
 10 11  1  0
 11 12  2  0
 12 13  1  0
 13 14  2  0
  5 15  1  0
 15 16  2  0
 15  2  1  0
 14  9  1  0
M  END
>  <Title>  (311) 
idAAKEgen7

$$$$

     RDKit          2D

 53 53  0  0  0  0  0  0  0  0999 V2000
   13.9216    0.0000    0.0000 C   0  0  0  0  0  0  0  0  0  0  0  0
   12.4216    0.0000    0.0000 C   0  0  0  0  0  0  0  0  0  0  0  0
   12.3311   -1.4973    0.0000 C   0  0  0  0  0  0  0  0  0  0  0  0
   12.0607   -2.9727    0.0000 C   0  0  0  0  0  0  0  0  0  0  0  0
   11.6144   -4.4048    0.0000 C   0  0  0  0  0  0  0  0  0  0  0  0
   10.9988   -5.7726    0.0000 C   0  0  0  0  0  0  0  0  0  0  0  0
   10.2228   -7.0563    0.0000 C   0  0  0  0  0  0  0  0  0  0  0  0
    9.2977   -8.2371    0.0000 C   0  0  0  0  0  0  0  0  0  0  0  0
    8.2371   -9.2977    0.0000 C   0  0  0  0  0  0  0  0  0  0  0  0
    7.0563  -10.2228    0.0000 C   0  0  0  0  0  0  0  0  0  0  0  0
    5.7726  -10.9988    0.0000 C   0  0  0  0  0  0  0  0  0  0  0  0
    4.4048  -11.6144    0.0000 C   0  0  0  0  0  0  0  0  0  0  0  0
    2.9727  -12.0607    0.0000 C   0  0  0  0  0  0  0  0  0  0  0  0
    1.4973  -12.3311    0.0000 C   0  0  0  0  0  0  0  0  0  0  0  0
   -0.0000  -12.4216    0.0000 C   0  0  0  0  0  0  0  0  0  0  0  0
   -1.4973  -12.3311    0.0000 C   0  0  0  0  0  0  0  0  0  0  0  0
   -2.9727  -12.0607    0.0000 C   0  0  0  0  0  0  0  0  0  0  0  0
   -4.4048  -11.6144    0.0000 C   0  0  0  0  0  0  0  0  0  0  0  0
   -5.7726  -10.9988    0.0000 C   0  0  0  0  0  0  0  0  0  0  0  0
   -7.0563  -10.2228    0.0000 C   0  0  0  0  0  0  0  0  0  0  0  0
   -8.2371   -9.2977    0.0000 C   0  0  0  0  0  0  0  0  0  0  0  0
   -9.2977   -8.2371    0.0000 C   0  0  0  0  0  0  0  0  0  0  0  0
  -10.2228   -7.0563    0.0000 C   0  0  0  0  0  0  0  0  0  0  0  0
  -10.9988   -5.7726    0.0000 C   0  0  0  0  0  0  0  0  0  0  0  0
  -11.6144   -4.4048    0.0000 C   0  0  0  0  0  0  0  0  0  0  0  0
  -12.0607   -2.9727    0.0000 C   0  0  0  0  0  0  0  0  0  0  0  0
  -12.3311   -1.4973    0.0000 C   0  0  0  0  0  0  0  0  0  0  0  0
  -12.4216    0.0000    0.0000 C   0  0  0  0  0  0  0  0  0  0  0  0
  -12.3311    1.4973    0.0000 C   0  0  0  0  0  0  0  0  0  0  0  0
  -12.0607    2.9727    0.0000 C   0  0  0  0  0  0  0  0  0  0  0  0
  -11.6144    4.4048    0.0000 C   0  0  0  0  0  0  0  0  0  0  0  0
  -10.9988    5.7726    0.0000 C   0  0  0  0  0  0  0  0  0  0  0  0
  -10.2228    7.0563    0.0000 C   0  0  0  0  0  0  0  0  0  0  0  0
   -9.2977    8.2371    0.0000 C   0  0  0  0  0  0  0  0  0  0  0  0
   -8.2371    9.2977    0.0000 C   0  0  0  0  0  0  0  0  0  0  0  0
   -7.0563   10.2228    0.0000 C   0  0  0  0  0  0  0  0  0  0  0  0
   -5.7726   10.9988    0.0000 C   0  0  0  0  0  0  0  0  0  0  0  0
   -4.4048   11.6144    0.0000 C   0  0  0  0  0  0  0  0  0  0  0  0
   -2.9727   12.0607    0.0000 C   0  0  0  0  0  0  0  0  0  0  0  0
   -1.4973   12.3311    0.0000 C   0  0  0  0  0  0  0  0  0  0  0  0
    0.0000   12.4216    0.0000 C   0  0  0  0  0  0  0  0  0  0  0  0
    1.4973   12.3311    0.0000 C   0  0  0  0  0  0  0  0  0  0  0  0
    2.9727   12.0607    0.0000 C   0  0  0  0  0  0  0  0  0  0  0  0
    4.4048   11.6144    0.0000 C   0  0  0  0  0  0  0  0  0  0  0  0
    5.7726   10.9988    0.0000 C   0  0  0  0  0  0  0  0  0  0  0  0
    7.0563   10.2228    0.0000 C   0  0  0  0  0  0  0  0  0  0  0  0
    8.2371    9.2977    0.0000 C   0  0  0  0  0  0  0  0  0  0  0  0
    9.2977    8.2371    0.0000 C   0  0  0  0  0  0  0  0  0  0  0  0
   10.2228    7.0563    0.0000 C   0  0  0  0  0  0  0  0  0  0  0  0
   10.9988    5.7726    0.0000 C   0  0  0  0  0  0  0  0  0  0  0  0
   11.6144    4.4048    0.0000 C   0  0  0  0  0  0  0  0  0  0  0  0
   12.0607    2.9727    0.0000 C   0  0  0  0  0  0  0  0  0  0  0  0
   12.3311    1.4973    0.0000 C   0  0  0  0  0  0  0  0  0  0  0  0
  1  2  1  0
  2  3  1  0
  3  4  2  0
  4  5  1  0
  5  6  2  0
  6  7  1  0
  7  8  2  0
  8  9  1  0
  9 10  2  0
 10 11  1  0
 11 12  1  0
 12 13  1  0
 13 14  1  0
 14 15  1  0
 15 16  1  0
 16 17  1  0
 17 18  1  0
 18 19  1  0
 19 20  1  0
 20 21  1  0
 21 22  1  0
 22 23  1  0
 23 24  1  0
 24 25  1  0
 25 26  1  0
 26 27  1  0
 27 28  1  0
 28 29  1  0
 29 30  1  0
 30 31  1  0
 31 32  1  0
 32 33  1  0
 33 34  1  0
 34 35  1  0
 35 36  1  0
 36 37  1  0
 37 38  1  0
 38 39  1  0
 39 40  1  0
 40 41  1  0
 41 42  1  0
 42 43  1  0
 43 44  1  0
 44 45  1  0
 45 46  1  0
 46 47  1  0
 47 48  1  0
 48 49  1  0
 49 50  1  0
 50 51  1  0
 51 52  1  0
 52 53  1  0
 53  2  1  0
M  END
>  <Title>  (312) 
idAAKFgen7

$$$$

     RDKit          2D

 95 98  0  0  0  0  0  0  0  0999 V2000
   -2.4327    0.0636    0.0000 C   0  0  0  0  0  0  0  0  0  0  0  0
   -2.2447   -1.4246    0.0000 C   0  0  0  0  0  0  0  0  0  0  0  0
   -3.7237   -1.6747    0.0000 C   0  0  0  0  0  0  0  0  0  0  0  0
   -5.1766   -2.0477    0.0000 C   0  0  0  0  0  0  0  0  0  0  0  0
   -6.5932   -2.5410    0.0000 C   0  0  0  0  0  0  0  0  0  0  0  0
   -7.9635   -3.1511    0.0000 C   0  0  0  0  0  0  0  0  0  0  0  0
   -9.2780   -3.8738    0.0000 C   0  0  0  0  0  0  0  0  0  0  0  0
  -10.5273   -4.7039    0.0000 C   0  0  0  0  0  0  0  0  0  0  0  0
  -11.7029   -5.6356    0.0000 C   0  0  0  0  0  0  0  0  0  0  0  0
  -12.7963   -6.6624    0.0000 C   0  0  0  0  0  0  0  0  0  0  0  0
  -13.8000   -7.7771    0.0000 C   0  0  0  0  0  0  0  0  0  0  0  0
  -14.7069   -8.9719    0.0000 C   0  0  0  0  0  0  0  0  0  0  0  0
  -15.5107  -10.2384    0.0000 C   0  0  0  0  0  0  0  0  0  0  0  0
  -16.2056  -11.5677    0.0000 C   0  0  0  0  0  0  0  0  0  0  0  0
  -16.7869  -12.9505    0.0000 C   0  0  0  0  0  0  0  0  0  0  0  0
  -17.2504  -14.3771    0.0000 C   0  0  0  0  0  0  0  0  0  0  0  0
  -17.5929  -15.8375    0.0000 C   0  0  0  0  0  0  0  0  0  0  0  0
  -17.8121  -17.3214    0.0000 C   0  0  0  0  0  0  0  0  0  0  0  0
  -17.9062  -18.8184    0.0000 C   0  0  0  0  0  0  0  0  0  0  0  0
  -17.8748  -20.3181    0.0000 C   0  0  0  0  0  0  0  0  0  0  0  0
  -17.7180  -21.8099    0.0000 C   0  0  0  0  0  0  0  0  0  0  0  0
  -17.4370  -23.2833    0.0000 C   0  0  0  0  0  0  0  0  0  0  0  0
  -17.0336  -24.7280    0.0000 C   0  0  0  0  0  0  0  0  0  0  0  0
  -16.5107  -26.1340    0.0000 C   0  0  0  0  0  0  0  0  0  0  0  0
  -15.8721  -27.4912    0.0000 C   0  0  0  0  0  0  0  0  0  0  0  0
  -15.1221  -28.7902    0.0000 C   0  0  0  0  0  0  0  0  0  0  0  0
  -14.2660  -30.0220    0.0000 C   0  0  0  0  0  0  0  0  0  0  0  0
  -13.3098  -31.1777    0.0000 C   0  0  0  0  0  0  0  0  0  0  0  0
  -12.2604  -32.2494    0.0000 C   0  0  0  0  0  0  0  0  0  0  0  0
  -11.1249  -33.2296    0.0000 C   0  0  0  0  0  0  0  0  0  0  0  0
   -9.9113  -34.1113    0.0000 C   0  0  0  0  0  0  0  0  0  0  0  0
   -8.6283  -34.8883    0.0000 C   0  0  0  0  0  0  0  0  0  0  0  0
   -7.2847  -35.5552    0.0000 C   0  0  0  0  0  0  0  0  0  0  0  0
   -5.8901  -36.1074    0.0000 C   0  0  0  0  0  0  0  0  0  0  0  0
   -4.4541  -36.5410    0.0000 C   0  0  0  0  0  0  0  0  0  0  0  0
   -2.9869  -36.8529    0.0000 C   0  0  0  0  0  0  0  0  0  0  0  0
   -1.4987  -37.0409    0.0000 C   0  0  0  0  0  0  0  0  0  0  0  0
   -0.0000  -37.1037    0.0000 C   0  0  0  0  0  0  0  0  0  0  0  0
    1.4987  -37.0409    0.0000 C   0  0  0  0  0  0  0  0  0  0  0  0
    2.9869  -36.8529    0.0000 C   0  0  0  0  0  0  0  0  0  0  0  0
    4.4541  -36.5410    0.0000 C   0  0  0  0  0  0  0  0  0  0  0  0
    5.8901  -36.1074    0.0000 C   0  0  0  0  0  0  0  0  0  0  0  0
    7.2847  -35.5552    0.0000 C   0  0  0  0  0  0  0  0  0  0  0  0
    8.6283  -34.8883    0.0000 C   0  0  0  0  0  0  0  0  0  0  0  0
    9.9113  -34.1113    0.0000 C   0  0  0  0  0  0  0  0  0  0  0  0
   11.1249  -33.2296    0.0000 C   0  0  0  0  0  0  0  0  0  0  0  0
   12.2604  -32.2494    0.0000 C   0  0  0  0  0  0  0  0  0  0  0  0
   13.3098  -31.1777    0.0000 C   0  0  0  0  0  0  0  0  0  0  0  0
   14.2660  -30.0220    0.0000 C   0  0  0  0  0  0  0  0  0  0  0  0
   15.1221  -28.7902    0.0000 C   0  0  0  0  0  0  0  0  0  0  0  0
   15.8721  -27.4912    0.0000 C   0  0  0  0  0  0  0  0  0  0  0  0
   16.5107  -26.1340    0.0000 C   0  0  0  0  0  0  0  0  0  0  0  0
   17.0336  -24.7280    0.0000 C   0  0  0  0  0  0  0  0  0  0  0  0
   17.4370  -23.2833    0.0000 C   0  0  0  0  0  0  0  0  0  0  0  0
   17.7180  -21.8099    0.0000 C   0  0  0  0  0  0  0  0  0  0  0  0
   17.8748  -20.3181    0.0000 C   0  0  0  0  0  0  0  0  0  0  0  0
   17.9062  -18.8184    0.0000 C   0  0  0  0  0  0  0  0  0  0  0  0
   17.8121  -17.3214    0.0000 C   0  0  0  0  0  0  0  0  0  0  0  0
   17.5929  -15.8375    0.0000 C   0  0  0  0  0  0  0  0  0  0  0  0
   17.2504  -14.3771    0.0000 C   0  0  0  0  0  0  0  0  0  0  0  0
   16.7869  -12.9505    0.0000 C   0  0  0  0  0  0  0  0  0  0  0  0
   16.2056  -11.5677    0.0000 C   0  0  0  0  0  0  0  0  0  0  0  0
   15.5107  -10.2384    0.0000 C   0  0  0  0  0  0  0  0  0  0  0  0
   14.7069   -8.9719    0.0000 C   0  0  0  0  0  0  0  0  0  0  0  0
   13.8000   -7.7771    0.0000 C   0  0  0  0  0  0  0  0  0  0  0  0
   12.7963   -6.6624    0.0000 C   0  0  0  0  0  0  0  0  0  0  0  0
   11.7029   -5.6356    0.0000 C   0  0  0  0  0  0  0  0  0  0  0  0
   10.5273   -4.7039    0.0000 C   0  0  0  0  0  0  0  0  0  0  0  0
    9.2780   -3.8738    0.0000 C   0  0  0  0  0  0  0  0  0  0  0  0
    7.9635   -3.1511    0.0000 C   0  0  0  0  0  0  0  0  0  0  0  0
    6.5932   -2.5410    0.0000 C   0  0  0  0  0  0  0  0  0  0  0  0
    5.1766   -2.0477    0.0000 C   0  0  0  0  0  0  0  0  0  0  0  0
    3.7237   -1.6747    0.0000 C   0  0  0  0  0  0  0  0  0  0  0  0
    2.2447   -1.4246    0.0000 C   0  0  0  0  0  0  0  0  0  0  0  0
    2.4327    0.0636    0.0000 C   0  0  0  0  0  0  0  0  0  0  0  0
    1.2379    0.9705    0.0000 C   0  0  0  0  0  0  0  0  0  0  0  0
    1.4259    2.4587    0.0000 C   0  0  0  0  0  0  0  0  0  0  0  0
    0.2311    3.3656    0.0000 C   0  0  0  0  0  0  0  0  0  0  0  0
    0.4191    4.8538    0.0000 C   0  0  0  0  0  0  0  0  0  0  0  0
    1.8019    5.4350    0.0000 C   0  0  0  0  0  0  0  0  0  0  0  0
    2.9967    4.5281    0.0000 C   0  0  0  0  0  0  0  0  0  0  0  0
    2.8087    3.0400    0.0000 C   0  0  0  0  0  0  0  0  0  0  0  0
    4.0035    2.1331    0.0000 C   0  0  0  0  0  0  0  0  0  0  0  0
    5.3863    2.7143    0.0000 C   0  0  0  0  0  0  0  0  0  0  0  0
    6.5811    1.8074    0.0000 C   0  0  0  0  0  0  0  0  0  0  0  0
    6.3931    0.3193    0.0000 C   0  0  0  0  0  0  0  0  0  0  0  0
    5.0103   -0.2620    0.0000 C   0  0  0  0  0  0  0  0  0  0  0  0
    3.8155    0.6449    0.0000 C   0  0  0  0  0  0  0  0  0  0  0  0
    0.7500   -1.2990    0.0000 C   0  0  0  0  0  0  0  0  0  0  0  0
    1.5000    0.0000    0.0000 C   0  0  0  0  0  0  0  0  0  0  0  0
    0.7500    1.2990    0.0000 C   0  0  0  0  0  0  0  0  0  0  0  0
   -0.7500    1.2990    0.0000 C   0  0  0  0  0  0  0  0  0  0  0  0
   -1.5000    2.5981    0.0000 O   0  0  0  0  0  0  0  0  0  0  0  0
   -1.5000    0.0000    0.0000 C   0  0  0  0  0  0  0  0  0  0  0  0
   -0.7500   -1.2990    0.0000 C   0  0  0  0  0  0  0  0  0  0  0  0
  1  2  1  0
  2  3  1  0
  3  4  1  0
  4  5  1  0
  5  6  1  0
  6  7  1  0
  7  8  1  0
  8  9  1  0
  9 10  1  0
 10 11  1  0
 11 12  1  0
 12 13  1  0
 13 14  1  0
 14 15  1  0
 15 16  1  0
 16 17  1  0
 17 18  1  0
 18 19  1  0
 19 20  1  0
 20 21  1  0
 21 22  1  0
 22 23  1  0
 23 24  1  0
 24 25  1  0
 25 26  1  0
 26 27  1  0
 27 28  1  0
 28 29  1  0
 29 30  1  0
 30 31  1  0
 31 32  1  0
 32 33  1  0
 33 34  1  0
 34 35  1  0
 35 36  1  0
 36 37  1  0
 37 38  1  0
 38 39  1  0
 39 40  1  0
 40 41  1  0
 41 42  1  0
 42 43  1  0
 43 44  1  0
 44 45  1  0
 45 46  1  0
 46 47  1  0
 47 48  1  0
 48 49  1  0
 49 50  1  0
 50 51  1  0
 51 52  1  0
 52 53  1  0
 53 54  1  0
 54 55  1  0
 55 56  1  0
 56 57  1  0
 57 58  1  0
 58 59  1  0
 59 60  1  0
 60 61  1  0
 61 62  1  0
 62 63  1  0
 63 64  1  0
 64 65  1  0
 65 66  1  0
 66 67  1  0
 67 68  1  0
 68 69  1  0
 69 70  1  0
 70 71  1  0
 71 72  1  0
 72 73  1  0
 73 74  1  0
 74 75  1  0
 75 76  1  0
 76 77  1  0
 77 78  2  0
 78 79  1  0
 79 80  2  0
 80 81  1  0
 81 82  2  0
 82 83  1  0
 83 84  2  0
 84 85  1  0
 85 86  2  0
 86 87  1  0
 87 88  2  0
 74 89  1  0
 89 90  2  0
 90 91  1  0
 91 92  2  0
 92 93  1  0
 92 94  1  0
 94 95  2  0
 95  2  1  0
 82 77  1  0
 88 83  1  0
 95 89  1  0
M  END
>  <Title>  (313) 
idAAKGgen7

$$$$

     RDKit          2D

  9  9  0  0  0  0  0  0  0  0999 V2000
    3.0000    0.0000    0.0000 C   0  0  0  0  0  0  0  0  0  0  0  0
    1.5000    0.0000    0.0000 C   0  0  0  0  0  0  0  0  0  0  0  0
    0.7500   -1.2990    0.0000 C   0  0  0  0  0  0  0  0  0  0  0  0
   -0.7500   -1.2990    0.0000 C   0  0  0  0  0  0  0  0  0  0  0  0
   -1.5000    0.0000    0.0000 C   0  0  0  0  0  0  0  0  0  0  0  0
   -3.0000    0.0000    0.0000 C   0  0  0  0  0  0  0  0  0  0  0  0
   -4.5000    0.0000    0.0000 N   0  0  0  0  0  0  0  0  0  0  0  0
   -0.7500    1.2990    0.0000 C   0  0  0  0  0  0  0  0  0  0  0  0
    0.7500    1.2990    0.0000 C   0  0  0  0  0  0  0  0  0  0  0  0
  1  2  1  0
  2  3  2  0
  3  4  1  0
  4  5  2  0
  5  6  1  0
  6  7  3  0
  5  8  1  0
  8  9  2  0
  9  2  1  0
M  END
>  <Title>  (314) 
idAAKHgen7

$$$$

     RDKit          2D

 92 92  0  0  0  0  0  0  0  0999 V2000
   21.9677    0.0000    0.0000 C   0  0  0  0  0  0  0  0  0  0  0  0
   21.9164   -1.4991    0.0000 C   0  0  0  0  0  0  0  0  0  0  0  0
   21.7630   -2.9913    0.0000 C   0  0  0  0  0  0  0  0  0  0  0  0
   21.5082   -4.4695    0.0000 C   0  0  0  0  0  0  0  0  0  0  0  0
   21.1530   -5.9268    0.0000 C   0  0  0  0  0  0  0  0  0  0  0  0
   20.6993   -7.3565    0.0000 C   0  0  0  0  0  0  0  0  0  0  0  0
   20.1490   -8.7519    0.0000 C   0  0  0  0  0  0  0  0  0  0  0  0
   19.5048  -10.1065    0.0000 C   0  0  0  0  0  0  0  0  0  0  0  0
   18.7696  -11.4140    0.0000 C   0  0  0  0  0  0  0  0  0  0  0  0
   17.9469  -12.6683    0.0000 C   0  0  0  0  0  0  0  0  0  0  0  0
   17.0406  -13.8635    0.0000 C   0  0  0  0  0  0  0  0  0  0  0  0
   16.0547  -14.9941    0.0000 C   0  0  0  0  0  0  0  0  0  0  0  0
   14.9941  -16.0547    0.0000 C   0  0  0  0  0  0  0  0  0  0  0  0
   13.8635  -17.0406    0.0000 C   0  0  0  0  0  0  0  0  0  0  0  0
   12.6683  -17.9469    0.0000 C   0  0  0  0  0  0  0  0  0  0  0  0
   11.4140  -18.7696    0.0000 C   0  0  0  0  0  0  0  0  0  0  0  0
   10.1065  -19.5048    0.0000 C   0  0  0  0  0  0  0  0  0  0  0  0
    8.7519  -20.1490    0.0000 C   0  0  0  0  0  0  0  0  0  0  0  0
    7.3565  -20.6993    0.0000 C   0  0  0  0  0  0  0  0  0  0  0  0
    5.9268  -21.1530    0.0000 C   0  0  0  0  0  0  0  0  0  0  0  0
    4.4695  -21.5082    0.0000 C   0  0  0  0  0  0  0  0  0  0  0  0
    2.9913  -21.7630    0.0000 C   0  0  0  0  0  0  0  0  0  0  0  0
    1.4991  -21.9164    0.0000 C   0  0  0  0  0  0  0  0  0  0  0  0
   -0.0000  -21.9677    0.0000 C   0  0  0  0  0  0  0  0  0  0  0  0
   -1.4991  -21.9164    0.0000 C   0  0  0  0  0  0  0  0  0  0  0  0
   -2.9913  -21.7630    0.0000 C   0  0  0  0  0  0  0  0  0  0  0  0
   -4.4695  -21.5082    0.0000 C   0  0  0  0  0  0  0  0  0  0  0  0
   -5.9268  -21.1530    0.0000 C   0  0  0  0  0  0  0  0  0  0  0  0
   -7.3565  -20.6993    0.0000 C   0  0  0  0  0  0  0  0  0  0  0  0
   -8.7519  -20.1490    0.0000 C   0  0  0  0  0  0  0  0  0  0  0  0
  -10.1065  -19.5048    0.0000 C   0  0  0  0  0  0  0  0  0  0  0  0
  -11.4140  -18.7696    0.0000 C   0  0  0  0  0  0  0  0  0  0  0  0
  -12.6683  -17.9469    0.0000 C   0  0  0  0  0  0  0  0  0  0  0  0
  -13.8635  -17.0406    0.0000 C   0  0  0  0  0  0  0  0  0  0  0  0
  -14.9941  -16.0547    0.0000 C   0  0  0  0  0  0  0  0  0  0  0  0
  -16.0547  -14.9941    0.0000 C   0  0  0  0  0  0  0  0  0  0  0  0
  -17.0406  -13.8635    0.0000 C   0  0  0  0  0  0  0  0  0  0  0  0
  -17.9469  -12.6683    0.0000 C   0  0  0  0  0  0  0  0  0  0  0  0
  -18.7696  -11.4140    0.0000 C   0  0  0  0  0  0  0  0  0  0  0  0
  -19.5048  -10.1065    0.0000 C   0  0  0  0  0  0  0  0  0  0  0  0
  -20.1490   -8.7519    0.0000 C   0  0  0  0  0  0  0  0  0  0  0  0
  -20.6993   -7.3565    0.0000 C   0  0  0  0  0  0  0  0  0  0  0  0
  -21.1530   -5.9268    0.0000 C   0  0  0  0  0  0  0  0  0  0  0  0
  -21.5082   -4.4695    0.0000 C   0  0  0  0  0  0  0  0  0  0  0  0
  -21.7630   -2.9913    0.0000 C   0  0  0  0  0  0  0  0  0  0  0  0
  -21.9164   -1.4991    0.0000 C   0  0  0  0  0  0  0  0  0  0  0  0
  -21.9677    0.0000    0.0000 C   0  0  0  0  0  0  0  0  0  0  0  0
  -21.9164    1.4991    0.0000 C   0  0  0  0  0  0  0  0  0  0  0  0
  -21.7630    2.9913    0.0000 C   0  0  0  0  0  0  0  0  0  0  0  0
  -21.5082    4.4695    0.0000 C   0  0  0  0  0  0  0  0  0  0  0  0
  -21.1530    5.9268    0.0000 C   0  0  0  0  0  0  0  0  0  0  0  0
  -20.6993    7.3565    0.0000 C   0  0  0  0  0  0  0  0  0  0  0  0
  -20.1490    8.7519    0.0000 C   0  0  0  0  0  0  0  0  0  0  0  0
  -19.5048   10.1065    0.0000 C   0  0  0  0  0  0  0  0  0  0  0  0
  -18.7696   11.4140    0.0000 C   0  0  0  0  0  0  0  0  0  0  0  0
  -17.9469   12.6683    0.0000 C   0  0  0  0  0  0  0  0  0  0  0  0
  -17.0406   13.8635    0.0000 C   0  0  0  0  0  0  0  0  0  0  0  0
  -16.0547   14.9941    0.0000 C   0  0  0  0  0  0  0  0  0  0  0  0
  -14.9941   16.0547    0.0000 C   0  0  0  0  0  0  0  0  0  0  0  0
  -13.8635   17.0406    0.0000 C   0  0  0  0  0  0  0  0  0  0  0  0
  -12.6683   17.9469    0.0000 C   0  0  0  0  0  0  0  0  0  0  0  0
  -11.4140   18.7696    0.0000 C   0  0  0  0  0  0  0  0  0  0  0  0
  -10.1065   19.5048    0.0000 C   0  0  0  0  0  0  0  0  0  0  0  0
   -8.7519   20.1490    0.0000 C   0  0  0  0  0  0  0  0  0  0  0  0
   -7.3565   20.6993    0.0000 C   0  0  0  0  0  0  0  0  0  0  0  0
   -5.9268   21.1530    0.0000 C   0  0  0  0  0  0  0  0  0  0  0  0
   -4.4695   21.5082    0.0000 C   0  0  0  0  0  0  0  0  0  0  0  0
   -2.9913   21.7630    0.0000 C   0  0  0  0  0  0  0  0  0  0  0  0
   -1.4991   21.9164    0.0000 C   0  0  0  0  0  0  0  0  0  0  0  0
    0.0000   21.9677    0.0000 C   0  0  0  0  0  0  0  0  0  0  0  0
    1.4991   21.9164    0.0000 C   0  0  0  0  0  0  0  0  0  0  0  0
    2.9913   21.7630    0.0000 C   0  0  0  0  0  0  0  0  0  0  0  0
    4.4695   21.5082    0.0000 C   0  0  0  0  0  0  0  0  0  0  0  0
    5.9268   21.1530    0.0000 C   0  0  0  0  0  0  0  0  0  0  0  0
    7.3565   20.6993    0.0000 C   0  0  0  0  0  0  0  0  0  0  0  0
    8.7519   20.1490    0.0000 C   0  0  0  0  0  0  0  0  0  0  0  0
   10.1065   19.5048    0.0000 C   0  0  0  0  0  0  0  0  0  0  0  0
   11.4140   18.7696    0.0000 C   0  0  0  0  0  0  0  0  0  0  0  0
   12.6683   17.9469    0.0000 C   0  0  0  0  0  0  0  0  0  0  0  0
   13.8635   17.0406    0.0000 C   0  0  0  0  0  0  0  0  0  0  0  0
   14.9941   16.0547    0.0000 C   0  0  0  0  0  0  0  0  0  0  0  0
   16.0547   14.9941    0.0000 C   0  0  0  0  0  0  0  0  0  0  0  0
   17.0406   13.8635    0.0000 C   0  0  0  0  0  0  0  0  0  0  0  0
   17.9469   12.6683    0.0000 C   0  0  0  0  0  0  0  0  0  0  0  0
   18.7696   11.4140    0.0000 C   0  0  0  0  0  0  0  0  0  0  0  0
   19.5048   10.1065    0.0000 C   0  0  0  0  0  0  0  0  0  0  0  0
   20.1490    8.7519    0.0000 C   0  0  0  0  0  0  0  0  0  0  0  0
   20.6993    7.3565    0.0000 C   0  0  0  0  0  0  0  0  0  0  0  0
   21.1530    5.9268    0.0000 C   0  0  0  0  0  0  0  0  0  0  0  0
   21.5082    4.4695    0.0000 C   0  0  0  0  0  0  0  0  0  0  0  0
   21.7630    2.9913    0.0000 C   0  0  0  0  0  0  0  0  0  0  0  0
   21.9164    1.4991    0.0000 C   0  0  0  0  0  0  0  0  0  0  0  0
  1  2  1  0
  2  3  1  0
  3  4  1  0
  4  5  1  0
  5  6  1  0
  6  7  1  0
  7  8  1  0
  8  9  1  0
  9 10  1  0
 10 11  1  0
 11 12  1  0
 12 13  1  0
 13 14  1  0
 14 15  1  0
 15 16  1  0
 16 17  1  0
 17 18  1  0
 18 19  1  0
 19 20  1  0
 20 21  1  0
 21 22  1  0
 22 23  1  0
 23 24  1  0
 24 25  1  0
 25 26  1  0
 26 27  1  0
 27 28  1  0
 28 29  1  0
 29 30  1  0
 30 31  1  0
 31 32  1  0
 32 33  1  0
 33 34  1  0
 34 35  1  0
 35 36  1  0
 36 37  1  0
 37 38  1  0
 38 39  1  0
 39 40  1  0
 40 41  1  0
 41 42  1  0
 42 43  1  0
 43 44  1  0
 44 45  1  0
 45 46  1  0
 46 47  1  0
 47 48  1  0
 48 49  1  0
 49 50  1  0
 50 51  1  0
 51 52  1  0
 52 53  1  0
 53 54  1  0
 54 55  1  0
 55 56  1  0
 56 57  1  0
 57 58  1  0
 58 59  1  0
 59 60  1  0
 60 61  1  0
 61 62  1  0
 62 63  1  0
 63 64  1  0
 64 65  1  0
 65 66  1  0
 66 67  1  0
 67 68  1  0
 68 69  1  0
 69 70  1  0
 70 71  1  0
 71 72  1  0
 72 73  1  0
 73 74  1  0
 74 75  1  0
 75 76  1  0
 76 77  1  0
 77 78  1  0
 78 79  1  0
 79 80  1  0
 80 81  1  0
 81 82  1  0
 82 83  1  0
 83 84  1  0
 84 85  1  0
 85 86  1  0
 86 87  1  0
 87 88  1  0
 88 89  1  0
 89 90  1  0
 90 91  1  0
 91 92  1  0
 92  1  1  0
M  END
>  <Title>  (315) 
idAAKIgen7

$$$$

     RDKit          2D

 16 17  0  0  0  0  0  0  0  0999 V2000
    3.0000    0.0000    0.0000 C   0  0  0  0  0  0  0  0  0  0  0  0
    1.5000    0.0000    0.0000 C   0  0  0  0  0  0  0  0  0  0  0  0
    0.7500   -1.2990    0.0000 C   0  0  0  0  0  0  0  0  0  0  0  0
   -0.7500   -1.2990    0.0000 C   0  0  0  0  0  0  0  0  0  0  0  0
   -1.5000    0.0000    0.0000 C   0  0  0  0  0  0  0  0  0  0  0  0
   -0.7500    1.2990    0.0000 C   0  0  0  0  0  0  0  0  0  0  0  0
    0.7500    1.2990    0.0000 C   0  0  0  0  0  0  0  0  0  0  0  0
    1.5000    2.5981    0.0000 C   0  0  0  0  0  0  0  0  0  0  0  0
    3.0000    2.5981    0.0000 O   0  0  0  0  0  0  0  0  0  0  0  0
    0.7500    3.8971    0.0000 N   0  0  0  0  0  0  0  0  0  0  0  0
    1.5000    5.1962    0.0000 C   0  0  0  0  0  0  0  0  0  0  0  0
    3.0000    5.1962    0.0000 N   0  0  0  0  0  0  0  0  0  0  0  0
    3.7500    6.4952    0.0000 N   0  0  0  0  0  0  0  0  0  0  0  0
    3.0000    7.7942    0.0000 N   0  0  0  0  0  0  0  0  0  0  0  0
    1.5000    7.7942    0.0000 N   0  0  0  0  0  0  0  0  0  0  0  0
    0.7500    6.4952    0.0000 N   0  0  0  0  0  0  0  0  0  0  0  0
  1  2  1  0
  2  3  1  0
  3  4  1  0
  4  5  1  0
  5  6  1  0
  6  7  1  0
  7  8  1  0
  8  9  2  0
  8 10  1  0
 10 11  1  0
 11 12  2  0
 12 13  1  0
 13 14  2  0
 14 15  1  0
 15 16  2  0
  7  2  1  0
 16 11  1  0
M  END
>  <Title>  (316) 
idAAKJgen7

$$$$

     RDKit          2D

 57 57  0  0  0  0  0  0  0  0999 V2000
   14.8760    0.0000    0.0000 C   0  0  0  0  0  0  0  0  0  0  0  0
   13.3760    0.0000    0.0000 C   0  0  0  0  0  0  0  0  0  0  0  0
   13.2919   -1.4976    0.0000 C   0  0  0  0  0  0  0  0  0  0  0  0
   13.0407   -2.9764    0.0000 C   0  0  0  0  0  0  0  0  0  0  0  0
   12.6254   -4.4178    0.0000 C   0  0  0  0  0  0  0  0  0  0  0  0
   12.0514   -5.8036    0.0000 C   0  0  0  0  0  0  0  0  0  0  0  0
   11.3258   -7.1165    0.0000 C   0  0  0  0  0  0  0  0  0  0  0  0
   10.4578   -8.3398    0.0000 C   0  0  0  0  0  0  0  0  0  0  0  0
    9.4583   -9.4583    0.0000 C   0  0  0  0  0  0  0  0  0  0  0  0
    8.3398  -10.4578    0.0000 C   0  0  0  0  0  0  0  0  0  0  0  0
    7.1165  -11.3258    0.0000 C   0  0  0  0  0  0  0  0  0  0  0  0
    5.8036  -12.0514    0.0000 C   0  0  0  0  0  0  0  0  0  0  0  0
    4.4178  -12.6254    0.0000 C   0  0  0  0  0  0  0  0  0  0  0  0
    2.9764  -13.0407    0.0000 C   0  0  0  0  0  0  0  0  0  0  0  0
    1.4976  -13.2919    0.0000 C   0  0  0  0  0  0  0  0  0  0  0  0
   -0.0000  -13.3760    0.0000 C   0  0  0  0  0  0  0  0  0  0  0  0
   -1.4976  -13.2919    0.0000 C   0  0  0  0  0  0  0  0  0  0  0  0
   -2.9764  -13.0407    0.0000 C   0  0  0  0  0  0  0  0  0  0  0  0
   -4.4178  -12.6254    0.0000 C   0  0  0  0  0  0  0  0  0  0  0  0
   -5.8036  -12.0514    0.0000 C   0  0  0  0  0  0  0  0  0  0  0  0
   -7.1165  -11.3258    0.0000 C   0  0  0  0  0  0  0  0  0  0  0  0
   -8.3398  -10.4578    0.0000 C   0  0  0  0  0  0  0  0  0  0  0  0
   -9.4583   -9.4583    0.0000 C   0  0  0  0  0  0  0  0  0  0  0  0
  -10.4578   -8.3398    0.0000 C   0  0  0  0  0  0  0  0  0  0  0  0
  -11.3258   -7.1165    0.0000 C   0  0  0  0  0  0  0  0  0  0  0  0
  -12.0514   -5.8036    0.0000 C   0  0  0  0  0  0  0  0  0  0  0  0
  -12.6254   -4.4178    0.0000 C   0  0  0  0  0  0  0  0  0  0  0  0
  -13.0407   -2.9764    0.0000 C   0  0  0  0  0  0  0  0  0  0  0  0
  -13.2919   -1.4976    0.0000 C   0  0  0  0  0  0  0  0  0  0  0  0
  -13.3760    0.0000    0.0000 C   0  0  0  0  0  0  0  0  0  0  0  0
  -13.2919    1.4976    0.0000 C   0  0  0  0  0  0  0  0  0  0  0  0
  -13.0407    2.9764    0.0000 C   0  0  0  0  0  0  0  0  0  0  0  0
  -12.6254    4.4178    0.0000 C   0  0  0  0  0  0  0  0  0  0  0  0
  -12.0514    5.8036    0.0000 C   0  0  0  0  0  0  0  0  0  0  0  0
  -11.3258    7.1165    0.0000 C   0  0  0  0  0  0  0  0  0  0  0  0
  -10.4578    8.3398    0.0000 C   0  0  0  0  0  0  0  0  0  0  0  0
   -9.4583    9.4583    0.0000 C   0  0  0  0  0  0  0  0  0  0  0  0
   -8.3398   10.4578    0.0000 C   0  0  0  0  0  0  0  0  0  0  0  0
   -7.1165   11.3258    0.0000 C   0  0  0  0  0  0  0  0  0  0  0  0
   -5.8036   12.0514    0.0000 C   0  0  0  0  0  0  0  0  0  0  0  0
   -4.4178   12.6254    0.0000 C   0  0  0  0  0  0  0  0  0  0  0  0
   -2.9764   13.0407    0.0000 C   0  0  0  0  0  0  0  0  0  0  0  0
   -1.4976   13.2919    0.0000 C   0  0  0  0  0  0  0  0  0  0  0  0
    0.0000   13.3760    0.0000 C   0  0  0  0  0  0  0  0  0  0  0  0
    1.4976   13.2919    0.0000 C   0  0  0  0  0  0  0  0  0  0  0  0
    2.9764   13.0407    0.0000 C   0  0  0  0  0  0  0  0  0  0  0  0
    4.4178   12.6254    0.0000 C   0  0  0  0  0  0  0  0  0  0  0  0
    5.8036   12.0514    0.0000 C   0  0  0  0  0  0  0  0  0  0  0  0
    7.1165   11.3258    0.0000 C   0  0  0  0  0  0  0  0  0  0  0  0
    8.3398   10.4578    0.0000 C   0  0  0  0  0  0  0  0  0  0  0  0
    9.4583    9.4583    0.0000 C   0  0  0  0  0  0  0  0  0  0  0  0
   10.4578    8.3398    0.0000 C   0  0  0  0  0  0  0  0  0  0  0  0
   11.3258    7.1165    0.0000 C   0  0  0  0  0  0  0  0  0  0  0  0
   12.0514    5.8036    0.0000 C   0  0  0  0  0  0  0  0  0  0  0  0
   12.6254    4.4178    0.0000 C   0  0  0  0  0  0  0  0  0  0  0  0
   13.0407    2.9764    0.0000 C   0  0  0  0  0  0  0  0  0  0  0  0
   13.2919    1.4976    0.0000 C   0  0  0  0  0  0  0  0  0  0  0  0
  1  2  1  0
  2  3  1  0
  3  4  1  0
  4  5  1  0
  5  6  1  0
  6  7  1  0
  7  8  1  0
  8  9  1  0
  9 10  1  0
 10 11  1  0
 11 12  1  0
 12 13  1  0
 13 14  1  0
 14 15  1  0
 15 16  1  0
 16 17  1  0
 17 18  1  0
 18 19  1  0
 19 20  1  0
 20 21  1  0
 21 22  1  0
 22 23  1  0
 23 24  1  0
 24 25  1  0
 25 26  1  0
 26 27  1  0
 27 28  1  0
 28 29  1  0
 29 30  1  0
 30 31  1  0
 31 32  1  0
 32 33  1  0
 33 34  1  0
 34 35  1  0
 35 36  1  0
 36 37  1  0
 37 38  1  0
 38 39  1  0
 39 40  1  0
 40 41  1  0
 41 42  1  0
 42 43  1  0
 43 44  1  0
 44 45  1  0
 45 46  1  0
 46 47  1  0
 47 48  1  0
 48 49  1  0
 49 50  1  0
 50 51  1  0
 51 52  1  0
 52 53  1  0
 53 54  1  0
 54 55  1  0
 55 56  1  0
 56 57  1  0
 57  2  1  0
M  END
>  <Title>  (317) 
idAAKKgen7

$$$$

     RDKit          2D

 17 17  0  0  0  0  0  0  0  0999 V2000
    4.0816    0.0000    0.0000 C   0  0  0  0  0  0  0  0  0  0  0  0
    3.8060    1.4745    0.0000 C   0  0  0  0  0  0  0  0  0  0  0  0
    3.0164    2.7498    0.0000 C   0  0  0  0  0  0  0  0  0  0  0  0
    1.8193    3.6537    0.0000 C   0  0  0  0  0  0  0  0  0  0  0  0
    0.3766    4.0642    0.0000 C   0  0  0  0  0  0  0  0  0  0  0  0
   -1.1170    3.9258    0.0000 C   0  0  0  0  0  0  0  0  0  0  0  0
   -2.4597    3.2572    0.0000 C   0  0  0  0  0  0  0  0  0  0  0  0
   -3.4703    2.1487    0.0000 C   0  0  0  0  0  0  0  0  0  0  0  0
   -4.0121    0.7500    0.0000 C   0  0  0  0  0  0  0  0  0  0  0  0
   -4.0121   -0.7500    0.0000 C   0  0  0  0  0  0  0  0  0  0  0  0
   -3.4703   -2.1487    0.0000 C   0  0  0  0  0  0  0  0  0  0  0  0
   -2.4597   -3.2572    0.0000 C   0  0  0  0  0  0  0  0  0  0  0  0
   -1.1170   -3.9258    0.0000 C   0  0  0  0  0  0  0  0  0  0  0  0
    0.3766   -4.0642    0.0000 C   0  0  0  0  0  0  0  0  0  0  0  0
    1.8193   -3.6537    0.0000 C   0  0  0  0  0  0  0  0  0  0  0  0
    3.0164   -2.7498    0.0000 C   0  0  0  0  0  0  0  0  0  0  0  0
    3.8060   -1.4745    0.0000 C   0  0  0  0  0  0  0  0  0  0  0  0
  1  2  1  0
  2  3  1  0
  3  4  1  0
  4  5  1  0
  5  6  1  0
  6  7  1  0
  7  8  1  0
  8  9  1  0
  9 10  1  0
 10 11  1  0
 11 12  1  0
 12 13  1  0
 13 14  1  0
 14 15  1  0
 15 16  1  0
 16 17  1  0
 17  1  1  0
M  END
>  <Title>  (318) 
idAAKLgen7

$$$$

     RDKit          2D

 78 78  0  0  0  0  0  0  0  0999 V2000
   19.8875    0.0000    0.0000 C   0  0  0  0  0  0  0  0  0  0  0  0
   18.3875    0.0000    0.0000 C   0  0  0  0  0  0  0  0  0  0  0  0
   18.3263    1.4988    0.0000 C   0  0  0  0  0  0  0  0  0  0  0  0
   18.1432    2.9875    0.0000 C   0  0  0  0  0  0  0  0  0  0  0  0
   17.8393    4.4564    0.0000 C   0  0  0  0  0  0  0  0  0  0  0  0
   17.4167    5.8957    0.0000 C   0  0  0  0  0  0  0  0  0  0  0  0
   16.8782    7.2957    0.0000 C   0  0  0  0  0  0  0  0  0  0  0  0
   16.2274    8.6471    0.0000 C   0  0  0  0  0  0  0  0  0  0  0  0
   15.4685    9.9410    0.0000 C   0  0  0  0  0  0  0  0  0  0  0  0
   14.6068   11.1688    0.0000 C   0  0  0  0  0  0  0  0  0  0  0  0
   13.6478   12.3222    0.0000 C   0  0  0  0  0  0  0  0  0  0  0  0
   12.5980   13.3936    0.0000 C   0  0  0  0  0  0  0  0  0  0  0  0
   11.4644   14.3759    0.0000 C   0  0  0  0  0  0  0  0  0  0  0  0
   10.2545   15.2625    0.0000 C   0  0  0  0  0  0  0  0  0  0  0  0
    8.9763   16.0476    0.0000 C   0  0  0  0  0  0  0  0  0  0  0  0
    7.6384   16.7259    0.0000 C   0  0  0  0  0  0  0  0  0  0  0  0
    6.2497   17.2928    0.0000 C   0  0  0  0  0  0  0  0  0  0  0  0
    4.8194   17.7447    0.0000 C   0  0  0  0  0  0  0  0  0  0  0  0
    3.3570   18.0785    0.0000 C   0  0  0  0  0  0  0  0  0  0  0  0
    1.8723   18.2919    0.0000 C   0  0  0  0  0  0  0  0  0  0  0  0
    0.3751   18.3837    0.0000 C   0  0  0  0  0  0  0  0  0  0  0  0
   -1.1246   18.3531    0.0000 C   0  0  0  0  0  0  0  0  0  0  0  0
   -2.6168   18.2003    0.0000 C   0  0  0  0  0  0  0  0  0  0  0  0
   -4.0916   17.9265    0.0000 C   0  0  0  0  0  0  0  0  0  0  0  0
   -5.5392   17.5333    0.0000 C   0  0  0  0  0  0  0  0  0  0  0  0
   -6.9499   17.0235    0.0000 C   0  0  0  0  0  0  0  0  0  0  0  0
   -8.3143   16.4004    0.0000 C   0  0  0  0  0  0  0  0  0  0  0  0
   -9.6234   15.6681    0.0000 C   0  0  0  0  0  0  0  0  0  0  0  0
  -10.8685   14.8316    0.0000 C   0  0  0  0  0  0  0  0  0  0  0  0
  -12.0412   13.8963    0.0000 C   0  0  0  0  0  0  0  0  0  0  0  0
  -13.1339   12.8686    0.0000 C   0  0  0  0  0  0  0  0  0  0  0  0
  -14.1391   11.7553    0.0000 C   0  0  0  0  0  0  0  0  0  0  0  0
  -15.0502   10.5637    0.0000 C   0  0  0  0  0  0  0  0  0  0  0  0
  -15.8612    9.3018    0.0000 C   0  0  0  0  0  0  0  0  0  0  0  0
  -16.5666    7.9780    0.0000 C   0  0  0  0  0  0  0  0  0  0  0  0
  -17.1617    6.6012    0.0000 C   0  0  0  0  0  0  0  0  0  0  0  0
  -17.6427    5.1804    0.0000 C   0  0  0  0  0  0  0  0  0  0  0  0
  -18.0062    3.7251    0.0000 C   0  0  0  0  0  0  0  0  0  0  0  0
  -18.2499    2.2450    0.0000 C   0  0  0  0  0  0  0  0  0  0  0  0
  -18.3722    0.7500    0.0000 C   0  0  0  0  0  0  0  0  0  0  0  0
  -18.3722   -0.7500    0.0000 C   0  0  0  0  0  0  0  0  0  0  0  0
  -18.2499   -2.2450    0.0000 C   0  0  0  0  0  0  0  0  0  0  0  0
  -18.0062   -3.7251    0.0000 C   0  0  0  0  0  0  0  0  0  0  0  0
  -17.6427   -5.1804    0.0000 C   0  0  0  0  0  0  0  0  0  0  0  0
  -17.1617   -6.6012    0.0000 C   0  0  0  0  0  0  0  0  0  0  0  0
  -16.5666   -7.9780    0.0000 C   0  0  0  0  0  0  0  0  0  0  0  0
  -15.8612   -9.3018    0.0000 C   0  0  0  0  0  0  0  0  0  0  0  0
  -15.0502  -10.5637    0.0000 C   0  0  0  0  0  0  0  0  0  0  0  0
  -14.1391  -11.7553    0.0000 C   0  0  0  0  0  0  0  0  0  0  0  0
  -13.1339  -12.8686    0.0000 C   0  0  0  0  0  0  0  0  0  0  0  0
  -12.0412  -13.8963    0.0000 C   0  0  0  0  0  0  0  0  0  0  0  0
  -10.8685  -14.8316    0.0000 C   0  0  0  0  0  0  0  0  0  0  0  0
   -9.6234  -15.6681    0.0000 C   0  0  0  0  0  0  0  0  0  0  0  0
   -8.3143  -16.4004    0.0000 C   0  0  0  0  0  0  0  0  0  0  0  0
   -6.9499  -17.0235    0.0000 C   0  0  0  0  0  0  0  0  0  0  0  0
   -5.5392  -17.5333    0.0000 C   0  0  0  0  0  0  0  0  0  0  0  0
   -4.0916  -17.9265    0.0000 C   0  0  0  0  0  0  0  0  0  0  0  0
   -2.6168  -18.2003    0.0000 C   0  0  0  0  0  0  0  0  0  0  0  0
   -1.1246  -18.3531    0.0000 C   0  0  0  0  0  0  0  0  0  0  0  0
    0.3751  -18.3837    0.0000 C   0  0  0  0  0  0  0  0  0  0  0  0
    1.8723  -18.2919    0.0000 C   0  0  0  0  0  0  0  0  0  0  0  0
    3.3570  -18.0785    0.0000 C   0  0  0  0  0  0  0  0  0  0  0  0
    4.8194  -17.7447    0.0000 C   0  0  0  0  0  0  0  0  0  0  0  0
    6.2497  -17.2928    0.0000 C   0  0  0  0  0  0  0  0  0  0  0  0
    7.6384  -16.7259    0.0000 C   0  0  0  0  0  0  0  0  0  0  0  0
    8.9763  -16.0476    0.0000 C   0  0  0  0  0  0  0  0  0  0  0  0
   10.2545  -15.2625    0.0000 C   0  0  0  0  0  0  0  0  0  0  0  0
   11.4644  -14.3759    0.0000 C   0  0  0  0  0  0  0  0  0  0  0  0
   12.5980  -13.3936    0.0000 C   0  0  0  0  0  0  0  0  0  0  0  0
   13.6478  -12.3222    0.0000 C   0  0  0  0  0  0  0  0  0  0  0  0
   14.6068  -11.1688    0.0000 C   0  0  0  0  0  0  0  0  0  0  0  0
   15.4685   -9.9410    0.0000 C   0  0  0  0  0  0  0  0  0  0  0  0
   16.2274   -8.6471    0.0000 C   0  0  0  0  0  0  0  0  0  0  0  0
   16.8782   -7.2957    0.0000 C   0  0  0  0  0  0  0  0  0  0  0  0
   17.4167   -5.8957    0.0000 C   0  0  0  0  0  0  0  0  0  0  0  0
   17.8393   -4.4564    0.0000 C   0  0  0  0  0  0  0  0  0  0  0  0
   18.1432   -2.9875    0.0000 C   0  0  0  0  0  0  0  0  0  0  0  0
   18.3263   -1.4988    0.0000 C   0  0  0  0  0  0  0  0  0  0  0  0
  1  2  1  0
  2  3  1  0
  3  4  2  0
  4  5  1  0
  5  6  2  0
  6  7  1  0
  7  8  2  0
  8  9  1  0
  9 10  2  0
 10 11  1  0
 11 12  2  0
 12 13  1  0
 13 14  2  0
 14 15  1  0
 15 16  2  0
 16 17  1  0
 17 18  2  0
 18 19  1  0
 19 20  2  0
 20 21  1  0
 21 22  2  0
 22 23  1  0
 23 24  2  0
 24 25  1  0
 25 26  1  0
 26 27  1  0
 27 28  1  0
 28 29  1  0
 29 30  1  0
 30 31  1  0
 31 32  1  0
 32 33  1  0
 33 34  1  0
 34 35  1  0
 35 36  1  0
 36 37  1  0
 37 38  1  0
 38 39  1  0
 39 40  1  0
 40 41  1  0
 41 42  1  0
 42 43  1  0
 43 44  1  0
 44 45  1  0
 45 46  1  0
 46 47  1  0
 47 48  1  0
 48 49  1  0
 49 50  1  0
 50 51  1  0
 51 52  1  0
 52 53  1  0
 53 54  1  0
 54 55  1  0
 55 56  1  0
 56 57  1  0
 57 58  1  0
 58 59  1  0
 59 60  1  0
 60 61  1  0
 61 62  1  0
 62 63  1  0
 63 64  1  0
 64 65  1  0
 65 66  1  0
 66 67  1  0
 67 68  1  0
 68 69  1  0
 69 70  1  0
 70 71  1  0
 71 72  1  0
 72 73  1  0
 73 74  1  0
 74 75  1  0
 75 76  1  0
 76 77  1  0
 77 78  1  0
 78  2  1  0
M  END
>  <Title>  (319) 
idAAKMgen7

$$$$

     RDKit          2D

  7  7  0  0  0  0  0  0  0  0999 V2000
    4.2760   -0.0000    0.0000 N   0  0  0  0  0  0  0  0  0  0  0  0
    2.7760    0.0000    0.0000 C   0  0  0  0  0  0  0  0  0  0  0  0
    1.2760    0.0000    0.0000 C   0  0  0  0  0  0  0  0  0  0  0  0
    0.3943    1.2135    0.0000 C   0  0  0  0  0  0  0  0  0  0  0  0
   -1.0323    0.7500    0.0000 C   0  0  0  0  0  0  0  0  0  0  0  0
   -1.0323   -0.7500    0.0000 C   0  0  0  0  0  0  0  0  0  0  0  0
    0.3943   -1.2135    0.0000 C   0  0  0  0  0  0  0  0  0  0  0  0
  1  2  3  0
  2  3  1  0
  3  4  2  0
  4  5  1  0
  5  6  2  0
  6  7  1  0
  7  3  1  0
M  END
>  <Title>  (320) 
idAAKNgen7

$$$$

     RDKit          2D

 27 29  0  0  0  0  0  0  0  0999 V2000
   -3.0729   -0.8734    0.0000 C   0  0  0  0  0  0  0  0  0  0  0  0
   -2.0782   -1.9961    0.0000 C   0  0  0  0  0  0  0  0  0  0  0  0
   -2.9303   -3.2306    0.0000 C   0  0  0  0  0  0  0  0  0  0  0  0
   -3.1111   -4.7197    0.0000 C   0  0  0  0  0  0  0  0  0  0  0  0
   -2.5792   -6.1222    0.0000 C   0  0  0  0  0  0  0  0  0  0  0  0
   -1.4564   -7.1169    0.0000 C   0  0  0  0  0  0  0  0  0  0  0  0
   -0.0000   -7.4758    0.0000 C   0  0  0  0  0  0  0  0  0  0  0  0
    1.4564   -7.1169    0.0000 C   0  0  0  0  0  0  0  0  0  0  0  0
    2.5792   -6.1222    0.0000 C   0  0  0  0  0  0  0  0  0  0  0  0
    3.1111   -4.7197    0.0000 C   0  0  0  0  0  0  0  0  0  0  0  0
    2.9303   -3.2306    0.0000 C   0  0  0  0  0  0  0  0  0  0  0  0
    2.0782   -1.9961    0.0000 C   0  0  0  0  0  0  0  0  0  0  0  0
    3.0729   -0.8734    0.0000 C   0  0  0  0  0  0  0  0  0  0  0  0
    2.5979    0.5494    0.0000 O   0  0  0  0  0  0  0  0  0  0  0  0
    4.5426   -1.1734    0.0000 N   0  0  0  0  0  0  0  0  0  0  0  0
    5.5372   -0.0506    0.0000 C   0  0  0  0  0  0  0  0  0  0  0  0
    7.0069   -0.3507    0.0000 N   0  0  0  0  0  0  0  0  0  0  0  0
    8.0016    0.7721    0.0000 N   0  0  0  0  0  0  0  0  0  0  0  0
    7.5266    2.1949    0.0000 N   0  0  0  0  0  0  0  0  0  0  0  0
    6.0569    2.4949    0.0000 N   0  0  0  0  0  0  0  0  0  0  0  0
    5.0622    1.3722    0.0000 N   0  0  0  0  0  0  0  0  0  0  0  0
    0.7500   -1.2990    0.0000 C   0  0  0  0  0  0  0  0  0  0  0  0
    1.5000    0.0000    0.0000 C   0  0  0  0  0  0  0  0  0  0  0  0
    0.7500    1.2990    0.0000 C   0  0  0  0  0  0  0  0  0  0  0  0
   -0.7500    1.2990    0.0000 C   0  0  0  0  0  0  0  0  0  0  0  0
   -1.5000    0.0000    0.0000 C   0  0  0  0  0  0  0  0  0  0  0  0
   -0.7500   -1.2990    0.0000 C   0  0  0  0  0  0  0  0  0  0  0  0
  1  2  1  0
  2  3  1  0
  3  4  1  0
  4  5  1  0
  5  6  1  0
  6  7  1  0
  7  8  1  0
  8  9  1  0
  9 10  1  0
 10 11  1  0
 11 12  1  0
 12 13  1  0
 13 14  2  0
 13 15  1  0
 15 16  1  0
 16 17  2  0
 17 18  1  0
 18 19  2  0
 19 20  1  0
 20 21  2  0
 12 22  1  0
 22 23  2  0
 23 24  1  0
 24 25  2  0
 25 26  1  0
 26 27  2  0
 27  2  1  0
 21 16  1  0
 27 22  1  0
M  END
>  <Title>  (321) 
idAAKOgen7

$$$$

     RDKit          2D

 10 10  0  0  0  0  0  0  0  0999 V2000
    3.6929    0.0000    0.0000 C   0  0  0  0  0  0  0  0  0  0  0  0
    2.1929    0.0000    0.0000 C   0  0  0  0  0  0  0  0  0  0  0  0
    1.6798    1.4095    0.0000 C   0  0  0  0  0  0  0  0  0  0  0  0
    0.3808    2.1595    0.0000 C   0  0  0  0  0  0  0  0  0  0  0  0
   -1.0964    1.8991    0.0000 C   0  0  0  0  0  0  0  0  0  0  0  0
   -2.0606    0.7500    0.0000 C   0  0  0  0  0  0  0  0  0  0  0  0
   -2.0606   -0.7500    0.0000 C   0  0  0  0  0  0  0  0  0  0  0  0
   -1.0964   -1.8991    0.0000 C   0  0  0  0  0  0  0  0  0  0  0  0
    0.3808   -2.1595    0.0000 C   0  0  0  0  0  0  0  0  0  0  0  0
    1.6798   -1.4095    0.0000 C   0  0  0  0  0  0  0  0  0  0  0  0
  1  2  1  0
  2  3  1  0
  3  4  1  0
  4  5  2  0
  5  6  1  0
  6  7  2  0
  7  8  1  0
  8  9  1  0
  9 10  1  0
 10  2  1  0
M  END
>  <Title>  (322) 
idAAKPgen7

$$$$

     RDKit          2D

 17 18  0  0  0  0  0  0  0  0999 V2000
    3.2286   -0.0000    0.0000 C   0  0  0  0  0  0  0  0  0  0  0  0
    1.7286    0.0000    0.0000 C   0  0  0  0  0  0  0  0  0  0  0  0
    1.0777    1.3515    0.0000 C   0  0  0  0  0  0  0  0  0  0  0  0
   -0.3846    1.6852    0.0000 C   0  0  0  0  0  0  0  0  0  0  0  0
   -1.5574    0.7500    0.0000 C   0  0  0  0  0  0  0  0  0  0  0  0
   -1.5574   -0.7500    0.0000 C   0  0  0  0  0  0  0  0  0  0  0  0
   -2.9088   -1.4008    0.0000 C   0  0  0  0  0  0  0  0  0  0  0  0
   -3.0209   -2.8966    0.0000 O   0  0  0  0  0  0  0  0  0  0  0  0
   -4.1482   -0.5558    0.0000 N   0  0  0  0  0  0  0  0  0  0  0  0
   -5.4997   -1.2067    0.0000 C   0  0  0  0  0  0  0  0  0  0  0  0
   -6.7390   -0.3617    0.0000 N   0  0  0  0  0  0  0  0  0  0  0  0
   -8.0905   -1.0125    0.0000 N   0  0  0  0  0  0  0  0  0  0  0  0
   -8.2026   -2.5083    0.0000 N   0  0  0  0  0  0  0  0  0  0  0  0
   -6.9632   -3.3533    0.0000 N   0  0  0  0  0  0  0  0  0  0  0  0
   -5.6118   -2.7025    0.0000 N   0  0  0  0  0  0  0  0  0  0  0  0
   -0.3846   -1.6852    0.0000 C   0  0  0  0  0  0  0  0  0  0  0  0
    1.0777   -1.3515    0.0000 C   0  0  0  0  0  0  0  0  0  0  0  0
  1  2  1  0
  2  3  1  0
  3  4  1  0
  4  5  1  0
  5  6  1  0
  6  7  1  0
  7  8  2  0
  7  9  1  0
  9 10  1  0
 10 11  2  0
 11 12  1  0
 12 13  2  0
 13 14  1  0
 14 15  2  0
  6 16  1  0
 16 17  1  0
 17  2  1  0
 15 10  1  0
M  END
>  <Title>  (323) 
idAAKQgen7

$$$$

     RDKit          2D

 20 22  0  0  0  0  0  0  0  0999 V2000
   -3.0000   -2.5981    0.0000 C   0  0  0  0  0  0  0  0  0  0  0  0
   -1.5000   -2.5981    0.0000 C   0  0  0  0  0  0  0  0  0  0  0  0
   -0.7500   -3.8971    0.0000 C   0  0  0  0  0  0  0  0  0  0  0  0
    0.7500   -3.8971    0.0000 C   0  0  0  0  0  0  0  0  0  0  0  0
    1.5000   -2.5981    0.0000 C   0  0  0  0  0  0  0  0  0  0  0  0
    3.0000   -2.5981    0.0000 C   0  0  0  0  0  0  0  0  0  0  0  0
    3.7500   -1.2990    0.0000 O   0  0  0  0  0  0  0  0  0  0  0  0
    3.7500   -3.8971    0.0000 C   0  0  0  0  0  0  0  0  0  0  0  0
    5.2500   -3.8971    0.0000 C   0  0  0  0  0  0  0  0  0  0  0  0
    6.0000   -5.1962    0.0000 N   0  0  0  0  0  0  0  0  0  0  0  0
    7.5000   -5.1962    0.0000 N   0  0  0  0  0  0  0  0  0  0  0  0
    8.2500   -3.8971    0.0000 N   0  0  0  0  0  0  0  0  0  0  0  0
    7.5000   -2.5981    0.0000 N   0  0  0  0  0  0  0  0  0  0  0  0
    6.0000   -2.5981    0.0000 N   0  0  0  0  0  0  0  0  0  0  0  0
    0.7500   -1.2990    0.0000 C   0  0  0  0  0  0  0  0  0  0  0  0
    1.5000    0.0000    0.0000 C   0  0  0  0  0  0  0  0  0  0  0  0
    0.7500    1.2990    0.0000 C   0  0  0  0  0  0  0  0  0  0  0  0
   -0.7500    1.2990    0.0000 C   0  0  0  0  0  0  0  0  0  0  0  0
   -1.5000    0.0000    0.0000 C   0  0  0  0  0  0  0  0  0  0  0  0
   -0.7500   -1.2990    0.0000 C   0  0  0  0  0  0  0  0  0  0  0  0
  1  2  1  0
  2  3  1  0
  3  4  1  0
  4  5  1  0
  5  6  1  0
  6  7  2  0
  6  8  1  0
  8  9  1  0
  9 10  2  0
 10 11  1  0
 11 12  2  0
 12 13  1  0
 13 14  2  0
  5 15  1  0
 15 16  2  0
 16 17  1  0
 17 18  2  0
 18 19  1  0
 19 20  2  0
 20  2  1  0
 14  9  1  0
 20 15  1  0
M  END
>  <Title>  (324) 
idAAKRgen7

$$$$

     RDKit          2D

100100  0  0  0  0  0  0  0  0999 V2000
   25.1385    0.0000    0.0000 C   0  0  0  0  0  0  0  0  0  0  0  0
   23.6385    0.0000    0.0000 C   0  0  0  0  0  0  0  0  0  0  0  0
   23.5909    1.4992    0.0000 C   0  0  0  0  0  0  0  0  0  0  0  0
   23.4483    2.9925    0.0000 C   0  0  0  0  0  0  0  0  0  0  0  0
   23.2113    4.4736    0.0000 C   0  0  0  0  0  0  0  0  0  0  0  0
   22.8808    5.9368    0.0000 C   0  0  0  0  0  0  0  0  0  0  0  0
   22.4582    7.3760    0.0000 C   0  0  0  0  0  0  0  0  0  0  0  0
   21.9452    8.7855    0.0000 C   0  0  0  0  0  0  0  0  0  0  0  0
   21.3438   10.1597    0.0000 C   0  0  0  0  0  0  0  0  0  0  0  0
   20.6565   11.4929    0.0000 C   0  0  0  0  0  0  0  0  0  0  0  0
   19.8860   12.7799    0.0000 C   0  0  0  0  0  0  0  0  0  0  0  0
   19.0354   14.0154    0.0000 C   0  0  0  0  0  0  0  0  0  0  0  0
   18.1081   15.1945    0.0000 C   0  0  0  0  0  0  0  0  0  0  0  0
   17.1080   16.3124    0.0000 C   0  0  0  0  0  0  0  0  0  0  0  0
   16.0389   17.3646    0.0000 C   0  0  0  0  0  0  0  0  0  0  0  0
   14.9053   18.3469    0.0000 C   0  0  0  0  0  0  0  0  0  0  0  0
   13.7117   19.2553    0.0000 C   0  0  0  0  0  0  0  0  0  0  0  0
   12.4628   20.0862    0.0000 C   0  0  0  0  0  0  0  0  0  0  0  0
   11.1638   20.8362    0.0000 C   0  0  0  0  0  0  0  0  0  0  0  0
    9.8198   21.5023    0.0000 C   0  0  0  0  0  0  0  0  0  0  0  0
    8.4362   22.0818    0.0000 C   0  0  0  0  0  0  0  0  0  0  0  0
    7.0187   22.5724    0.0000 C   0  0  0  0  0  0  0  0  0  0  0  0
    5.5730   22.9721    0.0000 C   0  0  0  0  0  0  0  0  0  0  0  0
    4.1048   23.2794    0.0000 C   0  0  0  0  0  0  0  0  0  0  0  0
    2.6200   23.4928    0.0000 C   0  0  0  0  0  0  0  0  0  0  0  0
    1.1248   23.6117    0.0000 C   0  0  0  0  0  0  0  0  0  0  0  0
   -0.3750   23.6355    0.0000 C   0  0  0  0  0  0  0  0  0  0  0  0
   -1.8733   23.5641    0.0000 C   0  0  0  0  0  0  0  0  0  0  0  0
   -3.3641   23.3979    0.0000 C   0  0  0  0  0  0  0  0  0  0  0  0
   -4.8413   23.1374    0.0000 C   0  0  0  0  0  0  0  0  0  0  0  0
   -6.2990   22.7838    0.0000 C   0  0  0  0  0  0  0  0  0  0  0  0
   -7.7314   22.3384    0.0000 C   0  0  0  0  0  0  0  0  0  0  0  0
   -9.1326   21.8031    0.0000 C   0  0  0  0  0  0  0  0  0  0  0  0
  -10.4971   21.1799    0.0000 C   0  0  0  0  0  0  0  0  0  0  0  0
  -11.8192   20.4715    0.0000 C   0  0  0  0  0  0  0  0  0  0  0  0
  -13.0938   19.6807    0.0000 C   0  0  0  0  0  0  0  0  0  0  0  0
  -14.3157   18.8106    0.0000 C   0  0  0  0  0  0  0  0  0  0  0  0
  -15.4799   17.8648    0.0000 C   0  0  0  0  0  0  0  0  0  0  0  0
  -16.5818   16.8470    0.0000 C   0  0  0  0  0  0  0  0  0  0  0  0
  -17.6169   15.7614    0.0000 C   0  0  0  0  0  0  0  0  0  0  0  0
  -18.5811   14.6123    0.0000 C   0  0  0  0  0  0  0  0  0  0  0  0
  -19.4705   13.4044    0.0000 C   0  0  0  0  0  0  0  0  0  0  0  0
  -20.2814   12.1426    0.0000 C   0  0  0  0  0  0  0  0  0  0  0  0
  -21.0107   10.8318    0.0000 C   0  0  0  0  0  0  0  0  0  0  0  0
  -21.6554    9.4774    0.0000 C   0  0  0  0  0  0  0  0  0  0  0  0
  -22.2129    8.0848    0.0000 C   0  0  0  0  0  0  0  0  0  0  0  0
  -22.6810    6.6597    0.0000 C   0  0  0  0  0  0  0  0  0  0  0  0
  -23.0577    5.2078    0.0000 C   0  0  0  0  0  0  0  0  0  0  0  0
  -23.3416    3.7349    0.0000 C   0  0  0  0  0  0  0  0  0  0  0  0
  -23.5314    2.2470    0.0000 C   0  0  0  0  0  0  0  0  0  0  0  0
  -23.6266    0.7500    0.0000 C   0  0  0  0  0  0  0  0  0  0  0  0
  -23.6266   -0.7500    0.0000 C   0  0  0  0  0  0  0  0  0  0  0  0
  -23.5314   -2.2470    0.0000 C   0  0  0  0  0  0  0  0  0  0  0  0
  -23.3416   -3.7349    0.0000 C   0  0  0  0  0  0  0  0  0  0  0  0
  -23.0577   -5.2078    0.0000 C   0  0  0  0  0  0  0  0  0  0  0  0
  -22.6810   -6.6597    0.0000 C   0  0  0  0  0  0  0  0  0  0  0  0
  -22.2129   -8.0848    0.0000 C   0  0  0  0  0  0  0  0  0  0  0  0
  -21.6554   -9.4774    0.0000 C   0  0  0  0  0  0  0  0  0  0  0  0
  -21.0107  -10.8318    0.0000 C   0  0  0  0  0  0  0  0  0  0  0  0
  -20.2814  -12.1426    0.0000 C   0  0  0  0  0  0  0  0  0  0  0  0
  -19.4705  -13.4044    0.0000 C   0  0  0  0  0  0  0  0  0  0  0  0
  -18.5811  -14.6123    0.0000 C   0  0  0  0  0  0  0  0  0  0  0  0
  -17.6169  -15.7614    0.0000 C   0  0  0  0  0  0  0  0  0  0  0  0
  -16.5818  -16.8470    0.0000 C   0  0  0  0  0  0  0  0  0  0  0  0
  -15.4799  -17.8648    0.0000 C   0  0  0  0  0  0  0  0  0  0  0  0
  -14.3157  -18.8106    0.0000 C   0  0  0  0  0  0  0  0  0  0  0  0
  -13.0938  -19.6807    0.0000 C   0  0  0  0  0  0  0  0  0  0  0  0
  -11.8192  -20.4715    0.0000 C   0  0  0  0  0  0  0  0  0  0  0  0
  -10.4971  -21.1799    0.0000 C   0  0  0  0  0  0  0  0  0  0  0  0
   -9.1326  -21.8031    0.0000 C   0  0  0  0  0  0  0  0  0  0  0  0
   -7.7314  -22.3384    0.0000 C   0  0  0  0  0  0  0  0  0  0  0  0
   -6.2990  -22.7838    0.0000 C   0  0  0  0  0  0  0  0  0  0  0  0
   -4.8413  -23.1374    0.0000 C   0  0  0  0  0  0  0  0  0  0  0  0
   -3.3641  -23.3979    0.0000 C   0  0  0  0  0  0  0  0  0  0  0  0
   -1.8733  -23.5641    0.0000 C   0  0  0  0  0  0  0  0  0  0  0  0
   -0.3750  -23.6355    0.0000 C   0  0  0  0  0  0  0  0  0  0  0  0
    1.1248  -23.6117    0.0000 C   0  0  0  0  0  0  0  0  0  0  0  0
    2.6200  -23.4928    0.0000 C   0  0  0  0  0  0  0  0  0  0  0  0
    4.1048  -23.2794    0.0000 C   0  0  0  0  0  0  0  0  0  0  0  0
    5.5730  -22.9721    0.0000 C   0  0  0  0  0  0  0  0  0  0  0  0
    7.0187  -22.5724    0.0000 C   0  0  0  0  0  0  0  0  0  0  0  0
    8.4362  -22.0818    0.0000 C   0  0  0  0  0  0  0  0  0  0  0  0
    9.8198  -21.5023    0.0000 C   0  0  0  0  0  0  0  0  0  0  0  0
   11.1638  -20.8362    0.0000 C   0  0  0  0  0  0  0  0  0  0  0  0
   12.4628  -20.0862    0.0000 C   0  0  0  0  0  0  0  0  0  0  0  0
   13.7117  -19.2553    0.0000 C   0  0  0  0  0  0  0  0  0  0  0  0
   14.9053  -18.3469    0.0000 C   0  0  0  0  0  0  0  0  0  0  0  0
   16.0389  -17.3646    0.0000 C   0  0  0  0  0  0  0  0  0  0  0  0
   17.1080  -16.3124    0.0000 C   0  0  0  0  0  0  0  0  0  0  0  0
   18.1081  -15.1945    0.0000 C   0  0  0  0  0  0  0  0  0  0  0  0
   19.0354  -14.0154    0.0000 C   0  0  0  0  0  0  0  0  0  0  0  0
   19.8860  -12.7799    0.0000 C   0  0  0  0  0  0  0  0  0  0  0  0
   20.6565  -11.4929    0.0000 C   0  0  0  0  0  0  0  0  0  0  0  0
   21.3438  -10.1597    0.0000 C   0  0  0  0  0  0  0  0  0  0  0  0
   21.9452   -8.7855    0.0000 C   0  0  0  0  0  0  0  0  0  0  0  0
   22.4582   -7.3760    0.0000 C   0  0  0  0  0  0  0  0  0  0  0  0
   22.8808   -5.9368    0.0000 C   0  0  0  0  0  0  0  0  0  0  0  0
   23.2113   -4.4736    0.0000 C   0  0  0  0  0  0  0  0  0  0  0  0
   23.4483   -2.9925    0.0000 C   0  0  0  0  0  0  0  0  0  0  0  0
   23.5909   -1.4992    0.0000 C   0  0  0  0  0  0  0  0  0  0  0  0
  1  2  1  0
  2  3  1  0
  3  4  1  0
  4  5  1  0
  5  6  1  0
  6  7  1  0
  7  8  1  0
  8  9  1  0
  9 10  1  0
 10 11  1  0
 11 12  2  0
 12 13  1  0
 13 14  2  0
 14 15  1  0
 15 16  2  0
 16 17  1  0
 17 18  1  0
 18 19  1  0
 19 20  1  0
 20 21  1  0
 21 22  1  0
 22 23  1  0
 23 24  1  0
 24 25  1  0
 25 26  1  0
 26 27  1  0
 27 28  1  0
 28 29  1  0
 29 30  1  0
 30 31  1  0
 31 32  1  0
 32 33  1  0
 33 34  1  0
 34 35  1  0
 35 36  1  0
 36 37  1  0
 37 38  1  0
 38 39  1  0
 39 40  1  0
 40 41  1  0
 41 42  1  0
 42 43  1  0
 43 44  1  0
 44 45  1  0
 45 46  1  0
 46 47  1  0
 47 48  1  0
 48 49  1  0
 49 50  1  0
 50 51  1  0
 51 52  1  0
 52 53  1  0
 53 54  1  0
 54 55  1  0
 55 56  1  0
 56 57  1  0
 57 58  1  0
 58 59  1  0
 59 60  1  0
 60 61  1  0
 61 62  1  0
 62 63  1  0
 63 64  1  0
 64 65  1  0
 65 66  1  0
 66 67  1  0
 67 68  1  0
 68 69  1  0
 69 70  1  0
 70 71  1  0
 71 72  1  0
 72 73  1  0
 73 74  1  0
 74 75  2  0
 75 76  1  0
 76 77  2  0
 77 78  1  0
 78 79  2  0
 79 80  1  0
 80 81  1  0
 81 82  1  0
 82 83  1  0
 83 84  1  0
 84 85  1  0
 85 86  1  0
 86 87  1  0
 87 88  1  0
 88 89  1  0
 89 90  1  0
 90 91  1  0
 91 92  1  0
 92 93  1  0
 93 94  1  0
 94 95  1  0
 95 96  1  0
 96 97  1  0
 97 98  1  0
 98 99  1  0
 99100  1  0
100  2  1  0
M  END
>  <Title>  (325) 
idAAKSgen7

$$$$

     RDKit          2D

 12 13  0  0  0  0  0  0  0  0999 V2000
   -2.5242   -4.8694    0.0000 C   0  0  0  0  0  0  0  0  0  0  0  0
   -1.3515   -3.9342    0.0000 C   0  0  0  0  0  0  0  0  0  0  0  0
   -0.0000   -4.5850    0.0000 C   0  0  0  0  0  0  0  0  0  0  0  0
    1.3515   -3.9342    0.0000 C   0  0  0  0  0  0  0  0  0  0  0  0
    1.6852   -2.4718    0.0000 C   0  0  0  0  0  0  0  0  0  0  0  0
    0.7500   -1.2990    0.0000 C   0  0  0  0  0  0  0  0  0  0  0  0
    1.5000    0.0000    0.0000 C   0  0  0  0  0  0  0  0  0  0  0  0
    0.7500    1.2990    0.0000 C   0  0  0  0  0  0  0  0  0  0  0  0
   -0.7500    1.2990    0.0000 C   0  0  0  0  0  0  0  0  0  0  0  0
   -1.5000    0.0000    0.0000 C   0  0  0  0  0  0  0  0  0  0  0  0
   -0.7500   -1.2990    0.0000 C   0  0  0  0  0  0  0  0  0  0  0  0
   -1.6852   -2.4718    0.0000 C   0  0  0  0  0  0  0  0  0  0  0  0
  1  2  1  0
  2  3  1  0
  3  4  1  0
  4  5  1  0
  5  6  1  0
  6  7  2  0
  7  8  1  0
  8  9  2  0
  9 10  1  0
 10 11  2  0
 11 12  1  0
 12  2  1  0
 11  6  1  0
M  END
>  <Title>  (326) 
idAAKTgen7

$$$$

     RDKit          2D

 24 24  0  0  0  0  0  0  0  0999 V2000
    7.0080   -0.0000    0.0000 C   0  0  0  0  0  0  0  0  0  0  0  0
    5.5080    0.0000    0.0000 C   0  0  0  0  0  0  0  0  0  0  0  0
    5.3037    1.4860    0.0000 C   0  0  0  0  0  0  0  0  0  0  0  0
    4.7061    2.8618    0.0000 C   0  0  0  0  0  0  0  0  0  0  0  0
    3.7595    4.0254    0.0000 C   0  0  0  0  0  0  0  0  0  0  0  0
    2.5340    4.8904    0.0000 C   0  0  0  0  0  0  0  0  0  0  0  0
    1.1206    5.3928    0.0000 C   0  0  0  0  0  0  0  0  0  0  0  0
   -0.3759    5.4951    0.0000 C   0  0  0  0  0  0  0  0  0  0  0  0
   -1.8445    5.1899    0.0000 C   0  0  0  0  0  0  0  0  0  0  0  0
   -3.1763    4.4998    0.0000 C   0  0  0  0  0  0  0  0  0  0  0  0
   -4.2726    3.4760    0.0000 C   0  0  0  0  0  0  0  0  0  0  0  0
   -5.0520    2.1944    0.0000 C   0  0  0  0  0  0  0  0  0  0  0  0
   -5.4567    0.7500    0.0000 C   0  0  0  0  0  0  0  0  0  0  0  0
   -5.4567   -0.7500    0.0000 C   0  0  0  0  0  0  0  0  0  0  0  0
   -5.0520   -2.1944    0.0000 C   0  0  0  0  0  0  0  0  0  0  0  0
   -4.2726   -3.4760    0.0000 C   0  0  0  0  0  0  0  0  0  0  0  0
   -3.1763   -4.4998    0.0000 C   0  0  0  0  0  0  0  0  0  0  0  0
   -1.8445   -5.1899    0.0000 C   0  0  0  0  0  0  0  0  0  0  0  0
   -0.3759   -5.4951    0.0000 C   0  0  0  0  0  0  0  0  0  0  0  0
    1.1206   -5.3928    0.0000 C   0  0  0  0  0  0  0  0  0  0  0  0
    2.5340   -4.8904    0.0000 C   0  0  0  0  0  0  0  0  0  0  0  0
    3.7595   -4.0254    0.0000 C   0  0  0  0  0  0  0  0  0  0  0  0
    4.7061   -2.8618    0.0000 C   0  0  0  0  0  0  0  0  0  0  0  0
    5.3037   -1.4860    0.0000 C   0  0  0  0  0  0  0  0  0  0  0  0
  1  2  1  0
  2  3  1  0
  3  4  1  0
  4  5  1  0
  5  6  1  0
  6  7  1  0
  7  8  1  0
  8  9  1  0
  9 10  1  0
 10 11  1  0
 11 12  1  0
 12 13  1  0
 13 14  1  0
 14 15  1  0
 15 16  1  0
 16 17  1  0
 17 18  1  0
 18 19  1  0
 19 20  1  0
 20 21  1  0
 21 22  1  0
 22 23  1  0
 23 24  1  0
 24  2  1  0
M  END
>  <Title>  (327) 
idAAKUgen7

$$$$

     RDKit          2D

 92 92  0  0  0  0  0  0  0  0999 V2000
   23.2290   -0.0000    0.0000 C   0  0  0  0  0  0  0  0  0  0  0  0
   21.7290    0.0000    0.0000 C   0  0  0  0  0  0  0  0  0  0  0  0
   21.6772    1.4991    0.0000 C   0  0  0  0  0  0  0  0  0  0  0  0
   21.5221    2.9911    0.0000 C   0  0  0  0  0  0  0  0  0  0  0  0
   21.2645    4.4688    0.0000 C   0  0  0  0  0  0  0  0  0  0  0  0
   20.9055    5.9252    0.0000 C   0  0  0  0  0  0  0  0  0  0  0  0
   20.4469    7.3534    0.0000 C   0  0  0  0  0  0  0  0  0  0  0  0
   19.8909    8.7465    0.0000 C   0  0  0  0  0  0  0  0  0  0  0  0
   19.2400   10.0980    0.0000 C   0  0  0  0  0  0  0  0  0  0  0  0
   18.4975   11.4013    0.0000 C   0  0  0  0  0  0  0  0  0  0  0  0
   17.6669   12.6503    0.0000 C   0  0  0  0  0  0  0  0  0  0  0  0
   16.7520   13.8390    0.0000 C   0  0  0  0  0  0  0  0  0  0  0  0
   15.7573   14.9618    0.0000 C   0  0  0  0  0  0  0  0  0  0  0  0
   14.6876   16.0132    0.0000 C   0  0  0  0  0  0  0  0  0  0  0  0
   13.5478   16.9884    0.0000 C   0  0  0  0  0  0  0  0  0  0  0  0
   12.3435   17.8826    0.0000 C   0  0  0  0  0  0  0  0  0  0  0  0
   11.0803   18.6916    0.0000 C   0  0  0  0  0  0  0  0  0  0  0  0
    9.7644   19.4115    0.0000 C   0  0  0  0  0  0  0  0  0  0  0  0
    8.4019   20.0389    0.0000 C   0  0  0  0  0  0  0  0  0  0  0  0
    6.9993   20.5708    0.0000 C   0  0  0  0  0  0  0  0  0  0  0  0
    5.5635   21.0047    0.0000 C   0  0  0  0  0  0  0  0  0  0  0  0
    4.1011   21.3384    0.0000 C   0  0  0  0  0  0  0  0  0  0  0  0
    2.6191   21.5705    0.0000 C   0  0  0  0  0  0  0  0  0  0  0  0
    1.1247   21.6998    0.0000 C   0  0  0  0  0  0  0  0  0  0  0  0
   -0.3751   21.7257    0.0000 C   0  0  0  0  0  0  0  0  0  0  0  0
   -1.8730   21.6481    0.0000 C   0  0  0  0  0  0  0  0  0  0  0  0
   -3.3621   21.4673    0.0000 C   0  0  0  0  0  0  0  0  0  0  0  0
   -4.8351   21.1842    0.0000 C   0  0  0  0  0  0  0  0  0  0  0  0
   -6.2851   20.8001    0.0000 C   0  0  0  0  0  0  0  0  0  0  0  0
   -7.7052   20.3169    0.0000 C   0  0  0  0  0  0  0  0  0  0  0  0
   -9.0885   19.7369    0.0000 C   0  0  0  0  0  0  0  0  0  0  0  0
  -10.4285   19.0629    0.0000 C   0  0  0  0  0  0  0  0  0  0  0  0
  -11.7189   18.2980    0.0000 C   0  0  0  0  0  0  0  0  0  0  0  0
  -12.9533   17.4459    0.0000 C   0  0  0  0  0  0  0  0  0  0  0  0
  -14.1261   16.5106    0.0000 C   0  0  0  0  0  0  0  0  0  0  0  0
  -15.2315   15.4967    0.0000 C   0  0  0  0  0  0  0  0  0  0  0  0
  -16.2644   14.4090    0.0000 C   0  0  0  0  0  0  0  0  0  0  0  0
  -17.2197   13.2525    0.0000 C   0  0  0  0  0  0  0  0  0  0  0  0
  -18.0930   12.0330    0.0000 C   0  0  0  0  0  0  0  0  0  0  0  0
  -18.8800   10.7560    0.0000 C   0  0  0  0  0  0  0  0  0  0  0  0
  -19.5771    9.4278    0.0000 C   0  0  0  0  0  0  0  0  0  0  0  0
  -20.1809    8.0547    0.0000 C   0  0  0  0  0  0  0  0  0  0  0  0
  -20.6885    6.6432    0.0000 C   0  0  0  0  0  0  0  0  0  0  0  0
  -21.0976    5.2001    0.0000 C   0  0  0  0  0  0  0  0  0  0  0  0
  -21.4061    3.7321    0.0000 C   0  0  0  0  0  0  0  0  0  0  0  0
  -21.6125    2.2464    0.0000 C   0  0  0  0  0  0  0  0  0  0  0  0
  -21.7160    0.7500    0.0000 C   0  0  0  0  0  0  0  0  0  0  0  0
  -21.7160   -0.7500    0.0000 C   0  0  0  0  0  0  0  0  0  0  0  0
  -21.6125   -2.2464    0.0000 C   0  0  0  0  0  0  0  0  0  0  0  0
  -21.4061   -3.7321    0.0000 C   0  0  0  0  0  0  0  0  0  0  0  0
  -21.0976   -5.2001    0.0000 C   0  0  0  0  0  0  0  0  0  0  0  0
  -20.6885   -6.6432    0.0000 C   0  0  0  0  0  0  0  0  0  0  0  0
  -20.1809   -8.0547    0.0000 C   0  0  0  0  0  0  0  0  0  0  0  0
  -19.5771   -9.4278    0.0000 C   0  0  0  0  0  0  0  0  0  0  0  0
  -18.8800  -10.7560    0.0000 C   0  0  0  0  0  0  0  0  0  0  0  0
  -18.0930  -12.0330    0.0000 C   0  0  0  0  0  0  0  0  0  0  0  0
  -17.2197  -13.2525    0.0000 C   0  0  0  0  0  0  0  0  0  0  0  0
  -16.2644  -14.4090    0.0000 C   0  0  0  0  0  0  0  0  0  0  0  0
  -15.2315  -15.4967    0.0000 C   0  0  0  0  0  0  0  0  0  0  0  0
  -14.1261  -16.5106    0.0000 C   0  0  0  0  0  0  0  0  0  0  0  0
  -12.9533  -17.4459    0.0000 C   0  0  0  0  0  0  0  0  0  0  0  0
  -11.7189  -18.2980    0.0000 C   0  0  0  0  0  0  0  0  0  0  0  0
  -10.4285  -19.0629    0.0000 C   0  0  0  0  0  0  0  0  0  0  0  0
   -9.0885  -19.7369    0.0000 C   0  0  0  0  0  0  0  0  0  0  0  0
   -7.7052  -20.3169    0.0000 C   0  0  0  0  0  0  0  0  0  0  0  0
   -6.2851  -20.8001    0.0000 C   0  0  0  0  0  0  0  0  0  0  0  0
   -4.8351  -21.1842    0.0000 C   0  0  0  0  0  0  0  0  0  0  0  0
   -3.3621  -21.4673    0.0000 C   0  0  0  0  0  0  0  0  0  0  0  0
   -1.8730  -21.6481    0.0000 C   0  0  0  0  0  0  0  0  0  0  0  0
   -0.3751  -21.7257    0.0000 C   0  0  0  0  0  0  0  0  0  0  0  0
    1.1247  -21.6998    0.0000 C   0  0  0  0  0  0  0  0  0  0  0  0
    2.6191  -21.5705    0.0000 C   0  0  0  0  0  0  0  0  0  0  0  0
    4.1011  -21.3384    0.0000 C   0  0  0  0  0  0  0  0  0  0  0  0
    5.5635  -21.0047    0.0000 C   0  0  0  0  0  0  0  0  0  0  0  0
    6.9993  -20.5708    0.0000 C   0  0  0  0  0  0  0  0  0  0  0  0
    8.4019  -20.0389    0.0000 C   0  0  0  0  0  0  0  0  0  0  0  0
    9.7644  -19.4115    0.0000 C   0  0  0  0  0  0  0  0  0  0  0  0
   11.0803  -18.6916    0.0000 C   0  0  0  0  0  0  0  0  0  0  0  0
   12.3435  -17.8826    0.0000 C   0  0  0  0  0  0  0  0  0  0  0  0
   13.5478  -16.9884    0.0000 N   0  0  0  0  0  0  0  0  0  0  0  0
   14.6876  -16.0132    0.0000 C   0  0  0  0  0  0  0  0  0  0  0  0
   15.7573  -14.9618    0.0000 C   0  0  0  0  0  0  0  0  0  0  0  0
   16.7520  -13.8390    0.0000 C   0  0  0  0  0  0  0  0  0  0  0  0
   17.6669  -12.6503    0.0000 C   0  0  0  0  0  0  0  0  0  0  0  0
   18.4975  -11.4013    0.0000 C   0  0  0  0  0  0  0  0  0  0  0  0
   19.2400  -10.0980    0.0000 C   0  0  0  0  0  0  0  0  0  0  0  0
   19.8909   -8.7465    0.0000 C   0  0  0  0  0  0  0  0  0  0  0  0
   20.4469   -7.3534    0.0000 C   0  0  0  0  0  0  0  0  0  0  0  0
   20.9055   -5.9252    0.0000 C   0  0  0  0  0  0  0  0  0  0  0  0
   21.2645   -4.4688    0.0000 C   0  0  0  0  0  0  0  0  0  0  0  0
   21.5221   -2.9911    0.0000 C   0  0  0  0  0  0  0  0  0  0  0  0
   21.6772   -1.4991    0.0000 C   0  0  0  0  0  0  0  0  0  0  0  0
  1  2  1  0
  2  3  1  0
  3  4  1  0
  4  5  1  0
  5  6  1  0
  6  7  1  0
  7  8  1  0
  8  9  1  0
  9 10  1  0
 10 11  1  0
 11 12  1  0
 12 13  1  0
 13 14  1  0
 14 15  1  0
 15 16  1  0
 16 17  1  0
 17 18  1  0
 18 19  1  0
 19 20  1  0
 20 21  1  0
 21 22  1  0
 22 23  1  0
 23 24  1  0
 24 25  1  0
 25 26  1  0
 26 27  1  0
 27 28  1  0
 28 29  1  0
 29 30  1  0
 30 31  1  0
 31 32  1  0
 32 33  1  0
 33 34  1  0
 34 35  1  0
 35 36  1  0
 36 37  1  0
 37 38  1  0
 38 39  1  0
 39 40  1  0
 40 41  1  0
 41 42  1  0
 42 43  1  0
 43 44  1  0
 44 45  1  0
 45 46  1  0
 46 47  1  0
 47 48  1  0
 48 49  1  0
 49 50  1  0
 50 51  1  0
 51 52  1  0
 52 53  1  0
 53 54  1  0
 54 55  1  0
 55 56  1  0
 56 57  1  0
 57 58  1  0
 58 59  1  0
 59 60  1  0
 60 61  1  0
 61 62  1  0
 62 63  1  0
 63 64  1  0
 64 65  1  0
 65 66  1  0
 66 67  1  0
 67 68  1  0
 68 69  1  0
 69 70  1  0
 70 71  1  0
 71 72  1  0
 72 73  1  0
 73 74  1  0
 74 75  1  0
 75 76  1  0
 76 77  1  0
 77 78  1  0
 78 79  1  0
 79 80  1  0
 80 81  1  0
 81 82  1  0
 82 83  1  0
 83 84  1  0
 84 85  1  0
 85 86  1  0
 86 87  1  0
 87 88  1  0
 88 89  1  0
 89 90  1  0
 90 91  1  0
 91 92  1  0
 92  2  1  0
M  END
>  <Title>  (328) 
idAAKVgen7

$$$$

     RDKit          2D

  8  8  0  0  0  0  0  0  0  0999 V2000
    3.2286   -0.0000    0.0000 C   0  0  0  0  0  0  0  0  0  0  0  0
    1.7286    0.0000    0.0000 C   0  0  0  0  0  0  0  0  0  0  0  0
    1.0777    1.3515    0.0000 C   0  0  0  0  0  0  0  0  0  0  0  0
   -0.3846    1.6852    0.0000 C   0  0  0  0  0  0  0  0  0  0  0  0
   -1.5574    0.7500    0.0000 C   0  0  0  0  0  0  0  0  0  0  0  0
   -1.5574   -0.7500    0.0000 C   0  0  0  0  0  0  0  0  0  0  0  0
   -0.3846   -1.6852    0.0000 C   0  0  0  0  0  0  0  0  0  0  0  0
    1.0777   -1.3515    0.0000 C   0  0  0  0  0  0  0  0  0  0  0  0
  1  2  1  0
  2  3  1  0
  3  4  2  0
  4  5  1  0
  5  6  2  0
  6  7  1  0
  7  8  2  0
  8  2  1  0
M  END
>  <Title>  (329) 
idAAKWgen7

$$$$

     RDKit          2D

 11 11  0  0  0  0  0  0  0  0999 V2000
    5.2500   -1.2990    0.0000 C   0  0  0  0  0  0  0  0  0  0  0  0
    3.7500   -1.2990    0.0000 C   0  0  0  0  0  0  0  0  0  0  0  0
    3.0000   -2.5981    0.0000 O   0  0  0  0  0  0  0  0  0  0  0  0
    3.0000    0.0000    0.0000 C   0  0  0  0  0  0  0  0  0  0  0  0
    3.7500    1.2990    0.0000 O   0  0  0  0  0  0  0  0  0  0  0  0
    1.5000    0.0000    0.0000 C   0  0  0  0  0  0  0  0  0  0  0  0
    0.7500   -1.2990    0.0000 C   0  0  0  0  0  0  0  0  0  0  0  0
   -0.7500   -1.2990    0.0000 C   0  0  0  0  0  0  0  0  0  0  0  0
   -1.5000    0.0000    0.0000 C   0  0  0  0  0  0  0  0  0  0  0  0
   -0.7500    1.2990    0.0000 C   0  0  0  0  0  0  0  0  0  0  0  0
    0.7500    1.2990    0.0000 C   0  0  0  0  0  0  0  0  0  0  0  0
  1  2  1  0
  2  3  2  0
  2  4  1  0
  4  5  2  0
  4  6  1  0
  6  7  2  0
  7  8  1  0
  8  9  2  0
  9 10  1  0
 10 11  2  0
 11  6  1  0
M  END
>  <Title>  (330) 
idAAKXgen7

$$$$

     RDKit          2D

 13 13  0  0  0  0  0  0  0  0999 V2000
    5.0260   -1.2990    0.0000 C   0  0  0  0  0  0  0  0  0  0  0  0
    3.5260   -1.2990    0.0000 C   0  0  0  0  0  0  0  0  0  0  0  0
    2.7760   -2.5981    0.0000 O   0  0  0  0  0  0  0  0  0  0  0  0
    2.7760    0.0000    0.0000 C   0  0  0  0  0  0  0  0  0  0  0  0
    3.5260    1.2990    0.0000 O   0  0  0  0  0  0  0  0  0  0  0  0
    1.2760    0.0000    0.0000 N   0  0  0  0  0  0  0  0  0  0  0  0
    0.3943    1.2135    0.0000 C   0  0  0  0  0  0  0  0  0  0  0  0
   -1.0323    0.7500    0.0000 C   0  0  0  0  0  0  0  0  0  0  0  0
   -1.0323   -0.7500    0.0000 C   0  0  0  0  0  0  0  0  0  0  0  0
   -2.2458   -1.6317    0.0000 C   0  0  0  0  0  0  0  0  0  0  0  0
   -3.6161   -1.0216    0.0000 C   0  0  0  0  0  0  0  0  0  0  0  0
   -2.0890   -3.1235    0.0000 O   0  0  0  0  0  0  0  0  0  0  0  0
    0.3943   -1.2135    0.0000 C   0  0  0  0  0  0  0  0  0  0  0  0
  1  2  1  0
  2  3  2  0
  2  4  1  0
  4  5  2  0
  4  6  1  0
  6  7  1  0
  7  8  1  0
  8  9  1  0
  9 10  1  0
 10 11  1  0
 10 12  2  0
  9 13  1  0
 13  6  1  0
M  END
>  <Title>  (331) 
idAAKYgen7

$$$$

     RDKit          2D

 98100  0  0  0  0  0  0  0  0999 V2000
   -2.4157    0.0779    0.0000 C   0  0  0  0  0  0  0  0  0  0  0  0
   -2.2457   -1.4125    0.0000 C   0  0  0  0  0  0  0  0  0  0  0  0
   -3.7285   -1.6387    0.0000 C   0  0  0  0  0  0  0  0  0  0  0  0
   -5.1900   -1.9765    0.0000 C   0  0  0  0  0  0  0  0  0  0  0  0
   -6.6218   -2.4237    0.0000 C   0  0  0  0  0  0  0  0  0  0  0  0
   -8.0156   -2.9780    0.0000 C   0  0  0  0  0  0  0  0  0  0  0  0
   -9.3635   -3.6362    0.0000 C   0  0  0  0  0  0  0  0  0  0  0  0
  -10.6578   -4.3943    0.0000 C   0  0  0  0  0  0  0  0  0  0  0  0
  -11.8910   -5.2482    0.0000 C   0  0  0  0  0  0  0  0  0  0  0  0
  -13.0562   -6.1930    0.0000 C   0  0  0  0  0  0  0  0  0  0  0  0
  -14.1465   -7.2231    0.0000 C   0  0  0  0  0  0  0  0  0  0  0  0
  -15.1558   -8.3327    0.0000 C   0  0  0  0  0  0  0  0  0  0  0  0
  -16.0783   -9.5155    0.0000 C   0  0  0  0  0  0  0  0  0  0  0  0
  -16.9087  -10.7647    0.0000 C   0  0  0  0  0  0  0  0  0  0  0  0
  -17.6423  -12.0731    0.0000 C   0  0  0  0  0  0  0  0  0  0  0  0
  -18.2748  -13.4332    0.0000 C   0  0  0  0  0  0  0  0  0  0  0  0
  -18.8026  -14.8373    0.0000 C   0  0  0  0  0  0  0  0  0  0  0  0
  -19.2227  -16.2772    0.0000 C   0  0  0  0  0  0  0  0  0  0  0  0
  -19.5327  -17.7449    0.0000 C   0  0  0  0  0  0  0  0  0  0  0  0
  -19.7309  -19.2317    0.0000 C   0  0  0  0  0  0  0  0  0  0  0  0
  -19.8160  -20.7293    0.0000 C   0  0  0  0  0  0  0  0  0  0  0  0
  -19.7876  -22.2290    0.0000 C   0  0  0  0  0  0  0  0  0  0  0  0
  -19.6459  -23.7223    0.0000 C   0  0  0  0  0  0  0  0  0  0  0  0
  -19.3916  -25.2006    0.0000 C   0  0  0  0  0  0  0  0  0  0  0  0
  -19.0263  -26.6554    0.0000 C   0  0  0  0  0  0  0  0  0  0  0  0
  -18.5520  -28.0785    0.0000 C   0  0  0  0  0  0  0  0  0  0  0  0
  -17.9714  -29.4616    0.0000 C   0  0  0  0  0  0  0  0  0  0  0  0
  -17.2879  -30.7968    0.0000 C   0  0  0  0  0  0  0  0  0  0  0  0
  -16.5053  -32.0765    0.0000 C   0  0  0  0  0  0  0  0  0  0  0  0
  -15.6283  -33.2933    0.0000 C   0  0  0  0  0  0  0  0  0  0  0  0
  -14.6617  -34.4404    0.0000 C   0  0  0  0  0  0  0  0  0  0  0  0
  -13.6111  -35.5110    0.0000 C   0  0  0  0  0  0  0  0  0  0  0  0
  -12.4825  -36.4992    0.0000 C   0  0  0  0  0  0  0  0  0  0  0  0
  -11.2825  -37.3991    0.0000 C   0  0  0  0  0  0  0  0  0  0  0  0
  -10.0178  -38.2057    0.0000 C   0  0  0  0  0  0  0  0  0  0  0  0
   -8.6958  -38.9144    0.0000 C   0  0  0  0  0  0  0  0  0  0  0  0
   -7.3239  -39.5210    0.0000 C   0  0  0  0  0  0  0  0  0  0  0  0
   -5.9101  -40.0222    0.0000 C   0  0  0  0  0  0  0  0  0  0  0  0
   -4.4625  -40.4150    0.0000 C   0  0  0  0  0  0  0  0  0  0  0  0
   -2.9893  -40.6972    0.0000 C   0  0  0  0  0  0  0  0  0  0  0  0
   -1.4989  -40.8671    0.0000 C   0  0  0  0  0  0  0  0  0  0  0  0
   -0.0000  -40.9239    0.0000 C   0  0  0  0  0  0  0  0  0  0  0  0
    1.4989  -40.8671    0.0000 C   0  0  0  0  0  0  0  0  0  0  0  0
    2.9893  -40.6972    0.0000 C   0  0  0  0  0  0  0  0  0  0  0  0
    4.4625  -40.4150    0.0000 C   0  0  0  0  0  0  0  0  0  0  0  0
    5.9101  -40.0222    0.0000 C   0  0  0  0  0  0  0  0  0  0  0  0
    7.3239  -39.5210    0.0000 C   0  0  0  0  0  0  0  0  0  0  0  0
    8.6958  -38.9144    0.0000 C   0  0  0  0  0  0  0  0  0  0  0  0
   10.0178  -38.2057    0.0000 C   0  0  0  0  0  0  0  0  0  0  0  0
   11.2825  -37.3991    0.0000 C   0  0  0  0  0  0  0  0  0  0  0  0
   12.4825  -36.4992    0.0000 C   0  0  0  0  0  0  0  0  0  0  0  0
   13.6111  -35.5110    0.0000 C   0  0  0  0  0  0  0  0  0  0  0  0
   14.6617  -34.4404    0.0000 C   0  0  0  0  0  0  0  0  0  0  0  0
   15.6283  -33.2933    0.0000 C   0  0  0  0  0  0  0  0  0  0  0  0
   16.5053  -32.0765    0.0000 C   0  0  0  0  0  0  0  0  0  0  0  0
   17.2879  -30.7968    0.0000 C   0  0  0  0  0  0  0  0  0  0  0  0
   17.9714  -29.4616    0.0000 C   0  0  0  0  0  0  0  0  0  0  0  0
   18.5520  -28.0785    0.0000 C   0  0  0  0  0  0  0  0  0  0  0  0
   19.0263  -26.6554    0.0000 C   0  0  0  0  0  0  0  0  0  0  0  0
   19.3916  -25.2006    0.0000 C   0  0  0  0  0  0  0  0  0  0  0  0
   19.6459  -23.7223    0.0000 C   0  0  0  0  0  0  0  0  0  0  0  0
   19.7876  -22.2290    0.0000 C   0  0  0  0  0  0  0  0  0  0  0  0
   19.8160  -20.7293    0.0000 C   0  0  0  0  0  0  0  0  0  0  0  0
   19.7309  -19.2317    0.0000 C   0  0  0  0  0  0  0  0  0  0  0  0
   19.5327  -17.7449    0.0000 C   0  0  0  0  0  0  0  0  0  0  0  0
   19.2227  -16.2772    0.0000 C   0  0  0  0  0  0  0  0  0  0  0  0
   18.8026  -14.8373    0.0000 C   0  0  0  0  0  0  0  0  0  0  0  0
   18.2748  -13.4332    0.0000 C   0  0  0  0  0  0  0  0  0  0  0  0
   17.6423  -12.0731    0.0000 C   0  0  0  0  0  0  0  0  0  0  0  0
   16.9087  -10.7647    0.0000 C   0  0  0  0  0  0  0  0  0  0  0  0
   16.0783   -9.5155    0.0000 C   0  0  0  0  0  0  0  0  0  0  0  0
   15.1558   -8.3327    0.0000 C   0  0  0  0  0  0  0  0  0  0  0  0
   14.1465   -7.2231    0.0000 C   0  0  0  0  0  0  0  0  0  0  0  0
   13.0562   -6.1930    0.0000 C   0  0  0  0  0  0  0  0  0  0  0  0
   14.0443   -5.0644    0.0000 N   0  0  0  0  0  0  0  0  0  0  0  0
   15.5157   -5.3559    0.0000 C   0  0  0  0  0  0  0  0  0  0  0  0
   15.9990   -6.7759    0.0000 O   0  0  0  0  0  0  0  0  0  0  0  0
   16.5038   -4.2274    0.0000 C   0  0  0  0  0  0  0  0  0  0  0  0
   17.9752   -4.5188    0.0000 C   0  0  0  0  0  0  0  0  0  0  0  0
   18.4585   -5.9388    0.0000 C   0  0  0  0  0  0  0  0  0  0  0  0
   19.9299   -6.2303    0.0000 C   0  0  0  0  0  0  0  0  0  0  0  0
   20.9181   -5.1018    0.0000 C   0  0  0  0  0  0  0  0  0  0  0  0
   20.4348   -3.6818    0.0000 C   0  0  0  0  0  0  0  0  0  0  0  0
   18.9634   -3.3903    0.0000 C   0  0  0  0  0  0  0  0  0  0  0  0
   11.8910   -5.2482    0.0000 C   0  0  0  0  0  0  0  0  0  0  0  0
   10.6578   -4.3943    0.0000 C   0  0  0  0  0  0  0  0  0  0  0  0
    9.3635   -3.6362    0.0000 C   0  0  0  0  0  0  0  0  0  0  0  0
    8.0156   -2.9780    0.0000 C   0  0  0  0  0  0  0  0  0  0  0  0
    6.6218   -2.4237    0.0000 C   0  0  0  0  0  0  0  0  0  0  0  0
    5.1900   -1.9765    0.0000 C   0  0  0  0  0  0  0  0  0  0  0  0
    3.7285   -1.6387    0.0000 C   0  0  0  0  0  0  0  0  0  0  0  0
    2.2457   -1.4125    0.0000 C   0  0  0  0  0  0  0  0  0  0  0  0
    0.7500   -1.2990    0.0000 C   0  0  0  0  0  0  0  0  0  0  0  0
    1.5000    0.0000    0.0000 C   0  0  0  0  0  0  0  0  0  0  0  0
    0.7500    1.2990    0.0000 C   0  0  0  0  0  0  0  0  0  0  0  0
   -0.7500    1.2990    0.0000 C   0  0  0  0  0  0  0  0  0  0  0  0
   -1.5000    0.0000    0.0000 C   0  0  0  0  0  0  0  0  0  0  0  0
   -0.7500   -1.2990    0.0000 C   0  0  0  0  0  0  0  0  0  0  0  0
  1  2  1  0
  2  3  1  0
  3  4  1  0
  4  5  1  0
  5  6  1  0
  6  7  1  0
  7  8  1  0
  8  9  1  0
  9 10  1  0
 10 11  1  0
 11 12  1  0
 12 13  1  0
 13 14  1  0
 14 15  1  0
 15 16  1  0
 16 17  1  0
 17 18  1  0
 18 19  1  0
 19 20  1  0
 20 21  1  0
 21 22  1  0
 22 23  1  0
 23 24  1  0
 24 25  1  0
 25 26  1  0
 26 27  1  0
 27 28  1  0
 28 29  1  0
 29 30  1  0
 30 31  1  0
 31 32  1  0
 32 33  1  0
 33 34  1  0
 34 35  1  0
 35 36  1  0
 36 37  1  0
 37 38  1  0
 38 39  1  0
 39 40  1  0
 40 41  1  0
 41 42  1  0
 42 43  1  0
 43 44  1  0
 44 45  1  0
 45 46  1  0
 46 47  1  0
 47 48  1  0
 48 49  1  0
 49 50  1  0
 50 51  1  0
 51 52  1  0
 52 53  1  0
 53 54  1  0
 54 55  1  0
 55 56  1  0
 56 57  1  0
 57 58  1  0
 58 59  1  0
 59 60  1  0
 60 61  1  0
 61 62  1  0
 62 63  1  0
 63 64  1  0
 64 65  1  0
 65 66  1  0
 66 67  1  0
 67 68  1  0
 68 69  1  0
 69 70  1  0
 70 71  1  0
 71 72  1  0
 72 73  1  0
 73 74  1  0
 74 75  1  0
 75 76  1  0
 76 77  2  0
 76 78  1  0
 78 79  1  0
 79 80  2  0
 80 81  1  0
 81 82  2  0
 82 83  1  0
 83 84  2  0
 74 85  1  0
 85 86  1  0
 86 87  1  0
 87 88  1  0
 88 89  2  0
 89 90  1  0
 90 91  2  0
 91 92  1  0
 92 93  2  0
 93 94  1  0
 94 95  1  0
 95 96  2  0
 96 97  1  0
 97 98  2  0
 98  2  1  0
 84 79  1  0
 98 93  1  0
M  END
>  <Title>  (332) 
idAAKZgen7

$$$$

     RDKit          2D

 11 12  0  0  0  0  0  0  0  0999 V2000
   -1.5000   -5.1962    0.0000 C   0  0  0  0  0  0  0  0  0  0  0  0
   -0.7500   -3.8971    0.0000 C   0  0  0  0  0  0  0  0  0  0  0  0
    0.7500   -3.8971    0.0000 C   0  0  0  0  0  0  0  0  0  0  0  0
    1.5000   -2.5981    0.0000 C   0  0  0  0  0  0  0  0  0  0  0  0
    0.7500   -1.2990    0.0000 C   0  0  0  0  0  0  0  0  0  0  0  0
    1.5000    0.0000    0.0000 C   0  0  0  0  0  0  0  0  0  0  0  0
    0.7500    1.2990    0.0000 C   0  0  0  0  0  0  0  0  0  0  0  0
   -0.7500    1.2990    0.0000 C   0  0  0  0  0  0  0  0  0  0  0  0
   -1.5000    0.0000    0.0000 C   0  0  0  0  0  0  0  0  0  0  0  0
   -0.7500   -1.2990    0.0000 C   0  0  0  0  0  0  0  0  0  0  0  0
   -1.5000   -2.5981    0.0000 C   0  0  0  0  0  0  0  0  0  0  0  0
  1  2  1  0
  2  3  1  0
  3  4  1  0
  4  5  1  0
  5  6  2  0
  6  7  1  0
  7  8  2  0
  8  9  1  0
  9 10  2  0
 10 11  1  0
 11  2  1  0
 10  5  1  0
M  END
>  <Title>  (333) 
idAALAgen7

$$$$

     RDKit          2D

 18 19  0  0  0  0  0  0  0  0999 V2000
   -3.7500   -3.8971    0.0000 C   0  0  0  0  0  0  0  0  0  0  0  0
   -3.0000   -2.5981    0.0000 O   0  0  0  0  0  0  0  0  0  0  0  0
   -1.5000   -2.5981    0.0000 C   0  0  0  0  0  0  0  0  0  0  0  0
   -0.7500   -3.8971    0.0000 C   0  0  0  0  0  0  0  0  0  0  0  0
    0.7500   -3.8971    0.0000 C   0  0  0  0  0  0  0  0  0  0  0  0
    1.5000   -2.5981    0.0000 C   0  0  0  0  0  0  0  0  0  0  0  0
    3.0000   -2.5981    0.0000 N   0  0  0  0  0  0  0  0  0  0  0  0
    3.7500   -3.8971    0.0000 C   0  0  0  0  0  0  0  0  0  0  0  0
    3.0000   -5.1962    0.0000 O   0  0  0  0  0  0  0  0  0  0  0  0
    5.2500   -3.8971    0.0000 C   0  0  0  0  0  0  0  0  0  0  0  0
    6.0000   -2.5981    0.0000 O   0  0  0  0  0  0  0  0  0  0  0  0
    6.0000   -5.1962    0.0000 O   0  0  0  0  0  0  0  0  0  0  0  0
    0.7500   -1.2990    0.0000 C   0  0  0  0  0  0  0  0  0  0  0  0
    1.5000    0.0000    0.0000 C   0  0  0  0  0  0  0  0  0  0  0  0
    0.7500    1.2990    0.0000 C   0  0  0  0  0  0  0  0  0  0  0  0
   -0.7500    1.2990    0.0000 C   0  0  0  0  0  0  0  0  0  0  0  0
   -1.5000    0.0000    0.0000 C   0  0  0  0  0  0  0  0  0  0  0  0
   -0.7500   -1.2990    0.0000 C   0  0  0  0  0  0  0  0  0  0  0  0
  1  2  1  0
  2  3  1  0
  3  4  2  0
  4  5  1  0
  5  6  2  0
  6  7  1  0
  7  8  1  0
  8  9  2  0
  8 10  1  0
 10 11  2  0
 10 12  1  0
  6 13  1  0
 13 14  2  0
 14 15  1  0
 15 16  2  0
 16 17  1  0
 17 18  2  0
 18  3  1  0
 18 13  1  0
M  END
>  <Title>  (334) 
idAALBgen7

$$$$

     RDKit          2D

 11 11  0  0  0  0  0  0  0  0999 V2000
    3.7500   -1.2990    0.0000 C   0  0  0  0  0  0  0  0  0  0  0  0
    3.0000    0.0000    0.0000 O   0  0  0  0  0  0  0  0  0  0  0  0
    1.5000    0.0000    0.0000 C   0  0  0  0  0  0  0  0  0  0  0  0
    0.7500   -1.2990    0.0000 C   0  0  0  0  0  0  0  0  0  0  0  0
   -0.7500   -1.2990    0.0000 C   0  0  0  0  0  0  0  0  0  0  0  0
   -1.5000    0.0000    0.0000 C   0  0  0  0  0  0  0  0  0  0  0  0
   -0.7500    1.2990    0.0000 C   0  0  0  0  0  0  0  0  0  0  0  0
   -1.5000    2.5981    0.0000 C   0  0  0  0  0  0  0  0  0  0  0  0
   -0.7500    3.8971    0.0000 N   0  0  0  0  0  0  0  0  0  0  0  0
   -3.0000    2.5981    0.0000 O   0  0  0  0  0  0  0  0  0  0  0  0
    0.7500    1.2990    0.0000 C   0  0  0  0  0  0  0  0  0  0  0  0
  1  2  1  0
  2  3  1  0
  3  4  2  0
  4  5  1  0
  5  6  1  0
  6  7  1  0
  7  8  1  0
  8  9  1  0
  8 10  2  0
  7 11  2  0
 11  3  1  0
M  END
>  <Title>  (335) 
idAALCgen7

$$$$

     RDKit          2D

  7  7  0  0  0  0  0  0  0  0999 V2000
    3.3107   -1.2990    0.0000 C   0  0  0  0  0  0  0  0  0  0  0  0
    2.5607    0.0000    0.0000 O   0  0  0  0  0  0  0  0  0  0  0  0
    1.0607    0.0000    0.0000 C   0  0  0  0  0  0  0  0  0  0  0  0
   -0.0000   -1.0607    0.0000 C   0  0  0  0  0  0  0  0  0  0  0  0
   -1.0607    0.0000    0.0000 C   0  0  0  0  0  0  0  0  0  0  0  0
   -2.5607    0.0000    0.0000 C   0  0  0  0  0  0  0  0  0  0  0  0
    0.0000    1.0607    0.0000 C   0  0  0  0  0  0  0  0  0  0  0  0
  1  2  1  0
  2  3  1  0
  3  4  2  0
  4  5  1  0
  5  6  1  0
  5  7  1  0
  7  3  1  0
M  END
>  <Title>  (336) 
idAALDgen7

$$$$

     RDKit          2D

  7  7  0  0  0  0  0  0  0  0999 V2000
    3.0000    0.0000    0.0000 O   0  0  0  0  0  0  0  0  0  0  0  0
    1.5000    0.0000    0.0000 C   0  0  0  0  0  0  0  0  0  0  0  0
    0.7500   -1.2990    0.0000 C   0  0  0  0  0  0  0  0  0  0  0  0
   -0.7500   -1.2990    0.0000 C   0  0  0  0  0  0  0  0  0  0  0  0
   -1.5000    0.0000    0.0000 C   0  0  0  0  0  0  0  0  0  0  0  0
   -0.7500    1.2990    0.0000 C   0  0  0  0  0  0  0  0  0  0  0  0
    0.7500    1.2990    0.0000 N   0  0  0  0  0  0  0  0  0  0  0  0
  1  2  1  0
  2  3  1  0
  3  4  1  0
  4  5  2  0
  5  6  1  0
  6  7  1  0
  7  2  1  0
M  END
>  <Title>  (337) 
idAALEgen7

$$$$

     RDKit          2D

 48 48  0  0  0  0  0  0  0  0999 V2000
   12.7288    0.0000    0.0000 C   0  0  0  0  0  0  0  0  0  0  0  0
   11.2288    0.0000    0.0000 C   0  0  0  0  0  0  0  0  0  0  0  0
   11.1286    1.4967    0.0000 C   0  0  0  0  0  0  0  0  0  0  0  0
   10.8298    2.9666    0.0000 C   0  0  0  0  0  0  0  0  0  0  0  0
   10.3378    4.3836    0.0000 C   0  0  0  0  0  0  0  0  0  0  0  0
    9.6613    5.7224    0.0000 C   0  0  0  0  0  0  0  0  0  0  0  0
    8.8123    6.9590    0.0000 C   0  0  0  0  0  0  0  0  0  0  0  0
    7.8062    8.0715    0.0000 C   0  0  0  0  0  0  0  0  0  0  0  0
    6.6607    9.0400    0.0000 C   0  0  0  0  0  0  0  0  0  0  0  0
    5.3963    9.8471    0.0000 C   0  0  0  0  0  0  0  0  0  0  0  0
    4.0357   10.4785    0.0000 C   0  0  0  0  0  0  0  0  0  0  0  0
    2.6031   10.9229    0.0000 C   0  0  0  0  0  0  0  0  0  0  0  0
    1.1240   11.1724    0.0000 C   0  0  0  0  0  0  0  0  0  0  0  0
   -0.3752   11.2225    0.0000 C   0  0  0  0  0  0  0  0  0  0  0  0
   -1.8677   11.0724    0.0000 C   0  0  0  0  0  0  0  0  0  0  0  0
   -3.3268   10.7246    0.0000 C   0  0  0  0  0  0  0  0  0  0  0  0
   -4.7266   10.1855    0.0000 C   0  0  0  0  0  0  0  0  0  0  0  0
   -6.0420    9.4647    0.0000 C   0  0  0  0  0  0  0  0  0  0  0  0
   -7.2496    8.5749    0.0000 C   0  0  0  0  0  0  0  0  0  0  0  0
   -8.3279    7.5321    0.0000 C   0  0  0  0  0  0  0  0  0  0  0  0
   -9.2575    6.3549    0.0000 C   0  0  0  0  0  0  0  0  0  0  0  0
  -10.0219    5.0643    0.0000 C   0  0  0  0  0  0  0  0  0  0  0  0
  -10.6075    3.6833    0.0000 C   0  0  0  0  0  0  0  0  0  0  0  0
  -11.0038    2.2366    0.0000 C   0  0  0  0  0  0  0  0  0  0  0  0
  -11.2037    0.7500    0.0000 C   0  0  0  0  0  0  0  0  0  0  0  0
  -11.2037   -0.7500    0.0000 C   0  0  0  0  0  0  0  0  0  0  0  0
  -11.0038   -2.2366    0.0000 C   0  0  0  0  0  0  0  0  0  0  0  0
  -10.6075   -3.6833    0.0000 C   0  0  0  0  0  0  0  0  0  0  0  0
  -10.0219   -5.0643    0.0000 C   0  0  0  0  0  0  0  0  0  0  0  0
   -9.2575   -6.3549    0.0000 C   0  0  0  0  0  0  0  0  0  0  0  0
   -8.3279   -7.5321    0.0000 C   0  0  0  0  0  0  0  0  0  0  0  0
   -7.2496   -8.5749    0.0000 C   0  0  0  0  0  0  0  0  0  0  0  0
   -6.0420   -9.4647    0.0000 C   0  0  0  0  0  0  0  0  0  0  0  0
   -4.7266  -10.1855    0.0000 C   0  0  0  0  0  0  0  0  0  0  0  0
   -3.3268  -10.7246    0.0000 C   0  0  0  0  0  0  0  0  0  0  0  0
   -1.8677  -11.0724    0.0000 C   0  0  0  0  0  0  0  0  0  0  0  0
   -0.3752  -11.2225    0.0000 C   0  0  0  0  0  0  0  0  0  0  0  0
    1.1240  -11.1724    0.0000 C   0  0  0  0  0  0  0  0  0  0  0  0
    2.6031  -10.9229    0.0000 C   0  0  0  0  0  0  0  0  0  0  0  0
    4.0357  -10.4785    0.0000 C   0  0  0  0  0  0  0  0  0  0  0  0
    5.3963   -9.8471    0.0000 C   0  0  0  0  0  0  0  0  0  0  0  0
    6.6607   -9.0400    0.0000 C   0  0  0  0  0  0  0  0  0  0  0  0
    7.8062   -8.0715    0.0000 C   0  0  0  0  0  0  0  0  0  0  0  0
    8.8123   -6.9590    0.0000 C   0  0  0  0  0  0  0  0  0  0  0  0
    9.6613   -5.7224    0.0000 C   0  0  0  0  0  0  0  0  0  0  0  0
   10.3378   -4.3836    0.0000 C   0  0  0  0  0  0  0  0  0  0  0  0
   10.8298   -2.9666    0.0000 C   0  0  0  0  0  0  0  0  0  0  0  0
   11.1286   -1.4967    0.0000 C   0  0  0  0  0  0  0  0  0  0  0  0
  1  2  1  0
  2  3  1  0
  3  4  2  0
  4  5  1  0
  5  6  2  0
  6  7  1  0
  7  8  2  0
  8  9  1  0
  9 10  2  0
 10 11  1  0
 11 12  2  0
 12 13  1  0
 13 14  2  0
 14 15  1  0
 15 16  2  0
 16 17  1  0
 17 18  2  0
 18 19  1  0
 19 20  2  0
 20 21  1  0
 21 22  2  0
 22 23  1  0
 23 24  2  0
 24 25  1  0
 25 26  2  0
 26 27  1  0
 27 28  1  0
 28 29  1  0
 29 30  1  0
 30 31  1  0
 31 32  1  0
 32 33  1  0
 33 34  1  0
 34 35  1  0
 35 36  1  0
 36 37  1  0
 37 38  1  0
 38 39  1  0
 39 40  1  0
 40 41  1  0
 41 42  1  0
 42 43  1  0
 43 44  1  0
 44 45  1  0
 45 46  1  0
 46 47  1  0
 47 48  1  0
 48  2  1  0
M  END
>  <Title>  (338) 
idAALFgen7

$$$$

     RDKit          2D

 21 23  0  0  0  0  0  0  0  0999 V2000
    3.0000    0.0000    0.0000 C   0  0  0  0  0  0  0  0  0  0  0  0
    1.5000    0.0000    0.0000 C   0  0  0  0  0  0  0  0  0  0  0  0
    0.7500   -1.2990    0.0000 C   0  0  0  0  0  0  0  0  0  0  0  0
   -0.7500   -1.2990    0.0000 C   0  0  0  0  0  0  0  0  0  0  0  0
   -1.5000    0.0000    0.0000 C   0  0  0  0  0  0  0  0  0  0  0  0
   -3.0000    0.0000    0.0000 C   0  0  0  0  0  0  0  0  0  0  0  0
   -3.7500   -1.2990    0.0000 C   0  0  0  0  0  0  0  0  0  0  0  0
   -3.0000   -2.5981    0.0000 O   0  0  0  0  0  0  0  0  0  0  0  0
   -5.2500   -1.2990    0.0000 N   0  0  0  0  0  0  0  0  0  0  0  0
   -6.0000   -2.5981    0.0000 C   0  0  0  0  0  0  0  0  0  0  0  0
   -7.5000   -2.5981    0.0000 N   0  0  0  0  0  0  0  0  0  0  0  0
   -8.2500   -3.8971    0.0000 N   0  0  0  0  0  0  0  0  0  0  0  0
   -7.5000   -5.1962    0.0000 N   0  0  0  0  0  0  0  0  0  0  0  0
   -6.0000   -5.1962    0.0000 N   0  0  0  0  0  0  0  0  0  0  0  0
   -5.2500   -3.8971    0.0000 N   0  0  0  0  0  0  0  0  0  0  0  0
   -3.7500    1.2990    0.0000 C   0  0  0  0  0  0  0  0  0  0  0  0
   -3.0000    2.5981    0.0000 C   0  0  0  0  0  0  0  0  0  0  0  0
   -1.5000    2.5981    0.0000 C   0  0  0  0  0  0  0  0  0  0  0  0
   -0.7500    3.8971    0.0000 C   0  0  0  0  0  0  0  0  0  0  0  0
   -0.7500    1.2990    0.0000 C   0  0  0  0  0  0  0  0  0  0  0  0
    0.7500    1.2990    0.0000 C   0  0  0  0  0  0  0  0  0  0  0  0
  1  2  1  0
  2  3  2  0
  3  4  1  0
  4  5  2  0
  5  6  1  0
  6  7  1  0
  7  8  2  0
  7  9  1  0
  9 10  1  0
 10 11  2  0
 11 12  1  0
 12 13  2  0
 13 14  1  0
 14 15  2  0
  6 16  2  0
 16 17  1  0
 17 18  2  0
 18 19  1  0
 18 20  1  0
 20 21  2  0
 21  2  1  0
 20  5  1  0
 15 10  1  0
M  END
>  <Title>  (339) 
idAALGgen7

$$$$

     RDKit          2D

  8  8  0  0  0  0  0  0  0  0999 V2000
    3.5260   -1.2990    0.0000 N   0  0  0  0  0  0  0  0  0  0  0  0
    2.7760    0.0000    0.0000 C   0  0  0  0  0  0  0  0  0  0  0  0
    3.5260    1.2990    0.0000 O   0  0  0  0  0  0  0  0  0  0  0  0
    1.2760    0.0000    0.0000 C   0  0  0  0  0  0  0  0  0  0  0  0
    0.3943    1.2135    0.0000 C   0  0  0  0  0  0  0  0  0  0  0  0
   -1.0323    0.7500    0.0000 C   0  0  0  0  0  0  0  0  0  0  0  0
   -1.0323   -0.7500    0.0000 C   0  0  0  0  0  0  0  0  0  0  0  0
    0.3943   -1.2135    0.0000 C   0  0  0  0  0  0  0  0  0  0  0  0
  1  2  2  0
  2  3  1  0
  2  4  1  0
  4  5  1  0
  5  6  1  0
  6  7  2  0
  7  8  1  0
  8  4  1  0
M  END
>  <Title>  (340) 
idAALHgen7

$$$$

     RDKit          2D

  9  9  0  0  0  0  0  0  0  0999 V2000
    3.4598   -0.0000    0.0000 C   0  0  0  0  0  0  0  0  0  0  0  0
    1.9598    0.0000    0.0000 C   0  0  0  0  0  0  0  0  0  0  0  0
    1.3858   -1.3858    0.0000 C   0  0  0  0  0  0  0  0  0  0  0  0
   -0.0000   -1.9598    0.0000 C   0  0  0  0  0  0  0  0  0  0  0  0
   -1.3858   -1.3858    0.0000 C   0  0  0  0  0  0  0  0  0  0  0  0
   -1.9598    0.0000    0.0000 C   0  0  0  0  0  0  0  0  0  0  0  0
   -1.3858    1.3858    0.0000 C   0  0  0  0  0  0  0  0  0  0  0  0
    0.0000    1.9598    0.0000 C   0  0  0  0  0  0  0  0  0  0  0  0
    1.3858    1.3858    0.0000 C   0  0  0  0  0  0  0  0  0  0  0  0
  1  2  1  0
  2  3  2  0
  3  4  1  0
  4  5  1  0
  5  6  2  0
  6  7  1  0
  7  8  2  0
  8  9  1  0
  9  2  1  0
M  END
>  <Title>  (341) 
idAALIgen7

$$$$

     RDKit          2D

 33 35  0  0  0  0  0  0  0  0999 V2000
   -2.8826   -0.4669    0.0000 C   0  0  0  0  0  0  0  0  0  0  0  0
   -2.1687   -1.7861    0.0000 C   0  0  0  0  0  0  0  0  0  0  0  0
   -3.3524   -2.7074    0.0000 C   0  0  0  0  0  0  0  0  0  0  0  0
   -4.1729   -3.9632    0.0000 C   0  0  0  0  0  0  0  0  0  0  0  0
   -4.5411   -5.4173    0.0000 C   0  0  0  0  0  0  0  0  0  0  0  0
   -4.4172   -6.9121    0.0000 C   0  0  0  0  0  0  0  0  0  0  0  0
   -3.8147   -8.2858    0.0000 C   0  0  0  0  0  0  0  0  0  0  0  0
   -2.7988   -9.3894    0.0000 C   0  0  0  0  0  0  0  0  0  0  0  0
   -1.4795  -10.1033    0.0000 C   0  0  0  0  0  0  0  0  0  0  0  0
    0.0000  -10.3502    0.0000 C   0  0  0  0  0  0  0  0  0  0  0  0
    1.4795  -10.1033    0.0000 C   0  0  0  0  0  0  0  0  0  0  0  0
    2.7988   -9.3894    0.0000 C   0  0  0  0  0  0  0  0  0  0  0  0
    3.8147   -8.2858    0.0000 C   0  0  0  0  0  0  0  0  0  0  0  0
    4.4172   -6.9121    0.0000 C   0  0  0  0  0  0  0  0  0  0  0  0
    4.5411   -5.4173    0.0000 C   0  0  0  0  0  0  0  0  0  0  0  0
    4.1729   -3.9632    0.0000 C   0  0  0  0  0  0  0  0  0  0  0  0
    3.3524   -2.7074    0.0000 C   0  0  0  0  0  0  0  0  0  0  0  0
    2.1687   -1.7861    0.0000 C   0  0  0  0  0  0  0  0  0  0  0  0
    2.8826   -0.4669    0.0000 C   0  0  0  0  0  0  0  0  0  0  0  0
    2.0971    0.8110    0.0000 O   0  0  0  0  0  0  0  0  0  0  0  0
    4.3821   -0.4255    0.0000 N   0  0  0  0  0  0  0  0  0  0  0  0
    5.0960    0.8937    0.0000 C   0  0  0  0  0  0  0  0  0  0  0  0
    6.5954    0.9350    0.0000 N   0  0  0  0  0  0  0  0  0  0  0  0
    7.3094    2.2542    0.0000 N   0  0  0  0  0  0  0  0  0  0  0  0
    6.5238    3.5321    0.0000 N   0  0  0  0  0  0  0  0  0  0  0  0
    5.0244    3.4908    0.0000 N   0  0  0  0  0  0  0  0  0  0  0  0
    4.3105    2.1715    0.0000 N   0  0  0  0  0  0  0  0  0  0  0  0
    0.7500   -1.2990    0.0000 C   0  0  0  0  0  0  0  0  0  0  0  0
    1.5000    0.0000    0.0000 C   0  0  0  0  0  0  0  0  0  0  0  0
    0.7500    1.2990    0.0000 C   0  0  0  0  0  0  0  0  0  0  0  0
   -0.7500    1.2990    0.0000 C   0  0  0  0  0  0  0  0  0  0  0  0
   -1.5000    0.0000    0.0000 C   0  0  0  0  0  0  0  0  0  0  0  0
   -0.7500   -1.2990    0.0000 C   0  0  0  0  0  0  0  0  0  0  0  0
  1  2  1  0
  2  3  1  0
  3  4  1  0
  4  5  1  0
  5  6  2  0
  6  7  1  0
  7  8  1  0
  8  9  1  0
  9 10  1  0
 10 11  1  0
 11 12  1  0
 12 13  1  0
 13 14  1  0
 14 15  1  0
 15 16  1  0
 16 17  1  0
 17 18  1  0
 18 19  1  0
 19 20  2  0
 19 21  1  0
 21 22  1  0
 22 23  2  0
 23 24  1  0
 24 25  2  0
 25 26  1  0
 26 27  2  0
 18 28  1  0
 28 29  2  0
 29 30  1  0
 30 31  2  0
 31 32  1  0
 32 33  2  0
 33  2  1  0
 27 22  1  0
 33 28  1  0
M  END
>  <Title>  (342) 
idAALJgen7

$$$$

     RDKit          2D

108108  0  0  0  0  0  0  0  0999 V2000
   27.0480   -0.0000    0.0000 C   0  0  0  0  0  0  0  0  0  0  0  0
   25.5480    0.0000    0.0000 C   0  0  0  0  0  0  0  0  0  0  0  0
   25.5040    1.4994    0.0000 C   0  0  0  0  0  0  0  0  0  0  0  0
   25.3721    2.9935    0.0000 C   0  0  0  0  0  0  0  0  0  0  0  0
   25.1526    4.4774    0.0000 C   0  0  0  0  0  0  0  0  0  0  0  0
   24.8465    5.9458    0.0000 C   0  0  0  0  0  0  0  0  0  0  0  0
   24.4547    7.3938    0.0000 C   0  0  0  0  0  0  0  0  0  0  0  0
   23.9787    8.8162    0.0000 C   0  0  0  0  0  0  0  0  0  0  0  0
   23.4199   10.2083    0.0000 C   0  0  0  0  0  0  0  0  0  0  0  0
   22.7805   11.5651    0.0000 C   0  0  0  0  0  0  0  0  0  0  0  0
   22.0625   12.8821    0.0000 C   0  0  0  0  0  0  0  0  0  0  0  0
   21.2684   14.1547    0.0000 C   0  0  0  0  0  0  0  0  0  0  0  0
   20.4011   15.3785    0.0000 C   0  0  0  0  0  0  0  0  0  0  0  0
   19.4634   16.5493    0.0000 C   0  0  0  0  0  0  0  0  0  0  0  0
   18.4586   17.6630    0.0000 C   0  0  0  0  0  0  0  0  0  0  0  0
   17.3902   18.7159    0.0000 C   0  0  0  0  0  0  0  0  0  0  0  0
   16.2618   19.7042    0.0000 C   0  0  0  0  0  0  0  0  0  0  0  0
   15.0774   20.6246    0.0000 C   0  0  0  0  0  0  0  0  0  0  0  0
   13.8410   21.4739    0.0000 C   0  0  0  0  0  0  0  0  0  0  0  0
   12.5569   22.2492    0.0000 C   0  0  0  0  0  0  0  0  0  0  0  0
   11.2295   22.9478    0.0000 C   0  0  0  0  0  0  0  0  0  0  0  0
    9.8634   23.5673    0.0000 C   0  0  0  0  0  0  0  0  0  0  0  0
    8.4633   24.1055    0.0000 C   0  0  0  0  0  0  0  0  0  0  0  0
    7.0340   24.5606    0.0000 C   0  0  0  0  0  0  0  0  0  0  0  0
    5.5805   24.9311    0.0000 C   0  0  0  0  0  0  0  0  0  0  0  0
    4.1077   25.2157    0.0000 C   0  0  0  0  0  0  0  0  0  0  0  0
    2.6208   25.4133    0.0000 C   0  0  0  0  0  0  0  0  0  0  0  0
    1.1248   25.5233    0.0000 C   0  0  0  0  0  0  0  0  0  0  0  0
   -0.3750   25.5453    0.0000 C   0  0  0  0  0  0  0  0  0  0  0  0
   -1.8736   25.4792    0.0000 C   0  0  0  0  0  0  0  0  0  0  0  0
   -3.3657   25.3254    0.0000 C   0  0  0  0  0  0  0  0  0  0  0  0
   -4.8462   25.0842    0.0000 C   0  0  0  0  0  0  0  0  0  0  0  0
   -6.3099   24.7566    0.0000 C   0  0  0  0  0  0  0  0  0  0  0  0
   -7.7520   24.3436    0.0000 C   0  0  0  0  0  0  0  0  0  0  0  0
   -9.1673   23.8467    0.0000 C   0  0  0  0  0  0  0  0  0  0  0  0
  -10.5510   23.2676    0.0000 C   0  0  0  0  0  0  0  0  0  0  0  0
  -11.8983   22.6082    0.0000 C   0  0  0  0  0  0  0  0  0  0  0  0
  -13.2046   21.8710    0.0000 C   0  0  0  0  0  0  0  0  0  0  0  0
  -14.4654   21.0583    0.0000 C   0  0  0  0  0  0  0  0  0  0  0  0
  -15.6763   20.1731    0.0000 C   0  0  0  0  0  0  0  0  0  0  0  0
  -16.8332   19.2183    0.0000 C   0  0  0  0  0  0  0  0  0  0  0  0
  -17.9321   18.1973    0.0000 C   0  0  0  0  0  0  0  0  0  0  0  0
  -18.9692   17.1135    0.0000 C   0  0  0  0  0  0  0  0  0  0  0  0
  -19.9408   15.9708    0.0000 C   0  0  0  0  0  0  0  0  0  0  0  0
  -20.8437   14.7730    0.0000 C   0  0  0  0  0  0  0  0  0  0  0  0
  -21.6748   13.5243    0.0000 C   0  0  0  0  0  0  0  0  0  0  0  0
  -22.4311   12.2289    0.0000 C   0  0  0  0  0  0  0  0  0  0  0  0
  -23.1102   10.8914    0.0000 C   0  0  0  0  0  0  0  0  0  0  0  0
  -23.7095    9.5163    0.0000 C   0  0  0  0  0  0  0  0  0  0  0  0
  -24.2271    8.1085    0.0000 C   0  0  0  0  0  0  0  0  0  0  0  0
  -24.6613    6.6727    0.0000 C   0  0  0  0  0  0  0  0  0  0  0  0
  -25.0104    5.2139    0.0000 C   0  0  0  0  0  0  0  0  0  0  0  0
  -25.2732    3.7371    0.0000 C   0  0  0  0  0  0  0  0  0  0  0  0
  -25.4490    2.2474    0.0000 C   0  0  0  0  0  0  0  0  0  0  0  0
  -25.5370    0.7500    0.0000 C   0  0  0  0  0  0  0  0  0  0  0  0
  -25.5370   -0.7500    0.0000 C   0  0  0  0  0  0  0  0  0  0  0  0
  -25.4490   -2.2474    0.0000 C   0  0  0  0  0  0  0  0  0  0  0  0
  -25.2732   -3.7371    0.0000 C   0  0  0  0  0  0  0  0  0  0  0  0
  -25.0104   -5.2139    0.0000 C   0  0  0  0  0  0  0  0  0  0  0  0
  -24.6613   -6.6727    0.0000 C   0  0  0  0  0  0  0  0  0  0  0  0
  -24.2271   -8.1085    0.0000 C   0  0  0  0  0  0  0  0  0  0  0  0
  -23.7095   -9.5163    0.0000 C   0  0  0  0  0  0  0  0  0  0  0  0
  -23.1102  -10.8914    0.0000 C   0  0  0  0  0  0  0  0  0  0  0  0
  -22.4311  -12.2289    0.0000 C   0  0  0  0  0  0  0  0  0  0  0  0
  -21.6748  -13.5243    0.0000 C   0  0  0  0  0  0  0  0  0  0  0  0
  -20.8437  -14.7730    0.0000 C   0  0  0  0  0  0  0  0  0  0  0  0
  -19.9408  -15.9708    0.0000 C   0  0  0  0  0  0  0  0  0  0  0  0
  -18.9692  -17.1135    0.0000 C   0  0  0  0  0  0  0  0  0  0  0  0
  -17.9321  -18.1973    0.0000 C   0  0  0  0  0  0  0  0  0  0  0  0
  -16.8332  -19.2183    0.0000 C   0  0  0  0  0  0  0  0  0  0  0  0
  -15.6763  -20.1731    0.0000 C   0  0  0  0  0  0  0  0  0  0  0  0
  -14.4654  -21.0583    0.0000 C   0  0  0  0  0  0  0  0  0  0  0  0
  -13.2046  -21.8710    0.0000 C   0  0  0  0  0  0  0  0  0  0  0  0
  -11.8983  -22.6082    0.0000 C   0  0  0  0  0  0  0  0  0  0  0  0
  -10.5510  -23.2676    0.0000 C   0  0  0  0  0  0  0  0  0  0  0  0
   -9.1673  -23.8467    0.0000 C   0  0  0  0  0  0  0  0  0  0  0  0
   -7.7520  -24.3436    0.0000 C   0  0  0  0  0  0  0  0  0  0  0  0
   -6.3099  -24.7566    0.0000 C   0  0  0  0  0  0  0  0  0  0  0  0
   -4.8462  -25.0842    0.0000 C   0  0  0  0  0  0  0  0  0  0  0  0
   -3.3657  -25.3254    0.0000 C   0  0  0  0  0  0  0  0  0  0  0  0
   -1.8736  -25.4792    0.0000 C   0  0  0  0  0  0  0  0  0  0  0  0
   -0.3750  -25.5453    0.0000 C   0  0  0  0  0  0  0  0  0  0  0  0
    1.1248  -25.5233    0.0000 C   0  0  0  0  0  0  0  0  0  0  0  0
    2.6208  -25.4133    0.0000 C   0  0  0  0  0  0  0  0  0  0  0  0
    4.1077  -25.2157    0.0000 C   0  0  0  0  0  0  0  0  0  0  0  0
    5.5805  -24.9311    0.0000 C   0  0  0  0  0  0  0  0  0  0  0  0
    7.0340  -24.5606    0.0000 C   0  0  0  0  0  0  0  0  0  0  0  0
    8.4633  -24.1055    0.0000 C   0  0  0  0  0  0  0  0  0  0  0  0
    9.8634  -23.5673    0.0000 C   0  0  0  0  0  0  0  0  0  0  0  0
   11.2295  -22.9478    0.0000 C   0  0  0  0  0  0  0  0  0  0  0  0
   12.5569  -22.2492    0.0000 C   0  0  0  0  0  0  0  0  0  0  0  0
   13.8410  -21.4739    0.0000 C   0  0  0  0  0  0  0  0  0  0  0  0
   15.0774  -20.6246    0.0000 C   0  0  0  0  0  0  0  0  0  0  0  0
   16.2618  -19.7042    0.0000 C   0  0  0  0  0  0  0  0  0  0  0  0
   17.3902  -18.7159    0.0000 C   0  0  0  0  0  0  0  0  0  0  0  0
   18.4586  -17.6630    0.0000 C   0  0  0  0  0  0  0  0  0  0  0  0
   19.4634  -16.5493    0.0000 C   0  0  0  0  0  0  0  0  0  0  0  0
   20.4011  -15.3785    0.0000 C   0  0  0  0  0  0  0  0  0  0  0  0
   21.2684  -14.1547    0.0000 C   0  0  0  0  0  0  0  0  0  0  0  0
   22.0625  -12.8821    0.0000 C   0  0  0  0  0  0  0  0  0  0  0  0
   22.7805  -11.5651    0.0000 C   0  0  0  0  0  0  0  0  0  0  0  0
   23.4199  -10.2083    0.0000 C   0  0  0  0  0  0  0  0  0  0  0  0
   23.9787   -8.8162    0.0000 C   0  0  0  0  0  0  0  0  0  0  0  0
   24.4547   -7.3938    0.0000 C   0  0  0  0  0  0  0  0  0  0  0  0
   24.8465   -5.9458    0.0000 C   0  0  0  0  0  0  0  0  0  0  0  0
   25.1526   -4.4774    0.0000 C   0  0  0  0  0  0  0  0  0  0  0  0
   25.3721   -2.9935    0.0000 C   0  0  0  0  0  0  0  0  0  0  0  0
   25.5040   -1.4994    0.0000 C   0  0  0  0  0  0  0  0  0  0  0  0
  1  2  1  0
  2  3  1  0
  3  4  1  0
  4  5  1  0
  5  6  1  0
  6  7  1  0
  7  8  1  0
  8  9  1  0
  9 10  1  0
 10 11  1  0
 11 12  1  0
 12 13  1  0
 13 14  1  0
 14 15  1  0
 15 16  1  0
 16 17  1  0
 17 18  1  0
 18 19  1  0
 19 20  1  0
 20 21  1  0
 21 22  1  0
 22 23  1  0
 23 24  1  0
 24 25  1  0
 25 26  1  0
 26 27  1  0
 27 28  1  0
 28 29  1  0
 29 30  1  0
 30 31  1  0
 31 32  1  0
 32 33  1  0
 33 34  1  0
 34 35  1  0
 35 36  1  0
 36 37  1  0
 37 38  1  0
 38 39  1  0
 39 40  1  0
 40 41  1  0
 41 42  1  0
 42 43  1  0
 43 44  1  0
 44 45  1  0
 45 46  1  0
 46 47  1  0
 47 48  1  0
 48 49  1  0
 49 50  1  0
 50 51  1  0
 51 52  1  0
 52 53  1  0
 53 54  1  0
 54 55  1  0
 55 56  1  0
 56 57  1  0
 57 58  1  0
 58 59  1  0
 59 60  1  0
 60 61  1  0
 61 62  1  0
 62 63  1  0
 63 64  1  0
 64 65  1  0
 65 66  1  0
 66 67  1  0
 67 68  1  0
 68 69  1  0
 69 70  1  0
 70 71  1  0
 71 72  1  0
 72 73  1  0
 73 74  1  0
 74 75  1  0
 75 76  1  0
 76 77  1  0
 77 78  1  0
 78 79  1  0
 79 80  1  0
 80 81  1  0
 81 82  1  0
 82 83  1  0
 83 84  1  0
 84 85  1  0
 85 86  1  0
 86 87  1  0
 87 88  1  0
 88 89  1  0
 89 90  1  0
 90 91  1  0
 91 92  1  0
 92 93  1  0
 93 94  1  0
 94 95  1  0
 95 96  1  0
 96 97  1  0
 97 98  1  0
 98 99  1  0
 99100  1  0
100101  1  0
101102  1  0
102103  1  0
103104  1  0
104105  1  0
105106  1  0
106107  1  0
107108  1  0
108  2  1  0
M  END
>  <Title>  (343) 
idAALKgen7

$$$$

     RDKit          2D

 37 38  0  0  0  0  0  0  0  0999 V2000
    7.7580    1.2990    0.0000 N   0  0  0  0  0  0  0  0  0  0  0  0
    7.0080   -0.0000    0.0000 C   0  0  0  0  0  0  0  0  0  0  0  0
    7.7580   -1.2990    0.0000 O   0  0  0  0  0  0  0  0  0  0  0  0
    5.5080    0.0000    0.0000 C   0  0  0  0  0  0  0  0  0  0  0  0
    5.3037    1.4860    0.0000 C   0  0  0  0  0  0  0  0  0  0  0  0
    4.7061    2.8618    0.0000 C   0  0  0  0  0  0  0  0  0  0  0  0
    3.7595    4.0254    0.0000 C   0  0  0  0  0  0  0  0  0  0  0  0
    2.5340    4.8904    0.0000 C   0  0  0  0  0  0  0  0  0  0  0  0
    1.1206    5.3928    0.0000 C   0  0  0  0  0  0  0  0  0  0  0  0
   -0.3759    5.4951    0.0000 C   0  0  0  0  0  0  0  0  0  0  0  0
   -1.8445    5.1899    0.0000 C   0  0  0  0  0  0  0  0  0  0  0  0
   -3.1763    4.4998    0.0000 C   0  0  0  0  0  0  0  0  0  0  0  0
   -4.2726    3.4760    0.0000 C   0  0  0  0  0  0  0  0  0  0  0  0
   -5.0520    2.1944    0.0000 C   0  0  0  0  0  0  0  0  0  0  0  0
   -5.4567    0.7500    0.0000 C   0  0  0  0  0  0  0  0  0  0  0  0
   -5.4567   -0.7500    0.0000 C   0  0  0  0  0  0  0  0  0  0  0  0
   -5.0520   -2.1944    0.0000 C   0  0  0  0  0  0  0  0  0  0  0  0
   -4.2726   -3.4760    0.0000 C   0  0  0  0  0  0  0  0  0  0  0  0
   -3.1763   -4.4998    0.0000 C   0  0  0  0  0  0  0  0  0  0  0  0
   -1.8445   -5.1899    0.0000 C   0  0  0  0  0  0  0  0  0  0  0  0
   -0.3759   -5.4951    0.0000 C   0  0  0  0  0  0  0  0  0  0  0  0
    1.1206   -5.3928    0.0000 C   0  0  0  0  0  0  0  0  0  0  0  0
    2.5340   -4.8904    0.0000 C   0  0  0  0  0  0  0  0  0  0  0  0
    3.7595   -4.0254    0.0000 C   0  0  0  0  0  0  0  0  0  0  0  0
    4.7061   -2.8618    0.0000 C   0  0  0  0  0  0  0  0  0  0  0  0
    5.9877   -3.6412    0.0000 C   0  0  0  0  0  0  0  0  0  0  0  0
    5.9536   -5.1408    0.0000 C   0  0  0  0  0  0  0  0  0  0  0  0
    7.2352   -5.9202    0.0000 C   0  0  0  0  0  0  0  0  0  0  0  0
    8.5510   -5.2000    0.0000 O   0  0  0  0  0  0  0  0  0  0  0  0
    7.2011   -7.4198    0.0000 N   0  0  0  0  0  0  0  0  0  0  0  0
    8.4827   -8.1992    0.0000 C   0  0  0  0  0  0  0  0  0  0  0  0
    8.4486   -9.6988    0.0000 N   0  0  0  0  0  0  0  0  0  0  0  0
    9.7302  -10.4782    0.0000 N   0  0  0  0  0  0  0  0  0  0  0  0
   11.0460   -9.7579    0.0000 N   0  0  0  0  0  0  0  0  0  0  0  0
   11.0801   -8.2583    0.0000 N   0  0  0  0  0  0  0  0  0  0  0  0
    9.7985   -7.4790    0.0000 N   0  0  0  0  0  0  0  0  0  0  0  0
    5.3037   -1.4860    0.0000 C   0  0  0  0  0  0  0  0  0  0  0  0
  1  2  2  0
  2  3  1  0
  2  4  1  0
  4  5  1  0
  5  6  1  0
  6  7  1  0
  7  8  1  0
  8  9  1  0
  9 10  1  0
 10 11  1  0
 11 12  1  0
 12 13  1  0
 13 14  1  0
 14 15  1  0
 15 16  1  0
 16 17  1  0
 17 18  1  0
 18 19  1  0
 19 20  1  0
 20 21  1  0
 21 22  1  0
 22 23  1  0
 23 24  1  0
 24 25  1  0
 25 26  1  0
 26 27  1  0
 27 28  1  0
 28 29  2  0
 28 30  1  0
 30 31  1  0
 31 32  2  0
 32 33  1  0
 33 34  2  0
 34 35  1  0
 35 36  2  0
 25 37  1  0
 37  4  1  0
 36 31  1  0
M  END
>  <Title>  (344) 
idAALLgen7

$$$$

     RDKit          2D

 83 83  0  0  0  0  0  0  0  0999 V2000
   21.0808    0.0000    0.0000 C   0  0  0  0  0  0  0  0  0  0  0  0
   19.5808    0.0000    0.0000 C   0  0  0  0  0  0  0  0  0  0  0  0
   19.5234   -1.4989    0.0000 C   0  0  0  0  0  0  0  0  0  0  0  0
   19.3514   -2.9890    0.0000 C   0  0  0  0  0  0  0  0  0  0  0  0
   19.0658   -4.4616    0.0000 C   0  0  0  0  0  0  0  0  0  0  0  0
   18.6683   -5.9079    0.0000 C   0  0  0  0  0  0  0  0  0  0  0  0
   18.1613   -7.3197    0.0000 C   0  0  0  0  0  0  0  0  0  0  0  0
   17.5477   -8.6884    0.0000 C   0  0  0  0  0  0  0  0  0  0  0  0
   16.8311  -10.0062    0.0000 C   0  0  0  0  0  0  0  0  0  0  0  0
   16.0158  -11.2652    0.0000 C   0  0  0  0  0  0  0  0  0  0  0  0
   15.1064  -12.4582    0.0000 C   0  0  0  0  0  0  0  0  0  0  0  0
   14.1084  -13.5780    0.0000 C   0  0  0  0  0  0  0  0  0  0  0  0
   13.0276  -14.6181    0.0000 C   0  0  0  0  0  0  0  0  0  0  0  0
   11.8704  -15.5725    0.0000 C   0  0  0  0  0  0  0  0  0  0  0  0
   10.6435  -16.4355    0.0000 C   0  0  0  0  0  0  0  0  0  0  0  0
    9.3542  -17.2020    0.0000 C   0  0  0  0  0  0  0  0  0  0  0  0
    8.0099  -17.8676    0.0000 C   0  0  0  0  0  0  0  0  0  0  0  0
    6.6187  -18.4283    0.0000 C   0  0  0  0  0  0  0  0  0  0  0  0
    5.1886  -18.8809    0.0000 C   0  0  0  0  0  0  0  0  0  0  0  0
    3.7280  -19.2227    0.0000 C   0  0  0  0  0  0  0  0  0  0  0  0
    2.2456  -19.4517    0.0000 C   0  0  0  0  0  0  0  0  0  0  0  0
    0.7500  -19.5665    0.0000 C   0  0  0  0  0  0  0  0  0  0  0  0
   -0.7500  -19.5665    0.0000 C   0  0  0  0  0  0  0  0  0  0  0  0
   -2.2456  -19.4517    0.0000 C   0  0  0  0  0  0  0  0  0  0  0  0
   -3.7280  -19.2227    0.0000 C   0  0  0  0  0  0  0  0  0  0  0  0
   -5.1886  -18.8809    0.0000 C   0  0  0  0  0  0  0  0  0  0  0  0
   -6.6187  -18.4283    0.0000 C   0  0  0  0  0  0  0  0  0  0  0  0
   -8.0099  -17.8676    0.0000 C   0  0  0  0  0  0  0  0  0  0  0  0
   -9.3542  -17.2020    0.0000 C   0  0  0  0  0  0  0  0  0  0  0  0
  -10.6435  -16.4355    0.0000 C   0  0  0  0  0  0  0  0  0  0  0  0
  -11.8704  -15.5725    0.0000 C   0  0  0  0  0  0  0  0  0  0  0  0
  -13.0276  -14.6181    0.0000 C   0  0  0  0  0  0  0  0  0  0  0  0
  -14.1084  -13.5780    0.0000 C   0  0  0  0  0  0  0  0  0  0  0  0
  -15.1064  -12.4582    0.0000 C   0  0  0  0  0  0  0  0  0  0  0  0
  -16.0158  -11.2652    0.0000 C   0  0  0  0  0  0  0  0  0  0  0  0
  -16.8311  -10.0062    0.0000 C   0  0  0  0  0  0  0  0  0  0  0  0
  -17.5477   -8.6884    0.0000 C   0  0  0  0  0  0  0  0  0  0  0  0
  -18.1613   -7.3197    0.0000 C   0  0  0  0  0  0  0  0  0  0  0  0
  -18.6683   -5.9079    0.0000 C   0  0  0  0  0  0  0  0  0  0  0  0
  -19.0658   -4.4616    0.0000 C   0  0  0  0  0  0  0  0  0  0  0  0
  -19.3514   -2.9890    0.0000 C   0  0  0  0  0  0  0  0  0  0  0  0
  -19.5234   -1.4989    0.0000 C   0  0  0  0  0  0  0  0  0  0  0  0
  -19.5808   -0.0000    0.0000 C   0  0  0  0  0  0  0  0  0  0  0  0
  -19.5234    1.4989    0.0000 C   0  0  0  0  0  0  0  0  0  0  0  0
  -19.3514    2.9890    0.0000 C   0  0  0  0  0  0  0  0  0  0  0  0
  -19.0658    4.4616    0.0000 C   0  0  0  0  0  0  0  0  0  0  0  0
  -18.6683    5.9079    0.0000 C   0  0  0  0  0  0  0  0  0  0  0  0
  -18.1613    7.3197    0.0000 C   0  0  0  0  0  0  0  0  0  0  0  0
  -17.5477    8.6884    0.0000 C   0  0  0  0  0  0  0  0  0  0  0  0
  -16.8311   10.0062    0.0000 C   0  0  0  0  0  0  0  0  0  0  0  0
  -16.0158   11.2652    0.0000 C   0  0  0  0  0  0  0  0  0  0  0  0
  -15.1064   12.4582    0.0000 C   0  0  0  0  0  0  0  0  0  0  0  0
  -14.1084   13.5780    0.0000 C   0  0  0  0  0  0  0  0  0  0  0  0
  -13.0276   14.6181    0.0000 C   0  0  0  0  0  0  0  0  0  0  0  0
  -11.8704   15.5725    0.0000 C   0  0  0  0  0  0  0  0  0  0  0  0
  -10.6435   16.4355    0.0000 C   0  0  0  0  0  0  0  0  0  0  0  0
   -9.3542   17.2020    0.0000 C   0  0  0  0  0  0  0  0  0  0  0  0
   -8.0099   17.8676    0.0000 C   0  0  0  0  0  0  0  0  0  0  0  0
   -6.6187   18.4283    0.0000 C   0  0  0  0  0  0  0  0  0  0  0  0
   -5.1886   18.8809    0.0000 C   0  0  0  0  0  0  0  0  0  0  0  0
   -3.7280   19.2227    0.0000 C   0  0  0  0  0  0  0  0  0  0  0  0
   -2.2456   19.4517    0.0000 C   0  0  0  0  0  0  0  0  0  0  0  0
   -0.7500   19.5665    0.0000 C   0  0  0  0  0  0  0  0  0  0  0  0
    0.7500   19.5665    0.0000 C   0  0  0  0  0  0  0  0  0  0  0  0
    2.2456   19.4517    0.0000 C   0  0  0  0  0  0  0  0  0  0  0  0
    3.7280   19.2227    0.0000 C   0  0  0  0  0  0  0  0  0  0  0  0
    5.1886   18.8809    0.0000 C   0  0  0  0  0  0  0  0  0  0  0  0
    6.6187   18.4283    0.0000 C   0  0  0  0  0  0  0  0  0  0  0  0
    8.0099   17.8676    0.0000 C   0  0  0  0  0  0  0  0  0  0  0  0
    9.3542   17.2020    0.0000 C   0  0  0  0  0  0  0  0  0  0  0  0
   10.6435   16.4355    0.0000 C   0  0  0  0  0  0  0  0  0  0  0  0
   11.8704   15.5725    0.0000 C   0  0  0  0  0  0  0  0  0  0  0  0
   13.0276   14.6181    0.0000 C   0  0  0  0  0  0  0  0  0  0  0  0
   14.1084   13.5780    0.0000 C   0  0  0  0  0  0  0  0  0  0  0  0
   15.1064   12.4582    0.0000 C   0  0  0  0  0  0  0  0  0  0  0  0
   16.0158   11.2652    0.0000 C   0  0  0  0  0  0  0  0  0  0  0  0
   16.8311   10.0062    0.0000 C   0  0  0  0  0  0  0  0  0  0  0  0
   17.5477    8.6884    0.0000 C   0  0  0  0  0  0  0  0  0  0  0  0
   18.1613    7.3197    0.0000 C   0  0  0  0  0  0  0  0  0  0  0  0
   18.6683    5.9079    0.0000 C   0  0  0  0  0  0  0  0  0  0  0  0
   19.0658    4.4616    0.0000 C   0  0  0  0  0  0  0  0  0  0  0  0
   19.3514    2.9890    0.0000 C   0  0  0  0  0  0  0  0  0  0  0  0
   19.5234    1.4989    0.0000 C   0  0  0  0  0  0  0  0  0  0  0  0
  1  2  1  0
  2  3  1  0
  3  4  2  0
  4  5  1  0
  5  6  2  0
  6  7  1  0
  7  8  2  0
  8  9  1  0
  9 10  2  0
 10 11  1  0
 11 12  2  0
 12 13  1  0
 13 14  2  0
 14 15  1  0
 15 16  2  0
 16 17  1  0
 17 18  2  0
 18 19  1  0
 19 20  1  0
 20 21  1  0
 21 22  1  0
 22 23  1  0
 23 24  1  0
 24 25  1  0
 25 26  1  0
 26 27  1  0
 27 28  1  0
 28 29  1  0
 29 30  1  0
 30 31  1  0
 31 32  1  0
 32 33  1  0
 33 34  1  0
 34 35  1  0
 35 36  1  0
 36 37  1  0
 37 38  1  0
 38 39  1  0
 39 40  1  0
 40 41  1  0
 41 42  1  0
 42 43  1  0
 43 44  1  0
 44 45  1  0
 45 46  1  0
 46 47  1  0
 47 48  1  0
 48 49  1  0
 49 50  1  0
 50 51  1  0
 51 52  1  0
 52 53  1  0
 53 54  1  0
 54 55  1  0
 55 56  1  0
 56 57  1  0
 57 58  1  0
 58 59  1  0
 59 60  1  0
 60 61  1  0
 61 62  1  0
 62 63  1  0
 63 64  1  0
 64 65  1  0
 65 66  1  0
 66 67  1  0
 67 68  1  0
 68 69  1  0
 69 70  1  0
 70 71  1  0
 71 72  1  0
 72 73  1  0
 73 74  1  0
 74 75  1  0
 75 76  1  0
 76 77  1  0
 77 78  2  0
 78 79  1  0
 79 80  1  0
 80 81  1  0
 81 82  1  0
 82 83  1  0
 83  2  1  0
M  END
>  <Title>  (345) 
idAALMgen7

$$$$

     RDKit          2D

 14 14  0  0  0  0  0  0  0  0999 V2000
    3.3705    0.0000    0.0000 C   0  0  0  0  0  0  0  0  0  0  0  0
    3.0367   -1.4624    0.0000 C   0  0  0  0  0  0  0  0  0  0  0  0
    2.1015   -2.6351    0.0000 C   0  0  0  0  0  0  0  0  0  0  0  0
    0.7500   -3.2860    0.0000 C   0  0  0  0  0  0  0  0  0  0  0  0
   -0.7500   -3.2860    0.0000 C   0  0  0  0  0  0  0  0  0  0  0  0
   -2.1015   -2.6351    0.0000 C   0  0  0  0  0  0  0  0  0  0  0  0
   -3.0367   -1.4624    0.0000 C   0  0  0  0  0  0  0  0  0  0  0  0
   -3.3705    0.0000    0.0000 C   0  0  0  0  0  0  0  0  0  0  0  0
   -3.0367    1.4624    0.0000 C   0  0  0  0  0  0  0  0  0  0  0  0
   -2.1015    2.6351    0.0000 C   0  0  0  0  0  0  0  0  0  0  0  0
   -0.7500    3.2860    0.0000 C   0  0  0  0  0  0  0  0  0  0  0  0
    0.7500    3.2860    0.0000 C   0  0  0  0  0  0  0  0  0  0  0  0
    2.1015    2.6351    0.0000 C   0  0  0  0  0  0  0  0  0  0  0  0
    3.0367    1.4624    0.0000 C   0  0  0  0  0  0  0  0  0  0  0  0
  1  2  1  0
  2  3  1  0
  3  4  1  0
  4  5  1  0
  5  6  1  0
  6  7  1  0
  7  8  1  0
  8  9  1  0
  9 10  1  0
 10 11  1  0
 11 12  1  0
 12 13  1  0
 13 14  1  0
 14  1  1  0
M  END
>  <Title>  (346) 
idAALNgen7

$$$$

     RDKit          2D

 39 44  0  0  0  0  0  0  0  0999 V2000
   -2.9187    6.3021    0.0000 C   0  0  0  0  0  0  0  0  0  0  0  0
   -1.5926    5.6012    0.0000 C   0  0  0  0  0  0  0  0  0  0  0  0
   -0.5723    6.7008    0.0000 C   0  0  0  0  0  0  0  0  0  0  0  0
    0.8610    7.1430    0.0000 C   0  0  0  0  0  0  0  0  0  0  0  0
    2.3234    6.8092    0.0000 C   0  0  0  0  0  0  0  0  0  0  0  0
    3.0243    8.1353    0.0000 C   0  0  0  0  0  0  0  0  0  0  0  0
    4.5233    8.1914    0.0000 O   0  0  0  0  0  0  0  0  0  0  0  0
    2.2263    9.4054    0.0000 N   0  0  0  0  0  0  0  0  0  0  0  0
    2.9272   10.7316    0.0000 C   0  0  0  0  0  0  0  0  0  0  0  0
    4.4261   10.7877    0.0000 N   0  0  0  0  0  0  0  0  0  0  0  0
    5.1270   12.1139    0.0000 N   0  0  0  0  0  0  0  0  0  0  0  0
    4.3290   13.3840    0.0000 N   0  0  0  0  0  0  0  0  0  0  0  0
    2.8300   13.3279    0.0000 N   0  0  0  0  0  0  0  0  0  0  0  0
    2.1291   12.0017    0.0000 N   0  0  0  0  0  0  0  0  0  0  0  0
    3.4230    5.7889    0.0000 C   0  0  0  0  0  0  0  0  0  0  0  0
    4.4433    6.8885    0.0000 C   0  0  0  0  0  0  0  0  0  0  0  0
    5.9057    6.5547    0.0000 C   0  0  0  0  0  0  0  0  0  0  0  0
    6.3478    5.1214    0.0000 C   0  0  0  0  0  0  0  0  0  0  0  0
    5.3275    4.0218    0.0000 C   0  0  0  0  0  0  0  0  0  0  0  0
    3.8651    4.3556    0.0000 C   0  0  0  0  0  0  0  0  0  0  0  0
    3.5314    2.8932    0.0000 C   0  0  0  0  0  0  0  0  0  0  0  0
    4.9938    2.5594    0.0000 C   0  0  0  0  0  0  0  0  0  0  0  0
    5.4359    1.1260    0.0000 C   0  0  0  0  0  0  0  0  0  0  0  0
    4.4156    0.0264    0.0000 C   0  0  0  0  0  0  0  0  0  0  0  0
    2.9532    0.3602    0.0000 C   0  0  0  0  0  0  0  0  0  0  0  0
    2.5111    1.7936    0.0000 C   0  0  0  0  0  0  0  0  0  0  0  0
    1.0777    1.3515    0.0000 C   0  0  0  0  0  0  0  0  0  0  0  0
    1.7286    0.0000    0.0000 O   0  0  0  0  0  0  0  0  0  0  0  0
    1.0777   -1.3515    0.0000 C   0  0  0  0  0  0  0  0  0  0  0  0
   -0.3846   -1.6852    0.0000 C   0  0  0  0  0  0  0  0  0  0  0  0
   -1.5574   -0.7500    0.0000 C   0  0  0  0  0  0  0  0  0  0  0  0
   -1.5574    0.7500    0.0000 C   0  0  0  0  0  0  0  0  0  0  0  0
   -0.3846    1.6852    0.0000 C   0  0  0  0  0  0  0  0  0  0  0  0
   -1.4842    2.7055    0.0000 C   0  0  0  0  0  0  0  0  0  0  0  0
   -2.5045    1.6059    0.0000 C   0  0  0  0  0  0  0  0  0  0  0  0
   -3.9669    1.9397    0.0000 C   0  0  0  0  0  0  0  0  0  0  0  0
   -4.4090    3.3731    0.0000 C   0  0  0  0  0  0  0  0  0  0  0  0
   -3.3887    4.4726    0.0000 C   0  0  0  0  0  0  0  0  0  0  0  0
   -1.9264    4.1389    0.0000 C   0  0  0  0  0  0  0  0  0  0  0  0
  1  2  1  0
  2  3  1  0
  3  4  1  0
  4  5  1  0
  5  6  1  0
  6  7  2  0
  6  8  1  0
  8  9  1  0
  9 10  2  0
 10 11  1  0
 11 12  2  0
 12 13  1  0
 13 14  2  0
  5 15  1  0
 15 16  2  0
 16 17  1  0
 17 18  2  0
 18 19  1  0
 19 20  2  0
 20 21  1  0
 21 22  2  0
 22 23  1  0
 23 24  2  0
 24 25  1  0
 25 26  2  0
 26 27  1  0
 27 28  1  0
 28 29  1  0
 29 30  1  0
 30 31  2  0
 31 32  1  0
 32 33  2  0
 33 34  1  0
 34 35  2  0
 35 36  1  0
 36 37  2  0
 37 38  1  0
 38 39  2  0
 39  2  1  0
 14  9  1  0
 20 15  1  0
 26 21  1  0
 33 27  1  0
 39 34  1  0
M  END
>  <Title>  (347) 
idAALOgen7

$$$$

     RDKit          2D

 26 29  0  0  0  0  0  0  0  0999 V2000
   -1.3240   -6.3062    0.0000 C   0  0  0  0  0  0  0  0  0  0  0  0
   -0.7500   -4.9204    0.0000 C   0  0  0  0  0  0  0  0  0  0  0  0
    0.7500   -4.9204    0.0000 C   0  0  0  0  0  0  0  0  0  0  0  0
    1.8107   -3.8597    0.0000 C   0  0  0  0  0  0  0  0  0  0  0  0
    1.8107   -2.3597    0.0000 C   0  0  0  0  0  0  0  0  0  0  0  0
    3.1965   -1.7857    0.0000 C   0  0  0  0  0  0  0  0  0  0  0  0
    3.3923   -0.2985    0.0000 O   0  0  0  0  0  0  0  0  0  0  0  0
    4.3865   -2.6988    0.0000 N   0  0  0  0  0  0  0  0  0  0  0  0
    5.7723   -2.1248    0.0000 C   0  0  0  0  0  0  0  0  0  0  0  0
    6.9624   -3.0379    0.0000 N   0  0  0  0  0  0  0  0  0  0  0  0
    8.3482   -2.4639    0.0000 N   0  0  0  0  0  0  0  0  0  0  0  0
    8.5440   -0.9767    0.0000 N   0  0  0  0  0  0  0  0  0  0  0  0
    7.3539   -0.0636    0.0000 N   0  0  0  0  0  0  0  0  0  0  0  0
    5.9681   -0.6376    0.0000 N   0  0  0  0  0  0  0  0  0  0  0  0
    0.7500   -1.2990    0.0000 C   0  0  0  0  0  0  0  0  0  0  0  0
    1.5000    0.0000    0.0000 C   0  0  0  0  0  0  0  0  0  0  0  0
    0.7500    1.2990    0.0000 C   0  0  0  0  0  0  0  0  0  0  0  0
   -0.7500    1.2990    0.0000 C   0  0  0  0  0  0  0  0  0  0  0  0
   -1.5000    0.0000    0.0000 C   0  0  0  0  0  0  0  0  0  0  0  0
   -0.7500   -1.2990    0.0000 C   0  0  0  0  0  0  0  0  0  0  0  0
   -1.8107   -2.3597    0.0000 C   0  0  0  0  0  0  0  0  0  0  0  0
   -3.1097   -1.6097    0.0000 C   0  0  0  0  0  0  0  0  0  0  0  0
   -4.4087   -2.3597    0.0000 C   0  0  0  0  0  0  0  0  0  0  0  0
   -4.4087   -3.8597    0.0000 C   0  0  0  0  0  0  0  0  0  0  0  0
   -3.1097   -4.6097    0.0000 C   0  0  0  0  0  0  0  0  0  0  0  0
   -1.8107   -3.8597    0.0000 C   0  0  0  0  0  0  0  0  0  0  0  0
  1  2  1  0
  2  3  2  0
  3  4  1  0
  4  5  1  0
  5  6  1  0
  6  7  2  0
  6  8  1  0
  8  9  1  0
  9 10  2  0
 10 11  1  0
 11 12  2  0
 12 13  1  0
 13 14  2  0
  5 15  1  0
 15 16  2  0
 16 17  1  0
 17 18  2  0
 18 19  1  0
 19 20  2  0
 20 21  1  0
 21 22  2  0
 22 23  1  0
 23 24  2  0
 24 25  1  0
 25 26  2  0
 26  2  1  0
 14  9  1  0
 20 15  1  0
 26 21  1  0
M  END
>  <Title>  (348) 
idAALPgen7

$$$$

     RDKit          2D

 20 22  0  0  0  0  0  0  0  0999 V2000
   -3.5345   -8.3073    0.0000 C   0  0  0  0  0  0  0  0  0  0  0  0
   -3.3777   -6.8155    0.0000 C   0  0  0  0  0  0  0  0  0  0  0  0
   -4.7480   -6.2054    0.0000 C   0  0  0  0  0  0  0  0  0  0  0  0
   -5.4980   -4.9063    0.0000 C   0  0  0  0  0  0  0  0  0  0  0  0
   -5.3412   -3.4146    0.0000 C   0  0  0  0  0  0  0  0  0  0  0  0
   -4.3375   -2.2998    0.0000 C   0  0  0  0  0  0  0  0  0  0  0  0
   -2.8703   -1.9880    0.0000 C   0  0  0  0  0  0  0  0  0  0  0  0
   -1.5000   -2.5981    0.0000 C   0  0  0  0  0  0  0  0  0  0  0  0
   -0.7500   -3.8971    0.0000 C   0  0  0  0  0  0  0  0  0  0  0  0
   -0.9068   -5.3889    0.0000 C   0  0  0  0  0  0  0  0  0  0  0  0
   -1.9105   -6.5036    0.0000 C   0  0  0  0  0  0  0  0  0  0  0  0
    0.7500   -3.8971    0.0000 C   0  0  0  0  0  0  0  0  0  0  0  0
    1.5000   -5.1962    0.0000 O   0  0  0  0  0  0  0  0  0  0  0  0
    1.5000   -2.5981    0.0000 O   0  0  0  0  0  0  0  0  0  0  0  0
    0.7500   -1.2990    0.0000 C   0  0  0  0  0  0  0  0  0  0  0  0
    1.5000    0.0000    0.0000 C   0  0  0  0  0  0  0  0  0  0  0  0
    0.7500    1.2990    0.0000 C   0  0  0  0  0  0  0  0  0  0  0  0
   -0.7500    1.2990    0.0000 C   0  0  0  0  0  0  0  0  0  0  0  0
   -1.5000    0.0000    0.0000 C   0  0  0  0  0  0  0  0  0  0  0  0
   -0.7500   -1.2990    0.0000 C   0  0  0  0  0  0  0  0  0  0  0  0
  1  2  1  0
  2  3  2  0
  3  4  1  0
  4  5  2  0
  5  6  1  0
  6  7  2  0
  7  8  1  0
  8  9  2  0
  9 10  1  0
 10 11  2  0
  9 12  1  0
 12 13  2  0
 12 14  1  0
 14 15  1  0
 15 16  2  0
 16 17  1  0
 17 18  2  0
 18 19  1  0
 19 20  2  0
 11  2  1  0
 20 15  1  0
 20  8  1  0
M  END
>  <Title>  (349) 
idAALQgen7

$$$$

     RDKit          2D

 61 61  0  0  0  0  0  0  0  0999 V2000
   14.5691    0.0000    0.0000 C   0  0  0  0  0  0  0  0  0  0  0  0
   14.4919    1.4980    0.0000 C   0  0  0  0  0  0  0  0  0  0  0  0
   14.2611    2.9801    0.0000 C   0  0  0  0  0  0  0  0  0  0  0  0
   13.8791    4.4307    0.0000 C   0  0  0  0  0  0  0  0  0  0  0  0
   13.3499    5.8343    0.0000 C   0  0  0  0  0  0  0  0  0  0  0  0
   12.6793    7.1760    0.0000 C   0  0  0  0  0  0  0  0  0  0  0  0
   11.8742    8.4417    0.0000 C   0  0  0  0  0  0  0  0  0  0  0  0
   10.9433    9.6178    0.0000 C   0  0  0  0  0  0  0  0  0  0  0  0
    9.8964   10.6921    0.0000 C   0  0  0  0  0  0  0  0  0  0  0  0
    8.7446   11.6530    0.0000 C   0  0  0  0  0  0  0  0  0  0  0  0
    7.5001   12.4903    0.0000 C   0  0  0  0  0  0  0  0  0  0  0  0
    6.1761   13.1953    0.0000 C   0  0  0  0  0  0  0  0  0  0  0  0
    4.7866   13.7604    0.0000 C   0  0  0  0  0  0  0  0  0  0  0  0
    3.3463   14.1796    0.0000 C   0  0  0  0  0  0  0  0  0  0  0  0
    1.8707   14.4485    0.0000 C   0  0  0  0  0  0  0  0  0  0  0  0
    0.3751   14.5643    0.0000 C   0  0  0  0  0  0  0  0  0  0  0  0
   -1.1244   14.5257    0.0000 C   0  0  0  0  0  0  0  0  0  0  0  0
   -2.6120   14.3331    0.0000 C   0  0  0  0  0  0  0  0  0  0  0  0
   -4.0719   13.9885    0.0000 C   0  0  0  0  0  0  0  0  0  0  0  0
   -5.4886   13.4957    0.0000 C   0  0  0  0  0  0  0  0  0  0  0  0
   -6.8471   12.8599    0.0000 C   0  0  0  0  0  0  0  0  0  0  0  0
   -8.1331   12.0877    0.0000 C   0  0  0  0  0  0  0  0  0  0  0  0
   -9.3329   11.1873    0.0000 C   0  0  0  0  0  0  0  0  0  0  0  0
  -10.4337   10.1684    0.0000 C   0  0  0  0  0  0  0  0  0  0  0  0
  -11.4239    9.0417    0.0000 C   0  0  0  0  0  0  0  0  0  0  0  0
  -12.2931    7.8192    0.0000 C   0  0  0  0  0  0  0  0  0  0  0  0
  -13.0319    6.5138    0.0000 C   0  0  0  0  0  0  0  0  0  0  0  0
  -13.6326    5.1393    0.0000 C   0  0  0  0  0  0  0  0  0  0  0  0
  -14.0887    3.7103    0.0000 C   0  0  0  0  0  0  0  0  0  0  0  0
  -14.3956    2.2420    0.0000 C   0  0  0  0  0  0  0  0  0  0  0  0
  -14.5498    0.7500    0.0000 C   0  0  0  0  0  0  0  0  0  0  0  0
  -14.5498   -0.7500    0.0000 C   0  0  0  0  0  0  0  0  0  0  0  0
  -14.3956   -2.2420    0.0000 C   0  0  0  0  0  0  0  0  0  0  0  0
  -14.0887   -3.7103    0.0000 C   0  0  0  0  0  0  0  0  0  0  0  0
  -13.6326   -5.1393    0.0000 C   0  0  0  0  0  0  0  0  0  0  0  0
  -13.0319   -6.5138    0.0000 C   0  0  0  0  0  0  0  0  0  0  0  0
  -12.2931   -7.8192    0.0000 C   0  0  0  0  0  0  0  0  0  0  0  0
  -11.4239   -9.0417    0.0000 C   0  0  0  0  0  0  0  0  0  0  0  0
  -10.4337  -10.1684    0.0000 C   0  0  0  0  0  0  0  0  0  0  0  0
   -9.3329  -11.1873    0.0000 C   0  0  0  0  0  0  0  0  0  0  0  0
   -8.1331  -12.0877    0.0000 C   0  0  0  0  0  0  0  0  0  0  0  0
   -6.8471  -12.8599    0.0000 C   0  0  0  0  0  0  0  0  0  0  0  0
   -5.4886  -13.4957    0.0000 C   0  0  0  0  0  0  0  0  0  0  0  0
   -4.0719  -13.9885    0.0000 C   0  0  0  0  0  0  0  0  0  0  0  0
   -2.6120  -14.3331    0.0000 C   0  0  0  0  0  0  0  0  0  0  0  0
   -1.1244  -14.5257    0.0000 C   0  0  0  0  0  0  0  0  0  0  0  0
    0.3751  -14.5643    0.0000 C   0  0  0  0  0  0  0  0  0  0  0  0
    1.8707  -14.4485    0.0000 C   0  0  0  0  0  0  0  0  0  0  0  0
    3.3463  -14.1796    0.0000 C   0  0  0  0  0  0  0  0  0  0  0  0
    4.7866  -13.7604    0.0000 C   0  0  0  0  0  0  0  0  0  0  0  0
    6.1761  -13.1953    0.0000 C   0  0  0  0  0  0  0  0  0  0  0  0
    7.5001  -12.4903    0.0000 C   0  0  0  0  0  0  0  0  0  0  0  0
    8.7446  -11.6530    0.0000 C   0  0  0  0  0  0  0  0  0  0  0  0
    9.8964  -10.6921    0.0000 C   0  0  0  0  0  0  0  0  0  0  0  0
   10.9433   -9.6178    0.0000 C   0  0  0  0  0  0  0  0  0  0  0  0
   11.8742   -8.4417    0.0000 C   0  0  0  0  0  0  0  0  0  0  0  0
   12.6793   -7.1760    0.0000 C   0  0  0  0  0  0  0  0  0  0  0  0
   13.3499   -5.8343    0.0000 C   0  0  0  0  0  0  0  0  0  0  0  0
   13.8791   -4.4307    0.0000 C   0  0  0  0  0  0  0  0  0  0  0  0
   14.2611   -2.9801    0.0000 C   0  0  0  0  0  0  0  0  0  0  0  0
   14.4919   -1.4980    0.0000 C   0  0  0  0  0  0  0  0  0  0  0  0
  1  2  1  0
  2  3  1  0
  3  4  1  0
  4  5  1  0
  5  6  1  0
  6  7  1  0
  7  8  1  0
  8  9  1  0
  9 10  1  0
 10 11  1  0
 11 12  1  0
 12 13  1  0
 13 14  1  0
 14 15  1  0
 15 16  1  0
 16 17  1  0
 17 18  1  0
 18 19  1  0
 19 20  1  0
 20 21  1  0
 21 22  1  0
 22 23  1  0
 23 24  1  0
 24 25  1  0
 25 26  1  0
 26 27  1  0
 27 28  1  0
 28 29  1  0
 29 30  1  0
 30 31  1  0
 31 32  1  0
 32 33  1  0
 33 34  1  0
 34 35  1  0
 35 36  1  0
 36 37  1  0
 37 38  1  0
 38 39  1  0
 39 40  1  0
 40 41  1  0
 41 42  1  0
 42 43  1  0
 43 44  1  0
 44 45  1  0
 45 46  1  0
 46 47  1  0
 47 48  1  0
 48 49  1  0
 49 50  1  0
 50 51  1  0
 51 52  1  0
 52 53  1  0
 53 54  1  0
 54 55  1  0
 55 56  1  0
 56 57  1  0
 57 58  1  0
 58 59  1  0
 59 60  1  0
 60 61  1  0
 61  1  1  0
M  END
>  <Title>  (350) 
idAALRgen7

$$$$

     RDKit          2D

102102  0  0  0  0  0  0  0  0999 V2000
   26.8772   -0.0000    0.0000 N   0  0  0  0  0  0  0  0  0  0  0  0
   25.3772    0.0000    0.0000 C   0  0  0  0  0  0  0  0  0  0  0  0
   23.8772    0.0000    0.0000 C   0  0  0  0  0  0  0  0  0  0  0  0
   23.8301   -1.4993    0.0000 C   0  0  0  0  0  0  0  0  0  0  0  0
   23.6889   -2.9926    0.0000 C   0  0  0  0  0  0  0  0  0  0  0  0
   23.4542   -4.4741    0.0000 C   0  0  0  0  0  0  0  0  0  0  0  0
   23.1270   -5.9380    0.0000 C   0  0  0  0  0  0  0  0  0  0  0  0
   22.7085   -7.3785    0.0000 C   0  0  0  0  0  0  0  0  0  0  0  0
   22.2004   -8.7898    0.0000 C   0  0  0  0  0  0  0  0  0  0  0  0
   21.6047  -10.1664    0.0000 C   0  0  0  0  0  0  0  0  0  0  0  0
   20.9237  -11.5029    0.0000 C   0  0  0  0  0  0  0  0  0  0  0  0
   20.1602  -12.7940    0.0000 C   0  0  0  0  0  0  0  0  0  0  0  0
   19.3170  -14.0346    0.0000 C   0  0  0  0  0  0  0  0  0  0  0  0
   18.3977  -15.2199    0.0000 C   0  0  0  0  0  0  0  0  0  0  0  0
   17.4057  -16.3450    0.0000 C   0  0  0  0  0  0  0  0  0  0  0  0
   16.3450  -17.4057    0.0000 C   0  0  0  0  0  0  0  0  0  0  0  0
   15.2199  -18.3977    0.0000 C   0  0  0  0  0  0  0  0  0  0  0  0
   14.0346  -19.3170    0.0000 C   0  0  0  0  0  0  0  0  0  0  0  0
   12.7940  -20.1602    0.0000 C   0  0  0  0  0  0  0  0  0  0  0  0
   11.5029  -20.9237    0.0000 C   0  0  0  0  0  0  0  0  0  0  0  0
   10.1664  -21.6047    0.0000 C   0  0  0  0  0  0  0  0  0  0  0  0
    8.7898  -22.2004    0.0000 C   0  0  0  0  0  0  0  0  0  0  0  0
    7.3785  -22.7085    0.0000 C   0  0  0  0  0  0  0  0  0  0  0  0
    5.9380  -23.1270    0.0000 C   0  0  0  0  0  0  0  0  0  0  0  0
    4.4741  -23.4542    0.0000 C   0  0  0  0  0  0  0  0  0  0  0  0
    2.9926  -23.6889    0.0000 C   0  0  0  0  0  0  0  0  0  0  0  0
    1.4993  -23.8301    0.0000 C   0  0  0  0  0  0  0  0  0  0  0  0
   -0.0000  -23.8772    0.0000 C   0  0  0  0  0  0  0  0  0  0  0  0
   -1.4993  -23.8301    0.0000 C   0  0  0  0  0  0  0  0  0  0  0  0
   -2.9926  -23.6889    0.0000 C   0  0  0  0  0  0  0  0  0  0  0  0
   -4.4741  -23.4542    0.0000 C   0  0  0  0  0  0  0  0  0  0  0  0
   -5.9380  -23.1270    0.0000 C   0  0  0  0  0  0  0  0  0  0  0  0
   -7.3785  -22.7085    0.0000 C   0  0  0  0  0  0  0  0  0  0  0  0
   -8.7898  -22.2004    0.0000 C   0  0  0  0  0  0  0  0  0  0  0  0
  -10.1664  -21.6047    0.0000 C   0  0  0  0  0  0  0  0  0  0  0  0
  -11.5029  -20.9237    0.0000 C   0  0  0  0  0  0  0  0  0  0  0  0
  -12.7940  -20.1602    0.0000 C   0  0  0  0  0  0  0  0  0  0  0  0
  -14.0346  -19.3170    0.0000 C   0  0  0  0  0  0  0  0  0  0  0  0
  -15.2199  -18.3977    0.0000 C   0  0  0  0  0  0  0  0  0  0  0  0
  -16.3450  -17.4057    0.0000 C   0  0  0  0  0  0  0  0  0  0  0  0
  -17.4057  -16.3450    0.0000 C   0  0  0  0  0  0  0  0  0  0  0  0
  -18.3977  -15.2199    0.0000 C   0  0  0  0  0  0  0  0  0  0  0  0
  -19.3170  -14.0346    0.0000 C   0  0  0  0  0  0  0  0  0  0  0  0
  -20.1602  -12.7940    0.0000 C   0  0  0  0  0  0  0  0  0  0  0  0
  -20.9237  -11.5029    0.0000 C   0  0  0  0  0  0  0  0  0  0  0  0
  -21.6047  -10.1664    0.0000 C   0  0  0  0  0  0  0  0  0  0  0  0
  -22.2004   -8.7898    0.0000 C   0  0  0  0  0  0  0  0  0  0  0  0
  -22.7085   -7.3785    0.0000 C   0  0  0  0  0  0  0  0  0  0  0  0
  -23.1270   -5.9380    0.0000 C   0  0  0  0  0  0  0  0  0  0  0  0
  -23.4542   -4.4741    0.0000 C   0  0  0  0  0  0  0  0  0  0  0  0
  -23.6889   -2.9926    0.0000 C   0  0  0  0  0  0  0  0  0  0  0  0
  -23.8301   -1.4993    0.0000 C   0  0  0  0  0  0  0  0  0  0  0  0
  -23.8772   -0.0000    0.0000 C   0  0  0  0  0  0  0  0  0  0  0  0
  -23.8301    1.4993    0.0000 C   0  0  0  0  0  0  0  0  0  0  0  0
  -23.6889    2.9926    0.0000 C   0  0  0  0  0  0  0  0  0  0  0  0
  -23.4542    4.4741    0.0000 C   0  0  0  0  0  0  0  0  0  0  0  0
  -23.1270    5.9380    0.0000 C   0  0  0  0  0  0  0  0  0  0  0  0
  -22.7085    7.3785    0.0000 C   0  0  0  0  0  0  0  0  0  0  0  0
  -22.2004    8.7898    0.0000 C   0  0  0  0  0  0  0  0  0  0  0  0
  -21.6047   10.1664    0.0000 C   0  0  0  0  0  0  0  0  0  0  0  0
  -20.9237   11.5029    0.0000 C   0  0  0  0  0  0  0  0  0  0  0  0
  -20.1602   12.7940    0.0000 C   0  0  0  0  0  0  0  0  0  0  0  0
  -19.3170   14.0346    0.0000 C   0  0  0  0  0  0  0  0  0  0  0  0
  -18.3977   15.2199    0.0000 C   0  0  0  0  0  0  0  0  0  0  0  0
  -17.4057   16.3450    0.0000 C   0  0  0  0  0  0  0  0  0  0  0  0
  -16.3450   17.4057    0.0000 C   0  0  0  0  0  0  0  0  0  0  0  0
  -15.2199   18.3977    0.0000 C   0  0  0  0  0  0  0  0  0  0  0  0
  -14.0346   19.3170    0.0000 C   0  0  0  0  0  0  0  0  0  0  0  0
  -12.7940   20.1602    0.0000 C   0  0  0  0  0  0  0  0  0  0  0  0
  -11.5029   20.9237    0.0000 C   0  0  0  0  0  0  0  0  0  0  0  0
  -10.1664   21.6047    0.0000 C   0  0  0  0  0  0  0  0  0  0  0  0
   -8.7898   22.2004    0.0000 C   0  0  0  0  0  0  0  0  0  0  0  0
   -7.3785   22.7085    0.0000 C   0  0  0  0  0  0  0  0  0  0  0  0
   -5.9380   23.1270    0.0000 C   0  0  0  0  0  0  0  0  0  0  0  0
   -4.4741   23.4542    0.0000 C   0  0  0  0  0  0  0  0  0  0  0  0
   -2.9926   23.6889    0.0000 C   0  0  0  0  0  0  0  0  0  0  0  0
   -1.4993   23.8301    0.0000 C   0  0  0  0  0  0  0  0  0  0  0  0
   -0.0000   23.8772    0.0000 C   0  0  0  0  0  0  0  0  0  0  0  0
    1.4993   23.8301    0.0000 C   0  0  0  0  0  0  0  0  0  0  0  0
    2.9926   23.6889    0.0000 C   0  0  0  0  0  0  0  0  0  0  0  0
    4.4741   23.4542    0.0000 C   0  0  0  0  0  0  0  0  0  0  0  0
    5.9380   23.1270    0.0000 C   0  0  0  0  0  0  0  0  0  0  0  0
    7.3785   22.7085    0.0000 C   0  0  0  0  0  0  0  0  0  0  0  0
    8.7898   22.2004    0.0000 C   0  0  0  0  0  0  0  0  0  0  0  0
   10.1664   21.6047    0.0000 C   0  0  0  0  0  0  0  0  0  0  0  0
   11.5029   20.9237    0.0000 C   0  0  0  0  0  0  0  0  0  0  0  0
   12.7940   20.1602    0.0000 C   0  0  0  0  0  0  0  0  0  0  0  0
   14.0346   19.3170    0.0000 C   0  0  0  0  0  0  0  0  0  0  0  0
   15.2199   18.3977    0.0000 C   0  0  0  0  0  0  0  0  0  0  0  0
   16.3450   17.4057    0.0000 C   0  0  0  0  0  0  0  0  0  0  0  0
   17.4057   16.3450    0.0000 C   0  0  0  0  0  0  0  0  0  0  0  0
   18.3977   15.2199    0.0000 C   0  0  0  0  0  0  0  0  0  0  0  0
   19.3170   14.0346    0.0000 C   0  0  0  0  0  0  0  0  0  0  0  0
   20.1602   12.7940    0.0000 C   0  0  0  0  0  0  0  0  0  0  0  0
   20.9237   11.5029    0.0000 C   0  0  0  0  0  0  0  0  0  0  0  0
   21.6047   10.1664    0.0000 C   0  0  0  0  0  0  0  0  0  0  0  0
   22.2004    8.7898    0.0000 C   0  0  0  0  0  0  0  0  0  0  0  0
   22.7085    7.3785    0.0000 C   0  0  0  0  0  0  0  0  0  0  0  0
   23.1270    5.9380    0.0000 C   0  0  0  0  0  0  0  0  0  0  0  0
   23.4542    4.4741    0.0000 C   0  0  0  0  0  0  0  0  0  0  0  0
   23.6889    2.9926    0.0000 C   0  0  0  0  0  0  0  0  0  0  0  0
   23.8301    1.4993    0.0000 C   0  0  0  0  0  0  0  0  0  0  0  0
  1  2  3  0
  2  3  1  0
  3  4  1  0
  4  5  1  0
  5  6  1  0
  6  7  1  0
  7  8  1  0
  8  9  1  0
  9 10  1  0
 10 11  1  0
 11 12  1  0
 12 13  1  0
 13 14  1  0
 14 15  1  0
 15 16  1  0
 16 17  1  0
 17 18  1  0
 18 19  1  0
 19 20  1  0
 20 21  1  0
 21 22  1  0
 22 23  1  0
 23 24  1  0
 24 25  1  0
 25 26  1  0
 26 27  1  0
 27 28  1  0
 28 29  1  0
 29 30  1  0
 30 31  1  0
 31 32  1  0
 32 33  1  0
 33 34  1  0
 34 35  1  0
 35 36  1  0
 36 37  1  0
 37 38  1  0
 38 39  1  0
 39 40  1  0
 40 41  1  0
 41 42  1  0
 42 43  1  0
 43 44  1  0
 44 45  1  0
 45 46  1  0
 46 47  1  0
 47 48  1  0
 48 49  1  0
 49 50  1  0
 50 51  1  0
 51 52  1  0
 52 53  1  0
 53 54  1  0
 54 55  1  0
 55 56  1  0
 56 57  1  0
 57 58  1  0
 58 59  1  0
 59 60  1  0
 60 61  1  0
 61 62  1  0
 62 63  1  0
 63 64  1  0
 64 65  1  0
 65 66  1  0
 66 67  1  0
 67 68  1  0
 68 69  1  0
 69 70  1  0
 70 71  1  0
 71 72  1  0
 72 73  1  0
 73 74  1  0
 74 75  1  0
 75 76  1  0
 76 77  1  0
 77 78  1  0
 78 79  1  0
 79 80  1  0
 80 81  1  0
 81 82  1  0
 82 83  1  0
 83 84  1  0
 84 85  1  0
 85 86  1  0
 86 87  1  0
 87 88  1  0
 88 89  1  0
 89 90  1  0
 90 91  1  0
 91 92  1  0
 92 93  1  0
 93 94  1  0
 94 95  1  0
 95 96  1  0
 96 97  1  0
 97 98  1  0
 98 99  1  0
 99100  1  0
100101  1  0
101102  1  0
102  3  1  0
M  END
>  <Title>  (351) 
idAALSgen7

$$$$

     RDKit          2D

 28 31  0  0  0  0  0  0  0  0999 V2000
   -3.1771   -5.9156    0.0000 C   0  0  0  0  0  0  0  0  0  0  0  0
   -1.9635   -5.0339    0.0000 C   0  0  0  0  0  0  0  0  0  0  0  0
   -0.7500   -5.9156    0.0000 C   0  0  0  0  0  0  0  0  0  0  0  0
    0.7500   -5.9156    0.0000 C   0  0  0  0  0  0  0  0  0  0  0  0
    1.9635   -5.0339    0.0000 C   0  0  0  0  0  0  0  0  0  0  0  0
    2.4271   -3.6073    0.0000 C   0  0  0  0  0  0  0  0  0  0  0  0
    1.9635   -2.1807    0.0000 C   0  0  0  0  0  0  0  0  0  0  0  0
    3.1771   -1.2990    0.0000 C   0  0  0  0  0  0  0  0  0  0  0  0
    3.0203    0.1927    0.0000 O   0  0  0  0  0  0  0  0  0  0  0  0
    4.5474   -1.9091    0.0000 N   0  0  0  0  0  0  0  0  0  0  0  0
    5.7609   -1.0275    0.0000 C   0  0  0  0  0  0  0  0  0  0  0  0
    7.1312   -1.6376    0.0000 N   0  0  0  0  0  0  0  0  0  0  0  0
    8.3447   -0.7559    0.0000 N   0  0  0  0  0  0  0  0  0  0  0  0
    8.1879    0.7359    0.0000 N   0  0  0  0  0  0  0  0  0  0  0  0
    6.8176    1.3460    0.0000 N   0  0  0  0  0  0  0  0  0  0  0  0
    5.6041    0.4643    0.0000 N   0  0  0  0  0  0  0  0  0  0  0  0
    0.7500   -1.2990    0.0000 C   0  0  0  0  0  0  0  0  0  0  0  0
    1.5000    0.0000    0.0000 C   0  0  0  0  0  0  0  0  0  0  0  0
    0.7500    1.2990    0.0000 C   0  0  0  0  0  0  0  0  0  0  0  0
   -0.7500    1.2990    0.0000 C   0  0  0  0  0  0  0  0  0  0  0  0
   -1.5000    0.0000    0.0000 C   0  0  0  0  0  0  0  0  0  0  0  0
   -0.7500   -1.2990    0.0000 C   0  0  0  0  0  0  0  0  0  0  0  0
   -1.9635   -2.1807    0.0000 C   0  0  0  0  0  0  0  0  0  0  0  0
   -2.9672   -1.0660    0.0000 C   0  0  0  0  0  0  0  0  0  0  0  0
   -4.4344   -1.3779    0.0000 C   0  0  0  0  0  0  0  0  0  0  0  0
   -4.8980   -2.8045    0.0000 C   0  0  0  0  0  0  0  0  0  0  0  0
   -3.8943   -3.9192    0.0000 C   0  0  0  0  0  0  0  0  0  0  0  0
   -2.4271   -3.6073    0.0000 C   0  0  0  0  0  0  0  0  0  0  0  0
  1  2  1  0
  2  3  1  0
  3  4  1  0
  4  5  1  0
  5  6  1  0
  6  7  1  0
  7  8  1  0
  8  9  2  0
  8 10  1  0
 10 11  1  0
 11 12  2  0
 12 13  1  0
 13 14  2  0
 14 15  1  0
 15 16  2  0
  7 17  1  0
 17 18  2  0
 18 19  1  0
 19 20  2  0
 20 21  1  0
 21 22  2  0
 22 23  1  0
 23 24  2  0
 24 25  1  0
 25 26  2  0
 26 27  1  0
 27 28  2  0
 28  2  1  0
 16 11  1  0
 22 17  1  0
 28 23  1  0
M  END
>  <Title>  (352) 
idAALTgen7

$$$$

     RDKit          2D

  7  7  0  0  0  0  0  0  0  0999 V2000
    3.0000    0.0000    0.0000 C   0  0  0  0  0  0  0  0  0  0  0  0
    1.5000    0.0000    0.0000 C   0  0  0  0  0  0  0  0  0  0  0  0
    0.7500   -1.2990    0.0000 C   0  0  0  0  0  0  0  0  0  0  0  0
   -0.7500   -1.2990    0.0000 C   0  0  0  0  0  0  0  0  0  0  0  0
   -1.5000    0.0000    0.0000 C   0  0  0  0  0  0  0  0  0  0  0  0
   -0.7500    1.2990    0.0000 C   0  0  0  0  0  0  0  0  0  0  0  0
    0.7500    1.2990    0.0000 C   0  0  0  0  0  0  0  0  0  0  0  0
  1  2  1  0
  2  3  2  0
  3  4  1  0
  4  5  1  0
  5  6  1  0
  6  7  1  0
  7  2  1  0
M  END
>  <Title>  (353) 
idAALUgen7

$$$$

     RDKit          2D

  9  9  0  0  0  0  0  0  0  0999 V2000
    3.0000    0.0000    0.0000 C   0  0  0  0  0  0  0  0  0  0  0  0
    1.5000    0.0000    0.0000 C   0  0  0  0  0  0  0  0  0  0  0  0
    0.7500   -1.2990    0.0000 C   0  0  0  0  0  0  0  0  0  0  0  0
   -0.7500   -1.2990    0.0000 C   0  0  0  0  0  0  0  0  0  0  0  0
   -1.5000    0.0000    0.0000 C   0  0  0  0  0  0  0  0  0  0  0  0
   -3.0000    0.0000    0.0000 C   0  0  0  0  0  0  0  0  0  0  0  0
   -4.5000    0.0000    0.0000 N   0  0  0  0  0  0  0  0  0  0  0  0
   -0.7500    1.2990    0.0000 C   0  0  0  0  0  0  0  0  0  0  0  0
    0.7500    1.2990    0.0000 C   0  0  0  0  0  0  0  0  0  0  0  0
  1  2  1  0
  2  3  1  0
  3  4  2  0
  4  5  1  0
  5  6  1  0
  6  7  3  0
  5  8  1  0
  8  9  1  0
  9  2  1  0
M  END
>  <Title>  (354) 
idAALVgen7

$$$$

     RDKit          2D

  7  7  0  0  0  0  0  0  0  0999 V2000
    3.5260   -1.2990    0.0000 C   0  0  0  0  0  0  0  0  0  0  0  0
    2.7760    0.0000    0.0000 C   0  0  0  0  0  0  0  0  0  0  0  0
    1.2760    0.0000    0.0000 C   0  0  0  0  0  0  0  0  0  0  0  0
    0.3943    1.2135    0.0000 C   0  0  0  0  0  0  0  0  0  0  0  0
   -1.0323    0.7500    0.0000 C   0  0  0  0  0  0  0  0  0  0  0  0
   -1.0323   -0.7500    0.0000 C   0  0  0  0  0  0  0  0  0  0  0  0
    0.3943   -1.2135    0.0000 C   0  0  0  0  0  0  0  0  0  0  0  0
  1  2  1  0
  2  3  1  0
  3  4  2  0
  4  5  1  0
  5  6  1  0
  6  7  1  0
  7  3  1  0
M  END
>  <Title>  (355) 
idAALWgen7

$$$$

     RDKit          2D

 60 63  0  0  0  0  0  0  0  0999 V2000
   -5.7353   -1.1118    0.0000 C   0  0  0  0  0  0  0  0  0  0  0  0
   -5.0719   -2.4571    0.0000 C   0  0  0  0  0  0  0  0  0  0  0  0
   -6.3709   -3.2071    0.0000 C   0  0  0  0  0  0  0  0  0  0  0  0
   -7.5609   -4.1202    0.0000 C   0  0  0  0  0  0  0  0  0  0  0  0
   -8.6216   -5.1809    0.0000 C   0  0  0  0  0  0  0  0  0  0  0  0
   -9.5347   -6.3709    0.0000 C   0  0  0  0  0  0  0  0  0  0  0  0
  -10.2847   -7.6700    0.0000 C   0  0  0  0  0  0  0  0  0  0  0  0
  -10.8588   -9.0558    0.0000 C   0  0  0  0  0  0  0  0  0  0  0  0
  -11.2470  -10.5047    0.0000 C   0  0  0  0  0  0  0  0  0  0  0  0
  -11.4428  -11.9918    0.0000 C   0  0  0  0  0  0  0  0  0  0  0  0
  -11.4428  -13.4918    0.0000 C   0  0  0  0  0  0  0  0  0  0  0  0
  -11.2470  -14.9790    0.0000 C   0  0  0  0  0  0  0  0  0  0  0  0
  -10.8588  -16.4279    0.0000 C   0  0  0  0  0  0  0  0  0  0  0  0
  -10.2847  -17.8137    0.0000 C   0  0  0  0  0  0  0  0  0  0  0  0
   -9.5347  -19.1127    0.0000 C   0  0  0  0  0  0  0  0  0  0  0  0
   -8.6216  -20.3028    0.0000 C   0  0  0  0  0  0  0  0  0  0  0  0
   -7.5609  -21.3634    0.0000 C   0  0  0  0  0  0  0  0  0  0  0  0
   -6.3709  -22.2766    0.0000 C   0  0  0  0  0  0  0  0  0  0  0  0
   -5.0719  -23.0266    0.0000 C   0  0  0  0  0  0  0  0  0  0  0  0
   -3.6861  -23.6006    0.0000 C   0  0  0  0  0  0  0  0  0  0  0  0
   -2.2372  -23.9888    0.0000 C   0  0  0  0  0  0  0  0  0  0  0  0
   -0.7500  -24.1846    0.0000 C   0  0  0  0  0  0  0  0  0  0  0  0
    0.7500  -24.1846    0.0000 C   0  0  0  0  0  0  0  0  0  0  0  0
    2.2372  -23.9888    0.0000 C   0  0  0  0  0  0  0  0  0  0  0  0
    3.6861  -23.6006    0.0000 C   0  0  0  0  0  0  0  0  0  0  0  0
    5.0719  -23.0266    0.0000 C   0  0  0  0  0  0  0  0  0  0  0  0
    6.3709  -22.2766    0.0000 C   0  0  0  0  0  0  0  0  0  0  0  0
    7.5609  -21.3634    0.0000 C   0  0  0  0  0  0  0  0  0  0  0  0
    8.6216  -20.3028    0.0000 C   0  0  0  0  0  0  0  0  0  0  0  0
    9.5347  -19.1127    0.0000 C   0  0  0  0  0  0  0  0  0  0  0  0
   10.2847  -17.8137    0.0000 C   0  0  0  0  0  0  0  0  0  0  0  0
   10.8588  -16.4279    0.0000 C   0  0  0  0  0  0  0  0  0  0  0  0
   11.2470  -14.9790    0.0000 C   0  0  0  0  0  0  0  0  0  0  0  0
   11.4428  -13.4918    0.0000 C   0  0  0  0  0  0  0  0  0  0  0  0
   11.4428  -11.9918    0.0000 C   0  0  0  0  0  0  0  0  0  0  0  0
   11.2470  -10.5047    0.0000 C   0  0  0  0  0  0  0  0  0  0  0  0
   10.8588   -9.0558    0.0000 C   0  0  0  0  0  0  0  0  0  0  0  0
   10.2847   -7.6700    0.0000 C   0  0  0  0  0  0  0  0  0  0  0  0
    9.5347   -6.3709    0.0000 C   0  0  0  0  0  0  0  0  0  0  0  0
    8.6216   -5.1809    0.0000 C   0  0  0  0  0  0  0  0  0  0  0  0
    7.5609   -4.1202    0.0000 C   0  0  0  0  0  0  0  0  0  0  0  0
    6.3709   -3.2071    0.0000 C   0  0  0  0  0  0  0  0  0  0  0  0
    5.0719   -2.4571    0.0000 C   0  0  0  0  0  0  0  0  0  0  0  0
    3.6861   -1.8831    0.0000 C   0  0  0  0  0  0  0  0  0  0  0  0
    3.7646   -3.3810    0.0000 C   0  0  0  0  0  0  0  0  0  0  0  0
    2.3642   -3.9186    0.0000 C   0  0  0  0  0  0  0  0  0  0  0  0
    1.4202   -2.7528    0.0000 C   0  0  0  0  0  0  0  0  0  0  0  0
    2.2372   -1.4948    0.0000 C   0  0  0  0  0  0  0  0  0  0  0  0
    0.7500   -1.2990    0.0000 C   0  0  0  0  0  0  0  0  0  0  0  0
    1.5000    0.0000    0.0000 C   0  0  0  0  0  0  0  0  0  0  0  0
    0.7500    1.2990    0.0000 C   0  0  0  0  0  0  0  0  0  0  0  0
   -0.7500    1.2990    0.0000 C   0  0  0  0  0  0  0  0  0  0  0  0
   -1.5000    0.0000    0.0000 C   0  0  0  0  0  0  0  0  0  0  0  0
   -0.7500   -1.2990    0.0000 C   0  0  0  0  0  0  0  0  0  0  0  0
   -2.2372   -1.4948    0.0000 C   0  0  0  0  0  0  0  0  0  0  0  0
   -1.1765   -2.5555    0.0000 C   0  0  0  0  0  0  0  0  0  0  0  0
   -1.5647   -4.0044    0.0000 C   0  0  0  0  0  0  0  0  0  0  0  0
   -3.0136   -4.3926    0.0000 C   0  0  0  0  0  0  0  0  0  0  0  0
   -4.0743   -3.3319    0.0000 C   0  0  0  0  0  0  0  0  0  0  0  0
   -3.6861   -1.8831    0.0000 C   0  0  0  0  0  0  0  0  0  0  0  0
  1  2  1  0
  2  3  1  0
  3  4  1  0
  4  5  1  0
  5  6  1  0
  6  7  1  0
  7  8  1  0
  8  9  1  0
  9 10  1  0
 10 11  1  0
 11 12  1  0
 12 13  1  0
 13 14  1  0
 14 15  1  0
 15 16  1  0
 16 17  1  0
 17 18  1  0
 18 19  1  0
 19 20  1  0
 20 21  1  0
 21 22  1  0
 22 23  1  0
 23 24  1  0
 24 25  1  0
 25 26  1  0
 26 27  1  0
 27 28  1  0
 28 29  1  0
 29 30  1  0
 30 31  1  0
 31 32  1  0
 32 33  1  0
 33 34  2  0
 34 35  1  0
 35 36  2  0
 36 37  1  0
 37 38  2  0
 38 39  1  0
 39 40  2  0
 40 41  1  0
 41 42  2  0
 42 43  1  0
 43 44  2  0
 44 45  1  0
 45 46  2  0
 46 47  1  0
 47 48  2  0
 48 49  1  0
 49 50  2  0
 50 51  1  0
 51 52  2  0
 52 53  1  0
 53 54  2  0
 54 55  1  0
 55 56  2  0
 56 57  1  0
 57 58  2  0
 58 59  1  0
 59 60  2  0
 60  2  1  0
 48 44  1  0
 54 49  1  0
 60 55  1  0
M  END
>  <Title>  (356) 
idAALXgen7

$$$$

     RDKit          2D

 15 16  0  0  0  0  0  0  0  0999 V2000
    1.8478   -9.0619    0.0000 C   0  0  0  0  0  0  0  0  0  0  0  0
    2.0046   -7.5702    0.0000 C   0  0  0  0  0  0  0  0  0  0  0  0
    3.3037   -6.8202    0.0000 C   0  0  0  0  0  0  0  0  0  0  0  0
    2.9918   -5.3529    0.0000 C   0  0  0  0  0  0  0  0  0  0  0  0
    1.5000   -5.1962    0.0000 C   0  0  0  0  0  0  0  0  0  0  0  0
    0.7500   -3.8971    0.0000 C   0  0  0  0  0  0  0  0  0  0  0  0
   -0.7500   -3.8971    0.0000 O   0  0  0  0  0  0  0  0  0  0  0  0
    1.5000   -2.5981    0.0000 N   0  0  0  0  0  0  0  0  0  0  0  0
    0.7500   -1.2990    0.0000 C   0  0  0  0  0  0  0  0  0  0  0  0
    1.5000    0.0000    0.0000 C   0  0  0  0  0  0  0  0  0  0  0  0
    0.7500    1.2990    0.0000 C   0  0  0  0  0  0  0  0  0  0  0  0
   -0.7500    1.2990    0.0000 C   0  0  0  0  0  0  0  0  0  0  0  0
   -1.5000    0.0000    0.0000 C   0  0  0  0  0  0  0  0  0  0  0  0
   -0.7500   -1.2990    0.0000 C   0  0  0  0  0  0  0  0  0  0  0  0
    0.8899   -6.5665    0.0000 C   0  0  0  0  0  0  0  0  0  0  0  0
  1  2  1  0
  2  3  1  0
  3  4  1  0
  4  5  1  0
  5  6  1  0
  6  7  2  0
  6  8  1  0
  8  9  1  0
  9 10  2  0
 10 11  1  0
 11 12  2  0
 12 13  1  0
 13 14  2  0
  5 15  1  0
 15  2  1  0
 14  9  1  0
M  END
>  <Title>  (357) 
idAALYgen7

$$$$

     RDKit          2D

121121  0  0  0  0  0  0  0  0999 V2000
   30.1512    0.0000    0.0000 C   0  0  0  0  0  0  0  0  0  0  0  0
   28.6512    0.0000    0.0000 C   0  0  0  0  0  0  0  0  0  0  0  0
   28.6119   -1.4995    0.0000 C   0  0  0  0  0  0  0  0  0  0  0  0
   28.4942   -2.9949    0.0000 C   0  0  0  0  0  0  0  0  0  0  0  0
   28.2984   -4.4820    0.0000 C   0  0  0  0  0  0  0  0  0  0  0  0
   28.0251   -5.9569    0.0000 C   0  0  0  0  0  0  0  0  0  0  0  0
   27.6749   -7.4155    0.0000 C   0  0  0  0  0  0  0  0  0  0  0  0
   27.2489   -8.8537    0.0000 C   0  0  0  0  0  0  0  0  0  0  0  0
   26.7482  -10.2677    0.0000 C   0  0  0  0  0  0  0  0  0  0  0  0
   26.1741  -11.6535    0.0000 C   0  0  0  0  0  0  0  0  0  0  0  0
   25.5284  -13.0074    0.0000 C   0  0  0  0  0  0  0  0  0  0  0  0
   24.8126  -14.3256    0.0000 C   0  0  0  0  0  0  0  0  0  0  0  0
   24.0289  -15.6045    0.0000 C   0  0  0  0  0  0  0  0  0  0  0  0
   23.1793  -16.8407    0.0000 C   0  0  0  0  0  0  0  0  0  0  0  0
   22.2661  -18.0308    0.0000 C   0  0  0  0  0  0  0  0  0  0  0  0
   21.2920  -19.1714    0.0000 C   0  0  0  0  0  0  0  0  0  0  0  0
   20.2594  -20.2594    0.0000 C   0  0  0  0  0  0  0  0  0  0  0  0
   19.1714  -21.2920    0.0000 C   0  0  0  0  0  0  0  0  0  0  0  0
   18.0308  -22.2661    0.0000 C   0  0  0  0  0  0  0  0  0  0  0  0
   16.8407  -23.1793    0.0000 C   0  0  0  0  0  0  0  0  0  0  0  0
   15.6045  -24.0289    0.0000 C   0  0  0  0  0  0  0  0  0  0  0  0
   14.3256  -24.8126    0.0000 C   0  0  0  0  0  0  0  0  0  0  0  0
   13.0074  -25.5284    0.0000 C   0  0  0  0  0  0  0  0  0  0  0  0
   11.6535  -26.1741    0.0000 C   0  0  0  0  0  0  0  0  0  0  0  0
   10.2677  -26.7482    0.0000 C   0  0  0  0  0  0  0  0  0  0  0  0
    8.8537  -27.2489    0.0000 C   0  0  0  0  0  0  0  0  0  0  0  0
    7.4155  -27.6749    0.0000 C   0  0  0  0  0  0  0  0  0  0  0  0
    5.9569  -28.0251    0.0000 C   0  0  0  0  0  0  0  0  0  0  0  0
    4.4820  -28.2984    0.0000 C   0  0  0  0  0  0  0  0  0  0  0  0
    2.9949  -28.4942    0.0000 C   0  0  0  0  0  0  0  0  0  0  0  0
    1.4995  -28.6119    0.0000 C   0  0  0  0  0  0  0  0  0  0  0  0
   -0.0000  -28.6512    0.0000 C   0  0  0  0  0  0  0  0  0  0  0  0
   -1.4995  -28.6119    0.0000 C   0  0  0  0  0  0  0  0  0  0  0  0
   -2.9949  -28.4942    0.0000 C   0  0  0  0  0  0  0  0  0  0  0  0
   -4.4820  -28.2984    0.0000 C   0  0  0  0  0  0  0  0  0  0  0  0
   -5.9569  -28.0251    0.0000 C   0  0  0  0  0  0  0  0  0  0  0  0
   -7.4155  -27.6749    0.0000 C   0  0  0  0  0  0  0  0  0  0  0  0
   -8.8537  -27.2489    0.0000 C   0  0  0  0  0  0  0  0  0  0  0  0
  -10.2677  -26.7482    0.0000 C   0  0  0  0  0  0  0  0  0  0  0  0
  -11.6535  -26.1741    0.0000 C   0  0  0  0  0  0  0  0  0  0  0  0
  -13.0074  -25.5284    0.0000 C   0  0  0  0  0  0  0  0  0  0  0  0
  -14.3256  -24.8126    0.0000 C   0  0  0  0  0  0  0  0  0  0  0  0
  -15.6045  -24.0289    0.0000 C   0  0  0  0  0  0  0  0  0  0  0  0
  -16.8407  -23.1793    0.0000 C   0  0  0  0  0  0  0  0  0  0  0  0
  -18.0308  -22.2661    0.0000 C   0  0  0  0  0  0  0  0  0  0  0  0
  -19.1714  -21.2920    0.0000 C   0  0  0  0  0  0  0  0  0  0  0  0
  -20.2594  -20.2594    0.0000 C   0  0  0  0  0  0  0  0  0  0  0  0
  -21.2920  -19.1714    0.0000 C   0  0  0  0  0  0  0  0  0  0  0  0
  -22.2661  -18.0308    0.0000 C   0  0  0  0  0  0  0  0  0  0  0  0
  -23.1793  -16.8407    0.0000 C   0  0  0  0  0  0  0  0  0  0  0  0
  -24.0289  -15.6045    0.0000 C   0  0  0  0  0  0  0  0  0  0  0  0
  -24.8126  -14.3256    0.0000 C   0  0  0  0  0  0  0  0  0  0  0  0
  -25.5284  -13.0074    0.0000 C   0  0  0  0  0  0  0  0  0  0  0  0
  -26.1741  -11.6535    0.0000 C   0  0  0  0  0  0  0  0  0  0  0  0
  -26.7482  -10.2677    0.0000 C   0  0  0  0  0  0  0  0  0  0  0  0
  -27.2489   -8.8537    0.0000 C   0  0  0  0  0  0  0  0  0  0  0  0
  -27.6749   -7.4155    0.0000 C   0  0  0  0  0  0  0  0  0  0  0  0
  -28.0251   -5.9569    0.0000 C   0  0  0  0  0  0  0  0  0  0  0  0
  -28.2984   -4.4820    0.0000 C   0  0  0  0  0  0  0  0  0  0  0  0
  -28.4942   -2.9949    0.0000 C   0  0  0  0  0  0  0  0  0  0  0  0
  -28.6119   -1.4995    0.0000 C   0  0  0  0  0  0  0  0  0  0  0  0
  -28.6512    0.0000    0.0000 C   0  0  0  0  0  0  0  0  0  0  0  0
  -28.6119    1.4995    0.0000 C   0  0  0  0  0  0  0  0  0  0  0  0
  -28.4942    2.9949    0.0000 C   0  0  0  0  0  0  0  0  0  0  0  0
  -28.2984    4.4820    0.0000 C   0  0  0  0  0  0  0  0  0  0  0  0
  -28.0251    5.9569    0.0000 C   0  0  0  0  0  0  0  0  0  0  0  0
  -27.6749    7.4155    0.0000 C   0  0  0  0  0  0  0  0  0  0  0  0
  -27.2489    8.8537    0.0000 C   0  0  0  0  0  0  0  0  0  0  0  0
  -26.7482   10.2677    0.0000 C   0  0  0  0  0  0  0  0  0  0  0  0
  -26.1741   11.6535    0.0000 C   0  0  0  0  0  0  0  0  0  0  0  0
  -25.5284   13.0074    0.0000 C   0  0  0  0  0  0  0  0  0  0  0  0
  -24.8126   14.3256    0.0000 C   0  0  0  0  0  0  0  0  0  0  0  0
  -24.0289   15.6045    0.0000 C   0  0  0  0  0  0  0  0  0  0  0  0
  -23.1793   16.8407    0.0000 C   0  0  0  0  0  0  0  0  0  0  0  0
  -22.2661   18.0308    0.0000 C   0  0  0  0  0  0  0  0  0  0  0  0
  -21.2920   19.1714    0.0000 C   0  0  0  0  0  0  0  0  0  0  0  0
  -20.2594   20.2594    0.0000 C   0  0  0  0  0  0  0  0  0  0  0  0
  -19.1714   21.2920    0.0000 C   0  0  0  0  0  0  0  0  0  0  0  0
  -18.0308   22.2661    0.0000 C   0  0  0  0  0  0  0  0  0  0  0  0
  -16.8407   23.1793    0.0000 C   0  0  0  0  0  0  0  0  0  0  0  0
  -15.6045   24.0289    0.0000 C   0  0  0  0  0  0  0  0  0  0  0  0
  -14.3256   24.8126    0.0000 C   0  0  0  0  0  0  0  0  0  0  0  0
  -13.0074   25.5284    0.0000 C   0  0  0  0  0  0  0  0  0  0  0  0
  -11.6535   26.1741    0.0000 C   0  0  0  0  0  0  0  0  0  0  0  0
  -10.2677   26.7482    0.0000 C   0  0  0  0  0  0  0  0  0  0  0  0
   -8.8537   27.2489    0.0000 C   0  0  0  0  0  0  0  0  0  0  0  0
   -7.4155   27.6749    0.0000 C   0  0  0  0  0  0  0  0  0  0  0  0
   -5.9569   28.0251    0.0000 C   0  0  0  0  0  0  0  0  0  0  0  0
   -4.4820   28.2984    0.0000 C   0  0  0  0  0  0  0  0  0  0  0  0
   -2.9949   28.4942    0.0000 C   0  0  0  0  0  0  0  0  0  0  0  0
   -1.4995   28.6119    0.0000 C   0  0  0  0  0  0  0  0  0  0  0  0
    0.0000   28.6512    0.0000 C   0  0  0  0  0  0  0  0  0  0  0  0
    1.4995   28.6119    0.0000 C   0  0  0  0  0  0  0  0  0  0  0  0
    2.9949   28.4942    0.0000 C   0  0  0  0  0  0  0  0  0  0  0  0
    4.4820   28.2984    0.0000 C   0  0  0  0  0  0  0  0  0  0  0  0
    5.9569   28.0251    0.0000 C   0  0  0  0  0  0  0  0  0  0  0  0
    7.4155   27.6749    0.0000 C   0  0  0  0  0  0  0  0  0  0  0  0
    8.8537   27.2489    0.0000 C   0  0  0  0  0  0  0  0  0  0  0  0
   10.2677   26.7482    0.0000 C   0  0  0  0  0  0  0  0  0  0  0  0
   11.6535   26.1741    0.0000 C   0  0  0  0  0  0  0  0  0  0  0  0
   13.0074   25.5284    0.0000 C   0  0  0  0  0  0  0  0  0  0  0  0
   14.3256   24.8126    0.0000 C   0  0  0  0  0  0  0  0  0  0  0  0
   15.6045   24.0289    0.0000 C   0  0  0  0  0  0  0  0  0  0  0  0
   16.8407   23.1793    0.0000 C   0  0  0  0  0  0  0  0  0  0  0  0
   18.0308   22.2661    0.0000 C   0  0  0  0  0  0  0  0  0  0  0  0
   19.1714   21.2920    0.0000 C   0  0  0  0  0  0  0  0  0  0  0  0
   20.2594   20.2594    0.0000 C   0  0  0  0  0  0  0  0  0  0  0  0
   21.2920   19.1714    0.0000 C   0  0  0  0  0  0  0  0  0  0  0  0
   22.2661   18.0308    0.0000 C   0  0  0  0  0  0  0  0  0  0  0  0
   23.1793   16.8407    0.0000 C   0  0  0  0  0  0  0  0  0  0  0  0
   24.0289   15.6045    0.0000 C   0  0  0  0  0  0  0  0  0  0  0  0
   24.8126   14.3256    0.0000 C   0  0  0  0  0  0  0  0  0  0  0  0
   25.5284   13.0074    0.0000 C   0  0  0  0  0  0  0  0  0  0  0  0
   26.1741   11.6535    0.0000 C   0  0  0  0  0  0  0  0  0  0  0  0
   26.7482   10.2677    0.0000 C   0  0  0  0  0  0  0  0  0  0  0  0
   27.2489    8.8537    0.0000 C   0  0  0  0  0  0  0  0  0  0  0  0
   27.6749    7.4155    0.0000 C   0  0  0  0  0  0  0  0  0  0  0  0
   28.0251    5.9569    0.0000 C   0  0  0  0  0  0  0  0  0  0  0  0
   28.2984    4.4820    0.0000 C   0  0  0  0  0  0  0  0  0  0  0  0
   28.4942    2.9949    0.0000 C   0  0  0  0  0  0  0  0  0  0  0  0
   28.6119    1.4995    0.0000 C   0  0  0  0  0  0  0  0  0  0  0  0
  1  2  1  0
  2  3  1  0
  3  4  1  0
  4  5  1  0
  5  6  1  0
  6  7  1  0
  7  8  1  0
  8  9  1  0
  9 10  1  0
 10 11  1  0
 11 12  1  0
 12 13  1  0
 13 14  1  0
 14 15  1  0
 15 16  1  0
 16 17  1  0
 17 18  2  0
 18 19  1  0
 19 20  1  0
 20 21  1  0
 21 22  1  0
 22 23  1  0
 23 24  1  0
 24 25  1  0
 25 26  1  0
 26 27  1  0
 27 28  1  0
 28 29  1  0
 29 30  1  0
 30 31  1  0
 31 32  1  0
 32 33  1  0
 33 34  1  0
 34 35  1  0
 35 36  1  0
 36 37  1  0
 37 38  1  0
 38 39  1  0
 39 40  1  0
 40 41  1  0
 41 42  1  0
 42 43  1  0
 43 44  1  0
 44 45  1  0
 45 46  1  0
 46 47  1  0
 47 48  1  0
 48 49  1  0
 49 50  1  0
 50 51  1  0
 51 52  1  0
 52 53  1  0
 53 54  1  0
 54 55  1  0
 55 56  1  0
 56 57  1  0
 57 58  1  0
 58 59  1  0
 59 60  1  0
 60 61  1  0
 61 62  1  0
 62 63  1  0
 63 64  1  0
 64 65  1  0
 65 66  1  0
 66 67  1  0
 67 68  1  0
 68 69  1  0
 69 70  1  0
 70 71  1  0
 71 72  1  0
 72 73  1  0
 73 74  1  0
 74 75  1  0
 75 76  1  0
 76 77  1  0
 77 78  1  0
 78 79  1  0
 79 80  1  0
 80 81  1  0
 81 82  1  0
 82 83  1  0
 83 84  1  0
 84 85  1  0
 85 86  1  0
 86 87  1  0
 87 88  1  0
 88 89  1  0
 89 90  1  0
 90 91  1  0
 91 92  1  0
 92 93  1  0
 93 94  1  0
 94 95  1  0
 95 96  1  0
 96 97  1  0
 97 98  1  0
 98 99  1  0
 99100  1  0
100101  1  0
101102  1  0
102103  1  0
103104  1  0
104105  1  0
105106  1  0
106107  1  0
107108  1  0
108109  1  0
109110  1  0
110111  1  0
111112  1  0
112113  1  0
113114  1  0
114115  1  0
115116  1  0
116117  1  0
117118  1  0
118119  1  0
119120  1  0
120121  1  0
121  2  1  0
M  END
>  <Title>  (358) 
idAALZgen7

$$$$

     RDKit          2D

 29 32  0  0  0  0  0  0  0  0999 V2000
   -3.7860   -5.5823    0.0000 C   0  0  0  0  0  0  0  0  0  0  0  0
   -2.4215   -4.9592    0.0000 C   0  0  0  0  0  0  0  0  0  0  0  0
   -1.4392   -6.0928    0.0000 C   0  0  0  0  0  0  0  0  0  0  0  0
   -0.0000   -6.5154    0.0000 C   0  0  0  0  0  0  0  0  0  0  0  0
    1.4392   -6.0928    0.0000 C   0  0  0  0  0  0  0  0  0  0  0  0
    2.4215   -4.9592    0.0000 C   0  0  0  0  0  0  0  0  0  0  0  0
    2.6350   -3.4744    0.0000 C   0  0  0  0  0  0  0  0  0  0  0  0
    2.0119   -2.1100    0.0000 C   0  0  0  0  0  0  0  0  0  0  0  0
    3.1455   -1.1277    0.0000 C   0  0  0  0  0  0  0  0  0  0  0  0
    2.8616    0.3452    0.0000 O   0  0  0  0  0  0  0  0  0  0  0  0
    4.5630   -1.6183    0.0000 N   0  0  0  0  0  0  0  0  0  0  0  0
    5.6966   -0.6360    0.0000 C   0  0  0  0  0  0  0  0  0  0  0  0
    7.1141   -1.1266    0.0000 N   0  0  0  0  0  0  0  0  0  0  0  0
    8.2478   -0.1443    0.0000 N   0  0  0  0  0  0  0  0  0  0  0  0
    7.9639    1.3286    0.0000 N   0  0  0  0  0  0  0  0  0  0  0  0
    6.5464    1.8192    0.0000 N   0  0  0  0  0  0  0  0  0  0  0  0
    5.4128    0.8369    0.0000 N   0  0  0  0  0  0  0  0  0  0  0  0
    0.7500   -1.2990    0.0000 C   0  0  0  0  0  0  0  0  0  0  0  0
    1.5000    0.0000    0.0000 C   0  0  0  0  0  0  0  0  0  0  0  0
    0.7500    1.2990    0.0000 C   0  0  0  0  0  0  0  0  0  0  0  0
   -0.7500    1.2990    0.0000 C   0  0  0  0  0  0  0  0  0  0  0  0
   -1.5000    0.0000    0.0000 C   0  0  0  0  0  0  0  0  0  0  0  0
   -0.7500   -1.2990    0.0000 C   0  0  0  0  0  0  0  0  0  0  0  0
   -2.0119   -2.1100    0.0000 C   0  0  0  0  0  0  0  0  0  0  0  0
   -2.8820   -0.8881    0.0000 C   0  0  0  0  0  0  0  0  0  0  0  0
   -4.3752   -1.0307    0.0000 C   0  0  0  0  0  0  0  0  0  0  0  0
   -4.9983   -2.3952    0.0000 C   0  0  0  0  0  0  0  0  0  0  0  0
   -4.1282   -3.6170    0.0000 C   0  0  0  0  0  0  0  0  0  0  0  0
   -2.6350   -3.4744    0.0000 C   0  0  0  0  0  0  0  0  0  0  0  0
  1  2  1  0
  2  3  1  0
  3  4  1  0
  4  5  1  0
  5  6  1  0
  6  7  1  0
  7  8  1  0
  8  9  1  0
  9 10  2  0
  9 11  1  0
 11 12  1  0
 12 13  2  0
 13 14  1  0
 14 15  2  0
 15 16  1  0
 16 17  2  0
  8 18  1  0
 18 19  2  0
 19 20  1  0
 20 21  2  0
 21 22  1  0
 22 23  2  0
 23 24  1  0
 24 25  2  0
 25 26  1  0
 26 27  2  0
 27 28  1  0
 28 29  2  0
 29  2  1  0
 17 12  1  0
 23 18  1  0
 29 24  1  0
M  END
>  <Title>  (359) 
idAAMAgen7

$$$$

     RDKit          2D

 56 56  0  0  0  0  0  0  0  0999 V2000
   14.6374    0.0000    0.0000 C   0  0  0  0  0  0  0  0  0  0  0  0
   13.1374    0.0000    0.0000 C   0  0  0  0  0  0  0  0  0  0  0  0
   13.0518    1.4976    0.0000 C   0  0  0  0  0  0  0  0  0  0  0  0
   12.7960    2.9756    0.0000 C   0  0  0  0  0  0  0  0  0  0  0  0
   12.3734    4.4148    0.0000 C   0  0  0  0  0  0  0  0  0  0  0  0
   11.7895    5.7965    0.0000 C   0  0  0  0  0  0  0  0  0  0  0  0
   11.0519    7.1026    0.0000 C   0  0  0  0  0  0  0  0  0  0  0  0
   10.1702    8.3162    0.0000 C   0  0  0  0  0  0  0  0  0  0  0  0
    9.1560    9.4213    0.0000 C   0  0  0  0  0  0  0  0  0  0  0  0
    8.0223   10.4036    0.0000 C   0  0  0  0  0  0  0  0  0  0  0  0
    6.7841   11.2502    0.0000 C   0  0  0  0  0  0  0  0  0  0  0  0
    5.4575   11.9502    0.0000 C   0  0  0  0  0  0  0  0  0  0  0  0
    4.0597   12.4944    0.0000 C   0  0  0  0  0  0  0  0  0  0  0  0
    2.6090   12.8758    0.0000 C   0  0  0  0  0  0  0  0  0  0  0  0
    1.1242   13.0892    0.0000 C   0  0  0  0  0  0  0  0  0  0  0  0
   -0.3752   13.1321    0.0000 C   0  0  0  0  0  0  0  0  0  0  0  0
   -1.8697   13.0037    0.0000 C   0  0  0  0  0  0  0  0  0  0  0  0
   -3.3398   12.7058    0.0000 C   0  0  0  0  0  0  0  0  0  0  0  0
   -4.7664   12.2423    0.0000 C   0  0  0  0  0  0  0  0  0  0  0  0
   -6.1308   11.6192    0.0000 C   0  0  0  0  0  0  0  0  0  0  0  0
   -7.4153   10.8446    0.0000 C   0  0  0  0  0  0  0  0  0  0  0  0
   -8.6032    9.9286    0.0000 C   0  0  0  0  0  0  0  0  0  0  0  0
   -9.6789    8.8832    0.0000 C   0  0  0  0  0  0  0  0  0  0  0  0
  -10.6284    7.7220    0.0000 C   0  0  0  0  0  0  0  0  0  0  0  0
  -11.4394    6.4601    0.0000 C   0  0  0  0  0  0  0  0  0  0  0  0
  -12.1012    5.1140    0.0000 C   0  0  0  0  0  0  0  0  0  0  0  0
  -12.6053    3.7012    0.0000 C   0  0  0  0  0  0  0  0  0  0  0  0
  -12.9450    2.2402    0.0000 C   0  0  0  0  0  0  0  0  0  0  0  0
  -13.1160    0.7500    0.0000 C   0  0  0  0  0  0  0  0  0  0  0  0
  -13.1160   -0.7500    0.0000 C   0  0  0  0  0  0  0  0  0  0  0  0
  -12.9450   -2.2402    0.0000 C   0  0  0  0  0  0  0  0  0  0  0  0
  -12.6053   -3.7012    0.0000 C   0  0  0  0  0  0  0  0  0  0  0  0
  -12.1012   -5.1140    0.0000 C   0  0  0  0  0  0  0  0  0  0  0  0
  -11.4394   -6.4601    0.0000 C   0  0  0  0  0  0  0  0  0  0  0  0
  -10.6284   -7.7220    0.0000 C   0  0  0  0  0  0  0  0  0  0  0  0
   -9.6789   -8.8832    0.0000 C   0  0  0  0  0  0  0  0  0  0  0  0
   -8.6032   -9.9286    0.0000 C   0  0  0  0  0  0  0  0  0  0  0  0
   -7.4153  -10.8446    0.0000 C   0  0  0  0  0  0  0  0  0  0  0  0
   -6.1308  -11.6192    0.0000 C   0  0  0  0  0  0  0  0  0  0  0  0
   -4.7664  -12.2423    0.0000 C   0  0  0  0  0  0  0  0  0  0  0  0
   -3.3398  -12.7058    0.0000 C   0  0  0  0  0  0  0  0  0  0  0  0
   -1.8697  -13.0037    0.0000 C   0  0  0  0  0  0  0  0  0  0  0  0
   -0.3752  -13.1321    0.0000 C   0  0  0  0  0  0  0  0  0  0  0  0
    1.1242  -13.0892    0.0000 C   0  0  0  0  0  0  0  0  0  0  0  0
    2.6090  -12.8758    0.0000 C   0  0  0  0  0  0  0  0  0  0  0  0
    4.0597  -12.4944    0.0000 C   0  0  0  0  0  0  0  0  0  0  0  0
    5.4575  -11.9502    0.0000 C   0  0  0  0  0  0  0  0  0  0  0  0
    6.7841  -11.2502    0.0000 C   0  0  0  0  0  0  0  0  0  0  0  0
    8.0223  -10.4036    0.0000 C   0  0  0  0  0  0  0  0  0  0  0  0
    9.1560   -9.4213    0.0000 C   0  0  0  0  0  0  0  0  0  0  0  0
   10.1702   -8.3162    0.0000 C   0  0  0  0  0  0  0  0  0  0  0  0
   11.0519   -7.1026    0.0000 C   0  0  0  0  0  0  0  0  0  0  0  0
   11.7895   -5.7965    0.0000 C   0  0  0  0  0  0  0  0  0  0  0  0
   12.3734   -4.4148    0.0000 C   0  0  0  0  0  0  0  0  0  0  0  0
   12.7960   -2.9756    0.0000 C   0  0  0  0  0  0  0  0  0  0  0  0
   13.0518   -1.4976    0.0000 C   0  0  0  0  0  0  0  0  0  0  0  0
  1  2  1  0
  2  3  1  0
  3  4  1  0
  4  5  2  0
  5  6  1  0
  6  7  1  0
  7  8  1  0
  8  9  1  0
  9 10  1  0
 10 11  1  0
 11 12  1  0
 12 13  1  0
 13 14  1  0
 14 15  1  0
 15 16  1  0
 16 17  1  0
 17 18  1  0
 18 19  1  0
 19 20  1  0
 20 21  1  0
 21 22  1  0
 22 23  1  0
 23 24  1  0
 24 25  1  0
 25 26  1  0
 26 27  1  0
 27 28  1  0
 28 29  1  0
 29 30  1  0
 30 31  1  0
 31 32  1  0
 32 33  1  0
 33 34  1  0
 34 35  1  0
 35 36  1  0
 36 37  1  0
 37 38  1  0
 38 39  1  0
 39 40  1  0
 40 41  1  0
 41 42  1  0
 42 43  1  0
 43 44  1  0
 44 45  1  0
 45 46  1  0
 46 47  1  0
 47 48  1  0
 48 49  1  0
 49 50  1  0
 50 51  1  0
 51 52  1  0
 52 53  1  0
 53 54  1  0
 54 55  1  0
 55 56  1  0
 56  2  1  0
M  END
>  <Title>  (360) 
idAAMBgen7

$$$$

     RDKit          2D

 10 10  0  0  0  0  0  0  0  0999 V2000
    2.7760    0.0000    0.0000 C   0  0  0  0  0  0  0  0  0  0  0  0
    1.2760    0.0000    0.0000 C   0  0  0  0  0  0  0  0  0  0  0  0
    0.3943    1.2135    0.0000 C   0  0  0  0  0  0  0  0  0  0  0  0
   -1.0323    0.7500    0.0000 C   0  0  0  0  0  0  0  0  0  0  0  0
   -1.0323   -0.7500    0.0000 C   0  0  0  0  0  0  0  0  0  0  0  0
   -2.2458   -1.6317    0.0000 C   0  0  0  0  0  0  0  0  0  0  0  0
   -3.6161   -1.0216    0.0000 N   0  0  0  0  0  0  0  0  0  0  0  0
   -2.0890   -3.1235    0.0000 O   0  0  0  0  0  0  0  0  0  0  0  0
    0.3943   -1.2135    0.0000 C   0  0  0  0  0  0  0  0  0  0  0  0
    0.8578   -2.6401    0.0000 O   0  0  0  0  0  0  0  0  0  0  0  0
  1  2  1  0
  2  3  1  0
  3  4  1  0
  4  5  1  0
  5  6  1  0
  6  7  1  0
  6  8  2  0
  5  9  1  0
  9 10  2  0
  9  2  1  0
M  END
>  <Title>  (361) 
idAAMCgen7

$$$$

     RDKit          2D

 16 17  0  0  0  0  0  0  0  0999 V2000
    3.0000    0.0000    0.0000 C   0  0  0  0  0  0  0  0  0  0  0  0
    1.5000    0.0000    0.0000 C   0  0  0  0  0  0  0  0  0  0  0  0
    0.7500   -1.2990    0.0000 C   0  0  0  0  0  0  0  0  0  0  0  0
   -0.7500   -1.2990    0.0000 C   0  0  0  0  0  0  0  0  0  0  0  0
   -1.5000    0.0000    0.0000 C   0  0  0  0  0  0  0  0  0  0  0  0
   -3.0000    0.0000    0.0000 C   0  0  0  0  0  0  0  0  0  0  0  0
   -3.7500   -1.2990    0.0000 O   0  0  0  0  0  0  0  0  0  0  0  0
   -3.7500    1.2990    0.0000 N   0  0  0  0  0  0  0  0  0  0  0  0
   -5.2500    1.2990    0.0000 C   0  0  0  0  0  0  0  0  0  0  0  0
   -6.0000    2.5981    0.0000 N   0  0  0  0  0  0  0  0  0  0  0  0
   -7.5000    2.5981    0.0000 N   0  0  0  0  0  0  0  0  0  0  0  0
   -8.2500    1.2990    0.0000 N   0  0  0  0  0  0  0  0  0  0  0  0
   -7.5000    0.0000    0.0000 N   0  0  0  0  0  0  0  0  0  0  0  0
   -6.0000    0.0000    0.0000 N   0  0  0  0  0  0  0  0  0  0  0  0
   -0.7500    1.2990    0.0000 C   0  0  0  0  0  0  0  0  0  0  0  0
    0.7500    1.2990    0.0000 C   0  0  0  0  0  0  0  0  0  0  0  0
  1  2  1  0
  2  3  2  0
  3  4  1  0
  4  5  1  0
  5  6  1  0
  6  7  2  0
  6  8  1  0
  8  9  1  0
  9 10  2  0
 10 11  1  0
 11 12  2  0
 12 13  1  0
 13 14  2  0
  5 15  1  0
 15 16  1  0
 16  2  1  0
 14  9  1  0
M  END
>  <Title>  (362) 
idAAMDgen7

$$$$

     RDKit          2D

  6  6  0  0  0  0  0  0  0  0999 V2000
    2.7760    0.0000    0.0000 O   0  0  0  0  0  0  0  0  0  0  0  0
    1.2760    0.0000    0.0000 C   0  0  0  0  0  0  0  0  0  0  0  0
    0.3943    1.2135    0.0000 C   0  0  0  0  0  0  0  0  0  0  0  0
   -1.0323    0.7500    0.0000 C   0  0  0  0  0  0  0  0  0  0  0  0
   -1.0323   -0.7500    0.0000 N   0  0  0  0  0  0  0  0  0  0  0  0
    0.3943   -1.2135    0.0000 C   0  0  0  0  0  0  0  0  0  0  0  0
  1  2  1  0
  2  3  2  0
  3  4  1  0
  4  5  1  0
  5  6  1  0
  6  2  1  0
M  END
>  <Title>  (363) 
idAAMEgen7

$$$$

     RDKit          2D

 21 21  0  0  0  0  0  0  0  0999 V2000
   10.0816    0.0000    0.0000 C   0  0  0  0  0  0  0  0  0  0  0  0
    8.5816    0.0000    0.0000 C   0  0  0  0  0  0  0  0  0  0  0  0
    7.0816    0.0000    0.0000 C   0  0  0  0  0  0  0  0  0  0  0  0
    5.5816    0.0000    0.0000 C   0  0  0  0  0  0  0  0  0  0  0  0
    4.0816    0.0000    0.0000 C   0  0  0  0  0  0  0  0  0  0  0  0
    3.8060    1.4745    0.0000 C   0  0  0  0  0  0  0  0  0  0  0  0
    3.0164    2.7498    0.0000 C   0  0  0  0  0  0  0  0  0  0  0  0
    1.8193    3.6537    0.0000 C   0  0  0  0  0  0  0  0  0  0  0  0
    0.3766    4.0642    0.0000 C   0  0  0  0  0  0  0  0  0  0  0  0
   -1.1170    3.9258    0.0000 C   0  0  0  0  0  0  0  0  0  0  0  0
   -2.4597    3.2572    0.0000 C   0  0  0  0  0  0  0  0  0  0  0  0
   -3.4703    2.1487    0.0000 C   0  0  0  0  0  0  0  0  0  0  0  0
   -4.0121    0.7500    0.0000 C   0  0  0  0  0  0  0  0  0  0  0  0
   -4.0121   -0.7500    0.0000 C   0  0  0  0  0  0  0  0  0  0  0  0
   -3.4703   -2.1487    0.0000 C   0  0  0  0  0  0  0  0  0  0  0  0
   -2.4597   -3.2572    0.0000 C   0  0  0  0  0  0  0  0  0  0  0  0
   -1.1170   -3.9258    0.0000 C   0  0  0  0  0  0  0  0  0  0  0  0
    0.3766   -4.0642    0.0000 C   0  0  0  0  0  0  0  0  0  0  0  0
    1.8193   -3.6537    0.0000 C   0  0  0  0  0  0  0  0  0  0  0  0
    3.0164   -2.7498    0.0000 C   0  0  0  0  0  0  0  0  0  0  0  0
    3.8060   -1.4745    0.0000 C   0  0  0  0  0  0  0  0  0  0  0  0
  1  2  3  0
  2  3  1  0
  3  4  3  0
  4  5  1  0
  5  6  1  0
  6  7  1  0
  7  8  1  0
  8  9  1  0
  9 10  1  0
 10 11  1  0
 11 12  1  0
 12 13  1  0
 13 14  1  0
 14 15  1  0
 15 16  1  0
 16 17  1  0
 17 18  1  0
 18 19  1  0
 19 20  1  0
 20 21  1  0
 21  5  1  0
M  END
>  <Title>  (364) 
idAAMFgen7

$$$$

     RDKit          2D

  5  4  0  0  0  0  0  0  0  0999 V2000
    0.0000    0.0000    0.0000 C   0  0  0  0  0  0  0  0  0  0  0  0
    1.2990    0.7500    0.0000 C   0  0  0  0  0  0  0  0  0  0  0  0
    2.5981   -0.0000    0.0000 C   0  0  0  0  0  0  0  0  0  0  0  0
    3.8971    0.7500    0.0000 C   0  0  0  0  0  0  0  0  0  0  0  0
    5.1962   -0.0000    0.0000 C   0  0  0  0  0  0  0  0  0  0  0  0
  1  2  2  0
  2  3  1  0
  3  4  2  3
  4  5  1  0
M  END
>  <Title>  (365) 
idAAMGgen7

$$$$

     RDKit          2D

 87 91  0  0  0  0  0  0  0  0999 V2000
   -8.6279   -2.2078    0.0000 C   0  0  0  0  0  0  0  0  0  0  0  0
   -7.8457   -3.4878    0.0000 C   0  0  0  0  0  0  0  0  0  0  0  0
   -9.0851   -4.3328    0.0000 C   0  0  0  0  0  0  0  0  0  0  0  0
  -10.2341   -5.2969    0.0000 C   0  0  0  0  0  0  0  0  0  0  0  0
  -11.2815   -6.3707    0.0000 C   0  0  0  0  0  0  0  0  0  0  0  0
  -12.2167   -7.5435    0.0000 C   0  0  0  0  0  0  0  0  0  0  0  0
  -13.0305   -8.8035    0.0000 C   0  0  0  0  0  0  0  0  0  0  0  0
  -13.7149  -10.1383    0.0000 C   0  0  0  0  0  0  0  0  0  0  0  0
  -14.2629  -11.5346    0.0000 C   0  0  0  0  0  0  0  0  0  0  0  0
  -14.6691  -12.9786    0.0000 C   0  0  0  0  0  0  0  0  0  0  0  0
  -14.9296  -14.4558    0.0000 C   0  0  0  0  0  0  0  0  0  0  0  0
  -15.0417  -15.9516    0.0000 C   0  0  0  0  0  0  0  0  0  0  0  0
  -15.0043  -17.4511    0.0000 C   0  0  0  0  0  0  0  0  0  0  0  0
  -14.8178  -18.9395    0.0000 C   0  0  0  0  0  0  0  0  0  0  0  0
  -14.4840  -20.4019    0.0000 C   0  0  0  0  0  0  0  0  0  0  0  0
  -14.0063  -21.8238    0.0000 C   0  0  0  0  0  0  0  0  0  0  0  0
  -13.3893  -23.1910    0.0000 C   0  0  0  0  0  0  0  0  0  0  0  0
  -12.6393  -24.4901    0.0000 C   0  0  0  0  0  0  0  0  0  0  0  0
  -11.7637  -25.7080    0.0000 C   0  0  0  0  0  0  0  0  0  0  0  0
  -10.7712  -26.8326    0.0000 C   0  0  0  0  0  0  0  0  0  0  0  0
   -9.6716  -27.8529    0.0000 C   0  0  0  0  0  0  0  0  0  0  0  0
   -8.4759  -28.7586    0.0000 C   0  0  0  0  0  0  0  0  0  0  0  0
   -7.1960  -29.5408    0.0000 C   0  0  0  0  0  0  0  0  0  0  0  0
   -5.8445  -30.1916    0.0000 C   0  0  0  0  0  0  0  0  0  0  0  0
   -4.4350  -30.7046    0.0000 C   0  0  0  0  0  0  0  0  0  0  0  0
   -2.9814  -31.0748    0.0000 C   0  0  0  0  0  0  0  0  0  0  0  0
   -1.4981  -31.2983    0.0000 C   0  0  0  0  0  0  0  0  0  0  0  0
   -0.0000  -31.3731    0.0000 C   0  0  0  0  0  0  0  0  0  0  0  0
    1.4981  -31.2983    0.0000 C   0  0  0  0  0  0  0  0  0  0  0  0
    2.9814  -31.0748    0.0000 C   0  0  0  0  0  0  0  0  0  0  0  0
    4.4350  -30.7046    0.0000 C   0  0  0  0  0  0  0  0  0  0  0  0
    5.8445  -30.1916    0.0000 C   0  0  0  0  0  0  0  0  0  0  0  0
    7.1960  -29.5408    0.0000 C   0  0  0  0  0  0  0  0  0  0  0  0
    8.4759  -28.7586    0.0000 C   0  0  0  0  0  0  0  0  0  0  0  0
    9.6716  -27.8529    0.0000 C   0  0  0  0  0  0  0  0  0  0  0  0
   10.7712  -26.8326    0.0000 C   0  0  0  0  0  0  0  0  0  0  0  0
   11.7637  -25.7080    0.0000 C   0  0  0  0  0  0  0  0  0  0  0  0
   12.6393  -24.4901    0.0000 C   0  0  0  0  0  0  0  0  0  0  0  0
   13.3893  -23.1910    0.0000 C   0  0  0  0  0  0  0  0  0  0  0  0
   14.0063  -21.8238    0.0000 C   0  0  0  0  0  0  0  0  0  0  0  0
   14.4840  -20.4019    0.0000 C   0  0  0  0  0  0  0  0  0  0  0  0
   14.8178  -18.9395    0.0000 C   0  0  0  0  0  0  0  0  0  0  0  0
   15.0043  -17.4511    0.0000 C   0  0  0  0  0  0  0  0  0  0  0  0
   15.0417  -15.9516    0.0000 C   0  0  0  0  0  0  0  0  0  0  0  0
   14.9296  -14.4558    0.0000 C   0  0  0  0  0  0  0  0  0  0  0  0
   14.6691  -12.9786    0.0000 C   0  0  0  0  0  0  0  0  0  0  0  0
   14.2629  -11.5346    0.0000 C   0  0  0  0  0  0  0  0  0  0  0  0
   13.7149  -10.1383    0.0000 C   0  0  0  0  0  0  0  0  0  0  0  0
   13.0305   -8.8035    0.0000 C   0  0  0  0  0  0  0  0  0  0  0  0
   12.2167   -7.5435    0.0000 C   0  0  0  0  0  0  0  0  0  0  0  0
   11.2815   -6.3707    0.0000 C   0  0  0  0  0  0  0  0  0  0  0  0
   10.2341   -5.2969    0.0000 C   0  0  0  0  0  0  0  0  0  0  0  0
    9.0851   -4.3328    0.0000 C   0  0  0  0  0  0  0  0  0  0  0  0
    7.8457   -3.4878    0.0000 C   0  0  0  0  0  0  0  0  0  0  0  0
    6.5284   -2.7704    0.0000 C   0  0  0  0  0  0  0  0  0  0  0  0
    5.1462   -2.1877    0.0000 C   0  0  0  0  0  0  0  0  0  0  0  0
    3.7128   -1.7456    0.0000 C   0  0  0  0  0  0  0  0  0  0  0  0
    2.2425   -1.4484    0.0000 C   0  0  0  0  0  0  0  0  0  0  0  0
    2.4661    0.0349    0.0000 C   0  0  0  0  0  0  0  0  0  0  0  0
    3.8624    0.5829    0.0000 C   0  0  0  0  0  0  0  0  0  0  0  0
    4.0860    2.0661    0.0000 C   0  0  0  0  0  0  0  0  0  0  0  0
    2.9132    3.0013    0.0000 O   0  0  0  0  0  0  0  0  0  0  0  0
    5.4823    2.6141    0.0000 N   0  0  0  0  0  0  0  0  0  0  0  0
    5.7059    4.0974    0.0000 C   0  0  0  0  0  0  0  0  0  0  0  0
    7.1022    4.6454    0.0000 N   0  0  0  0  0  0  0  0  0  0  0  0
    7.3257    6.1286    0.0000 N   0  0  0  0  0  0  0  0  0  0  0  0
    6.1530    7.0639    0.0000 N   0  0  0  0  0  0  0  0  0  0  0  0
    4.7567    6.5159    0.0000 N   0  0  0  0  0  0  0  0  0  0  0  0
    4.5331    5.0326    0.0000 N   0  0  0  0  0  0  0  0  0  0  0  0
    0.7500   -1.2990    0.0000 C   0  0  0  0  0  0  0  0  0  0  0  0
    1.5000    0.0000    0.0000 C   0  0  0  0  0  0  0  0  0  0  0  0
    0.7500    1.2990    0.0000 C   0  0  0  0  0  0  0  0  0  0  0  0
   -0.7500    1.2990    0.0000 C   0  0  0  0  0  0  0  0  0  0  0  0
   -1.5000    0.0000    0.0000 C   0  0  0  0  0  0  0  0  0  0  0  0
   -0.7500   -1.2990    0.0000 C   0  0  0  0  0  0  0  0  0  0  0  0
   -2.2425   -1.4484    0.0000 C   0  0  0  0  0  0  0  0  0  0  0  0
   -1.2500   -2.5731    0.0000 C   0  0  0  0  0  0  0  0  0  0  0  0
   -1.7277   -3.9950    0.0000 C   0  0  0  0  0  0  0  0  0  0  0  0
   -3.1980   -4.2922    0.0000 C   0  0  0  0  0  0  0  0  0  0  0  0
   -4.1905   -3.1675    0.0000 C   0  0  0  0  0  0  0  0  0  0  0  0
   -3.7128   -1.7456    0.0000 C   0  0  0  0  0  0  0  0  0  0  0  0
   -5.1462   -2.1877    0.0000 C   0  0  0  0  0  0  0  0  0  0  0  0
   -4.9596   -0.6994    0.0000 C   0  0  0  0  0  0  0  0  0  0  0  0
   -6.1553    0.2063    0.0000 C   0  0  0  0  0  0  0  0  0  0  0  0
   -7.5376   -0.3763    0.0000 C   0  0  0  0  0  0  0  0  0  0  0  0
   -7.7241   -1.8647    0.0000 C   0  0  0  0  0  0  0  0  0  0  0  0
   -6.5284   -2.7704    0.0000 C   0  0  0  0  0  0  0  0  0  0  0  0
  1  2  1  0
  2  3  1  0
  3  4  1  0
  4  5  1  0
  5  6  1  0
  6  7  1  0
  7  8  1  0
  8  9  1  0
  9 10  1  0
 10 11  1  0
 11 12  1  0
 12 13  1  0
 13 14  1  0
 14 15  1  0
 15 16  1  0
 16 17  1  0
 17 18  1  0
 18 19  1  0
 19 20  1  0
 20 21  1  0
 21 22  1  0
 22 23  1  0
 23 24  1  0
 24 25  1  0
 25 26  1  0
 26 27  1  0
 27 28  1  0
 28 29  1  0
 29 30  1  0
 30 31  1  0
 31 32  1  0
 32 33  1  0
 33 34  1  0
 34 35  1  0
 35 36  1  0
 36 37  1  0
 37 38  1  0
 38 39  1  0
 39 40  1  0
 40 41  1  0
 41 42  1  0
 42 43  1  0
 43 44  1  0
 44 45  1  0
 45 46  1  0
 46 47  1  0
 47 48  1  0
 48 49  1  0
 49 50  1  0
 50 51  1  0
 51 52  1  0
 52 53  1  0
 53 54  1  0
 54 55  1  0
 55 56  1  0
 56 57  1  0
 57 58  1  0
 58 59  1  0
 59 60  1  0
 60 61  1  0
 61 62  2  0
 61 63  1  0
 63 64  1  0
 64 65  2  0
 65 66  1  0
 66 67  2  0
 67 68  1  0
 68 69  2  0
 58 70  1  0
 70 71  2  0
 71 72  1  0
 72 73  2  0
 73 74  1  0
 74 75  2  0
 75 76  1  0
 76 77  2  0
 77 78  1  0
 78 79  2  0
 79 80  1  0
 80 81  2  0
 81 82  1  0
 82 83  2  0
 83 84  1  0
 84 85  2  0
 85 86  1  0
 86 87  2  0
 87  2  1  0
 69 64  1  0
 75 70  1  0
 81 76  1  0
 87 82  1  0
M  END
>  <Title>  (366) 
idAAMHgen7

$$$$

     RDKit          2D

 91 91  0  0  0  0  0  0  0  0999 V2000
   22.7516    0.0000    0.0000 C   0  0  0  0  0  0  0  0  0  0  0  0
   21.2516    0.0000    0.0000 C   0  0  0  0  0  0  0  0  0  0  0  0
   21.1987    1.4991    0.0000 C   0  0  0  0  0  0  0  0  0  0  0  0
   21.0401    2.9907    0.0000 C   0  0  0  0  0  0  0  0  0  0  0  0
   20.7767    4.4674    0.0000 C   0  0  0  0  0  0  0  0  0  0  0  0
   20.4099    5.9218    0.0000 C   0  0  0  0  0  0  0  0  0  0  0  0
   19.9413    7.3467    0.0000 C   0  0  0  0  0  0  0  0  0  0  0  0
   19.3734    8.7351    0.0000 C   0  0  0  0  0  0  0  0  0  0  0  0
   18.7090   10.0799    0.0000 N   0  0  0  0  0  0  0  0  0  0  0  0
   17.9514   11.3745    0.0000 C   0  0  0  0  0  0  0  0  0  0  0  0
   17.1043   12.6124    0.0000 C   0  0  0  0  0  0  0  0  0  0  0  0
   16.1720   13.7875    0.0000 C   0  0  0  0  0  0  0  0  0  0  0  0
   15.1592   14.8940    0.0000 C   0  0  0  0  0  0  0  0  0  0  0  0
   14.0708   15.9262    0.0000 C   0  0  0  0  0  0  0  0  0  0  0  0
   12.9123   16.8790    0.0000 C   0  0  0  0  0  0  0  0  0  0  0  0
   11.6895   17.7478    0.0000 C   0  0  0  0  0  0  0  0  0  0  0  0
   10.4085   18.5282    0.0000 C   0  0  0  0  0  0  0  0  0  0  0  0
    9.0756   19.2162    0.0000 C   0  0  0  0  0  0  0  0  0  0  0  0
    7.6975   19.8085    0.0000 C   0  0  0  0  0  0  0  0  0  0  0  0
    6.2811   20.3022    0.0000 C   0  0  0  0  0  0  0  0  0  0  0  0
    4.8333   20.6947    0.0000 C   0  0  0  0  0  0  0  0  0  0  0  0
    3.3615   20.9841    0.0000 C   0  0  0  0  0  0  0  0  0  0  0  0
    1.8730   21.1689    0.0000 C   0  0  0  0  0  0  0  0  0  0  0  0
    0.3751   21.2483    0.0000 C   0  0  0  0  0  0  0  0  0  0  0  0
   -1.1247   21.2218    0.0000 C   0  0  0  0  0  0  0  0  0  0  0  0
   -2.6189   21.0896    0.0000 C   0  0  0  0  0  0  0  0  0  0  0  0
   -4.1000   20.8524    0.0000 C   0  0  0  0  0  0  0  0  0  0  0  0
   -5.5607   20.5112    0.0000 C   0  0  0  0  0  0  0  0  0  0  0  0
   -6.9937   20.0679    0.0000 C   0  0  0  0  0  0  0  0  0  0  0  0
   -8.3918   19.5245    0.0000 C   0  0  0  0  0  0  0  0  0  0  0  0
   -9.7481   18.8840    0.0000 C   0  0  0  0  0  0  0  0  0  0  0  0
  -11.0559   18.1493    0.0000 C   0  0  0  0  0  0  0  0  0  0  0  0
  -12.3086   17.3242    0.0000 C   0  0  0  0  0  0  0  0  0  0  0  0
  -13.5000   16.4128    0.0000 C   0  0  0  0  0  0  0  0  0  0  0  0
  -14.6241   15.4197    0.0000 C   0  0  0  0  0  0  0  0  0  0  0  0
  -15.6754   14.3497    0.0000 C   0  0  0  0  0  0  0  0  0  0  0  0
  -16.7818   15.3625    0.0000 C   0  0  0  0  0  0  0  0  0  0  0  0
  -16.6485   13.2082    0.0000 C   0  0  0  0  0  0  0  0  0  0  0  0
  -17.5387   12.0009    0.0000 C   0  0  0  0  0  0  0  0  0  0  0  0
  -18.3416   10.7339    0.0000 C   0  0  0  0  0  0  0  0  0  0  0  0
  -19.0531    9.4134    0.0000 C   0  0  0  0  0  0  0  0  0  0  0  0
  -19.6696    8.0459    0.0000 C   0  0  0  0  0  0  0  0  0  0  0  0
  -20.1882    6.6384    0.0000 C   0  0  0  0  0  0  0  0  0  0  0  0
  -20.6061    5.1978    0.0000 C   0  0  0  0  0  0  0  0  0  0  0  0
  -20.9215    3.7313    0.0000 C   0  0  0  0  0  0  0  0  0  0  0  0
  -21.1326    2.2463    0.0000 C   0  0  0  0  0  0  0  0  0  0  0  0
  -21.2384    0.7500    0.0000 C   0  0  0  0  0  0  0  0  0  0  0  0
  -21.2384   -0.7500    0.0000 C   0  0  0  0  0  0  0  0  0  0  0  0
  -21.1326   -2.2463    0.0000 C   0  0  0  0  0  0  0  0  0  0  0  0
  -20.9215   -3.7313    0.0000 C   0  0  0  0  0  0  0  0  0  0  0  0
  -20.6061   -5.1978    0.0000 C   0  0  0  0  0  0  0  0  0  0  0  0
  -20.1882   -6.6384    0.0000 C   0  0  0  0  0  0  0  0  0  0  0  0
  -19.6696   -8.0459    0.0000 C   0  0  0  0  0  0  0  0  0  0  0  0
  -19.0531   -9.4134    0.0000 C   0  0  0  0  0  0  0  0  0  0  0  0
  -18.3416  -10.7339    0.0000 C   0  0  0  0  0  0  0  0  0  0  0  0
  -17.5387  -12.0009    0.0000 C   0  0  0  0  0  0  0  0  0  0  0  0
  -16.6485  -13.2082    0.0000 C   0  0  0  0  0  0  0  0  0  0  0  0
  -15.6754  -14.3497    0.0000 C   0  0  0  0  0  0  0  0  0  0  0  0
  -14.6241  -15.4197    0.0000 C   0  0  0  0  0  0  0  0  0  0  0  0
  -13.5000  -16.4128    0.0000 C   0  0  0  0  0  0  0  0  0  0  0  0
  -12.3086  -17.3242    0.0000 C   0  0  0  0  0  0  0  0  0  0  0  0
  -11.0559  -18.1493    0.0000 C   0  0  0  0  0  0  0  0  0  0  0  0
   -9.7481  -18.8840    0.0000 C   0  0  0  0  0  0  0  0  0  0  0  0
   -8.3918  -19.5245    0.0000 C   0  0  0  0  0  0  0  0  0  0  0  0
   -6.9937  -20.0679    0.0000 C   0  0  0  0  0  0  0  0  0  0  0  0
   -5.5607  -20.5112    0.0000 C   0  0  0  0  0  0  0  0  0  0  0  0
   -4.1000  -20.8524    0.0000 C   0  0  0  0  0  0  0  0  0  0  0  0
   -2.6189  -21.0896    0.0000 C   0  0  0  0  0  0  0  0  0  0  0  0
   -1.1247  -21.2218    0.0000 C   0  0  0  0  0  0  0  0  0  0  0  0
    0.3751  -21.2483    0.0000 C   0  0  0  0  0  0  0  0  0  0  0  0
    1.8730  -21.1689    0.0000 C   0  0  0  0  0  0  0  0  0  0  0  0
    3.3615  -20.9841    0.0000 C   0  0  0  0  0  0  0  0  0  0  0  0
    4.8333  -20.6947    0.0000 C   0  0  0  0  0  0  0  0  0  0  0  0
    6.2811  -20.3022    0.0000 C   0  0  0  0  0  0  0  0  0  0  0  0
    7.6975  -19.8085    0.0000 C   0  0  0  0  0  0  0  0  0  0  0  0
    9.0756  -19.2162    0.0000 C   0  0  0  0  0  0  0  0  0  0  0  0
   10.4085  -18.5282    0.0000 C   0  0  0  0  0  0  0  0  0  0  0  0
   11.6895  -17.7478    0.0000 C   0  0  0  0  0  0  0  0  0  0  0  0
   12.9123  -16.8790    0.0000 C   0  0  0  0  0  0  0  0  0  0  0  0
   14.0708  -15.9262    0.0000 C   0  0  0  0  0  0  0  0  0  0  0  0
   15.1592  -14.8940    0.0000 C   0  0  0  0  0  0  0  0  0  0  0  0
   16.1720  -13.7875    0.0000 C   0  0  0  0  0  0  0  0  0  0  0  0
   17.1043  -12.6124    0.0000 C   0  0  0  0  0  0  0  0  0  0  0  0
   17.9514  -11.3745    0.0000 C   0  0  0  0  0  0  0  0  0  0  0  0
   18.7090  -10.0799    0.0000 C   0  0  0  0  0  0  0  0  0  0  0  0
   19.3734   -8.7351    0.0000 C   0  0  0  0  0  0  0  0  0  0  0  0
   19.9413   -7.3467    0.0000 C   0  0  0  0  0  0  0  0  0  0  0  0
   20.4099   -5.9218    0.0000 C   0  0  0  0  0  0  0  0  0  0  0  0
   20.7767   -4.4674    0.0000 C   0  0  0  0  0  0  0  0  0  0  0  0
   21.0401   -2.9907    0.0000 C   0  0  0  0  0  0  0  0  0  0  0  0
   21.1987   -1.4991    0.0000 C   0  0  0  0  0  0  0  0  0  0  0  0
  1  2  1  0
  2  3  2  0
  3  4  1  0
  4  5  2  0
  5  6  1  0
  6  7  2  0
  7  8  1  0
  8  9  1  0
  9 10  1  0
 10 11  1  0
 11 12  1  0
 12 13  1  0
 13 14  1  0
 14 15  1  0
 15 16  1  0
 16 17  1  0
 17 18  1  0
 18 19  1  0
 19 20  1  0
 20 21  1  0
 21 22  1  0
 22 23  1  0
 23 24  1  0
 24 25  1  0
 25 26  1  0
 26 27  1  0
 27 28  1  0
 28 29  1  0
 29 30  1  0
 30 31  1  0
 31 32  1  0
 32 33  1  0
 33 34  1  0
 34 35  1  0
 35 36  1  0
 36 37  1  0
 36 38  1  0
 38 39  1  0
 39 40  1  0
 40 41  1  0
 41 42  1  0
 42 43  1  0
 43 44  1  0
 44 45  1  0
 45 46  1  0
 46 47  1  0
 47 48  1  0
 48 49  1  0
 49 50  1  0
 50 51  1  0
 51 52  1  0
 52 53  1  0
 53 54  1  0
 54 55  1  0
 55 56  1  0
 56 57  1  0
 57 58  1  0
 58 59  1  0
 59 60  1  0
 60 61  1  0
 61 62  1  0
 62 63  1  0
 63 64  1  0
 64 65  1  0
 65 66  1  0
 66 67  1  0
 67 68  1  0
 68 69  1  0
 69 70  1  0
 70 71  1  0
 71 72  1  0
 72 73  1  0
 73 74  1  0
 74 75  1  0
 75 76  1  0
 76 77  1  0
 77 78  1  0
 78 79  1  0
 79 80  1  0
 80 81  1  0
 81 82  1  0
 82 83  1  0
 83 84  1  0
 84 85  1  0
 85 86  1  0
 86 87  1  0
 87 88  1  0
 88 89  1  0
 89 90  1  0
 90 91  1  0
 91  2  1  0
M  END
>  <Title>  (367) 
idAAMIgen7

$$$$

     RDKit          2D

 15 16  0  0  0  0  0  0  0  0999 V2000
    1.8478   -9.0619    0.0000 C   0  0  0  0  0  0  0  0  0  0  0  0
    2.0046   -7.5702    0.0000 C   0  0  0  0  0  0  0  0  0  0  0  0
    3.3037   -6.8202    0.0000 C   0  0  0  0  0  0  0  0  0  0  0  0
    2.9918   -5.3529    0.0000 C   0  0  0  0  0  0  0  0  0  0  0  0
    1.5000   -5.1962    0.0000 C   0  0  0  0  0  0  0  0  0  0  0  0
    0.7500   -3.8971    0.0000 C   0  0  0  0  0  0  0  0  0  0  0  0
   -0.7500   -3.8971    0.0000 O   0  0  0  0  0  0  0  0  0  0  0  0
    1.5000   -2.5981    0.0000 N   0  0  0  0  0  0  0  0  0  0  0  0
    0.7500   -1.2990    0.0000 C   0  0  0  0  0  0  0  0  0  0  0  0
    1.5000    0.0000    0.0000 N   0  0  0  0  0  0  0  0  0  0  0  0
    0.7500    1.2990    0.0000 N   0  0  0  0  0  0  0  0  0  0  0  0
   -0.7500    1.2990    0.0000 N   0  0  0  0  0  0  0  0  0  0  0  0
   -1.5000    0.0000    0.0000 N   0  0  0  0  0  0  0  0  0  0  0  0
   -0.7500   -1.2990    0.0000 N   0  0  0  0  0  0  0  0  0  0  0  0
    0.8899   -6.5665    0.0000 C   0  0  0  0  0  0  0  0  0  0  0  0
  1  2  1  0
  2  3  2  0
  3  4  1  0
  4  5  2  0
  5  6  1  0
  6  7  2  0
  6  8  1  0
  8  9  1  0
  9 10  2  0
 10 11  1  0
 11 12  2  0
 12 13  1  0
 13 14  2  0
  5 15  1  0
 15  2  1  0
 14  9  1  0
M  END
>  <Title>  (368) 
idAAMJgen7

$$$$

     RDKit          2D

 45 45  0  0  0  0  0  0  0  0999 V2000
   12.0132    0.0000    0.0000 C   0  0  0  0  0  0  0  0  0  0  0  0
   10.5132    0.0000    0.0000 C   0  0  0  0  0  0  0  0  0  0  0  0
   10.4061   -1.4962    0.0000 C   0  0  0  0  0  0  0  0  0  0  0  0
   10.0873   -2.9619    0.0000 C   0  0  0  0  0  0  0  0  0  0  0  0
    9.5631   -4.3673    0.0000 C   0  0  0  0  0  0  0  0  0  0  0  0
    8.8442   -5.6838    0.0000 C   0  0  0  0  0  0  0  0  0  0  0  0
    7.9453   -6.8847    0.0000 C   0  0  0  0  0  0  0  0  0  0  0  0
    6.8847   -7.9453    0.0000 C   0  0  0  0  0  0  0  0  0  0  0  0
    5.6838   -8.8442    0.0000 C   0  0  0  0  0  0  0  0  0  0  0  0
    4.3673   -9.5631    0.0000 C   0  0  0  0  0  0  0  0  0  0  0  0
    2.9619  -10.0873    0.0000 C   0  0  0  0  0  0  0  0  0  0  0  0
    1.4962  -10.4061    0.0000 C   0  0  0  0  0  0  0  0  0  0  0  0
   -0.0000  -10.5132    0.0000 C   0  0  0  0  0  0  0  0  0  0  0  0
   -1.4962  -10.4061    0.0000 C   0  0  0  0  0  0  0  0  0  0  0  0
   -2.9619  -10.0873    0.0000 C   0  0  0  0  0  0  0  0  0  0  0  0
   -4.3673   -9.5631    0.0000 C   0  0  0  0  0  0  0  0  0  0  0  0
   -5.6838   -8.8442    0.0000 C   0  0  0  0  0  0  0  0  0  0  0  0
   -6.8847   -7.9453    0.0000 C   0  0  0  0  0  0  0  0  0  0  0  0
   -7.9453   -6.8847    0.0000 C   0  0  0  0  0  0  0  0  0  0  0  0
   -8.8442   -5.6838    0.0000 C   0  0  0  0  0  0  0  0  0  0  0  0
   -9.5631   -4.3673    0.0000 C   0  0  0  0  0  0  0  0  0  0  0  0
  -10.0873   -2.9619    0.0000 C   0  0  0  0  0  0  0  0  0  0  0  0
  -10.4061   -1.4962    0.0000 C   0  0  0  0  0  0  0  0  0  0  0  0
  -10.5132    0.0000    0.0000 C   0  0  0  0  0  0  0  0  0  0  0  0
  -10.4061    1.4962    0.0000 C   0  0  0  0  0  0  0  0  0  0  0  0
  -10.0873    2.9619    0.0000 C   0  0  0  0  0  0  0  0  0  0  0  0
   -9.5631    4.3673    0.0000 C   0  0  0  0  0  0  0  0  0  0  0  0
   -8.8442    5.6838    0.0000 C   0  0  0  0  0  0  0  0  0  0  0  0
   -7.9453    6.8847    0.0000 C   0  0  0  0  0  0  0  0  0  0  0  0
   -6.8847    7.9453    0.0000 C   0  0  0  0  0  0  0  0  0  0  0  0
   -5.6838    8.8442    0.0000 C   0  0  0  0  0  0  0  0  0  0  0  0
   -4.3673    9.5631    0.0000 C   0  0  0  0  0  0  0  0  0  0  0  0
   -2.9619   10.0873    0.0000 C   0  0  0  0  0  0  0  0  0  0  0  0
   -1.4962   10.4061    0.0000 C   0  0  0  0  0  0  0  0  0  0  0  0
    0.0000   10.5132    0.0000 C   0  0  0  0  0  0  0  0  0  0  0  0
    1.4962   10.4061    0.0000 C   0  0  0  0  0  0  0  0  0  0  0  0
    2.9619   10.0873    0.0000 C   0  0  0  0  0  0  0  0  0  0  0  0
    4.3673    9.5631    0.0000 C   0  0  0  0  0  0  0  0  0  0  0  0
    5.6838    8.8442    0.0000 C   0  0  0  0  0  0  0  0  0  0  0  0
    6.8847    7.9453    0.0000 C   0  0  0  0  0  0  0  0  0  0  0  0
    7.9453    6.8847    0.0000 C   0  0  0  0  0  0  0  0  0  0  0  0
    8.8442    5.6838    0.0000 C   0  0  0  0  0  0  0  0  0  0  0  0
    9.5631    4.3673    0.0000 C   0  0  0  0  0  0  0  0  0  0  0  0
   10.0873    2.9619    0.0000 C   0  0  0  0  0  0  0  0  0  0  0  0
   10.4061    1.4962    0.0000 C   0  0  0  0  0  0  0  0  0  0  0  0
  1  2  1  0
  2  3  1  0
  3  4  1  0
  4  5  2  0
  5  6  1  0
  6  7  2  0
  7  8  1  0
  8  9  1  0
  9 10  1  0
 10 11  1  0
 11 12  1  0
 12 13  1  0
 13 14  1  0
 14 15  1  0
 15 16  1  0
 16 17  1  0
 17 18  1  0
 18 19  1  0
 19 20  1  0
 20 21  1  0
 21 22  1  0
 22 23  1  0
 23 24  1  0
 24 25  1  0
 25 26  1  0
 26 27  1  0
 27 28  1  0
 28 29  1  0
 29 30  1  0
 30 31  1  0
 31 32  1  0
 32 33  1  0
 33 34  1  0
 34 35  1  0
 35 36  1  0
 36 37  1  0
 37 38  1  0
 38 39  1  0
 39 40  1  0
 40 41  1  0
 41 42  1  0
 42 43  1  0
 43 44  1  0
 44 45  1  0
 45  2  1  0
M  END
>  <Title>  (369) 
idAAMKgen7

$$$$

     RDKit          2D

 46 46  0  0  0  0  0  0  0  0999 V2000
   12.7632   -1.2990    0.0000 C   0  0  0  0  0  0  0  0  0  0  0  0
   12.0132    0.0000    0.0000 O   0  0  0  0  0  0  0  0  0  0  0  0
   10.5132    0.0000    0.0000 C   0  0  0  0  0  0  0  0  0  0  0  0
   10.4061   -1.4962    0.0000 C   0  0  0  0  0  0  0  0  0  0  0  0
   10.0873   -2.9619    0.0000 C   0  0  0  0  0  0  0  0  0  0  0  0
    9.5631   -4.3673    0.0000 C   0  0  0  0  0  0  0  0  0  0  0  0
    8.8442   -5.6838    0.0000 C   0  0  0  0  0  0  0  0  0  0  0  0
    7.9453   -6.8847    0.0000 C   0  0  0  0  0  0  0  0  0  0  0  0
    6.8847   -7.9453    0.0000 C   0  0  0  0  0  0  0  0  0  0  0  0
    5.6838   -8.8442    0.0000 C   0  0  0  0  0  0  0  0  0  0  0  0
    4.3673   -9.5631    0.0000 C   0  0  0  0  0  0  0  0  0  0  0  0
    2.9619  -10.0873    0.0000 C   0  0  0  0  0  0  0  0  0  0  0  0
    1.4962  -10.4061    0.0000 C   0  0  0  0  0  0  0  0  0  0  0  0
   -0.0000  -10.5132    0.0000 C   0  0  0  0  0  0  0  0  0  0  0  0
   -1.4962  -10.4061    0.0000 C   0  0  0  0  0  0  0  0  0  0  0  0
   -2.9619  -10.0873    0.0000 C   0  0  0  0  0  0  0  0  0  0  0  0
   -4.3673   -9.5631    0.0000 C   0  0  0  0  0  0  0  0  0  0  0  0
   -5.6838   -8.8442    0.0000 C   0  0  0  0  0  0  0  0  0  0  0  0
   -6.8847   -7.9453    0.0000 C   0  0  0  0  0  0  0  0  0  0  0  0
   -7.9453   -6.8847    0.0000 C   0  0  0  0  0  0  0  0  0  0  0  0
   -8.8442   -5.6838    0.0000 C   0  0  0  0  0  0  0  0  0  0  0  0
   -9.5631   -4.3673    0.0000 C   0  0  0  0  0  0  0  0  0  0  0  0
  -10.0873   -2.9619    0.0000 C   0  0  0  0  0  0  0  0  0  0  0  0
  -10.4061   -1.4962    0.0000 C   0  0  0  0  0  0  0  0  0  0  0  0
  -10.5132    0.0000    0.0000 C   0  0  0  0  0  0  0  0  0  0  0  0
  -10.4061    1.4962    0.0000 C   0  0  0  0  0  0  0  0  0  0  0  0
  -10.0873    2.9619    0.0000 C   0  0  0  0  0  0  0  0  0  0  0  0
   -9.5631    4.3673    0.0000 C   0  0  0  0  0  0  0  0  0  0  0  0
   -8.8442    5.6838    0.0000 C   0  0  0  0  0  0  0  0  0  0  0  0
   -7.9453    6.8847    0.0000 C   0  0  0  0  0  0  0  0  0  0  0  0
   -6.8847    7.9453    0.0000 C   0  0  0  0  0  0  0  0  0  0  0  0
   -5.6838    8.8442    0.0000 C   0  0  0  0  0  0  0  0  0  0  0  0
   -4.3673    9.5631    0.0000 C   0  0  0  0  0  0  0  0  0  0  0  0
   -2.9619   10.0873    0.0000 C   0  0  0  0  0  0  0  0  0  0  0  0
   -1.4962   10.4061    0.0000 C   0  0  0  0  0  0  0  0  0  0  0  0
    0.0000   10.5132    0.0000 C   0  0  0  0  0  0  0  0  0  0  0  0
    1.4962   10.4061    0.0000 C   0  0  0  0  0  0  0  0  0  0  0  0
    2.9619   10.0873    0.0000 C   0  0  0  0  0  0  0  0  0  0  0  0
    4.3673    9.5631    0.0000 C   0  0  0  0  0  0  0  0  0  0  0  0
    5.6838    8.8442    0.0000 C   0  0  0  0  0  0  0  0  0  0  0  0
    6.8847    7.9453    0.0000 C   0  0  0  0  0  0  0  0  0  0  0  0
    7.9453    6.8847    0.0000 C   0  0  0  0  0  0  0  0  0  0  0  0
    8.8442    5.6838    0.0000 C   0  0  0  0  0  0  0  0  0  0  0  0
    9.5631    4.3673    0.0000 C   0  0  0  0  0  0  0  0  0  0  0  0
   10.0873    2.9619    0.0000 C   0  0  0  0  0  0  0  0  0  0  0  0
   10.4061    1.4962    0.0000 C   0  0  0  0  0  0  0  0  0  0  0  0
  1  2  1  0
  2  3  1  0
  3  4  2  0
  4  5  1  0
  5  6  1  0
  6  7  1  0
  7  8  1  0
  8  9  1  0
  9 10  1  0
 10 11  1  0
 11 12  1  0
 12 13  1  0
 13 14  1  0
 14 15  1  0
 15 16  1  0
 16 17  1  0
 17 18  1  0
 18 19  1  0
 19 20  1  0
 20 21  1  0
 21 22  1  0
 22 23  1  0
 23 24  1  0
 24 25  1  0
 25 26  1  0
 26 27  1  0
 27 28  1  0
 28 29  1  0
 29 30  1  0
 30 31  1  0
 31 32  1  0
 32 33  1  0
 33 34  1  0
 34 35  1  0
 35 36  1  0
 36 37  1  0
 37 38  1  0
 38 39  1  0
 39 40  1  0
 40 41  1  0
 41 42  1  0
 42 43  1  0
 43 44  1  0
 44 45  1  0
 45 46  1  0
 46  3  1  0
M  END
>  <Title>  (370) 
idAAMLgen7

$$$$

     RDKit          2D

  7  7  0  0  0  0  0  0  0  0999 V2000
    3.0000    0.0000    0.0000 O   0  0  0  0  0  0  0  0  0  0  0  0
    1.5000    0.0000    0.0000 C   0  0  0  0  0  0  0  0  0  0  0  0
    0.7500   -1.2990    0.0000 C   0  0  0  0  0  0  0  0  0  0  0  0
   -0.7500   -1.2990    0.0000 C   0  0  0  0  0  0  0  0  0  0  0  0
   -1.5000    0.0000    0.0000 C   0  0  0  0  0  0  0  0  0  0  0  0
   -0.7500    1.2990    0.0000 C   0  0  0  0  0  0  0  0  0  0  0  0
    0.7500    1.2990    0.0000 C   0  0  0  0  0  0  0  0  0  0  0  0
  1  2  2  0
  2  3  1  0
  3  4  1  0
  4  5  1  0
  5  6  1  0
  6  7  1  0
  7  2  1  0
M  END
>  <Title>  (371) 
idAAMMgen7

$$$$

     RDKit          2D

  8  8  0  0  0  0  0  0  0  0999 V2000
    3.2286   -0.0000    0.0000 C   0  0  0  0  0  0  0  0  0  0  0  0
    1.7286    0.0000    0.0000 C   0  0  0  0  0  0  0  0  0  0  0  0
    1.0777    1.3515    0.0000 C   0  0  0  0  0  0  0  0  0  0  0  0
   -0.3846    1.6852    0.0000 C   0  0  0  0  0  0  0  0  0  0  0  0
   -1.5574    0.7500    0.0000 C   0  0  0  0  0  0  0  0  0  0  0  0
   -1.5574   -0.7500    0.0000 C   0  0  0  0  0  0  0  0  0  0  0  0
   -0.3846   -1.6852    0.0000 C   0  0  0  0  0  0  0  0  0  0  0  0
    1.0777   -1.3515    0.0000 C   0  0  0  0  0  0  0  0  0  0  0  0
  1  2  1  0
  2  3  1  0
  3  4  2  0
  4  5  1  0
  5  6  2  0
  6  7  1  0
  7  8  1  0
  8  2  1  0
M  END
>  <Title>  (372) 
idAAMNgen7

$$$$

     RDKit          2D

 49 49  0  0  0  0  0  0  0  0999 V2000
   12.7288    0.0000    0.0000 C   0  0  0  0  0  0  0  0  0  0  0  0
   11.2288    0.0000    0.0000 C   0  0  0  0  0  0  0  0  0  0  0  0
   11.1286    1.4967    0.0000 C   0  0  0  0  0  0  0  0  0  0  0  0
   10.8298    2.9666    0.0000 C   0  0  0  0  0  0  0  0  0  0  0  0
   10.3378    4.3836    0.0000 C   0  0  0  0  0  0  0  0  0  0  0  0
    9.6613    5.7224    0.0000 C   0  0  0  0  0  0  0  0  0  0  0  0
    8.8123    6.9590    0.0000 C   0  0  0  0  0  0  0  0  0  0  0  0
    7.8062    8.0715    0.0000 C   0  0  0  0  0  0  0  0  0  0  0  0
    6.6607    9.0400    0.0000 C   0  0  0  0  0  0  0  0  0  0  0  0
    5.3963    9.8471    0.0000 C   0  0  0  0  0  0  0  0  0  0  0  0
    4.0357   10.4785    0.0000 C   0  0  0  0  0  0  0  0  0  0  0  0
    2.6031   10.9229    0.0000 C   0  0  0  0  0  0  0  0  0  0  0  0
    1.1240   11.1724    0.0000 C   0  0  0  0  0  0  0  0  0  0  0  0
   -0.3752   11.2225    0.0000 C   0  0  0  0  0  0  0  0  0  0  0  0
   -1.8677   11.0724    0.0000 C   0  0  0  0  0  0  0  0  0  0  0  0
   -3.3268   10.7246    0.0000 C   0  0  0  0  0  0  0  0  0  0  0  0
   -4.7266   10.1855    0.0000 C   0  0  0  0  0  0  0  0  0  0  0  0
   -6.0420    9.4647    0.0000 C   0  0  0  0  0  0  0  0  0  0  0  0
   -7.2496    8.5749    0.0000 C   0  0  0  0  0  0  0  0  0  0  0  0
   -8.3279    7.5321    0.0000 C   0  0  0  0  0  0  0  0  0  0  0  0
   -9.2575    6.3549    0.0000 C   0  0  0  0  0  0  0  0  0  0  0  0
  -10.0219    5.0643    0.0000 C   0  0  0  0  0  0  0  0  0  0  0  0
  -10.6075    3.6833    0.0000 C   0  0  0  0  0  0  0  0  0  0  0  0
  -11.0038    2.2366    0.0000 C   0  0  0  0  0  0  0  0  0  0  0  0
  -11.2037    0.7500    0.0000 C   0  0  0  0  0  0  0  0  0  0  0  0
  -11.2037   -0.7500    0.0000 C   0  0  0  0  0  0  0  0  0  0  0  0
  -11.0038   -2.2366    0.0000 C   0  0  0  0  0  0  0  0  0  0  0  0
  -10.6075   -3.6833    0.0000 C   0  0  0  0  0  0  0  0  0  0  0  0
  -10.0219   -5.0643    0.0000 C   0  0  0  0  0  0  0  0  0  0  0  0
   -9.2575   -6.3549    0.0000 C   0  0  0  0  0  0  0  0  0  0  0  0
   -8.3279   -7.5321    0.0000 C   0  0  0  0  0  0  0  0  0  0  0  0
   -7.2496   -8.5749    0.0000 C   0  0  0  0  0  0  0  0  0  0  0  0
   -6.0420   -9.4647    0.0000 C   0  0  0  0  0  0  0  0  0  0  0  0
   -4.7266  -10.1855    0.0000 C   0  0  0  0  0  0  0  0  0  0  0  0
   -3.3268  -10.7246    0.0000 C   0  0  0  0  0  0  0  0  0  0  0  0
   -1.8677  -11.0724    0.0000 C   0  0  0  0  0  0  0  0  0  0  0  0
   -0.3752  -11.2225    0.0000 C   0  0  0  0  0  0  0  0  0  0  0  0
    1.1240  -11.1724    0.0000 C   0  0  0  0  0  0  0  0  0  0  0  0
    2.6031  -10.9229    0.0000 C   0  0  0  0  0  0  0  0  0  0  0  0
    4.0357  -10.4785    0.0000 C   0  0  0  0  0  0  0  0  0  0  0  0
    5.3963   -9.8471    0.0000 C   0  0  0  0  0  0  0  0  0  0  0  0
    6.6607   -9.0400    0.0000 C   0  0  0  0  0  0  0  0  0  0  0  0
    7.8062   -8.0715    0.0000 C   0  0  0  0  0  0  0  0  0  0  0  0
    8.8123   -6.9590    0.0000 C   0  0  0  0  0  0  0  0  0  0  0  0
    9.6613   -5.7224    0.0000 C   0  0  0  0  0  0  0  0  0  0  0  0
   10.3378   -4.3836    0.0000 C   0  0  0  0  0  0  0  0  0  0  0  0
   10.8298   -2.9666    0.0000 C   0  0  0  0  0  0  0  0  0  0  0  0
   12.2765   -3.3629    0.0000 C   0  0  0  0  0  0  0  0  0  0  0  0
   11.1286   -1.4967    0.0000 N   0  0  0  0  0  0  0  0  0  0  0  0
  1  2  1  0
  2  3  1  0
  3  4  1  0
  4  5  1  0
  5  6  1  0
  6  7  1  0
  7  8  1  0
  8  9  1  0
  9 10  1  0
 10 11  1  0
 11 12  1  0
 12 13  1  0
 13 14  1  0
 14 15  1  0
 15 16  1  0
 16 17  1  0
 17 18  1  0
 18 19  1  0
 19 20  1  0
 20 21  1  0
 21 22  1  0
 22 23  1  0
 23 24  1  0
 24 25  1  0
 25 26  1  0
 26 27  1  0
 27 28  1  0
 28 29  1  0
 29 30  1  0
 30 31  1  0
 31 32  1  0
 32 33  1  0
 33 34  1  0
 34 35  1  0
 35 36  1  0
 36 37  1  0
 37 38  1  0
 38 39  1  0
 39 40  1  0
 40 41  1  0
 41 42  1  0
 42 43  1  0
 43 44  1  0
 44 45  1  0
 45 46  1  0
 46 47  1  0
 47 48  1  0
 47 49  1  0
 49  2  1  0
M  END
>  <Title>  (373) 
idAAMOgen7

$$$$

     RDKit          2D

  3  2  0  0  0  0  0  0  0  0999 V2000
    0.0000    0.0000    0.0000 C   0  0  0  0  0  0  0  0  0  0  0  0
    1.2990    0.7500    0.0000 N   0  0  0  0  0  0  0  0  0  0  0  0
    2.5981   -0.0000    0.0000 C   0  0  0  0  0  0  0  0  0  0  0  0
  1  2  1  0
  2  3  1  0
M  END
>  <Title>  (374) 
idAAMPgen7

$$$$

     RDKit          2D

  8  8  0  0  0  0  0  0  0  0999 V2000
    3.2286   -0.0000    0.0000 C   0  0  0  0  0  0  0  0  0  0  0  0
    1.7286    0.0000    0.0000 C   0  0  0  0  0  0  0  0  0  0  0  0
    1.0777    1.3515    0.0000 C   0  0  0  0  0  0  0  0  0  0  0  0
   -0.3846    1.6852    0.0000 C   0  0  0  0  0  0  0  0  0  0  0  0
   -1.5574    0.7500    0.0000 C   0  0  0  0  0  0  0  0  0  0  0  0
   -1.5574   -0.7500    0.0000 C   0  0  0  0  0  0  0  0  0  0  0  0
   -0.3846   -1.6852    0.0000 C   0  0  0  0  0  0  0  0  0  0  0  0
    1.0777   -1.3515    0.0000 C   0  0  0  0  0  0  0  0  0  0  0  0
  1  2  1  0
  2  3  2  0
  3  4  1  0
  4  5  1  0
  5  6  1  0
  6  7  1  0
  7  8  1  0
  8  2  1  0
M  END
>  <Title>  (375) 
idAAMQgen7

$$$$

     RDKit          2D

 28 28  0  0  0  0  0  0  0  0999 V2000
    7.9603    0.0000    0.0000 O   0  0  0  0  0  0  0  0  0  0  0  0
    6.4603    0.0000    0.0000 C   0  0  0  0  0  0  0  0  0  0  0  0
    6.2862    1.4899    0.0000 C   0  0  0  0  0  0  0  0  0  0  0  0
    5.7732    2.8994    0.0000 C   0  0  0  0  0  0  0  0  0  0  0  0
    4.9489    4.1526    0.0000 C   0  0  0  0  0  0  0  0  0  0  0  0
    3.8578    5.1820    0.0000 C   0  0  0  0  0  0  0  0  0  0  0  0
    2.5588    5.9320    0.0000 C   0  0  0  0  0  0  0  0  0  0  0  0
    1.1218    6.3622    0.0000 C   0  0  0  0  0  0  0  0  0  0  0  0
   -0.3756    6.4494    0.0000 C   0  0  0  0  0  0  0  0  0  0  0  0
   -1.8528    6.1889    0.0000 C   0  0  0  0  0  0  0  0  0  0  0  0
   -3.2302    5.5948    0.0000 C   0  0  0  0  0  0  0  0  0  0  0  0
   -4.4334    4.6991    0.0000 C   0  0  0  0  0  0  0  0  0  0  0  0
   -5.3975    3.5500    0.0000 C   0  0  0  0  0  0  0  0  0  0  0  0
   -6.0707    2.2096    0.0000 C   0  0  0  0  0  0  0  0  0  0  0  0
   -6.4167    0.7500    0.0000 C   0  0  0  0  0  0  0  0  0  0  0  0
   -6.4167   -0.7500    0.0000 C   0  0  0  0  0  0  0  0  0  0  0  0
   -6.0707   -2.2096    0.0000 C   0  0  0  0  0  0  0  0  0  0  0  0
   -5.3975   -3.5500    0.0000 C   0  0  0  0  0  0  0  0  0  0  0  0
   -4.4334   -4.6991    0.0000 C   0  0  0  0  0  0  0  0  0  0  0  0
   -3.2302   -5.5948    0.0000 C   0  0  0  0  0  0  0  0  0  0  0  0
   -1.8528   -6.1889    0.0000 C   0  0  0  0  0  0  0  0  0  0  0  0
   -0.3756   -6.4494    0.0000 C   0  0  0  0  0  0  0  0  0  0  0  0
    1.1218   -6.3622    0.0000 C   0  0  0  0  0  0  0  0  0  0  0  0
    2.5588   -5.9320    0.0000 C   0  0  0  0  0  0  0  0  0  0  0  0
    3.8578   -5.1820    0.0000 C   0  0  0  0  0  0  0  0  0  0  0  0
    4.9489   -4.1526    0.0000 C   0  0  0  0  0  0  0  0  0  0  0  0
    5.7732   -2.8994    0.0000 C   0  0  0  0  0  0  0  0  0  0  0  0
    6.2862   -1.4899    0.0000 C   0  0  0  0  0  0  0  0  0  0  0  0
  1  2  1  0
  2  3  2  0
  3  4  1  0
  4  5  1  0
  5  6  1  0
  6  7  1  0
  7  8  1  0
  8  9  1  0
  9 10  1  0
 10 11  1  0
 11 12  1  0
 12 13  1  0
 13 14  1  0
 14 15  1  0
 15 16  1  0
 16 17  1  0
 17 18  1  0
 18 19  1  0
 19 20  1  0
 20 21  1  0
 21 22  1  0
 22 23  1  0
 23 24  1  0
 24 25  1  0
 25 26  1  0
 26 27  1  0
 27 28  1  0
 28  2  1  0
M  END
>  <Title>  (376) 
idAAMRgen7

$$$$

     RDKit          2D

  5  5  0  0  0  0  0  0  0  0999 V2000
    1.2760    0.0000    0.0000 C   0  0  0  0  0  0  0  0  0  0  0  0
    0.3943    1.2135    0.0000 C   0  0  0  0  0  0  0  0  0  0  0  0
   -1.0323    0.7500    0.0000 C   0  0  0  0  0  0  0  0  0  0  0  0
   -1.0323   -0.7500    0.0000 N   0  0  0  0  0  0  0  0  0  0  0  0
    0.3943   -1.2135    0.0000 C   0  0  0  0  0  0  0  0  0  0  0  0
  1  2  2  0
  2  3  1  0
  3  4  1  0
  4  5  1  0
  5  1  1  0
M  END
>  <Title>  (377) 
idAAMSgen7

$$$$

     RDKit          2D

 10  9  0  0  0  0  0  0  0  0999 V2000
    0.0000    0.0000    0.0000 C   0  0  0  0  0  0  0  0  0  0  0  0
    1.2990    0.7500    0.0000 C   0  0  0  0  0  0  0  0  0  0  0  0
    2.5981   -0.0000    0.0000 C   0  0  0  0  0  0  0  0  0  0  0  0
    3.8971    0.7500    0.0000 C   0  0  0  0  0  0  0  0  0  0  0  0
    5.1962   -0.0000    0.0000 C   0  0  0  0  0  0  0  0  0  0  0  0
    6.4952    0.7500    0.0000 C   0  0  0  0  0  0  0  0  0  0  0  0
    7.7942   -0.0000    0.0000 C   0  0  0  0  0  0  0  0  0  0  0  0
    9.0933    0.7500    0.0000 C   0  0  0  0  0  0  0  0  0  0  0  0
   10.3923   -0.0000    0.0000 C   0  0  0  0  0  0  0  0  0  0  0  0
   11.6913    0.7500    0.0000 C   0  0  0  0  0  0  0  0  0  0  0  0
  1  2  2  0
  2  3  1  0
  3  4  1  0
  4  5  1  0
  5  6  1  0
  6  7  1  0
  7  8  1  0
  8  9  1  0
  9 10  1  0
M  END
>  <Title>  (378) 
idAAMTgen7

$$$$

     RDKit          2D

  5  5  0  0  0  0  0  0  0  0999 V2000
    1.2760    0.0000    0.0000 C   0  0  0  0  0  0  0  0  0  0  0  0
    0.3943    1.2135    0.0000 C   0  0  0  0  0  0  0  0  0  0  0  0
   -1.0323    0.7500    0.0000 C   0  0  0  0  0  0  0  0  0  0  0  0
   -1.0323   -0.7500    0.0000 C   0  0  0  0  0  0  0  0  0  0  0  0
    0.3943   -1.2135    0.0000 C   0  0  0  0  0  0  0  0  0  0  0  0
  1  2  1  0
  2  3  1  0
  3  4  1  0
  4  5  1  0
  5  1  1  0
M  END
>  <Title>  (379) 
idAAMUgen7

$$$$

     RDKit          2D

 21 23  0  0  0  0  0  0  0  0999 V2000
   -3.1476   -2.1380    0.0000 C   0  0  0  0  0  0  0  0  0  0  0  0
   -1.6852   -2.4718    0.0000 C   0  0  0  0  0  0  0  0  0  0  0  0
   -1.3515   -3.9342    0.0000 O   0  0  0  0  0  0  0  0  0  0  0  0
   -0.0000   -4.5850    0.0000 C   0  0  0  0  0  0  0  0  0  0  0  0
    1.3515   -3.9342    0.0000 C   0  0  0  0  0  0  0  0  0  0  0  0
    1.6852   -2.4718    0.0000 C   0  0  0  0  0  0  0  0  0  0  0  0
    3.1476   -2.1380    0.0000 C   0  0  0  0  0  0  0  0  0  0  0  0
    3.5898   -0.7046    0.0000 O   0  0  0  0  0  0  0  0  0  0  0  0
    4.1679   -3.2376    0.0000 N   0  0  0  0  0  0  0  0  0  0  0  0
    5.6303   -2.9038    0.0000 C   0  0  0  0  0  0  0  0  0  0  0  0
    6.6505   -4.0034    0.0000 N   0  0  0  0  0  0  0  0  0  0  0  0
    8.1129   -3.6696    0.0000 N   0  0  0  0  0  0  0  0  0  0  0  0
    8.5551   -2.2362    0.0000 N   0  0  0  0  0  0  0  0  0  0  0  0
    7.5348   -1.1367    0.0000 N   0  0  0  0  0  0  0  0  0  0  0  0
    6.0724   -1.4704    0.0000 N   0  0  0  0  0  0  0  0  0  0  0  0
    0.7500   -1.2990    0.0000 C   0  0  0  0  0  0  0  0  0  0  0  0
    1.5000    0.0000    0.0000 C   0  0  0  0  0  0  0  0  0  0  0  0
    0.7500    1.2990    0.0000 C   0  0  0  0  0  0  0  0  0  0  0  0
   -0.7500    1.2990    0.0000 C   0  0  0  0  0  0  0  0  0  0  0  0
   -1.5000    0.0000    0.0000 C   0  0  0  0  0  0  0  0  0  0  0  0
   -0.7500   -1.2990    0.0000 C   0  0  0  0  0  0  0  0  0  0  0  0
  1  2  1  0
  2  3  1  0
  3  4  1  0
  4  5  1  0
  5  6  2  0
  6  7  1  0
  7  8  2  0
  7  9  1  0
  9 10  1  0
 10 11  2  0
 11 12  1  0
 12 13  2  0
 13 14  1  0
 14 15  2  0
  6 16  1  0
 16 17  2  0
 17 18  1  0
 18 19  2  0
 19 20  1  0
 20 21  2  0
 21  2  1  0
 15 10  1  0
 21 16  1  0
M  END
>  <Title>  (380) 
idAAMVgen7

$$$$

     RDKit          2D

  9  9  0  0  0  0  0  0  0  0999 V2000
    3.4598   -0.0000    0.0000 C   0  0  0  0  0  0  0  0  0  0  0  0
    1.9598    0.0000    0.0000 C   0  0  0  0  0  0  0  0  0  0  0  0
    1.3858   -1.3858    0.0000 C   0  0  0  0  0  0  0  0  0  0  0  0
   -0.0000   -1.9598    0.0000 C   0  0  0  0  0  0  0  0  0  0  0  0
   -1.3858   -1.3858    0.0000 C   0  0  0  0  0  0  0  0  0  0  0  0
   -1.9598    0.0000    0.0000 C   0  0  0  0  0  0  0  0  0  0  0  0
   -1.3858    1.3858    0.0000 C   0  0  0  0  0  0  0  0  0  0  0  0
    0.0000    1.9598    0.0000 C   0  0  0  0  0  0  0  0  0  0  0  0
    1.3858    1.3858    0.0000 C   0  0  0  0  0  0  0  0  0  0  0  0
  1  2  1  0
  2  3  1  0
  3  4  2  0
  4  5  1  0
  5  6  2  0
  6  7  1  0
  7  8  2  0
  8  9  1  0
  9  2  1  0
M  END
>  <Title>  (381) 
idAAMWgen7

$$$$

     RDKit          2D

 32 35  0  0  0  0  0  0  0  0999 V2000
    4.3881   -6.6982    0.0000 C   0  0  0  0  0  0  0  0  0  0  0  0
    3.0367   -6.0474    0.0000 C   0  0  0  0  0  0  0  0  0  0  0  0
    3.3705   -4.5850    0.0000 C   0  0  0  0  0  0  0  0  0  0  0  0
    3.0367   -3.1226    0.0000 C   0  0  0  0  0  0  0  0  0  0  0  0
    2.1015   -1.9499    0.0000 C   0  0  0  0  0  0  0  0  0  0  0  0
    3.0367   -0.7771    0.0000 C   0  0  0  0  0  0  0  0  0  0  0  0
    2.4887    0.6192    0.0000 O   0  0  0  0  0  0  0  0  0  0  0  0
    4.5199   -1.0007    0.0000 N   0  0  0  0  0  0  0  0  0  0  0  0
    5.4552    0.1721    0.0000 C   0  0  0  0  0  0  0  0  0  0  0  0
    6.9384   -0.0515    0.0000 N   0  0  0  0  0  0  0  0  0  0  0  0
    7.8736    1.1213    0.0000 N   0  0  0  0  0  0  0  0  0  0  0  0
    7.3256    2.5176    0.0000 N   0  0  0  0  0  0  0  0  0  0  0  0
    5.8424    2.7411    0.0000 N   0  0  0  0  0  0  0  0  0  0  0  0
    4.9072    1.5684    0.0000 N   0  0  0  0  0  0  0  0  0  0  0  0
    0.7500   -1.2990    0.0000 C   0  0  0  0  0  0  0  0  0  0  0  0
    1.5000    0.0000    0.0000 C   0  0  0  0  0  0  0  0  0  0  0  0
    0.7500    1.2990    0.0000 C   0  0  0  0  0  0  0  0  0  0  0  0
   -0.7500    1.2990    0.0000 C   0  0  0  0  0  0  0  0  0  0  0  0
   -1.5000    0.0000    0.0000 C   0  0  0  0  0  0  0  0  0  0  0  0
   -0.7500   -1.2990    0.0000 C   0  0  0  0  0  0  0  0  0  0  0  0
   -2.1015   -1.9499    0.0000 C   0  0  0  0  0  0  0  0  0  0  0  0
   -3.0367   -3.1226    0.0000 C   0  0  0  0  0  0  0  0  0  0  0  0
   -3.3705   -4.5850    0.0000 C   0  0  0  0  0  0  0  0  0  0  0  0
   -3.0367   -6.0474    0.0000 C   0  0  0  0  0  0  0  0  0  0  0  0
   -2.1015   -7.2201    0.0000 C   0  0  0  0  0  0  0  0  0  0  0  0
   -0.7500   -7.8710    0.0000 C   0  0  0  0  0  0  0  0  0  0  0  0
    0.7500   -7.8710    0.0000 C   0  0  0  0  0  0  0  0  0  0  0  0
    0.6379   -9.3668    0.0000 C   0  0  0  0  0  0  0  0  0  0  0  0
    1.8773  -10.2118    0.0000 C   0  0  0  0  0  0  0  0  0  0  0  0
    3.2287   -9.5609    0.0000 C   0  0  0  0  0  0  0  0  0  0  0  0
    3.3408   -8.0651    0.0000 C   0  0  0  0  0  0  0  0  0  0  0  0
    2.1015   -7.2201    0.0000 C   0  0  0  0  0  0  0  0  0  0  0  0
  1  2  1  0
  2  3  1  0
  3  4  1  0
  4  5  1  0
  5  6  1  0
  6  7  2  0
  6  8  1  0
  8  9  1  0
  9 10  2  0
 10 11  1  0
 11 12  2  0
 12 13  1  0
 13 14  2  0
  5 15  1  0
 15 16  2  0
 16 17  1  0
 17 18  2  0
 18 19  1  0
 19 20  2  0
 20 21  1  0
 21 22  1  0
 22 23  1  0
 23 24  1  0
 24 25  1  0
 25 26  1  0
 26 27  1  0
 27 28  2  0
 28 29  1  0
 29 30  2  0
 30 31  1  0
 31 32  2  0
 32  2  1  0
 14  9  1  0
 20 15  1  0
 32 27  1  0
M  END
>  <Title>  (382) 
idAAMXgen7

$$$$

     RDKit          2D

 72 72  0  0  0  0  0  0  0  0999 V2000
   18.4555    0.0000    0.0000 C   0  0  0  0  0  0  0  0  0  0  0  0
   16.9555    0.0000    0.0000 C   0  0  0  0  0  0  0  0  0  0  0  0
   16.8892    1.4985    0.0000 C   0  0  0  0  0  0  0  0  0  0  0  0
   16.6907    2.9853    0.0000 C   0  0  0  0  0  0  0  0  0  0  0  0
   16.3615    4.4488    0.0000 C   0  0  0  0  0  0  0  0  0  0  0  0
   15.9043    5.8774    0.0000 C   0  0  0  0  0  0  0  0  0  0  0  0
   15.3226    7.2600    0.0000 C   0  0  0  0  0  0  0  0  0  0  0  0
   14.6210    8.5858    0.0000 C   0  0  0  0  0  0  0  0  0  0  0  0
   13.8050    9.8444    0.0000 C   0  0  0  0  0  0  0  0  0  0  0  0
   12.8809   11.0260    0.0000 C   0  0  0  0  0  0  0  0  0  0  0  0
   11.8560   12.1213    0.0000 C   0  0  0  0  0  0  0  0  0  0  0  0
   10.7383   13.1217    0.0000 C   0  0  0  0  0  0  0  0  0  0  0  0
    9.5366   14.0194    0.0000 C   0  0  0  0  0  0  0  0  0  0  0  0
    8.2603   14.8074    0.0000 C   0  0  0  0  0  0  0  0  0  0  0  0
    6.9193   15.4795    0.0000 C   0  0  0  0  0  0  0  0  0  0  0  0
    5.5241   16.0304    0.0000 C   0  0  0  0  0  0  0  0  0  0  0  0
    4.0857   16.4559    0.0000 C   0  0  0  0  0  0  0  0  0  0  0  0
    2.6154   16.7526    0.0000 C   0  0  0  0  0  0  0  0  0  0  0  0
    1.1245   16.9182    0.0000 C   0  0  0  0  0  0  0  0  0  0  0  0
   -0.3751   16.9514    0.0000 C   0  0  0  0  0  0  0  0  0  0  0  0
   -1.8718   16.8519    0.0000 C   0  0  0  0  0  0  0  0  0  0  0  0
   -3.3538   16.6205    0.0000 C   0  0  0  0  0  0  0  0  0  0  0  0
   -4.8096   16.2591    0.0000 C   0  0  0  0  0  0  0  0  0  0  0  0
   -6.2278   15.7704    0.0000 C   0  0  0  0  0  0  0  0  0  0  0  0
   -7.5972   15.1582    0.0000 C   0  0  0  0  0  0  0  0  0  0  0  0
   -8.9072   14.4275    0.0000 C   0  0  0  0  0  0  0  0  0  0  0  0
  -10.1474   13.5838    0.0000 C   0  0  0  0  0  0  0  0  0  0  0  0
  -11.3082   12.6338    0.0000 C   0  0  0  0  0  0  0  0  0  0  0  0
  -12.3806   11.5850    0.0000 C   0  0  0  0  0  0  0  0  0  0  0  0
  -13.3560   10.4454    0.0000 C   0  0  0  0  0  0  0  0  0  0  0  0
  -14.2269    9.2242    0.0000 C   0  0  0  0  0  0  0  0  0  0  0  0
  -14.9865    7.9307    0.0000 C   0  0  0  0  0  0  0  0  0  0  0  0
  -15.6287    6.5751    0.0000 C   0  0  0  0  0  0  0  0  0  0  0  0
  -16.1487    5.1681    0.0000 C   0  0  0  0  0  0  0  0  0  0  0  0
  -16.5423    3.7207    0.0000 C   0  0  0  0  0  0  0  0  0  0  0  0
  -16.8064    2.2441    0.0000 C   0  0  0  0  0  0  0  0  0  0  0  0
  -16.9389    0.7500    0.0000 C   0  0  0  0  0  0  0  0  0  0  0  0
  -16.9389   -0.7500    0.0000 C   0  0  0  0  0  0  0  0  0  0  0  0
  -16.8064   -2.2441    0.0000 C   0  0  0  0  0  0  0  0  0  0  0  0
  -16.5423   -3.7207    0.0000 C   0  0  0  0  0  0  0  0  0  0  0  0
  -16.1487   -5.1681    0.0000 C   0  0  0  0  0  0  0  0  0  0  0  0
  -15.6287   -6.5751    0.0000 C   0  0  0  0  0  0  0  0  0  0  0  0
  -14.9865   -7.9307    0.0000 C   0  0  0  0  0  0  0  0  0  0  0  0
  -14.2269   -9.2242    0.0000 C   0  0  0  0  0  0  0  0  0  0  0  0
  -13.3560  -10.4454    0.0000 C   0  0  0  0  0  0  0  0  0  0  0  0
  -12.3806  -11.5850    0.0000 C   0  0  0  0  0  0  0  0  0  0  0  0
  -11.3082  -12.6338    0.0000 C   0  0  0  0  0  0  0  0  0  0  0  0
  -10.1474  -13.5838    0.0000 C   0  0  0  0  0  0  0  0  0  0  0  0
   -8.9072  -14.4275    0.0000 C   0  0  0  0  0  0  0  0  0  0  0  0
   -7.5972  -15.1582    0.0000 C   0  0  0  0  0  0  0  0  0  0  0  0
   -6.2278  -15.7704    0.0000 C   0  0  0  0  0  0  0  0  0  0  0  0
   -4.8096  -16.2591    0.0000 C   0  0  0  0  0  0  0  0  0  0  0  0
   -3.3538  -16.6205    0.0000 C   0  0  0  0  0  0  0  0  0  0  0  0
   -1.8718  -16.8519    0.0000 C   0  0  0  0  0  0  0  0  0  0  0  0
   -0.3751  -16.9514    0.0000 C   0  0  0  0  0  0  0  0  0  0  0  0
    1.1245  -16.9182    0.0000 C   0  0  0  0  0  0  0  0  0  0  0  0
    2.6154  -16.7526    0.0000 C   0  0  0  0  0  0  0  0  0  0  0  0
    4.0857  -16.4559    0.0000 C   0  0  0  0  0  0  0  0  0  0  0  0
    5.5241  -16.0304    0.0000 C   0  0  0  0  0  0  0  0  0  0  0  0
    6.9193  -15.4795    0.0000 C   0  0  0  0  0  0  0  0  0  0  0  0
    8.2603  -14.8074    0.0000 C   0  0  0  0  0  0  0  0  0  0  0  0
    9.5366  -14.0194    0.0000 C   0  0  0  0  0  0  0  0  0  0  0  0
   10.7383  -13.1217    0.0000 C   0  0  0  0  0  0  0  0  0  0  0  0
   11.8560  -12.1213    0.0000 C   0  0  0  0  0  0  0  0  0  0  0  0
   12.8809  -11.0260    0.0000 C   0  0  0  0  0  0  0  0  0  0  0  0
   13.8050   -9.8444    0.0000 C   0  0  0  0  0  0  0  0  0  0  0  0
   14.6210   -8.5858    0.0000 C   0  0  0  0  0  0  0  0  0  0  0  0
   15.3226   -7.2600    0.0000 C   0  0  0  0  0  0  0  0  0  0  0  0
   15.9043   -5.8774    0.0000 C   0  0  0  0  0  0  0  0  0  0  0  0
   16.3615   -4.4488    0.0000 C   0  0  0  0  0  0  0  0  0  0  0  0
   16.6907   -2.9853    0.0000 C   0  0  0  0  0  0  0  0  0  0  0  0
   16.8892   -1.4985    0.0000 C   0  0  0  0  0  0  0  0  0  0  0  0
  1  2  1  0
  2  3  1  0
  3  4  1  0
  4  5  1  0
  5  6  1  0
  6  7  1  0
  7  8  1  0
  8  9  1  0
  9 10  1  0
 10 11  1  0
 11 12  1  0
 12 13  1  0
 13 14  1  0
 14 15  1  0
 15 16  1  0
 16 17  1  0
 17 18  1  0
 18 19  1  0
 19 20  1  0
 20 21  1  0
 21 22  1  0
 22 23  1  0
 23 24  1  0
 24 25  1  0
 25 26  1  0
 26 27  1  0
 27 28  1  0
 28 29  1  0
 29 30  1  0
 30 31  1  0
 31 32  1  0
 32 33  1  0
 33 34  1  0
 34 35  1  0
 35 36  1  0
 36 37  1  0
 37 38  1  0
 38 39  1  0
 39 40  1  0
 40 41  1  0
 41 42  1  0
 42 43  1  0
 43 44  1  0
 44 45  1  0
 45 46  1  0
 46 47  1  0
 47 48  1  0
 48 49  1  0
 49 50  1  0
 50 51  1  0
 51 52  1  0
 52 53  1  0
 53 54  1  0
 54 55  1  0
 55 56  1  0
 56 57  1  0
 57 58  1  0
 58 59  1  0
 59 60  1  0
 60 61  1  0
 61 62  1  0
 62 63  1  0
 63 64  1  0
 64 65  1  0
 65 66  1  0
 66 67  1  0
 67 68  1  0
 68 69  1  0
 69 70  1  0
 70 71  1  0
 71 72  1  0
 72  2  1  0
M  END
>  <Title>  (383) 
idAAMYgen7

$$$$

     RDKit          2D

 84 88  0  0  0  0  0  0  0  0999 V2000
   -8.6322   -2.0236    0.0000 C   0  0  0  0  0  0  0  0  0  0  0  0
   -7.9023   -3.3340    0.0000 C   0  0  0  0  0  0  0  0  0  0  0  0
   -9.1776   -4.1237    0.0000 C   0  0  0  0  0  0  0  0  0  0  0  0
  -10.3746   -5.0276    0.0000 C   0  0  0  0  0  0  0  0  0  0  0  0
  -11.4831   -6.0382    0.0000 C   0  0  0  0  0  0  0  0  0  0  0  0
  -12.4937   -7.1467    0.0000 C   0  0  0  0  0  0  0  0  0  0  0  0
  -13.3976   -8.3437    0.0000 C   0  0  0  0  0  0  0  0  0  0  0  0
  -14.1873   -9.6190    0.0000 C   0  0  0  0  0  0  0  0  0  0  0  0
  -14.8559  -10.9618    0.0000 C   0  0  0  0  0  0  0  0  0  0  0  0
  -15.3977  -12.3605    0.0000 C   0  0  0  0  0  0  0  0  0  0  0  0
  -15.8082  -13.8032    0.0000 C   0  0  0  0  0  0  0  0  0  0  0  0
  -16.0839  -15.2777    0.0000 C   0  0  0  0  0  0  0  0  0  0  0  0
  -16.2223  -16.7713    0.0000 C   0  0  0  0  0  0  0  0  0  0  0  0
  -16.2223  -18.2713    0.0000 C   0  0  0  0  0  0  0  0  0  0  0  0
  -16.0839  -19.7649    0.0000 C   0  0  0  0  0  0  0  0  0  0  0  0
  -15.8082  -21.2394    0.0000 C   0  0  0  0  0  0  0  0  0  0  0  0
  -15.3977  -22.6821    0.0000 C   0  0  0  0  0  0  0  0  0  0  0  0
  -14.8559  -24.0808    0.0000 C   0  0  0  0  0  0  0  0  0  0  0  0
  -14.1873  -25.4235    0.0000 C   0  0  0  0  0  0  0  0  0  0  0  0
  -13.3976  -26.6989    0.0000 C   0  0  0  0  0  0  0  0  0  0  0  0
  -12.4937  -27.8959    0.0000 C   0  0  0  0  0  0  0  0  0  0  0  0
  -11.4831  -29.0044    0.0000 C   0  0  0  0  0  0  0  0  0  0  0  0
  -10.3746  -30.0150    0.0000 C   0  0  0  0  0  0  0  0  0  0  0  0
   -9.1776  -30.9189    0.0000 C   0  0  0  0  0  0  0  0  0  0  0  0
   -7.9023  -31.7086    0.0000 C   0  0  0  0  0  0  0  0  0  0  0  0
   -6.5595  -32.3772    0.0000 C   0  0  0  0  0  0  0  0  0  0  0  0
   -5.1608  -32.9190    0.0000 C   0  0  0  0  0  0  0  0  0  0  0  0
   -3.7181  -33.3295    0.0000 C   0  0  0  0  0  0  0  0  0  0  0  0
   -2.2436  -33.6051    0.0000 C   0  0  0  0  0  0  0  0  0  0  0  0
   -0.7500  -33.7435    0.0000 C   0  0  0  0  0  0  0  0  0  0  0  0
    0.7500  -33.7435    0.0000 C   0  0  0  0  0  0  0  0  0  0  0  0
    2.2436  -33.6051    0.0000 C   0  0  0  0  0  0  0  0  0  0  0  0
    3.7181  -33.3295    0.0000 C   0  0  0  0  0  0  0  0  0  0  0  0
    5.1608  -32.9190    0.0000 C   0  0  0  0  0  0  0  0  0  0  0  0
    6.5595  -32.3772    0.0000 C   0  0  0  0  0  0  0  0  0  0  0  0
    7.9023  -31.7086    0.0000 C   0  0  0  0  0  0  0  0  0  0  0  0
    9.1776  -30.9189    0.0000 C   0  0  0  0  0  0  0  0  0  0  0  0
   10.3746  -30.0150    0.0000 C   0  0  0  0  0  0  0  0  0  0  0  0
   11.4831  -29.0044    0.0000 C   0  0  0  0  0  0  0  0  0  0  0  0
   12.4937  -27.8959    0.0000 C   0  0  0  0  0  0  0  0  0  0  0  0
   13.3976  -26.6989    0.0000 C   0  0  0  0  0  0  0  0  0  0  0  0
   14.1873  -25.4235    0.0000 C   0  0  0  0  0  0  0  0  0  0  0  0
   14.8559  -24.0808    0.0000 C   0  0  0  0  0  0  0  0  0  0  0  0
   15.3977  -22.6821    0.0000 C   0  0  0  0  0  0  0  0  0  0  0  0
   15.8082  -21.2394    0.0000 C   0  0  0  0  0  0  0  0  0  0  0  0
   16.0839  -19.7649    0.0000 C   0  0  0  0  0  0  0  0  0  0  0  0
   16.2223  -18.2713    0.0000 C   0  0  0  0  0  0  0  0  0  0  0  0
   16.2223  -16.7713    0.0000 C   0  0  0  0  0  0  0  0  0  0  0  0
   16.0839  -15.2777    0.0000 C   0  0  0  0  0  0  0  0  0  0  0  0
   15.8082  -13.8032    0.0000 C   0  0  0  0  0  0  0  0  0  0  0  0
   15.3977  -12.3605    0.0000 C   0  0  0  0  0  0  0  0  0  0  0  0
   14.8559  -10.9618    0.0000 C   0  0  0  0  0  0  0  0  0  0  0  0
   14.1873   -9.6190    0.0000 C   0  0  0  0  0  0  0  0  0  0  0  0
   13.3976   -8.3437    0.0000 C   0  0  0  0  0  0  0  0  0  0  0  0
   12.4937   -7.1467    0.0000 C   0  0  0  0  0  0  0  0  0  0  0  0
   11.4831   -6.0382    0.0000 C   0  0  0  0  0  0  0  0  0  0  0  0
   10.3746   -5.0276    0.0000 C   0  0  0  0  0  0  0  0  0  0  0  0
    9.1776   -4.1237    0.0000 N   0  0  0  0  0  0  0  0  0  0  0  0
    7.9023   -3.3340    0.0000 N   0  0  0  0  0  0  0  0  0  0  0  0
    6.5595   -2.6654    0.0000 C   0  0  0  0  0  0  0  0  0  0  0  0
    5.1608   -2.1236    0.0000 C   0  0  0  0  0  0  0  0  0  0  0  0
    3.7181   -1.7131    0.0000 C   0  0  0  0  0  0  0  0  0  0  0  0
    3.9116   -3.2005    0.0000 C   0  0  0  0  0  0  0  0  0  0  0  0
    2.5567   -3.8442    0.0000 C   0  0  0  0  0  0  0  0  0  0  0  0
    1.5258   -2.7546    0.0000 C   0  0  0  0  0  0  0  0  0  0  0  0
    2.2436   -1.4374    0.0000 C   0  0  0  0  0  0  0  0  0  0  0  0
    0.7500   -1.2990    0.0000 C   0  0  0  0  0  0  0  0  0  0  0  0
    1.5000    0.0000    0.0000 C   0  0  0  0  0  0  0  0  0  0  0  0
    0.7500    1.2990    0.0000 C   0  0  0  0  0  0  0  0  0  0  0  0
   -0.7500    1.2990    0.0000 C   0  0  0  0  0  0  0  0  0  0  0  0
   -1.5000    0.0000    0.0000 C   0  0  0  0  0  0  0  0  0  0  0  0
   -0.7500   -1.2990    0.0000 C   0  0  0  0  0  0  0  0  0  0  0  0
   -2.2436   -1.4374    0.0000 C   0  0  0  0  0  0  0  0  0  0  0  0
   -1.2677   -2.5765    0.0000 C   0  0  0  0  0  0  0  0  0  0  0  0
   -1.7662   -3.9913    0.0000 C   0  0  0  0  0  0  0  0  0  0  0  0
   -3.2407   -4.2669    0.0000 C   0  0  0  0  0  0  0  0  0  0  0  0
   -4.2166   -3.1278    0.0000 C   0  0  0  0  0  0  0  0  0  0  0  0
   -3.7181   -1.7131    0.0000 C   0  0  0  0  0  0  0  0  0  0  0  0
   -5.1608   -2.1236    0.0000 C   0  0  0  0  0  0  0  0  0  0  0  0
   -4.9307   -0.6413    0.0000 C   0  0  0  0  0  0  0  0  0  0  0  0
   -6.0993    0.2991    0.0000 C   0  0  0  0  0  0  0  0  0  0  0  0
   -7.4980   -0.2428    0.0000 C   0  0  0  0  0  0  0  0  0  0  0  0
   -7.7281   -1.7250    0.0000 C   0  0  0  0  0  0  0  0  0  0  0  0
   -6.5595   -2.6654    0.0000 C   0  0  0  0  0  0  0  0  0  0  0  0
  1  2  1  0
  2  3  1  0
  3  4  1  0
  4  5  1  0
  5  6  1  0
  6  7  1  0
  7  8  1  0
  8  9  1  0
  9 10  1  0
 10 11  1  0
 11 12  1  0
 12 13  1  0
 13 14  1  0
 14 15  1  0
 15 16  1  0
 16 17  1  0
 17 18  1  0
 18 19  1  0
 19 20  1  0
 20 21  1  0
 21 22  1  0
 22 23  1  0
 23 24  1  0
 24 25  1  0
 25 26  1  0
 26 27  1  0
 27 28  1  0
 28 29  1  0
 29 30  1  0
 30 31  1  0
 31 32  1  0
 32 33  1  0
 33 34  1  0
 34 35  1  0
 35 36  1  0
 36 37  1  0
 37 38  1  0
 38 39  1  0
 39 40  1  0
 40 41  1  0
 41 42  1  0
 42 43  1  0
 43 44  1  0
 44 45  1  0
 45 46  1  0
 46 47  1  0
 47 48  1  0
 48 49  1  0
 49 50  1  0
 50 51  1  0
 51 52  1  0
 52 53  1  0
 53 54  1  0
 54 55  1  0
 55 56  1  0
 56 57  1  0
 57 58  2  0
 58 59  1  0
 59 60  2  0
 60 61  1  0
 61 62  2  0
 62 63  1  0
 63 64  2  0
 64 65  1  0
 65 66  2  0
 66 67  1  0
 67 68  2  0
 68 69  1  0
 69 70  2  0
 70 71  1  0
 71 72  2  0
 72 73  1  0
 73 74  2  0
 74 75  1  0
 75 76  2  0
 76 77  1  0
 77 78  2  0
 78 79  1  0
 79 80  2  0
 80 81  1  0
 81 82  2  0
 82 83  1  0
 83 84  2  0
 84  2  1  0
 66 62  1  0
 72 67  1  0
 78 73  1  0
 84 79  1  0
M  END
>  <Title>  (384) 
idAAMZgen7

$$$$

     RDKit          2D

 30 33  0  0  0  0  0  0  0  0999 V2000
    3.2286   -0.0000    0.0000 C   0  0  0  0  0  0  0  0  0  0  0  0
    1.7286    0.0000    0.0000 C   0  0  0  0  0  0  0  0  0  0  0  0
    1.0777    1.3515    0.0000 C   0  0  0  0  0  0  0  0  0  0  0  0
   -0.3846    1.6852    0.0000 C   0  0  0  0  0  0  0  0  0  0  0  0
   -1.5574    0.7500    0.0000 C   0  0  0  0  0  0  0  0  0  0  0  0
   -1.5574   -0.7500    0.0000 C   0  0  0  0  0  0  0  0  0  0  0  0
   -2.9088   -1.4008    0.0000 C   0  0  0  0  0  0  0  0  0  0  0  0
   -3.0209   -2.8966    0.0000 O   0  0  0  0  0  0  0  0  0  0  0  0
   -4.1482   -0.5558    0.0000 N   0  0  0  0  0  0  0  0  0  0  0  0
   -5.4997   -1.2067    0.0000 C   0  0  0  0  0  0  0  0  0  0  0  0
   -5.7675   -2.6826    0.0000 N   0  0  0  0  0  0  0  0  0  0  0  0
   -7.2539   -2.8839    0.0000 N   0  0  0  0  0  0  0  0  0  0  0  0
   -7.9047   -1.5325    0.0000 N   0  0  0  0  0  0  0  0  0  0  0  0
   -6.8205   -0.4959    0.0000 N   0  0  0  0  0  0  0  0  0  0  0  0
   -7.0219    0.9906    0.0000 N   0  0  0  0  0  0  0  0  0  0  0  0
   -8.3428    1.7014    0.0000 C   0  0  0  0  0  0  0  0  0  0  0  0
   -8.0750    3.1773    0.0000 C   0  0  0  0  0  0  0  0  0  0  0  0
   -6.5885    3.3786    0.0000 N   0  0  0  0  0  0  0  0  0  0  0  0
   -5.8777    4.6995    0.0000 C   0  0  0  0  0  0  0  0  0  0  0  0
   -6.6663    5.9755    0.0000 O   0  0  0  0  0  0  0  0  0  0  0  0
   -4.3784    4.7444    0.0000 C   0  0  0  0  0  0  0  0  0  0  0  0
   -3.6676    6.0653    0.0000 C   0  0  0  0  0  0  0  0  0  0  0  0
   -2.1683    6.1101    0.0000 C   0  0  0  0  0  0  0  0  0  0  0  0
   -1.4575    7.4310    0.0000 C   0  0  0  0  0  0  0  0  0  0  0  0
   -2.2460    8.7071    0.0000 C   0  0  0  0  0  0  0  0  0  0  0  0
   -3.7453    8.6622    0.0000 C   0  0  0  0  0  0  0  0  0  0  0  0
   -4.4561    7.3413    0.0000 C   0  0  0  0  0  0  0  0  0  0  0  0
   -5.9377    2.0272    0.0000 C   0  0  0  0  0  0  0  0  0  0  0  0
   -0.3846   -1.6852    0.0000 C   0  0  0  0  0  0  0  0  0  0  0  0
    1.0777   -1.3515    0.0000 C   0  0  0  0  0  0  0  0  0  0  0  0
  1  2  1  0
  2  3  1  0
  3  4  1  0
  4  5  1  0
  5  6  1  0
  6  7  1  0
  7  8  2  0
  7  9  1  0
  9 10  1  0
 10 11  2  0
 11 12  1  0
 12 13  2  0
 13 14  1  0
 14 15  1  0
 15 16  1  0
 16 17  1  0
 17 18  1  0
 18 19  1  0
 19 20  2  0
 19 21  1  0
 21 22  1  0
 22 23  2  0
 23 24  1  0
 24 25  2  0
 25 26  1  0
 26 27  2  0
 18 28  1  0
  6 29  1  0
 29 30  1  0
 30  2  1  0
 14 10  1  0
 28 15  1  0
 27 22  1  0
M  END
>  <Title>  (385) 
idAANAgen7

$$$$

     RDKit          2D

 66 67  0  0  0  0  0  0  0  0999 V2000
   14.8760    0.0000    0.0000 C   0  0  0  0  0  0  0  0  0  0  0  0
   13.3760    0.0000    0.0000 C   0  0  0  0  0  0  0  0  0  0  0  0
   13.2919   -1.4976    0.0000 C   0  0  0  0  0  0  0  0  0  0  0  0
   13.0407   -2.9764    0.0000 C   0  0  0  0  0  0  0  0  0  0  0  0
   12.6254   -4.4178    0.0000 C   0  0  0  0  0  0  0  0  0  0  0  0
   12.0514   -5.8036    0.0000 C   0  0  0  0  0  0  0  0  0  0  0  0
   11.3258   -7.1165    0.0000 C   0  0  0  0  0  0  0  0  0  0  0  0
   10.4578   -8.3398    0.0000 C   0  0  0  0  0  0  0  0  0  0  0  0
    9.4583   -9.4583    0.0000 C   0  0  0  0  0  0  0  0  0  0  0  0
    8.3398  -10.4578    0.0000 C   0  0  0  0  0  0  0  0  0  0  0  0
    7.1165  -11.3258    0.0000 C   0  0  0  0  0  0  0  0  0  0  0  0
    5.8036  -12.0514    0.0000 C   0  0  0  0  0  0  0  0  0  0  0  0
    4.4178  -12.6254    0.0000 C   0  0  0  0  0  0  0  0  0  0  0  0
    2.9764  -13.0407    0.0000 C   0  0  0  0  0  0  0  0  0  0  0  0
    1.4976  -13.2919    0.0000 C   0  0  0  0  0  0  0  0  0  0  0  0
   -0.0000  -13.3760    0.0000 C   0  0  0  0  0  0  0  0  0  0  0  0
   -1.4976  -13.2919    0.0000 C   0  0  0  0  0  0  0  0  0  0  0  0
   -2.9764  -13.0407    0.0000 C   0  0  0  0  0  0  0  0  0  0  0  0
   -4.4178  -12.6254    0.0000 C   0  0  0  0  0  0  0  0  0  0  0  0
   -5.8036  -12.0514    0.0000 C   0  0  0  0  0  0  0  0  0  0  0  0
   -7.1165  -11.3258    0.0000 C   0  0  0  0  0  0  0  0  0  0  0  0
   -8.3398  -10.4578    0.0000 C   0  0  0  0  0  0  0  0  0  0  0  0
   -9.4583   -9.4583    0.0000 C   0  0  0  0  0  0  0  0  0  0  0  0
  -10.4578   -8.3398    0.0000 C   0  0  0  0  0  0  0  0  0  0  0  0
  -11.3258   -7.1165    0.0000 C   0  0  0  0  0  0  0  0  0  0  0  0
  -12.0514   -5.8036    0.0000 C   0  0  0  0  0  0  0  0  0  0  0  0
  -12.6254   -4.4178    0.0000 C   0  0  0  0  0  0  0  0  0  0  0  0
  -13.0407   -2.9764    0.0000 C   0  0  0  0  0  0  0  0  0  0  0  0
  -13.2919   -1.4976    0.0000 C   0  0  0  0  0  0  0  0  0  0  0  0
  -13.3760    0.0000    0.0000 C   0  0  0  0  0  0  0  0  0  0  0  0
  -13.2919    1.4976    0.0000 C   0  0  0  0  0  0  0  0  0  0  0  0
  -13.0407    2.9764    0.0000 C   0  0  0  0  0  0  0  0  0  0  0  0
  -12.6254    4.4178    0.0000 C   0  0  0  0  0  0  0  0  0  0  0  0
  -12.0514    5.8036    0.0000 C   0  0  0  0  0  0  0  0  0  0  0  0
  -11.3258    7.1165    0.0000 C   0  0  0  0  0  0  0  0  0  0  0  0
  -10.4578    8.3398    0.0000 C   0  0  0  0  0  0  0  0  0  0  0  0
   -9.4583    9.4583    0.0000 C   0  0  0  0  0  0  0  0  0  0  0  0
   -8.3398   10.4578    0.0000 C   0  0  0  0  0  0  0  0  0  0  0  0
   -7.1165   11.3258    0.0000 C   0  0  0  0  0  0  0  0  0  0  0  0
   -5.8036   12.0514    0.0000 C   0  0  0  0  0  0  0  0  0  0  0  0
   -4.4178   12.6254    0.0000 C   0  0  0  0  0  0  0  0  0  0  0  0
   -2.9764   13.0407    0.0000 C   0  0  0  0  0  0  0  0  0  0  0  0
   -1.4976   13.2919    0.0000 C   0  0  0  0  0  0  0  0  0  0  0  0
    0.0000   13.3760    0.0000 C   0  0  0  0  0  0  0  0  0  0  0  0
    1.4976   13.2919    0.0000 C   0  0  0  0  0  0  0  0  0  0  0  0
    2.9764   13.0407    0.0000 C   0  0  0  0  0  0  0  0  0  0  0  0
    4.4178   12.6254    0.0000 C   0  0  0  0  0  0  0  0  0  0  0  0
    5.8036   12.0514    0.0000 C   0  0  0  0  0  0  0  0  0  0  0  0
    7.1165   11.3258    0.0000 C   0  0  0  0  0  0  0  0  0  0  0  0
    8.3398   10.4578    0.0000 C   0  0  0  0  0  0  0  0  0  0  0  0
    9.4583    9.4583    0.0000 C   0  0  0  0  0  0  0  0  0  0  0  0
   10.4578    8.3398    0.0000 C   0  0  0  0  0  0  0  0  0  0  0  0
   11.3258    7.1165    0.0000 C   0  0  0  0  0  0  0  0  0  0  0  0
   12.0514    5.8036    0.0000 C   0  0  0  0  0  0  0  0  0  0  0  0
   12.6254    4.4178    0.0000 C   0  0  0  0  0  0  0  0  0  0  0  0
   13.0407    2.9764    0.0000 C   0  0  0  0  0  0  0  0  0  0  0  0
   14.5031    3.3102    0.0000 C   0  0  0  0  0  0  0  0  0  0  0  0
   15.5233    2.2107    0.0000 O   0  0  0  0  0  0  0  0  0  0  0  0
   14.9452    4.7436    0.0000 N   0  0  0  0  0  0  0  0  0  0  0  0
   16.4076    5.0774    0.0000 C   0  0  0  0  0  0  0  0  0  0  0  0
   17.4278    3.9778    0.0000 N   0  0  0  0  0  0  0  0  0  0  0  0
   18.8902    4.3116    0.0000 N   0  0  0  0  0  0  0  0  0  0  0  0
   19.3324    5.7449    0.0000 N   0  0  0  0  0  0  0  0  0  0  0  0
   18.3121    6.8445    0.0000 N   0  0  0  0  0  0  0  0  0  0  0  0
   16.8497    6.5107    0.0000 N   0  0  0  0  0  0  0  0  0  0  0  0
   13.2919    1.4976    0.0000 C   0  0  0  0  0  0  0  0  0  0  0  0
  1  2  1  0
  2  3  1  0
  3  4  1  0
  4  5  1  0
  5  6  1  0
  6  7  1  0
  7  8  1  0
  8  9  1  0
  9 10  1  0
 10 11  1  0
 11 12  1  0
 12 13  1  0
 13 14  1  0
 14 15  1  0
 15 16  1  0
 16 17  1  0
 17 18  1  0
 18 19  1  0
 19 20  1  0
 20 21  1  0
 21 22  1  0
 22 23  1  0
 23 24  1  0
 24 25  1  0
 25 26  1  0
 26 27  1  0
 27 28  1  0
 28 29  1  0
 29 30  1  0
 30 31  1  0
 31 32  1  0
 32 33  1  0
 33 34  1  0
 34 35  1  0
 35 36  1  0
 36 37  1  0
 37 38  1  0
 38 39  1  0
 39 40  1  0
 40 41  1  0
 41 42  1  0
 42 43  1  0
 43 44  1  0
 44 45  1  0
 45 46  1  0
 46 47  1  0
 47 48  1  0
 48 49  1  0
 49 50  1  0
 50 51  1  0
 51 52  1  0
 52 53  1  0
 53 54  1  0
 54 55  1  0
 55 56  1  0
 56 57  1  0
 57 58  2  0
 57 59  1  0
 59 60  1  0
 60 61  2  0
 61 62  1  0
 62 63  2  0
 63 64  1  0
 64 65  2  0
 56 66  1  0
 66  2  1  0
 65 60  1  0
M  END
>  <Title>  (386) 
idAANBgen7

$$$$

     RDKit          2D

 91 91  0  0  0  0  0  0  0  0999 V2000
   22.9903   -0.0000    0.0000 O   0  0  0  0  0  0  0  0  0  0  0  0
   21.4903    0.0000    0.0000 C   0  0  0  0  0  0  0  0  0  0  0  0
   21.4379   -1.4991    0.0000 C   0  0  0  0  0  0  0  0  0  0  0  0
   21.2811   -2.9909    0.0000 C   0  0  0  0  0  0  0  0  0  0  0  0
   21.0207   -4.4681    0.0000 C   0  0  0  0  0  0  0  0  0  0  0  0
   20.6578   -5.9235    0.0000 C   0  0  0  0  0  0  0  0  0  0  0  0
   20.1943   -7.3501    0.0000 C   0  0  0  0  0  0  0  0  0  0  0  0
   19.6323   -8.7409    0.0000 C   0  0  0  0  0  0  0  0  0  0  0  0
   18.9748  -10.0891    0.0000 C   0  0  0  0  0  0  0  0  0  0  0  0
   18.2248  -11.3881    0.0000 C   0  0  0  0  0  0  0  0  0  0  0  0
   17.3860  -12.6317    0.0000 C   0  0  0  0  0  0  0  0  0  0  0  0
   16.4625  -13.8137    0.0000 C   0  0  0  0  0  0  0  0  0  0  0  0
   15.4588  -14.9284    0.0000 C   0  0  0  0  0  0  0  0  0  0  0  0
   14.3798  -15.9704    0.0000 C   0  0  0  0  0  0  0  0  0  0  0  0
   13.2307  -16.9346    0.0000 C   0  0  0  0  0  0  0  0  0  0  0  0
   12.0172  -17.8163    0.0000 C   0  0  0  0  0  0  0  0  0  0  0  0
   10.7451  -18.6111    0.0000 C   0  0  0  0  0  0  0  0  0  0  0  0
    9.4207  -19.3153    0.0000 C   0  0  0  0  0  0  0  0  0  0  0  0
    8.0504  -19.9254    0.0000 C   0  0  0  0  0  0  0  0  0  0  0  0
    6.6409  -20.4385    0.0000 C   0  0  0  0  0  0  0  0  0  0  0  0
    5.1990  -20.8519    0.0000 C   0  0  0  0  0  0  0  0  0  0  0  0
    3.7317  -21.1638    0.0000 C   0  0  0  0  0  0  0  0  0  0  0  0
    2.2463  -21.3726    0.0000 C   0  0  0  0  0  0  0  0  0  0  0  0
    0.7500  -21.4772    0.0000 C   0  0  0  0  0  0  0  0  0  0  0  0
   -0.7500  -21.4772    0.0000 C   0  0  0  0  0  0  0  0  0  0  0  0
   -2.2463  -21.3726    0.0000 C   0  0  0  0  0  0  0  0  0  0  0  0
   -3.7317  -21.1638    0.0000 C   0  0  0  0  0  0  0  0  0  0  0  0
   -5.1990  -20.8519    0.0000 C   0  0  0  0  0  0  0  0  0  0  0  0
   -6.6409  -20.4385    0.0000 C   0  0  0  0  0  0  0  0  0  0  0  0
   -8.0504  -19.9254    0.0000 C   0  0  0  0  0  0  0  0  0  0  0  0
   -9.4207  -19.3153    0.0000 C   0  0  0  0  0  0  0  0  0  0  0  0
  -10.7451  -18.6111    0.0000 C   0  0  0  0  0  0  0  0  0  0  0  0
  -12.0172  -17.8163    0.0000 C   0  0  0  0  0  0  0  0  0  0  0  0
  -13.2307  -16.9346    0.0000 C   0  0  0  0  0  0  0  0  0  0  0  0
  -14.3798  -15.9704    0.0000 C   0  0  0  0  0  0  0  0  0  0  0  0
  -15.4588  -14.9284    0.0000 C   0  0  0  0  0  0  0  0  0  0  0  0
  -16.4625  -13.8137    0.0000 C   0  0  0  0  0  0  0  0  0  0  0  0
  -17.3860  -12.6317    0.0000 C   0  0  0  0  0  0  0  0  0  0  0  0
  -18.2248  -11.3881    0.0000 C   0  0  0  0  0  0  0  0  0  0  0  0
  -18.9748  -10.0891    0.0000 C   0  0  0  0  0  0  0  0  0  0  0  0
  -19.6323   -8.7409    0.0000 C   0  0  0  0  0  0  0  0  0  0  0  0
  -20.1943   -7.3501    0.0000 C   0  0  0  0  0  0  0  0  0  0  0  0
  -20.6578   -5.9235    0.0000 C   0  0  0  0  0  0  0  0  0  0  0  0
  -21.0207   -4.4681    0.0000 C   0  0  0  0  0  0  0  0  0  0  0  0
  -21.2811   -2.9909    0.0000 C   0  0  0  0  0  0  0  0  0  0  0  0
  -21.4379   -1.4991    0.0000 C   0  0  0  0  0  0  0  0  0  0  0  0
  -21.4903    0.0000    0.0000 C   0  0  0  0  0  0  0  0  0  0  0  0
  -21.4379    1.4991    0.0000 C   0  0  0  0  0  0  0  0  0  0  0  0
  -21.2811    2.9909    0.0000 C   0  0  0  0  0  0  0  0  0  0  0  0
  -21.0207    4.4681    0.0000 C   0  0  0  0  0  0  0  0  0  0  0  0
  -20.6578    5.9235    0.0000 C   0  0  0  0  0  0  0  0  0  0  0  0
  -20.1943    7.3501    0.0000 C   0  0  0  0  0  0  0  0  0  0  0  0
  -19.6323    8.7409    0.0000 C   0  0  0  0  0  0  0  0  0  0  0  0
  -18.9748   10.0891    0.0000 C   0  0  0  0  0  0  0  0  0  0  0  0
  -18.2248   11.3881    0.0000 C   0  0  0  0  0  0  0  0  0  0  0  0
  -17.3860   12.6317    0.0000 C   0  0  0  0  0  0  0  0  0  0  0  0
  -16.4625   13.8137    0.0000 C   0  0  0  0  0  0  0  0  0  0  0  0
  -15.4588   14.9284    0.0000 C   0  0  0  0  0  0  0  0  0  0  0  0
  -14.3798   15.9704    0.0000 C   0  0  0  0  0  0  0  0  0  0  0  0
  -13.2307   16.9346    0.0000 C   0  0  0  0  0  0  0  0  0  0  0  0
  -12.0172   17.8163    0.0000 C   0  0  0  0  0  0  0  0  0  0  0  0
  -10.7451   18.6111    0.0000 C   0  0  0  0  0  0  0  0  0  0  0  0
   -9.4207   19.3153    0.0000 C   0  0  0  0  0  0  0  0  0  0  0  0
   -8.0504   19.9254    0.0000 C   0  0  0  0  0  0  0  0  0  0  0  0
   -6.6409   20.4385    0.0000 C   0  0  0  0  0  0  0  0  0  0  0  0
   -5.1990   20.8519    0.0000 C   0  0  0  0  0  0  0  0  0  0  0  0
   -3.7317   21.1638    0.0000 C   0  0  0  0  0  0  0  0  0  0  0  0
   -2.2463   21.3726    0.0000 C   0  0  0  0  0  0  0  0  0  0  0  0
   -0.7500   21.4772    0.0000 C   0  0  0  0  0  0  0  0  0  0  0  0
    0.7500   21.4772    0.0000 C   0  0  0  0  0  0  0  0  0  0  0  0
    2.2463   21.3726    0.0000 C   0  0  0  0  0  0  0  0  0  0  0  0
    3.7317   21.1638    0.0000 C   0  0  0  0  0  0  0  0  0  0  0  0
    5.1990   20.8519    0.0000 C   0  0  0  0  0  0  0  0  0  0  0  0
    6.6409   20.4385    0.0000 C   0  0  0  0  0  0  0  0  0  0  0  0
    8.0504   19.9254    0.0000 C   0  0  0  0  0  0  0  0  0  0  0  0
    9.4207   19.3153    0.0000 C   0  0  0  0  0  0  0  0  0  0  0  0
   10.7451   18.6111    0.0000 C   0  0  0  0  0  0  0  0  0  0  0  0
   12.0172   17.8163    0.0000 C   0  0  0  0  0  0  0  0  0  0  0  0
   13.2307   16.9346    0.0000 C   0  0  0  0  0  0  0  0  0  0  0  0
   14.3798   15.9704    0.0000 C   0  0  0  0  0  0  0  0  0  0  0  0
   15.4588   14.9284    0.0000 C   0  0  0  0  0  0  0  0  0  0  0  0
   16.4625   13.8137    0.0000 C   0  0  0  0  0  0  0  0  0  0  0  0
   17.3860   12.6317    0.0000 C   0  0  0  0  0  0  0  0  0  0  0  0
   18.2248   11.3881    0.0000 C   0  0  0  0  0  0  0  0  0  0  0  0
   18.9748   10.0891    0.0000 C   0  0  0  0  0  0  0  0  0  0  0  0
   19.6323    8.7409    0.0000 C   0  0  0  0  0  0  0  0  0  0  0  0
   20.1943    7.3501    0.0000 C   0  0  0  0  0  0  0  0  0  0  0  0
   20.6578    5.9235    0.0000 C   0  0  0  0  0  0  0  0  0  0  0  0
   21.0207    4.4681    0.0000 C   0  0  0  0  0  0  0  0  0  0  0  0
   21.2811    2.9909    0.0000 C   0  0  0  0  0  0  0  0  0  0  0  0
   21.4379    1.4991    0.0000 C   0  0  0  0  0  0  0  0  0  0  0  0
  1  2  1  0
  2  3  1  0
  3  4  1  0
  4  5  1  0
  5  6  1  0
  6  7  1  0
  7  8  1  0
  8  9  1  0
  9 10  1  0
 10 11  1  0
 11 12  1  0
 12 13  1  0
 13 14  1  0
 14 15  1  0
 15 16  1  0
 16 17  1  0
 17 18  1  0
 18 19  1  0
 19 20  1  0
 20 21  1  0
 21 22  1  0
 22 23  1  0
 23 24  1  0
 24 25  1  0
 25 26  1  0
 26 27  1  0
 27 28  1  0
 28 29  1  0
 29 30  1  0
 30 31  1  0
 31 32  1  0
 32 33  1  0
 33 34  1  0
 34 35  1  0
 35 36  1  0
 36 37  1  0
 37 38  1  0
 38 39  1  0
 39 40  1  0
 40 41  1  0
 41 42  1  0
 42 43  1  0
 43 44  1  0
 44 45  1  0
 45 46  1  0
 46 47  1  0
 47 48  1  0
 48 49  1  0
 49 50  1  0
 50 51  1  0
 51 52  1  0
 52 53  1  0
 53 54  1  0
 54 55  1  0
 55 56  1  0
 56 57  1  0
 57 58  1  0
 58 59  1  0
 59 60  1  0
 60 61  1  0
 61 62  1  0
 62 63  1  0
 63 64  1  0
 64 65  1  0
 65 66  1  0
 66 67  1  0
 67 68  1  0
 68 69  1  0
 69 70  1  0
 70 71  1  0
 71 72  1  0
 72 73  1  0
 73 74  1  0
 74 75  1  0
 75 76  1  0
 76 77  1  0
 77 78  1  0
 78 79  1  0
 79 80  1  0
 80 81  1  0
 81 82  1  0
 82 83  1  0
 83 84  1  0
 84 85  1  0
 85 86  1  0
 86 87  1  0
 87 88  1  0
 88 89  1  0
 89 90  1  0
 90 91  1  0
 91  2  1  0
M  END
>  <Title>  (387) 
idAANCgen7

$$$$

     RDKit          2D

 26 27  0  0  0  0  0  0  0  0999 V2000
    4.8705    0.0000    0.0000 C   0  0  0  0  0  0  0  0  0  0  0  0
    3.3705    0.0000    0.0000 C   0  0  0  0  0  0  0  0  0  0  0  0
    3.0367   -1.4624    0.0000 C   0  0  0  0  0  0  0  0  0  0  0  0
    2.1015   -2.6351    0.0000 C   0  0  0  0  0  0  0  0  0  0  0  0
    0.7500   -3.2860    0.0000 C   0  0  0  0  0  0  0  0  0  0  0  0
   -0.7500   -3.2860    0.0000 C   0  0  0  0  0  0  0  0  0  0  0  0
   -2.1015   -2.6351    0.0000 C   0  0  0  0  0  0  0  0  0  0  0  0
   -3.0367   -1.4624    0.0000 C   0  0  0  0  0  0  0  0  0  0  0  0
   -3.3705    0.0000    0.0000 C   0  0  0  0  0  0  0  0  0  0  0  0
   -3.0367    1.4624    0.0000 C   0  0  0  0  0  0  0  0  0  0  0  0
   -2.1015    2.6351    0.0000 C   0  0  0  0  0  0  0  0  0  0  0  0
   -0.7500    3.2860    0.0000 C   0  0  0  0  0  0  0  0  0  0  0  0
    0.7500    3.2860    0.0000 C   0  0  0  0  0  0  0  0  0  0  0  0
    2.1015    2.6351    0.0000 C   0  0  0  0  0  0  0  0  0  0  0  0
    3.0367    3.8079    0.0000 C   0  0  0  0  0  0  0  0  0  0  0  0
    2.4887    5.2042    0.0000 C   0  0  0  0  0  0  0  0  0  0  0  0
    1.0054    5.4278    0.0000 O   0  0  0  0  0  0  0  0  0  0  0  0
    3.4239    6.3769    0.0000 N   0  0  0  0  0  0  0  0  0  0  0  0
    2.8759    7.7733    0.0000 C   0  0  0  0  0  0  0  0  0  0  0  0
    1.3927    7.9968    0.0000 N   0  0  0  0  0  0  0  0  0  0  0  0
    0.8446    9.3931    0.0000 N   0  0  0  0  0  0  0  0  0  0  0  0
    1.7799   10.5659    0.0000 N   0  0  0  0  0  0  0  0  0  0  0  0
    3.2631   10.3423    0.0000 N   0  0  0  0  0  0  0  0  0  0  0  0
    3.8111    8.9460    0.0000 N   0  0  0  0  0  0  0  0  0  0  0  0
    3.0367    1.4624    0.0000 C   0  0  0  0  0  0  0  0  0  0  0  0
    4.3881    2.1132    0.0000 O   0  0  0  0  0  0  0  0  0  0  0  0
  1  2  1  0
  2  3  1  0
  3  4  1  0
  4  5  1  0
  5  6  1  0
  6  7  1  0
  7  8  1  0
  8  9  1  0
  9 10  1  0
 10 11  1  0
 11 12  1  0
 12 13  1  0
 13 14  1  0
 14 15  1  0
 15 16  1  0
 16 17  2  0
 16 18  1  0
 18 19  1  0
 19 20  2  0
 20 21  1  0
 21 22  2  0
 22 23  1  0
 23 24  2  0
 14 25  1  0
 25 26  2  0
 25  2  1  0
 24 19  1  0
M  END
>  <Title>  (388) 
idAANDgen7

$$$$

     RDKit          2D

 11 11  0  0  0  0  0  0  0  0999 V2000
   10.2760   -0.0000    0.0000 C   0  0  0  0  0  0  0  0  0  0  0  0
    8.7760   -0.0000    0.0000 C   0  0  0  0  0  0  0  0  0  0  0  0
    7.2760   -0.0000    0.0000 C   0  0  0  0  0  0  0  0  0  0  0  0
    5.7760   -0.0000    0.0000 C   0  0  0  0  0  0  0  0  0  0  0  0
    4.2760   -0.0000    0.0000 C   0  0  0  0  0  0  0  0  0  0  0  0
    2.7760    0.0000    0.0000 C   0  0  0  0  0  0  0  0  0  0  0  0
    1.2760    0.0000    0.0000 C   0  0  0  0  0  0  0  0  0  0  0  0
    0.3943    1.2135    0.0000 C   0  0  0  0  0  0  0  0  0  0  0  0
   -1.0323    0.7500    0.0000 C   0  0  0  0  0  0  0  0  0  0  0  0
   -1.0323   -0.7500    0.0000 C   0  0  0  0  0  0  0  0  0  0  0  0
    0.3943   -1.2135    0.0000 C   0  0  0  0  0  0  0  0  0  0  0  0
  1  2  3  0
  2  3  1  0
  3  4  3  0
  4  5  1  0
  5  6  3  0
  6  7  1  0
  7  8  2  0
  8  9  1  0
  9 10  2  0
 10 11  1  0
 11  7  1  0
M  END
>  <Title>  (389) 
idAANEgen7

$$$$

     RDKit          2D

 15 16  0  0  0  0  0  0  0  0999 V2000
    3.4598   -0.0000    0.0000 O   0  0  0  0  0  0  0  0  0  0  0  0
    1.9598    0.0000    0.0000 C   0  0  0  0  0  0  0  0  0  0  0  0
    1.3858   -1.3858    0.0000 C   0  0  0  0  0  0  0  0  0  0  0  0
   -0.0000   -1.9598    0.0000 C   0  0  0  0  0  0  0  0  0  0  0  0
   -1.3858   -1.3858    0.0000 C   0  0  0  0  0  0  0  0  0  0  0  0
   -1.9598    0.0000    0.0000 C   0  0  0  0  0  0  0  0  0  0  0  0
   -1.3858    1.3858    0.0000 C   0  0  0  0  0  0  0  0  0  0  0  0
    0.0000    1.9598    0.0000 C   0  0  0  0  0  0  0  0  0  0  0  0
    0.0000    3.4598    0.0000 C   0  0  0  0  0  0  0  0  0  0  0  0
    1.2990    4.2098    0.0000 C   0  0  0  0  0  0  0  0  0  0  0  0
    1.2990    5.7098    0.0000 C   0  0  0  0  0  0  0  0  0  0  0  0
    0.0000    6.4598    0.0000 C   0  0  0  0  0  0  0  0  0  0  0  0
   -1.2990    5.7098    0.0000 C   0  0  0  0  0  0  0  0  0  0  0  0
   -1.2990    4.2098    0.0000 C   0  0  0  0  0  0  0  0  0  0  0  0
    1.3858    1.3858    0.0000 N   0  0  0  0  0  0  0  0  0  0  0  0
  1  2  1  0
  2  3  2  0
  3  4  1  0
  4  5  1  0
  5  6  1  0
  6  7  1  0
  7  8  1  0
  8  9  1  0
  9 10  2  0
 10 11  1  0
 11 12  2  0
 12 13  1  0
 13 14  2  0
  8 15  1  0
 15  2  1  0
 14  9  1  0
M  END
>  <Title>  (390) 
idAANFgen7

$$$$

     RDKit          2D

 35 39  0  0  0  0  0  0  0  0999 V2000
   -1.1382   -8.3460    0.0000 C   0  0  0  0  0  0  0  0  0  0  0  0
   -0.7500   -6.8971    0.0000 C   0  0  0  0  0  0  0  0  0  0  0  0
    0.7500   -6.8971    0.0000 C   0  0  0  0  0  0  0  0  0  0  0  0
    2.0490   -6.1471    0.0000 C   0  0  0  0  0  0  0  0  0  0  0  0
    2.7990   -4.8481    0.0000 C   0  0  0  0  0  0  0  0  0  0  0  0
    4.2479   -5.2363    0.0000 C   0  0  0  0  0  0  0  0  0  0  0  0
    5.3086   -4.1756    0.0000 O   0  0  0  0  0  0  0  0  0  0  0  0
    4.6362   -6.6852    0.0000 N   0  0  0  0  0  0  0  0  0  0  0  0
    6.0850   -7.0734    0.0000 C   0  0  0  0  0  0  0  0  0  0  0  0
    6.4733   -8.5223    0.0000 N   0  0  0  0  0  0  0  0  0  0  0  0
    7.9222   -8.9105    0.0000 N   0  0  0  0  0  0  0  0  0  0  0  0
    8.9828   -7.8499    0.0000 N   0  0  0  0  0  0  0  0  0  0  0  0
    8.5946   -6.4010    0.0000 N   0  0  0  0  0  0  0  0  0  0  0  0
    7.1457   -6.0128    0.0000 N   0  0  0  0  0  0  0  0  0  0  0  0
    2.7990   -3.3481    0.0000 C   0  0  0  0  0  0  0  0  0  0  0  0
    4.2479   -2.9598    0.0000 O   0  0  0  0  0  0  0  0  0  0  0  0
    2.0490   -2.0490    0.0000 O   0  0  0  0  0  0  0  0  0  0  0  0
    0.7500   -1.2990    0.0000 C   0  0  0  0  0  0  0  0  0  0  0  0
    1.5000    0.0000    0.0000 C   0  0  0  0  0  0  0  0  0  0  0  0
    0.7500    1.2990    0.0000 C   0  0  0  0  0  0  0  0  0  0  0  0
   -0.7500    1.2990    0.0000 C   0  0  0  0  0  0  0  0  0  0  0  0
   -1.5000    0.0000    0.0000 C   0  0  0  0  0  0  0  0  0  0  0  0
   -0.7500   -1.2990    0.0000 C   0  0  0  0  0  0  0  0  0  0  0  0
   -2.0490   -2.0490    0.0000 C   0  0  0  0  0  0  0  0  0  0  0  0
   -2.7990   -0.7500    0.0000 C   0  0  0  0  0  0  0  0  0  0  0  0
   -4.2990   -0.7500    0.0000 C   0  0  0  0  0  0  0  0  0  0  0  0
   -5.0490   -2.0490    0.0000 C   0  0  0  0  0  0  0  0  0  0  0  0
   -4.2990   -3.3481    0.0000 C   0  0  0  0  0  0  0  0  0  0  0  0
   -2.7990   -3.3481    0.0000 C   0  0  0  0  0  0  0  0  0  0  0  0
   -2.7990   -4.8481    0.0000 C   0  0  0  0  0  0  0  0  0  0  0  0
   -4.2990   -4.8481    0.0000 C   0  0  0  0  0  0  0  0  0  0  0  0
   -5.0490   -6.1471    0.0000 C   0  0  0  0  0  0  0  0  0  0  0  0
   -4.2990   -7.4462    0.0000 C   0  0  0  0  0  0  0  0  0  0  0  0
   -2.7990   -7.4462    0.0000 C   0  0  0  0  0  0  0  0  0  0  0  0
   -2.0490   -6.1471    0.0000 C   0  0  0  0  0  0  0  0  0  0  0  0
  1  2  1  0
  2  3  1  0
  3  4  1  0
  4  5  1  0
  5  6  1  0
  6  7  2  0
  6  8  1  0
  8  9  1  0
  9 10  2  0
 10 11  1  0
 11 12  2  0
 12 13  1  0
 13 14  2  0
  5 15  1  0
 15 16  2  0
 15 17  1  0
 17 18  1  0
 18 19  2  0
 19 20  1  0
 20 21  2  0
 21 22  1  0
 22 23  2  0
 23 24  1  0
 24 25  2  0
 25 26  1  0
 26 27  2  0
 27 28  1  0
 28 29  2  0
 29 30  1  0
 30 31  2  0
 31 32  1  0
 32 33  2  0
 33 34  1  0
 34 35  2  0
 35  2  1  0
 14  9  1  0
 23 18  1  0
 29 24  1  0
 35 30  1  0
M  END
>  <Title>  (391) 
idAANGgen7

$$$$

     RDKit          2D

 83 83  0  0  0  0  0  0  0  0999 V2000
   21.0808    0.0000    0.0000 C   0  0  0  0  0  0  0  0  0  0  0  0
   19.5808    0.0000    0.0000 C   0  0  0  0  0  0  0  0  0  0  0  0
   19.5234   -1.4989    0.0000 C   0  0  0  0  0  0  0  0  0  0  0  0
   19.3514   -2.9890    0.0000 C   0  0  0  0  0  0  0  0  0  0  0  0
   19.0658   -4.4616    0.0000 C   0  0  0  0  0  0  0  0  0  0  0  0
   18.6683   -5.9079    0.0000 C   0  0  0  0  0  0  0  0  0  0  0  0
   18.1613   -7.3197    0.0000 C   0  0  0  0  0  0  0  0  0  0  0  0
   17.5477   -8.6884    0.0000 C   0  0  0  0  0  0  0  0  0  0  0  0
   16.8311  -10.0062    0.0000 C   0  0  0  0  0  0  0  0  0  0  0  0
   16.0158  -11.2652    0.0000 C   0  0  0  0  0  0  0  0  0  0  0  0
   15.1064  -12.4582    0.0000 C   0  0  0  0  0  0  0  0  0  0  0  0
   14.1084  -13.5780    0.0000 C   0  0  0  0  0  0  0  0  0  0  0  0
   13.0276  -14.6181    0.0000 C   0  0  0  0  0  0  0  0  0  0  0  0
   11.8704  -15.5725    0.0000 C   0  0  0  0  0  0  0  0  0  0  0  0
   10.6435  -16.4355    0.0000 C   0  0  0  0  0  0  0  0  0  0  0  0
    9.3542  -17.2020    0.0000 C   0  0  0  0  0  0  0  0  0  0  0  0
    8.0099  -17.8676    0.0000 C   0  0  0  0  0  0  0  0  0  0  0  0
    6.6187  -18.4283    0.0000 C   0  0  0  0  0  0  0  0  0  0  0  0
    5.1886  -18.8809    0.0000 C   0  0  0  0  0  0  0  0  0  0  0  0
    3.7280  -19.2227    0.0000 C   0  0  0  0  0  0  0  0  0  0  0  0
    2.2456  -19.4517    0.0000 C   0  0  0  0  0  0  0  0  0  0  0  0
    0.7500  -19.5665    0.0000 C   0  0  0  0  0  0  0  0  0  0  0  0
   -0.7500  -19.5665    0.0000 C   0  0  0  0  0  0  0  0  0  0  0  0
   -2.2456  -19.4517    0.0000 C   0  0  0  0  0  0  0  0  0  0  0  0
   -3.7280  -19.2227    0.0000 C   0  0  0  0  0  0  0  0  0  0  0  0
   -5.1886  -18.8809    0.0000 C   0  0  0  0  0  0  0  0  0  0  0  0
   -6.6187  -18.4283    0.0000 C   0  0  0  0  0  0  0  0  0  0  0  0
   -8.0099  -17.8676    0.0000 C   0  0  0  0  0  0  0  0  0  0  0  0
   -9.3542  -17.2020    0.0000 C   0  0  0  0  0  0  0  0  0  0  0  0
  -10.6435  -16.4355    0.0000 C   0  0  0  0  0  0  0  0  0  0  0  0
  -11.8704  -15.5725    0.0000 C   0  0  0  0  0  0  0  0  0  0  0  0
  -13.0276  -14.6181    0.0000 C   0  0  0  0  0  0  0  0  0  0  0  0
  -14.1084  -13.5780    0.0000 C   0  0  0  0  0  0  0  0  0  0  0  0
  -15.1064  -12.4582    0.0000 C   0  0  0  0  0  0  0  0  0  0  0  0
  -16.0158  -11.2652    0.0000 C   0  0  0  0  0  0  0  0  0  0  0  0
  -16.8311  -10.0062    0.0000 C   0  0  0  0  0  0  0  0  0  0  0  0
  -17.5477   -8.6884    0.0000 C   0  0  0  0  0  0  0  0  0  0  0  0
  -18.1613   -7.3197    0.0000 C   0  0  0  0  0  0  0  0  0  0  0  0
  -18.6683   -5.9079    0.0000 C   0  0  0  0  0  0  0  0  0  0  0  0
  -19.0658   -4.4616    0.0000 C   0  0  0  0  0  0  0  0  0  0  0  0
  -19.3514   -2.9890    0.0000 C   0  0  0  0  0  0  0  0  0  0  0  0
  -19.5234   -1.4989    0.0000 C   0  0  0  0  0  0  0  0  0  0  0  0
  -19.5808   -0.0000    0.0000 C   0  0  0  0  0  0  0  0  0  0  0  0
  -19.5234    1.4989    0.0000 C   0  0  0  0  0  0  0  0  0  0  0  0
  -19.3514    2.9890    0.0000 C   0  0  0  0  0  0  0  0  0  0  0  0
  -19.0658    4.4616    0.0000 C   0  0  0  0  0  0  0  0  0  0  0  0
  -18.6683    5.9079    0.0000 C   0  0  0  0  0  0  0  0  0  0  0  0
  -18.1613    7.3197    0.0000 C   0  0  0  0  0  0  0  0  0  0  0  0
  -17.5477    8.6884    0.0000 C   0  0  0  0  0  0  0  0  0  0  0  0
  -16.8311   10.0062    0.0000 C   0  0  0  0  0  0  0  0  0  0  0  0
  -16.0158   11.2652    0.0000 C   0  0  0  0  0  0  0  0  0  0  0  0
  -15.1064   12.4582    0.0000 C   0  0  0  0  0  0  0  0  0  0  0  0
  -14.1084   13.5780    0.0000 C   0  0  0  0  0  0  0  0  0  0  0  0
  -13.0276   14.6181    0.0000 C   0  0  0  0  0  0  0  0  0  0  0  0
  -11.8704   15.5725    0.0000 C   0  0  0  0  0  0  0  0  0  0  0  0
  -10.6435   16.4355    0.0000 C   0  0  0  0  0  0  0  0  0  0  0  0
   -9.3542   17.2020    0.0000 C   0  0  0  0  0  0  0  0  0  0  0  0
   -8.0099   17.8676    0.0000 C   0  0  0  0  0  0  0  0  0  0  0  0
   -6.6187   18.4283    0.0000 C   0  0  0  0  0  0  0  0  0  0  0  0
   -5.1886   18.8809    0.0000 C   0  0  0  0  0  0  0  0  0  0  0  0
   -3.7280   19.2227    0.0000 C   0  0  0  0  0  0  0  0  0  0  0  0
   -2.2456   19.4517    0.0000 C   0  0  0  0  0  0  0  0  0  0  0  0
   -0.7500   19.5665    0.0000 C   0  0  0  0  0  0  0  0  0  0  0  0
    0.7500   19.5665    0.0000 C   0  0  0  0  0  0  0  0  0  0  0  0
    2.2456   19.4517    0.0000 C   0  0  0  0  0  0  0  0  0  0  0  0
    3.7280   19.2227    0.0000 C   0  0  0  0  0  0  0  0  0  0  0  0
    5.1886   18.8809    0.0000 C   0  0  0  0  0  0  0  0  0  0  0  0
    6.6187   18.4283    0.0000 C   0  0  0  0  0  0  0  0  0  0  0  0
    8.0099   17.8676    0.0000 C   0  0  0  0  0  0  0  0  0  0  0  0
    9.3542   17.2020    0.0000 C   0  0  0  0  0  0  0  0  0  0  0  0
   10.6435   16.4355    0.0000 C   0  0  0  0  0  0  0  0  0  0  0  0
   11.8704   15.5725    0.0000 C   0  0  0  0  0  0  0  0  0  0  0  0
   13.0276   14.6181    0.0000 C   0  0  0  0  0  0  0  0  0  0  0  0
   14.1084   13.5780    0.0000 C   0  0  0  0  0  0  0  0  0  0  0  0
   15.1064   12.4582    0.0000 C   0  0  0  0  0  0  0  0  0  0  0  0
   16.0158   11.2652    0.0000 C   0  0  0  0  0  0  0  0  0  0  0  0
   16.8311   10.0062    0.0000 C   0  0  0  0  0  0  0  0  0  0  0  0
   17.5477    8.6884    0.0000 C   0  0  0  0  0  0  0  0  0  0  0  0
   18.1613    7.3197    0.0000 C   0  0  0  0  0  0  0  0  0  0  0  0
   18.6683    5.9079    0.0000 C   0  0  0  0  0  0  0  0  0  0  0  0
   19.0658    4.4616    0.0000 C   0  0  0  0  0  0  0  0  0  0  0  0
   19.3514    2.9890    0.0000 C   0  0  0  0  0  0  0  0  0  0  0  0
   19.5234    1.4989    0.0000 C   0  0  0  0  0  0  0  0  0  0  0  0
  1  2  1  0
  2  3  1  0
  3  4  1  0
  4  5  2  0
  5  6  1  0
  6  7  2  0
  7  8  1  0
  8  9  2  0
  9 10  1  0
 10 11  2  0
 11 12  1  0
 12 13  2  0
 13 14  1  0
 14 15  2  0
 15 16  1  0
 16 17  2  0
 17 18  1  0
 18 19  2  0
 19 20  1  0
 20 21  2  0
 21 22  1  0
 22 23  2  0
 23 24  1  0
 24 25  1  0
 25 26  1  0
 26 27  1  0
 27 28  1  0
 28 29  1  0
 29 30  1  0
 30 31  1  0
 31 32  1  0
 32 33  1  0
 33 34  1  0
 34 35  1  0
 35 36  1  0
 36 37  1  0
 37 38  1  0
 38 39  1  0
 39 40  1  0
 40 41  1  0
 41 42  1  0
 42 43  1  0
 43 44  1  0
 44 45  1  0
 45 46  1  0
 46 47  1  0
 47 48  1  0
 48 49  1  0
 49 50  1  0
 50 51  1  0
 51 52  1  0
 52 53  1  0
 53 54  1  0
 54 55  1  0
 55 56  1  0
 56 57  1  0
 57 58  1  0
 58 59  1  0
 59 60  1  0
 60 61  1  0
 61 62  1  0
 62 63  1  0
 63 64  1  0
 64 65  1  0
 65 66  2  0
 66 67  1  0
 67 68  1  0
 68 69  1  0
 69 70  1  0
 70 71  1  0
 71 72  1  0
 72 73  1  0
 73 74  1  0
 74 75  1  0
 75 76  1  0
 76 77  1  0
 77 78  1  0
 78 79  1  0
 79 80  1  0
 80 81  1  0
 81 82  1  0
 82 83  1  0
 83  2  1  0
M  END
>  <Title>  (392) 
idAANHgen7

$$$$

     RDKit          2D

 19 20  0  0  0  0  0  0  0  0999 V2000
    3.6929    0.0000    0.0000 C   0  0  0  0  0  0  0  0  0  0  0  0
    2.1929    0.0000    0.0000 C   0  0  0  0  0  0  0  0  0  0  0  0
    1.6798    1.4095    0.0000 C   0  0  0  0  0  0  0  0  0  0  0  0
    0.3808    2.1595    0.0000 C   0  0  0  0  0  0  0  0  0  0  0  0
   -1.0964    1.8991    0.0000 C   0  0  0  0  0  0  0  0  0  0  0  0
   -2.0606    0.7500    0.0000 C   0  0  0  0  0  0  0  0  0  0  0  0
   -2.0606   -0.7500    0.0000 C   0  0  0  0  0  0  0  0  0  0  0  0
   -1.0964   -1.8991    0.0000 C   0  0  0  0  0  0  0  0  0  0  0  0
    0.3808   -2.1595    0.0000 C   0  0  0  0  0  0  0  0  0  0  0  0
    0.6413   -3.6368    0.0000 C   0  0  0  0  0  0  0  0  0  0  0  0
    2.0508   -4.1498    0.0000 O   0  0  0  0  0  0  0  0  0  0  0  0
   -0.5078   -4.6009    0.0000 N   0  0  0  0  0  0  0  0  0  0  0  0
   -0.2473   -6.0781    0.0000 C   0  0  0  0  0  0  0  0  0  0  0  0
   -1.3964   -7.0423    0.0000 N   0  0  0  0  0  0  0  0  0  0  0  0
   -1.1359   -8.5195    0.0000 N   0  0  0  0  0  0  0  0  0  0  0  0
    0.2736   -9.0326    0.0000 N   0  0  0  0  0  0  0  0  0  0  0  0
    1.4227   -8.0684    0.0000 N   0  0  0  0  0  0  0  0  0  0  0  0
    1.1622   -6.5912    0.0000 N   0  0  0  0  0  0  0  0  0  0  0  0
    1.6798   -1.4095    0.0000 C   0  0  0  0  0  0  0  0  0  0  0  0
  1  2  1  0
  2  3  1  0
  3  4  1  0
  4  5  1  0
  5  6  1  0
  6  7  1  0
  7  8  1  0
  8  9  1  0
  9 10  1  0
 10 11  2  0
 10 12  1  0
 12 13  1  0
 13 14  2  0
 14 15  1  0
 15 16  2  0
 16 17  1  0
 17 18  2  0
  9 19  1  0
 19  2  1  0
 18 13  1  0
M  END
>  <Title>  (393) 
idAANIgen7

$$$$

     RDKit          2D

118118  0  0  0  0  0  0  0  0999 V2000
   29.9463   -1.2990    0.0000 C   0  0  0  0  0  0  0  0  0  0  0  0
   29.1963    0.0000    0.0000 O   0  0  0  0  0  0  0  0  0  0  0  0
   27.6963    0.0000    0.0000 C   0  0  0  0  0  0  0  0  0  0  0  0
   27.6557   -1.4994    0.0000 C   0  0  0  0  0  0  0  0  0  0  0  0
   27.5340   -2.9945    0.0000 C   0  0  0  0  0  0  0  0  0  0  0  0
   27.3315   -4.4808    0.0000 C   0  0  0  0  0  0  0  0  0  0  0  0
   27.0488   -5.9539    0.0000 C   0  0  0  0  0  0  0  0  0  0  0  0
   26.6868   -7.4096    0.0000 C   0  0  0  0  0  0  0  0  0  0  0  0
   26.2465   -8.8435    0.0000 C   0  0  0  0  0  0  0  0  0  0  0  0
   25.7293  -10.2515    0.0000 C   0  0  0  0  0  0  0  0  0  0  0  0
   25.1365  -11.6294    0.0000 C   0  0  0  0  0  0  0  0  0  0  0  0
   24.4701  -12.9732    0.0000 C   0  0  0  0  0  0  0  0  0  0  0  0
   23.7318  -14.2790    0.0000 C   0  0  0  0  0  0  0  0  0  0  0  0
   22.9240  -15.5428    0.0000 C   0  0  0  0  0  0  0  0  0  0  0  0
   22.0489  -16.7611    0.0000 C   0  0  0  0  0  0  0  0  0  0  0  0
   21.1091  -17.9302    0.0000 C   0  0  0  0  0  0  0  0  0  0  0  0
   20.1074  -19.0468    0.0000 C   0  0  0  0  0  0  0  0  0  0  0  0
   19.0468  -20.1074    0.0000 C   0  0  0  0  0  0  0  0  0  0  0  0
   17.9302  -21.1091    0.0000 C   0  0  0  0  0  0  0  0  0  0  0  0
   16.7611  -22.0489    0.0000 C   0  0  0  0  0  0  0  0  0  0  0  0
   15.5428  -22.9240    0.0000 C   0  0  0  0  0  0  0  0  0  0  0  0
   14.2790  -23.7318    0.0000 C   0  0  0  0  0  0  0  0  0  0  0  0
   12.9732  -24.4701    0.0000 C   0  0  0  0  0  0  0  0  0  0  0  0
   11.6294  -25.1365    0.0000 C   0  0  0  0  0  0  0  0  0  0  0  0
   10.2515  -25.7293    0.0000 C   0  0  0  0  0  0  0  0  0  0  0  0
    8.8435  -26.2465    0.0000 C   0  0  0  0  0  0  0  0  0  0  0  0
    7.4096  -26.6868    0.0000 C   0  0  0  0  0  0  0  0  0  0  0  0
    5.9539  -27.0488    0.0000 C   0  0  0  0  0  0  0  0  0  0  0  0
    4.4808  -27.3315    0.0000 C   0  0  0  0  0  0  0  0  0  0  0  0
    2.9945  -27.5340    0.0000 C   0  0  0  0  0  0  0  0  0  0  0  0
    1.4994  -27.6557    0.0000 C   0  0  0  0  0  0  0  0  0  0  0  0
   -0.0000  -27.6963    0.0000 C   0  0  0  0  0  0  0  0  0  0  0  0
   -1.4994  -27.6557    0.0000 C   0  0  0  0  0  0  0  0  0  0  0  0
   -2.9945  -27.5340    0.0000 C   0  0  0  0  0  0  0  0  0  0  0  0
   -4.4808  -27.3315    0.0000 C   0  0  0  0  0  0  0  0  0  0  0  0
   -5.9539  -27.0488    0.0000 C   0  0  0  0  0  0  0  0  0  0  0  0
   -7.4096  -26.6868    0.0000 C   0  0  0  0  0  0  0  0  0  0  0  0
   -8.8435  -26.2465    0.0000 C   0  0  0  0  0  0  0  0  0  0  0  0
  -10.2515  -25.7293    0.0000 C   0  0  0  0  0  0  0  0  0  0  0  0
  -11.6294  -25.1365    0.0000 C   0  0  0  0  0  0  0  0  0  0  0  0
  -12.9732  -24.4701    0.0000 C   0  0  0  0  0  0  0  0  0  0  0  0
  -14.2790  -23.7318    0.0000 C   0  0  0  0  0  0  0  0  0  0  0  0
  -15.5428  -22.9240    0.0000 C   0  0  0  0  0  0  0  0  0  0  0  0
  -16.7611  -22.0489    0.0000 C   0  0  0  0  0  0  0  0  0  0  0  0
  -17.9302  -21.1091    0.0000 C   0  0  0  0  0  0  0  0  0  0  0  0
  -19.0468  -20.1074    0.0000 C   0  0  0  0  0  0  0  0  0  0  0  0
  -20.1074  -19.0468    0.0000 C   0  0  0  0  0  0  0  0  0  0  0  0
  -21.1091  -17.9302    0.0000 C   0  0  0  0  0  0  0  0  0  0  0  0
  -22.0489  -16.7611    0.0000 C   0  0  0  0  0  0  0  0  0  0  0  0
  -22.9240  -15.5428    0.0000 C   0  0  0  0  0  0  0  0  0  0  0  0
  -23.7318  -14.2790    0.0000 C   0  0  0  0  0  0  0  0  0  0  0  0
  -24.4701  -12.9732    0.0000 C   0  0  0  0  0  0  0  0  0  0  0  0
  -25.1365  -11.6294    0.0000 C   0  0  0  0  0  0  0  0  0  0  0  0
  -25.7293  -10.2515    0.0000 C   0  0  0  0  0  0  0  0  0  0  0  0
  -26.2465   -8.8435    0.0000 C   0  0  0  0  0  0  0  0  0  0  0  0
  -26.6868   -7.4096    0.0000 C   0  0  0  0  0  0  0  0  0  0  0  0
  -27.0488   -5.9539    0.0000 C   0  0  0  0  0  0  0  0  0  0  0  0
  -27.3315   -4.4808    0.0000 C   0  0  0  0  0  0  0  0  0  0  0  0
  -27.5340   -2.9945    0.0000 C   0  0  0  0  0  0  0  0  0  0  0  0
  -27.6557   -1.4994    0.0000 C   0  0  0  0  0  0  0  0  0  0  0  0
  -27.6963    0.0000    0.0000 C   0  0  0  0  0  0  0  0  0  0  0  0
  -27.6557    1.4994    0.0000 C   0  0  0  0  0  0  0  0  0  0  0  0
  -27.5340    2.9945    0.0000 C   0  0  0  0  0  0  0  0  0  0  0  0
  -27.3315    4.4808    0.0000 C   0  0  0  0  0  0  0  0  0  0  0  0
  -27.0488    5.9539    0.0000 C   0  0  0  0  0  0  0  0  0  0  0  0
  -26.6868    7.4096    0.0000 C   0  0  0  0  0  0  0  0  0  0  0  0
  -26.2465    8.8435    0.0000 C   0  0  0  0  0  0  0  0  0  0  0  0
  -25.7293   10.2515    0.0000 C   0  0  0  0  0  0  0  0  0  0  0  0
  -25.1365   11.6294    0.0000 C   0  0  0  0  0  0  0  0  0  0  0  0
  -24.4701   12.9732    0.0000 C   0  0  0  0  0  0  0  0  0  0  0  0
  -23.7318   14.2790    0.0000 C   0  0  0  0  0  0  0  0  0  0  0  0
  -22.9240   15.5428    0.0000 C   0  0  0  0  0  0  0  0  0  0  0  0
  -22.0489   16.7611    0.0000 C   0  0  0  0  0  0  0  0  0  0  0  0
  -21.1091   17.9302    0.0000 C   0  0  0  0  0  0  0  0  0  0  0  0
  -20.1074   19.0468    0.0000 C   0  0  0  0  0  0  0  0  0  0  0  0
  -19.0468   20.1074    0.0000 C   0  0  0  0  0  0  0  0  0  0  0  0
  -17.9302   21.1091    0.0000 C   0  0  0  0  0  0  0  0  0  0  0  0
  -16.7611   22.0489    0.0000 C   0  0  0  0  0  0  0  0  0  0  0  0
  -15.5428   22.9240    0.0000 C   0  0  0  0  0  0  0  0  0  0  0  0
  -14.2790   23.7318    0.0000 C   0  0  0  0  0  0  0  0  0  0  0  0
  -12.9732   24.4701    0.0000 C   0  0  0  0  0  0  0  0  0  0  0  0
  -11.6294   25.1365    0.0000 C   0  0  0  0  0  0  0  0  0  0  0  0
  -10.2515   25.7293    0.0000 C   0  0  0  0  0  0  0  0  0  0  0  0
   -8.8435   26.2465    0.0000 C   0  0  0  0  0  0  0  0  0  0  0  0
   -7.4096   26.6868    0.0000 C   0  0  0  0  0  0  0  0  0  0  0  0
   -5.9539   27.0488    0.0000 C   0  0  0  0  0  0  0  0  0  0  0  0
   -4.4808   27.3315    0.0000 C   0  0  0  0  0  0  0  0  0  0  0  0
   -2.9945   27.5340    0.0000 C   0  0  0  0  0  0  0  0  0  0  0  0
   -1.4994   27.6557    0.0000 C   0  0  0  0  0  0  0  0  0  0  0  0
    0.0000   27.6963    0.0000 C   0  0  0  0  0  0  0  0  0  0  0  0
    1.4994   27.6557    0.0000 C   0  0  0  0  0  0  0  0  0  0  0  0
    2.9945   27.5340    0.0000 C   0  0  0  0  0  0  0  0  0  0  0  0
    4.4808   27.3315    0.0000 C   0  0  0  0  0  0  0  0  0  0  0  0
    5.9539   27.0488    0.0000 C   0  0  0  0  0  0  0  0  0  0  0  0
    7.4096   26.6868    0.0000 C   0  0  0  0  0  0  0  0  0  0  0  0
    8.8435   26.2465    0.0000 C   0  0  0  0  0  0  0  0  0  0  0  0
   10.2515   25.7293    0.0000 C   0  0  0  0  0  0  0  0  0  0  0  0
   11.6294   25.1365    0.0000 C   0  0  0  0  0  0  0  0  0  0  0  0
   12.9732   24.4701    0.0000 C   0  0  0  0  0  0  0  0  0  0  0  0
   14.2790   23.7318    0.0000 C   0  0  0  0  0  0  0  0  0  0  0  0
   15.5428   22.9240    0.0000 C   0  0  0  0  0  0  0  0  0  0  0  0
   16.7611   22.0489    0.0000 C   0  0  0  0  0  0  0  0  0  0  0  0
   17.9302   21.1091    0.0000 C   0  0  0  0  0  0  0  0  0  0  0  0
   19.0468   20.1074    0.0000 C   0  0  0  0  0  0  0  0  0  0  0  0
   20.1074   19.0468    0.0000 C   0  0  0  0  0  0  0  0  0  0  0  0
   21.1091   17.9302    0.0000 C   0  0  0  0  0  0  0  0  0  0  0  0
   22.0489   16.7611    0.0000 C   0  0  0  0  0  0  0  0  0  0  0  0
   22.9240   15.5428    0.0000 C   0  0  0  0  0  0  0  0  0  0  0  0
   23.7318   14.2790    0.0000 C   0  0  0  0  0  0  0  0  0  0  0  0
   24.4701   12.9732    0.0000 C   0  0  0  0  0  0  0  0  0  0  0  0
   25.1365   11.6294    0.0000 C   0  0  0  0  0  0  0  0  0  0  0  0
   25.7293   10.2515    0.0000 C   0  0  0  0  0  0  0  0  0  0  0  0
   26.2465    8.8435    0.0000 C   0  0  0  0  0  0  0  0  0  0  0  0
   26.6868    7.4096    0.0000 C   0  0  0  0  0  0  0  0  0  0  0  0
   27.0488    5.9539    0.0000 C   0  0  0  0  0  0  0  0  0  0  0  0
   27.3315    4.4808    0.0000 C   0  0  0  0  0  0  0  0  0  0  0  0
   27.5340    2.9945    0.0000 C   0  0  0  0  0  0  0  0  0  0  0  0
   27.6557    1.4994    0.0000 C   0  0  0  0  0  0  0  0  0  0  0  0
  1  2  1  0
  2  3  1  0
  3  4  1  0
  4  5  1  0
  5  6  1  0
  6  7  1  0
  7  8  1  0
  8  9  1  0
  9 10  1  0
 10 11  1  0
 11 12  1  0
 12 13  1  0
 13 14  1  0
 14 15  1  0
 15 16  1  0
 16 17  1  0
 17 18  1  0
 18 19  1  0
 19 20  1  0
 20 21  1  0
 21 22  1  0
 22 23  1  0
 23 24  1  0
 24 25  1  0
 25 26  1  0
 26 27  1  0
 27 28  1  0
 28 29  1  0
 29 30  1  0
 30 31  1  0
 31 32  2  0
 32 33  1  0
 33 34  2  0
 34 35  1  0
 35 36  1  0
 36 37  1  0
 37 38  1  0
 38 39  1  0
 39 40  1  0
 40 41  1  0
 41 42  1  0
 42 43  1  0
 43 44  1  0
 44 45  1  0
 45 46  1  0
 46 47  1  0
 47 48  1  0
 48 49  1  0
 49 50  1  0
 50 51  1  0
 51 52  1  0
 52 53  1  0
 53 54  1  0
 54 55  1  0
 55 56  1  0
 56 57  1  0
 57 58  1  0
 58 59  1  0
 59 60  1  0
 60 61  1  0
 61 62  1  0
 62 63  1  0
 63 64  1  0
 64 65  1  0
 65 66  1  0
 66 67  1  0
 67 68  1  0
 68 69  1  0
 69 70  1  0
 70 71  1  0
 71 72  1  0
 72 73  1  0
 73 74  1  0
 74 75  1  0
 75 76  1  0
 76 77  1  0
 77 78  1  0
 78 79  1  0
 79 80  1  0
 80 81  1  0
 81 82  1  0
 82 83  1  0
 83 84  1  0
 84 85  1  0
 85 86  1  0
 86 87  1  0
 87 88  1  0
 88 89  1  0
 89 90  1  0
 90 91  1  0
 91 92  1  0
 92 93  1  0
 93 94  1  0
 94 95  1  0
 95 96  1  0
 96 97  1  0
 97 98  1  0
 98 99  1  0
 99100  1  0
100101  1  0
101102  1  0
102103  1  0
103104  1  0
104105  1  0
105106  1  0
106107  1  0
107108  1  0
108109  1  0
109110  1  0
110111  1  0
111112  1  0
112113  1  0
113114  1  0
114115  1  0
115116  1  0
116117  1  0
117118  1  0
118  3  1  0
M  END
>  <Title>  (394) 
idAANJgen7

$$$$

     RDKit          2D

  9  9  0  0  0  0  0  0  0  0999 V2000
    2.7760   -2.5981    0.0000 O   0  0  0  0  0  0  0  0  0  0  0  0
    3.5260   -1.2990    0.0000 C   0  0  0  0  0  0  0  0  0  0  0  0
    5.0260   -1.2990    0.0000 O   0  0  0  0  0  0  0  0  0  0  0  0
    2.7760    0.0000    0.0000 O   0  0  0  0  0  0  0  0  0  0  0  0
    1.2760    0.0000    0.0000 C   0  0  0  0  0  0  0  0  0  0  0  0
    0.3943    1.2135    0.0000 C   0  0  0  0  0  0  0  0  0  0  0  0
   -1.0323    0.7500    0.0000 C   0  0  0  0  0  0  0  0  0  0  0  0
   -1.0323   -0.7500    0.0000 C   0  0  0  0  0  0  0  0  0  0  0  0
    0.3943   -1.2135    0.0000 C   0  0  0  0  0  0  0  0  0  0  0  0
  1  2  2  0
  2  3  1  0
  2  4  1  0
  4  5  1  0
  5  6  2  0
  6  7  1  0
  7  8  2  0
  8  9  1  0
  9  5  1  0
M  END
>  <Title>  (395) 
idAANKgen7

$$$$

     RDKit          2D

103103  0  0  0  0  0  0  0  0999 V2000
   25.8546    0.0000    0.0000 C   0  0  0  0  0  0  0  0  0  0  0  0
   24.3546    0.0000    0.0000 C   0  0  0  0  0  0  0  0  0  0  0  0
   24.3084   -1.4993    0.0000 C   0  0  0  0  0  0  0  0  0  0  0  0
   24.1700   -2.9929    0.0000 C   0  0  0  0  0  0  0  0  0  0  0  0
   23.9399   -4.4751    0.0000 C   0  0  0  0  0  0  0  0  0  0  0  0
   23.6190   -5.9404    0.0000 C   0  0  0  0  0  0  0  0  0  0  0  0
   23.2085   -7.3831    0.0000 C   0  0  0  0  0  0  0  0  0  0  0  0
   22.7099   -8.7979    0.0000 C   0  0  0  0  0  0  0  0  0  0  0  0
   22.1253  -10.1792    0.0000 C   0  0  0  0  0  0  0  0  0  0  0  0
   21.4567  -11.5220    0.0000 C   0  0  0  0  0  0  0  0  0  0  0  0
   20.7067  -12.8210    0.0000 C   0  0  0  0  0  0  0  0  0  0  0  0
   19.8781  -14.0714    0.0000 C   0  0  0  0  0  0  0  0  0  0  0  0
   18.9742  -15.2685    0.0000 C   0  0  0  0  0  0  0  0  0  0  0  0
   17.9982  -16.4076    0.0000 C   0  0  0  0  0  0  0  0  0  0  0  0
   16.9540  -17.4844    0.0000 C   0  0  0  0  0  0  0  0  0  0  0  0
   15.8455  -18.4950    0.0000 C   0  0  0  0  0  0  0  0  0  0  0  0
   14.6769  -19.4354    0.0000 C   0  0  0  0  0  0  0  0  0  0  0  0
   13.4526  -20.3020    0.0000 C   0  0  0  0  0  0  0  0  0  0  0  0
   12.1773  -21.0917    0.0000 C   0  0  0  0  0  0  0  0  0  0  0  0
   10.8558  -21.8013    0.0000 C   0  0  0  0  0  0  0  0  0  0  0  0
    9.4931  -22.4282    0.0000 C   0  0  0  0  0  0  0  0  0  0  0  0
    8.0944  -22.9701    0.0000 C   0  0  0  0  0  0  0  0  0  0  0  0
    6.6649  -23.4248    0.0000 C   0  0  0  0  0  0  0  0  0  0  0  0
    5.2102  -23.7907    0.0000 C   0  0  0  0  0  0  0  0  0  0  0  0
    3.7358  -24.0663    0.0000 C   0  0  0  0  0  0  0  0  0  0  0  0
    2.2472  -24.2507    0.0000 C   0  0  0  0  0  0  0  0  0  0  0  0
    0.7500  -24.3430    0.0000 C   0  0  0  0  0  0  0  0  0  0  0  0
   -0.7500  -24.3430    0.0000 C   0  0  0  0  0  0  0  0  0  0  0  0
   -2.2472  -24.2507    0.0000 C   0  0  0  0  0  0  0  0  0  0  0  0
   -3.7358  -24.0663    0.0000 C   0  0  0  0  0  0  0  0  0  0  0  0
   -5.2102  -23.7907    0.0000 C   0  0  0  0  0  0  0  0  0  0  0  0
   -6.6649  -23.4248    0.0000 C   0  0  0  0  0  0  0  0  0  0  0  0
   -8.0944  -22.9701    0.0000 C   0  0  0  0  0  0  0  0  0  0  0  0
   -9.4931  -22.4282    0.0000 C   0  0  0  0  0  0  0  0  0  0  0  0
  -10.8558  -21.8013    0.0000 C   0  0  0  0  0  0  0  0  0  0  0  0
  -12.1773  -21.0917    0.0000 C   0  0  0  0  0  0  0  0  0  0  0  0
  -13.4526  -20.3020    0.0000 C   0  0  0  0  0  0  0  0  0  0  0  0
  -14.6769  -19.4354    0.0000 C   0  0  0  0  0  0  0  0  0  0  0  0
  -15.8455  -18.4950    0.0000 C   0  0  0  0  0  0  0  0  0  0  0  0
  -16.9540  -17.4844    0.0000 C   0  0  0  0  0  0  0  0  0  0  0  0
  -17.9982  -16.4076    0.0000 C   0  0  0  0  0  0  0  0  0  0  0  0
  -18.9742  -15.2685    0.0000 C   0  0  0  0  0  0  0  0  0  0  0  0
  -19.8781  -14.0714    0.0000 C   0  0  0  0  0  0  0  0  0  0  0  0
  -20.7067  -12.8210    0.0000 C   0  0  0  0  0  0  0  0  0  0  0  0
  -21.4567  -11.5220    0.0000 C   0  0  0  0  0  0  0  0  0  0  0  0
  -22.1253  -10.1792    0.0000 C   0  0  0  0  0  0  0  0  0  0  0  0
  -22.7099   -8.7979    0.0000 C   0  0  0  0  0  0  0  0  0  0  0  0
  -23.2085   -7.3831    0.0000 C   0  0  0  0  0  0  0  0  0  0  0  0
  -23.6190   -5.9404    0.0000 C   0  0  0  0  0  0  0  0  0  0  0  0
  -23.9399   -4.4751    0.0000 C   0  0  0  0  0  0  0  0  0  0  0  0
  -24.1700   -2.9929    0.0000 C   0  0  0  0  0  0  0  0  0  0  0  0
  -24.3084   -1.4993    0.0000 C   0  0  0  0  0  0  0  0  0  0  0  0
  -24.3546    0.0000    0.0000 C   0  0  0  0  0  0  0  0  0  0  0  0
  -24.3084    1.4993    0.0000 C   0  0  0  0  0  0  0  0  0  0  0  0
  -24.1700    2.9929    0.0000 C   0  0  0  0  0  0  0  0  0  0  0  0
  -23.9399    4.4751    0.0000 C   0  0  0  0  0  0  0  0  0  0  0  0
  -23.6190    5.9404    0.0000 C   0  0  0  0  0  0  0  0  0  0  0  0
  -23.2085    7.3831    0.0000 C   0  0  0  0  0  0  0  0  0  0  0  0
  -22.7099    8.7979    0.0000 C   0  0  0  0  0  0  0  0  0  0  0  0
  -22.1253   10.1792    0.0000 C   0  0  0  0  0  0  0  0  0  0  0  0
  -21.4567   11.5220    0.0000 C   0  0  0  0  0  0  0  0  0  0  0  0
  -20.7067   12.8210    0.0000 C   0  0  0  0  0  0  0  0  0  0  0  0
  -19.8781   14.0714    0.0000 C   0  0  0  0  0  0  0  0  0  0  0  0
  -18.9742   15.2685    0.0000 C   0  0  0  0  0  0  0  0  0  0  0  0
  -17.9982   16.4076    0.0000 C   0  0  0  0  0  0  0  0  0  0  0  0
  -16.9540   17.4844    0.0000 C   0  0  0  0  0  0  0  0  0  0  0  0
  -15.8455   18.4950    0.0000 C   0  0  0  0  0  0  0  0  0  0  0  0
  -14.6769   19.4354    0.0000 C   0  0  0  0  0  0  0  0  0  0  0  0
  -13.4526   20.3020    0.0000 C   0  0  0  0  0  0  0  0  0  0  0  0
  -12.1773   21.0917    0.0000 C   0  0  0  0  0  0  0  0  0  0  0  0
  -10.8558   21.8013    0.0000 C   0  0  0  0  0  0  0  0  0  0  0  0
   -9.4931   22.4282    0.0000 C   0  0  0  0  0  0  0  0  0  0  0  0
   -8.0944   22.9701    0.0000 C   0  0  0  0  0  0  0  0  0  0  0  0
   -6.6649   23.4248    0.0000 C   0  0  0  0  0  0  0  0  0  0  0  0
   -5.2102   23.7907    0.0000 C   0  0  0  0  0  0  0  0  0  0  0  0
   -3.7358   24.0663    0.0000 C   0  0  0  0  0  0  0  0  0  0  0  0
   -2.2472   24.2507    0.0000 C   0  0  0  0  0  0  0  0  0  0  0  0
   -0.7500   24.3430    0.0000 C   0  0  0  0  0  0  0  0  0  0  0  0
    0.7500   24.3430    0.0000 C   0  0  0  0  0  0  0  0  0  0  0  0
    2.2472   24.2507    0.0000 C   0  0  0  0  0  0  0  0  0  0  0  0
    3.7358   24.0663    0.0000 C   0  0  0  0  0  0  0  0  0  0  0  0
    5.2102   23.7907    0.0000 C   0  0  0  0  0  0  0  0  0  0  0  0
    6.6649   23.4248    0.0000 C   0  0  0  0  0  0  0  0  0  0  0  0
    8.0944   22.9701    0.0000 C   0  0  0  0  0  0  0  0  0  0  0  0
    9.4931   22.4282    0.0000 C   0  0  0  0  0  0  0  0  0  0  0  0
   10.8558   21.8013    0.0000 C   0  0  0  0  0  0  0  0  0  0  0  0
   12.1773   21.0917    0.0000 C   0  0  0  0  0  0  0  0  0  0  0  0
   13.4526   20.3020    0.0000 C   0  0  0  0  0  0  0  0  0  0  0  0
   14.6769   19.4354    0.0000 C   0  0  0  0  0  0  0  0  0  0  0  0
   15.8455   18.4950    0.0000 C   0  0  0  0  0  0  0  0  0  0  0  0
   16.9540   17.4844    0.0000 C   0  0  0  0  0  0  0  0  0  0  0  0
   17.9982   16.4076    0.0000 C   0  0  0  0  0  0  0  0  0  0  0  0
   18.9742   15.2685    0.0000 C   0  0  0  0  0  0  0  0  0  0  0  0
   19.8781   14.0714    0.0000 C   0  0  0  0  0  0  0  0  0  0  0  0
   20.7067   12.8210    0.0000 C   0  0  0  0  0  0  0  0  0  0  0  0
   21.4567   11.5220    0.0000 C   0  0  0  0  0  0  0  0  0  0  0  0
   22.1253   10.1792    0.0000 C   0  0  0  0  0  0  0  0  0  0  0  0
   22.7099    8.7979    0.0000 C   0  0  0  0  0  0  0  0  0  0  0  0
   23.2085    7.3831    0.0000 C   0  0  0  0  0  0  0  0  0  0  0  0
   23.6190    5.9404    0.0000 C   0  0  0  0  0  0  0  0  0  0  0  0
   23.9399    4.4751    0.0000 C   0  0  0  0  0  0  0  0  0  0  0  0
   24.1700    2.9929    0.0000 C   0  0  0  0  0  0  0  0  0  0  0  0
   24.3084    1.4993    0.0000 C   0  0  0  0  0  0  0  0  0  0  0  0
  1  2  1  0
  2  3  1  0
  3  4  1  0
  4  5  2  0
  5  6  1  0
  6  7  2  0
  7  8  1  0
  8  9  2  0
  9 10  1  0
 10 11  2  0
 11 12  1  0
 12 13  2  0
 13 14  1  0
 14 15  1  0
 15 16  1  0
 16 17  1  0
 17 18  1  0
 18 19  1  0
 19 20  1  0
 20 21  1  0
 21 22  1  0
 22 23  1  0
 23 24  1  0
 24 25  1  0
 25 26  1  0
 26 27  1  0
 27 28  1  0
 28 29  1  0
 29 30  1  0
 30 31  1  0
 31 32  1  0
 32 33  1  0
 33 34  1  0
 34 35  1  0
 35 36  1  0
 36 37  1  0
 37 38  1  0
 38 39  1  0
 39 40  1  0
 40 41  1  0
 41 42  1  0
 42 43  1  0
 43 44  1  0
 44 45  1  0
 45 46  1  0
 46 47  1  0
 47 48  1  0
 48 49  1  0
 49 50  1  0
 50 51  1  0
 51 52  1  0
 52 53  1  0
 53 54  1  0
 54 55  1  0
 55 56  1  0
 56 57  1  0
 57 58  1  0
 58 59  1  0
 59 60  1  0
 60 61  1  0
 61 62  1  0
 62 63  1  0
 63 64  1  0
 64 65  1  0
 65 66  1  0
 66 67  1  0
 67 68  1  0
 68 69  1  0
 69 70  1  0
 70 71  1  0
 71 72  1  0
 72 73  1  0
 73 74  1  0
 74 75  1  0
 75 76  1  0
 76 77  1  0
 77 78  1  0
 78 79  1  0
 79 80  1  0
 80 81  1  0
 81 82  1  0
 82 83  1  0
 83 84  1  0
 84 85  1  0
 85 86  1  0
 86 87  1  0
 87 88  1  0
 88 89  1  0
 89 90  1  0
 90 91  1  0
 91 92  1  0
 92 93  1  0
 93 94  1  0
 94 95  1  0
 95 96  1  0
 96 97  1  0
 97 98  1  0
 98 99  1  0
 99100  1  0
100101  2  0
101102  1  0
102103  1  0
103  2  1  0
M  END
>  <Title>  (396) 
idAANLgen7

$$$$

     RDKit          2D

 88 88  0  0  0  0  0  0  0  0999 V2000
   22.2742   -0.0000    0.0000 C   0  0  0  0  0  0  0  0  0  0  0  0
   20.7742    0.0000    0.0000 C   0  0  0  0  0  0  0  0  0  0  0  0
   20.7201    1.4990    0.0000 C   0  0  0  0  0  0  0  0  0  0  0  0
   20.5579    2.9902    0.0000 C   0  0  0  0  0  0  0  0  0  0  0  0
   20.2885    4.4658    0.0000 C   0  0  0  0  0  0  0  0  0  0  0  0
   19.9134    5.9182    0.0000 C   0  0  0  0  0  0  0  0  0  0  0  0
   19.4345    7.3397    0.0000 C   0  0  0  0  0  0  0  0  0  0  0  0
   18.8542    8.7229    0.0000 C   0  0  0  0  0  0  0  0  0  0  0  0
   18.1756   10.0606    0.0000 C   0  0  0  0  0  0  0  0  0  0  0  0
   17.4023   11.3459    0.0000 C   0  0  0  0  0  0  0  0  0  0  0  0
   16.5382   12.5720    0.0000 C   0  0  0  0  0  0  0  0  0  0  0  0
   15.5879   13.7326    0.0000 C   0  0  0  0  0  0  0  0  0  0  0  0
   14.5564   14.8216    0.0000 C   0  0  0  0  0  0  0  0  0  0  0  0
   13.4490   15.8333    0.0000 C   0  0  0  0  0  0  0  0  0  0  0  0
   12.2714   16.7625    0.0000 C   0  0  0  0  0  0  0  0  0  0  0  0
   11.0299   17.6043    0.0000 C   0  0  0  0  0  0  0  0  0  0  0  0
    9.7308   18.3543    0.0000 C   0  0  0  0  0  0  0  0  0  0  0  0
    8.3811   19.0086    0.0000 C   0  0  0  0  0  0  0  0  0  0  0  0
    6.9876   19.5638    0.0000 C   0  0  0  0  0  0  0  0  0  0  0  0
    5.5577   20.0170    0.0000 C   0  0  0  0  0  0  0  0  0  0  0  0
    4.0988   20.3659    0.0000 C   0  0  0  0  0  0  0  0  0  0  0  0
    2.6186   20.6085    0.0000 C   0  0  0  0  0  0  0  0  0  0  0  0
    1.1247   20.7438    0.0000 C   0  0  0  0  0  0  0  0  0  0  0  0
   -0.3751   20.7708    0.0000 C   0  0  0  0  0  0  0  0  0  0  0  0
   -1.8729   20.6896    0.0000 C   0  0  0  0  0  0  0  0  0  0  0  0
   -3.3609   20.5006    0.0000 C   0  0  0  0  0  0  0  0  0  0  0  0
   -4.8314   20.2046    0.0000 C   0  0  0  0  0  0  0  0  0  0  0  0
   -6.2767   19.8033    0.0000 C   0  0  0  0  0  0  0  0  0  0  0  0
   -7.6893   19.2988    0.0000 C   0  0  0  0  0  0  0  0  0  0  0  0
   -9.0618   18.6936    0.0000 C   0  0  0  0  0  0  0  0  0  0  0  0
  -10.3871   17.9910    0.0000 C   0  0  0  0  0  0  0  0  0  0  0  0
  -11.6582   17.1946    0.0000 C   0  0  0  0  0  0  0  0  0  0  0  0
  -12.8686   16.3086    0.0000 C   0  0  0  0  0  0  0  0  0  0  0  0
  -14.0118   15.3375    0.0000 C   0  0  0  0  0  0  0  0  0  0  0  0
  -15.0820   14.2864    0.0000 C   0  0  0  0  0  0  0  0  0  0  0  0
  -16.0736   13.1609    0.0000 C   0  0  0  0  0  0  0  0  0  0  0  0
  -16.9813   11.9668    0.0000 C   0  0  0  0  0  0  0  0  0  0  0  0
  -17.8006   10.7102    0.0000 C   0  0  0  0  0  0  0  0  0  0  0  0
  -18.5270    9.3979    0.0000 C   0  0  0  0  0  0  0  0  0  0  0  0
  -19.1568    8.0365    0.0000 C   0  0  0  0  0  0  0  0  0  0  0  0
  -19.6868    6.6332    0.0000 C   0  0  0  0  0  0  0  0  0  0  0  0
  -20.1141    5.1954    0.0000 C   0  0  0  0  0  0  0  0  0  0  0  0
  -20.4365    3.7305    0.0000 C   0  0  0  0  0  0  0  0  0  0  0  0
  -20.6525    2.2461    0.0000 C   0  0  0  0  0  0  0  0  0  0  0  0
  -20.7607    0.7500    0.0000 C   0  0  0  0  0  0  0  0  0  0  0  0
  -20.7607   -0.7500    0.0000 C   0  0  0  0  0  0  0  0  0  0  0  0
  -20.6525   -2.2461    0.0000 C   0  0  0  0  0  0  0  0  0  0  0  0
  -20.4365   -3.7305    0.0000 C   0  0  0  0  0  0  0  0  0  0  0  0
  -20.1141   -5.1954    0.0000 C   0  0  0  0  0  0  0  0  0  0  0  0
  -19.6868   -6.6332    0.0000 C   0  0  0  0  0  0  0  0  0  0  0  0
  -19.1568   -8.0365    0.0000 C   0  0  0  0  0  0  0  0  0  0  0  0
  -18.5270   -9.3979    0.0000 C   0  0  0  0  0  0  0  0  0  0  0  0
  -17.8006  -10.7102    0.0000 C   0  0  0  0  0  0  0  0  0  0  0  0
  -16.9813  -11.9668    0.0000 C   0  0  0  0  0  0  0  0  0  0  0  0
  -16.0736  -13.1609    0.0000 C   0  0  0  0  0  0  0  0  0  0  0  0
  -15.0820  -14.2864    0.0000 C   0  0  0  0  0  0  0  0  0  0  0  0
  -14.0118  -15.3375    0.0000 C   0  0  0  0  0  0  0  0  0  0  0  0
  -12.8686  -16.3086    0.0000 C   0  0  0  0  0  0  0  0  0  0  0  0
  -11.6582  -17.1946    0.0000 C   0  0  0  0  0  0  0  0  0  0  0  0
  -10.3871  -17.9910    0.0000 C   0  0  0  0  0  0  0  0  0  0  0  0
   -9.0618  -18.6936    0.0000 C   0  0  0  0  0  0  0  0  0  0  0  0
   -7.6893  -19.2988    0.0000 C   0  0  0  0  0  0  0  0  0  0  0  0
   -6.2767  -19.8033    0.0000 C   0  0  0  0  0  0  0  0  0  0  0  0
   -4.8314  -20.2046    0.0000 C   0  0  0  0  0  0  0  0  0  0  0  0
   -3.3609  -20.5006    0.0000 C   0  0  0  0  0  0  0  0  0  0  0  0
   -1.8729  -20.6896    0.0000 C   0  0  0  0  0  0  0  0  0  0  0  0
   -0.3751  -20.7708    0.0000 C   0  0  0  0  0  0  0  0  0  0  0  0
    1.1247  -20.7438    0.0000 C   0  0  0  0  0  0  0  0  0  0  0  0
    2.6186  -20.6085    0.0000 C   0  0  0  0  0  0  0  0  0  0  0  0
    4.0988  -20.3659    0.0000 C   0  0  0  0  0  0  0  0  0  0  0  0
    5.5577  -20.0170    0.0000 C   0  0  0  0  0  0  0  0  0  0  0  0
    6.9876  -19.5638    0.0000 C   0  0  0  0  0  0  0  0  0  0  0  0
    8.3811  -19.0086    0.0000 C   0  0  0  0  0  0  0  0  0  0  0  0
    9.7308  -18.3543    0.0000 C   0  0  0  0  0  0  0  0  0  0  0  0
   11.0299  -17.6043    0.0000 C   0  0  0  0  0  0  0  0  0  0  0  0
   12.2714  -16.7625    0.0000 C   0  0  0  0  0  0  0  0  0  0  0  0
   13.4490  -15.8333    0.0000 C   0  0  0  0  0  0  0  0  0  0  0  0
   14.5564  -14.8216    0.0000 C   0  0  0  0  0  0  0  0  0  0  0  0
   15.5879  -13.7326    0.0000 C   0  0  0  0  0  0  0  0  0  0  0  0
   16.5382  -12.5720    0.0000 C   0  0  0  0  0  0  0  0  0  0  0  0
   17.4023  -11.3459    0.0000 C   0  0  0  0  0  0  0  0  0  0  0  0
   18.1756  -10.0606    0.0000 C   0  0  0  0  0  0  0  0  0  0  0  0
   18.8542   -8.7229    0.0000 C   0  0  0  0  0  0  0  0  0  0  0  0
   19.4345   -7.3397    0.0000 C   0  0  0  0  0  0  0  0  0  0  0  0
   19.9134   -5.9182    0.0000 C   0  0  0  0  0  0  0  0  0  0  0  0
   20.2885   -4.4658    0.0000 C   0  0  0  0  0  0  0  0  0  0  0  0
   20.5579   -2.9902    0.0000 C   0  0  0  0  0  0  0  0  0  0  0  0
   20.7201   -1.4990    0.0000 C   0  0  0  0  0  0  0  0  0  0  0  0
  1  2  1  0
  2  3  1  0
  3  4  2  0
  4  5  1  0
  5  6  2  0
  6  7  1  0
  7  8  2  0
  8  9  1  0
  9 10  2  0
 10 11  1  0
 11 12  2  0
 12 13  1  0
 13 14  2  0
 14 15  1  0
 15 16  2  0
 16 17  1  0
 17 18  2  0
 18 19  1  0
 19 20  1  0
 20 21  1  0
 21 22  1  0
 22 23  1  0
 23 24  1  0
 24 25  1  0
 25 26  1  0
 26 27  1  0
 27 28  1  0
 28 29  1  0
 29 30  1  0
 30 31  1  0
 31 32  1  0
 32 33  1  0
 33 34  1  0
 34 35  1  0
 35 36  1  0
 36 37  1  0
 37 38  1  0
 38 39  1  0
 39 40  1  0
 40 41  1  0
 41 42  1  0
 42 43  1  0
 43 44  1  0
 44 45  1  0
 45 46  1  0
 46 47  1  0
 47 48  1  0
 48 49  1  0
 49 50  1  0
 50 51  1  0
 51 52  1  0
 52 53  1  0
 53 54  1  0
 54 55  1  0
 55 56  1  0
 56 57  1  0
 57 58  1  0
 58 59  1  0
 59 60  1  0
 60 61  1  0
 61 62  1  0
 62 63  1  0
 63 64  1  0
 64 65  1  0
 65 66  1  0
 66 67  1  0
 67 68  1  0
 68 69  1  0
 69 70  1  0
 70 71  1  0
 71 72  1  0
 72 73  1  0
 73 74  1  0
 74 75  1  0
 75 76  1  0
 76 77  1  0
 77 78  1  0
 78 79  1  0
 79 80  1  0
 80 81  1  0
 81 82  1  0
 82 83  1  0
 83 84  1  0
 84 85  1  0
 85 86  1  0
 86 87  1  0
 87 88  1  0
 88  2  1  0
M  END
>  <Title>  (397) 
idAANMgen7

$$$$

     RDKit          2D

 23 23  0  0  0  0  0  0  0  0999 V2000
    6.7700    0.0000    0.0000 C   0  0  0  0  0  0  0  0  0  0  0  0
    5.2700    0.0000    0.0000 C   0  0  0  0  0  0  0  0  0  0  0  0
    5.0565   -1.4847    0.0000 C   0  0  0  0  0  0  0  0  0  0  0  0
    4.4334   -2.8492    0.0000 C   0  0  0  0  0  0  0  0  0  0  0  0
    3.4511   -3.9828    0.0000 C   0  0  0  0  0  0  0  0  0  0  0  0
    2.1892   -4.7938    0.0000 C   0  0  0  0  0  0  0  0  0  0  0  0
    0.7500   -5.2164    0.0000 C   0  0  0  0  0  0  0  0  0  0  0  0
   -0.7500   -5.2164    0.0000 C   0  0  0  0  0  0  0  0  0  0  0  0
   -2.1892   -4.7938    0.0000 C   0  0  0  0  0  0  0  0  0  0  0  0
   -3.4511   -3.9828    0.0000 C   0  0  0  0  0  0  0  0  0  0  0  0
   -4.4334   -2.8492    0.0000 C   0  0  0  0  0  0  0  0  0  0  0  0
   -5.0565   -1.4847    0.0000 C   0  0  0  0  0  0  0  0  0  0  0  0
   -5.2700    0.0000    0.0000 C   0  0  0  0  0  0  0  0  0  0  0  0
   -5.0565    1.4847    0.0000 C   0  0  0  0  0  0  0  0  0  0  0  0
   -4.4334    2.8492    0.0000 C   0  0  0  0  0  0  0  0  0  0  0  0
   -3.4511    3.9828    0.0000 C   0  0  0  0  0  0  0  0  0  0  0  0
   -2.1892    4.7938    0.0000 C   0  0  0  0  0  0  0  0  0  0  0  0
   -0.7500    5.2164    0.0000 C   0  0  0  0  0  0  0  0  0  0  0  0
    0.7500    5.2164    0.0000 C   0  0  0  0  0  0  0  0  0  0  0  0
    2.1892    4.7938    0.0000 C   0  0  0  0  0  0  0  0  0  0  0  0
    3.4511    3.9828    0.0000 C   0  0  0  0  0  0  0  0  0  0  0  0
    4.4334    2.8492    0.0000 C   0  0  0  0  0  0  0  0  0  0  0  0
    5.0565    1.4847    0.0000 C   0  0  0  0  0  0  0  0  0  0  0  0
  1  2  1  0
  2  3  1  0
  3  4  1  0
  4  5  1  0
  5  6  1  0
  6  7  2  0
  7  8  1  0
  8  9  1  0
  9 10  1  0
 10 11  1  0
 11 12  1  0
 12 13  1  0
 13 14  1  0
 14 15  1  0
 15 16  1  0
 16 17  1  0
 17 18  1  0
 18 19  1  0
 19 20  1  0
 20 21  1  0
 21 22  1  0
 22 23  1  0
 23  2  1  0
M  END
>  <Title>  (398) 
idAANNgen7

$$$$

     RDKit          2D

 29 32  0  0  0  0  0  0  0  0999 V2000
   -3.1771   -5.9156    0.0000 C   0  0  0  0  0  0  0  0  0  0  0  0
   -1.9635   -5.0339    0.0000 C   0  0  0  0  0  0  0  0  0  0  0  0
   -0.7500   -5.9156    0.0000 C   0  0  0  0  0  0  0  0  0  0  0  0
    0.7500   -5.9156    0.0000 C   0  0  0  0  0  0  0  0  0  0  0  0
    1.9635   -5.0339    0.0000 C   0  0  0  0  0  0  0  0  0  0  0  0
    2.4271   -3.6073    0.0000 C   0  0  0  0  0  0  0  0  0  0  0  0
    1.9635   -2.1807    0.0000 C   0  0  0  0  0  0  0  0  0  0  0  0
    3.1771   -1.2990    0.0000 C   0  0  0  0  0  0  0  0  0  0  0  0
    4.5474   -1.9091    0.0000 C   0  0  0  0  0  0  0  0  0  0  0  0
    4.7042   -3.4009    0.0000 O   0  0  0  0  0  0  0  0  0  0  0  0
    5.7609   -1.0275    0.0000 N   0  0  0  0  0  0  0  0  0  0  0  0
    7.1312   -1.6376    0.0000 C   0  0  0  0  0  0  0  0  0  0  0  0
    7.2880   -3.1294    0.0000 N   0  0  0  0  0  0  0  0  0  0  0  0
    8.6583   -3.7395    0.0000 N   0  0  0  0  0  0  0  0  0  0  0  0
    9.8718   -2.8578    0.0000 N   0  0  0  0  0  0  0  0  0  0  0  0
    9.7151   -1.3660    0.0000 N   0  0  0  0  0  0  0  0  0  0  0  0
    8.3447   -0.7559    0.0000 N   0  0  0  0  0  0  0  0  0  0  0  0
    0.7500   -1.2990    0.0000 C   0  0  0  0  0  0  0  0  0  0  0  0
    1.5000    0.0000    0.0000 C   0  0  0  0  0  0  0  0  0  0  0  0
    0.7500    1.2990    0.0000 C   0  0  0  0  0  0  0  0  0  0  0  0
   -0.7500    1.2990    0.0000 C   0  0  0  0  0  0  0  0  0  0  0  0
   -1.5000    0.0000    0.0000 C   0  0  0  0  0  0  0  0  0  0  0  0
   -0.7500   -1.2990    0.0000 C   0  0  0  0  0  0  0  0  0  0  0  0
   -1.9635   -2.1807    0.0000 C   0  0  0  0  0  0  0  0  0  0  0  0
   -2.9672   -1.0660    0.0000 C   0  0  0  0  0  0  0  0  0  0  0  0
   -4.4344   -1.3779    0.0000 C   0  0  0  0  0  0  0  0  0  0  0  0
   -4.8980   -2.8045    0.0000 C   0  0  0  0  0  0  0  0  0  0  0  0
   -3.8943   -3.9192    0.0000 C   0  0  0  0  0  0  0  0  0  0  0  0
   -2.4271   -3.6073    0.0000 C   0  0  0  0  0  0  0  0  0  0  0  0
  1  2  1  0
  2  3  1  0
  3  4  1  0
  4  5  1  0
  5  6  1  0
  6  7  1  0
  7  8  1  0
  8  9  1  0
  9 10  2  0
  9 11  1  0
 11 12  1  0
 12 13  2  0
 13 14  1  0
 14 15  2  0
 15 16  1  0
 16 17  2  0
  7 18  1  0
 18 19  2  0
 19 20  1  0
 20 21  2  0
 21 22  1  0
 22 23  2  0
 23 24  1  0
 24 25  2  0
 25 26  1  0
 26 27  2  0
 27 28  1  0
 28 29  2  0
 29  2  1  0
 17 12  1  0
 23 18  1  0
 29 24  1  0
M  END
>  <Title>  (399) 
idAANOgen7

$$$$

     RDKit          2D

 21 23  0  0  0  0  0  0  0  0999 V2000
   -3.0000   -2.5981    0.0000 C   0  0  0  0  0  0  0  0  0  0  0  0
   -1.5000   -2.5981    0.0000 C   0  0  0  0  0  0  0  0  0  0  0  0
   -0.7500   -3.8971    0.0000 C   0  0  0  0  0  0  0  0  0  0  0  0
    0.7500   -3.8971    0.0000 C   0  0  0  0  0  0  0  0  0  0  0  0
    1.5000   -2.5981    0.0000 C   0  0  0  0  0  0  0  0  0  0  0  0
    3.0000   -2.5981    0.0000 N   0  0  0  0  0  0  0  0  0  0  0  0
    3.7500   -3.8971    0.0000 C   0  0  0  0  0  0  0  0  0  0  0  0
    3.0000   -5.1962    0.0000 O   0  0  0  0  0  0  0  0  0  0  0  0
    5.2500   -3.8971    0.0000 N   0  0  0  0  0  0  0  0  0  0  0  0
    6.0000   -5.1962    0.0000 C   0  0  0  0  0  0  0  0  0  0  0  0
    5.2500   -6.4952    0.0000 N   0  0  0  0  0  0  0  0  0  0  0  0
    6.0000   -7.7942    0.0000 N   0  0  0  0  0  0  0  0  0  0  0  0
    7.5000   -7.7942    0.0000 N   0  0  0  0  0  0  0  0  0  0  0  0
    8.2500   -6.4952    0.0000 N   0  0  0  0  0  0  0  0  0  0  0  0
    7.5000   -5.1962    0.0000 N   0  0  0  0  0  0  0  0  0  0  0  0
    0.7500   -1.2990    0.0000 C   0  0  0  0  0  0  0  0  0  0  0  0
    1.5000    0.0000    0.0000 C   0  0  0  0  0  0  0  0  0  0  0  0
    0.7500    1.2990    0.0000 C   0  0  0  0  0  0  0  0  0  0  0  0
   -0.7500    1.2990    0.0000 C   0  0  0  0  0  0  0  0  0  0  0  0
   -1.5000    0.0000    0.0000 C   0  0  0  0  0  0  0  0  0  0  0  0
   -0.7500   -1.2990    0.0000 C   0  0  0  0  0  0  0  0  0  0  0  0
  1  2  1  0
  2  3  1  0
  3  4  1  0
  4  5  1  0
  5  6  1  0
  6  7  1  0
  7  8  2  0
  7  9  1  0
  9 10  1  0
 10 11  2  0
 11 12  1  0
 12 13  2  0
 13 14  1  0
 14 15  2  0
  5 16  1  0
 16 17  2  0
 17 18  1  0
 18 19  2  0
 19 20  1  0
 20 21  2  0
 21  2  1  0
 15 10  1  0
 21 16  1  0
M  END
>  <Title>  (400) 
idAANPgen7

$$$$

     RDKit          2D

 44 44  0  0  0  0  0  0  0  0999 V2000
   11.7746    0.0000    0.0000 C   0  0  0  0  0  0  0  0  0  0  0  0
   10.2746    0.0000    0.0000 C   0  0  0  0  0  0  0  0  0  0  0  0
   10.1651    1.4960    0.0000 C   0  0  0  0  0  0  0  0  0  0  0  0
    9.8390    2.9601    0.0000 C   0  0  0  0  0  0  0  0  0  0  0  0
    9.3031    4.3611    0.0000 C   0  0  0  0  0  0  0  0  0  0  0  0
    8.5690    5.6692    0.0000 C   0  0  0  0  0  0  0  0  0  0  0  0
    7.6523    6.8565    0.0000 C   0  0  0  0  0  0  0  0  0  0  0  0
    6.5724    7.8976    0.0000 C   0  0  0  0  0  0  0  0  0  0  0  0
    5.3525    8.7704    0.0000 C   0  0  0  0  0  0  0  0  0  0  0  0
    4.0185    9.4562    0.0000 C   0  0  0  0  0  0  0  0  0  0  0  0
    2.5988    9.9405    0.0000 C   0  0  0  0  0  0  0  0  0  0  0  0
    1.1237   10.2130    0.0000 C   0  0  0  0  0  0  0  0  0  0  0  0
   -0.3753   10.2678    0.0000 C   0  0  0  0  0  0  0  0  0  0  0  0
   -1.8663   10.1037    0.0000 C   0  0  0  0  0  0  0  0  0  0  0  0
   -3.3175    9.7243    0.0000 C   0  0  0  0  0  0  0  0  0  0  0  0
   -4.6980    9.1377    0.0000 C   0  0  0  0  0  0  0  0  0  0  0  0
   -5.9784    8.3563    0.0000 C   0  0  0  0  0  0  0  0  0  0  0  0
   -7.1314    7.3967    0.0000 C   0  0  0  0  0  0  0  0  0  0  0  0
   -8.1323    6.2796    0.0000 C   0  0  0  0  0  0  0  0  0  0  0  0
   -8.9600    5.0286    0.0000 C   0  0  0  0  0  0  0  0  0  0  0  0
   -9.5967    3.6704    0.0000 C   0  0  0  0  0  0  0  0  0  0  0  0
  -10.0288    2.2340    0.0000 C   0  0  0  0  0  0  0  0  0  0  0  0
  -10.2472    0.7500    0.0000 C   0  0  0  0  0  0  0  0  0  0  0  0
  -10.2472   -0.7500    0.0000 C   0  0  0  0  0  0  0  0  0  0  0  0
  -10.0288   -2.2340    0.0000 C   0  0  0  0  0  0  0  0  0  0  0  0
   -9.5967   -3.6704    0.0000 C   0  0  0  0  0  0  0  0  0  0  0  0
   -8.9600   -5.0286    0.0000 C   0  0  0  0  0  0  0  0  0  0  0  0
   -8.1323   -6.2796    0.0000 C   0  0  0  0  0  0  0  0  0  0  0  0
   -7.1314   -7.3967    0.0000 C   0  0  0  0  0  0  0  0  0  0  0  0
   -5.9784   -8.3563    0.0000 C   0  0  0  0  0  0  0  0  0  0  0  0
   -4.6980   -9.1377    0.0000 C   0  0  0  0  0  0  0  0  0  0  0  0
   -3.3175   -9.7243    0.0000 C   0  0  0  0  0  0  0  0  0  0  0  0
   -1.8663  -10.1037    0.0000 C   0  0  0  0  0  0  0  0  0  0  0  0
   -0.3753  -10.2678    0.0000 C   0  0  0  0  0  0  0  0  0  0  0  0
    1.1237  -10.2130    0.0000 C   0  0  0  0  0  0  0  0  0  0  0  0
    2.5988   -9.9405    0.0000 C   0  0  0  0  0  0  0  0  0  0  0  0
    4.0185   -9.4562    0.0000 C   0  0  0  0  0  0  0  0  0  0  0  0
    5.3525   -8.7704    0.0000 C   0  0  0  0  0  0  0  0  0  0  0  0
    6.5724   -7.8976    0.0000 C   0  0  0  0  0  0  0  0  0  0  0  0
    7.6523   -6.8565    0.0000 C   0  0  0  0  0  0  0  0  0  0  0  0
    8.5690   -5.6692    0.0000 C   0  0  0  0  0  0  0  0  0  0  0  0
    9.3031   -4.3611    0.0000 C   0  0  0  0  0  0  0  0  0  0  0  0
    9.8390   -2.9601    0.0000 C   0  0  0  0  0  0  0  0  0  0  0  0
   10.1651   -1.4960    0.0000 C   0  0  0  0  0  0  0  0  0  0  0  0
  1  2  1  0
  2  3  1  0
  3  4  1  0
  4  5  1  0
  5  6  1  0
  6  7  1  0
  7  8  1  0
  8  9  1  0
  9 10  1  0
 10 11  1  0
 11 12  1  0
 12 13  1  0
 13 14  1  0
 14 15  1  0
 15 16  1  0
 16 17  1  0
 17 18  1  0
 18 19  1  0
 19 20  1  0
 20 21  1  0
 21 22  1  0
 22 23  1  0
 23 24  1  0
 24 25  1  0
 25 26  1  0
 26 27  1  0
 27 28  1  0
 28 29  1  0
 29 30  1  0
 30 31  1  0
 31 32  1  0
 32 33  1  0
 33 34  1  0
 34 35  1  0
 35 36  1  0
 36 37  1  0
 37 38  1  0
 38 39  1  0
 39 40  1  0
 40 41  1  0
 41 42  1  0
 42 43  1  0
 43 44  1  0
 44  2  1  0
M  END
>  <Title>  (401) 
idAANQgen7

$$$$

     RDKit          2D

 11 11  0  0  0  0  0  0  0  0999 V2000
    7.2760   -0.0000    0.0000 C   0  0  0  0  0  0  0  0  0  0  0  0
    5.7760   -0.0000    0.0000 C   0  0  0  0  0  0  0  0  0  0  0  0
    4.2760   -0.0000    0.0000 C   0  0  0  0  0  0  0  0  0  0  0  0
    2.7760    0.0000    0.0000 C   0  0  0  0  0  0  0  0  0  0  0  0
    1.2760    0.0000    0.0000 C   0  0  0  0  0  0  0  0  0  0  0  0
    0.3943    1.2135    0.0000 C   0  0  0  0  0  0  0  0  0  0  0  0
   -1.0323    0.7500    0.0000 C   0  0  0  0  0  0  0  0  0  0  0  0
   -1.0323   -0.7500    0.0000 C   0  0  0  0  0  0  0  0  0  0  0  0
   -2.2458   -1.6317    0.0000 C   0  0  0  0  0  0  0  0  0  0  0  0
   -3.4593   -2.5134    0.0000 N   0  0  0  0  0  0  0  0  0  0  0  0
    0.3943   -1.2135    0.0000 C   0  0  0  0  0  0  0  0  0  0  0  0
  1  2  3  0
  2  3  1  0
  3  4  3  0
  4  5  1  0
  5  6  1  0
  6  7  1  0
  7  8  1  0
  8  9  1  0
  9 10  3  0
  8 11  1  0
 11  5  1  0
M  END
>  <Title>  (402) 
idAANRgen7

$$$$

     RDKit          2D

  9  9  0  0  0  0  0  0  0  0999 V2000
    3.2286   -0.0000    0.0000 C   0  0  0  0  0  0  0  0  0  0  0  0
    1.7286    0.0000    0.0000 C   0  0  0  0  0  0  0  0  0  0  0  0
    1.0777    1.3515    0.0000 C   0  0  0  0  0  0  0  0  0  0  0  0
   -0.3846    1.6852    0.0000 C   0  0  0  0  0  0  0  0  0  0  0  0
   -1.5574    0.7500    0.0000 C   0  0  0  0  0  0  0  0  0  0  0  0
   -1.5574   -0.7500    0.0000 C   0  0  0  0  0  0  0  0  0  0  0  0
   -0.3846   -1.6852    0.0000 C   0  0  0  0  0  0  0  0  0  0  0  0
    1.0777   -1.3515    0.0000 C   0  0  0  0  0  0  0  0  0  0  0  0
    2.0130   -2.5242    0.0000 O   0  0  0  0  0  0  0  0  0  0  0  0
  1  2  1  0
  2  3  1  0
  3  4  1  0
  4  5  1  0
  5  6  1  0
  6  7  1  0
  7  8  1  0
  8  9  2  0
  8  2  1  0
M  END
>  <Title>  (403) 
idAANSgen7

$$$$

     RDKit          2D

 11 11  0  0  0  0  0  0  0  0999 V2000
    3.9271    0.0000    0.0000 C   0  0  0  0  0  0  0  0  0  0  0  0
    2.4271    0.0000    0.0000 C   0  0  0  0  0  0  0  0  0  0  0  0
    1.9635   -1.4266    0.0000 C   0  0  0  0  0  0  0  0  0  0  0  0
    0.7500   -2.3083    0.0000 C   0  0  0  0  0  0  0  0  0  0  0  0
   -0.7500   -2.3083    0.0000 C   0  0  0  0  0  0  0  0  0  0  0  0
   -1.9635   -1.4266    0.0000 C   0  0  0  0  0  0  0  0  0  0  0  0
   -2.4271    0.0000    0.0000 C   0  0  0  0  0  0  0  0  0  0  0  0
   -1.9635    1.4266    0.0000 C   0  0  0  0  0  0  0  0  0  0  0  0
   -0.7500    2.3083    0.0000 C   0  0  0  0  0  0  0  0  0  0  0  0
    0.7500    2.3083    0.0000 C   0  0  0  0  0  0  0  0  0  0  0  0
    1.9635    1.4266    0.0000 C   0  0  0  0  0  0  0  0  0  0  0  0
  1  2  1  0
  2  3  1  0
  3  4  2  0
  4  5  1  0
  5  6  1  0
  6  7  1  0
  7  8  2  0
  8  9  1  0
  9 10  2  0
 10 11  1  0
 11  2  1  0
M  END
>  <Title>  (404) 
idAANTgen7

$$$$

     RDKit          2D

 26 29  0  0  0  0  0  0  0  0999 V2000
    2.6188  -10.5399    0.0000 C   0  0  0  0  0  0  0  0  0  0  0  0
    1.1373  -10.3052    0.0000 C   0  0  0  0  0  0  0  0  0  0  0  0
    0.3536  -11.5842    0.0000 C   0  0  0  0  0  0  0  0  0  0  0  0
   -1.1050  -11.9344    0.0000 C   0  0  0  0  0  0  0  0  0  0  0  0
   -2.3840  -11.1506    0.0000 C   0  0  0  0  0  0  0  0  0  0  0  0
   -2.7341   -9.6921    0.0000 C   0  0  0  0  0  0  0  0  0  0  0  0
   -1.9504   -8.4131    0.0000 C   0  0  0  0  0  0  0  0  0  0  0  0
   -2.8321   -7.1996    0.0000 C   0  0  0  0  0  0  0  0  0  0  0  0
   -4.3238   -7.3564    0.0000 O   0  0  0  0  0  0  0  0  0  0  0  0
   -2.2220   -5.8293    0.0000 N   0  0  0  0  0  0  0  0  0  0  0  0
   -3.1036   -4.6157    0.0000 C   0  0  0  0  0  0  0  0  0  0  0  0
   -4.6036   -4.6157    0.0000 N   0  0  0  0  0  0  0  0  0  0  0  0
   -5.0672   -3.1891    0.0000 N   0  0  0  0  0  0  0  0  0  0  0  0
   -3.8536   -2.3075    0.0000 N   0  0  0  0  0  0  0  0  0  0  0  0
   -2.6401   -3.1891    0.0000 N   0  0  0  0  0  0  0  0  0  0  0  0
   -1.2135   -2.7256    0.0000 N   0  0  0  0  0  0  0  0  0  0  0  0
   -0.0000   -3.6073    0.0000 C   0  0  0  0  0  0  0  0  0  0  0  0
    1.2135   -2.7256    0.0000 C   0  0  0  0  0  0  0  0  0  0  0  0
    0.7500   -1.2990    0.0000 C   0  0  0  0  0  0  0  0  0  0  0  0
    1.5000    0.0000    0.0000 C   0  0  0  0  0  0  0  0  0  0  0  0
    0.7500    1.2990    0.0000 C   0  0  0  0  0  0  0  0  0  0  0  0
   -0.7500    1.2990    0.0000 C   0  0  0  0  0  0  0  0  0  0  0  0
   -1.5000    0.0000    0.0000 C   0  0  0  0  0  0  0  0  0  0  0  0
   -0.7500   -1.2990    0.0000 C   0  0  0  0  0  0  0  0  0  0  0  0
   -0.4918   -8.0629    0.0000 C   0  0  0  0  0  0  0  0  0  0  0  0
    0.7871   -8.8467    0.0000 C   0  0  0  0  0  0  0  0  0  0  0  0
  1  2  1  0
  2  3  1  0
  3  4  2  0
  4  5  1  0
  5  6  2  0
  6  7  1  0
  7  8  1  0
  8  9  2  0
  8 10  1  0
 10 11  1  0
 11 12  2  0
 12 13  1  0
 13 14  2  0
 14 15  1  0
 15 16  1  0
 16 17  1  0
 17 18  1  0
 18 19  1  0
 19 20  2  0
 20 21  1  0
 21 22  2  0
 22 23  1  0
 23 24  2  0
  7 25  1  0
 25 26  1  0
 26  2  1  0
 15 11  1  0
 24 16  1  0
 24 19  1  0
M  END
>  <Title>  (405) 
idAANUgen7

$$$$

     RDKit          2D

 53 53  0  0  0  0  0  0  0  0999 V2000
   13.9216    0.0000    0.0000 O   0  0  0  0  0  0  0  0  0  0  0  0
   12.4216    0.0000    0.0000 C   0  0  0  0  0  0  0  0  0  0  0  0
   12.3311   -1.4973    0.0000 C   0  0  0  0  0  0  0  0  0  0  0  0
   12.0607   -2.9727    0.0000 C   0  0  0  0  0  0  0  0  0  0  0  0
   11.6144   -4.4048    0.0000 C   0  0  0  0  0  0  0  0  0  0  0  0
   10.9988   -5.7726    0.0000 C   0  0  0  0  0  0  0  0  0  0  0  0
   10.2228   -7.0563    0.0000 C   0  0  0  0  0  0  0  0  0  0  0  0
    9.2977   -8.2371    0.0000 C   0  0  0  0  0  0  0  0  0  0  0  0
    8.2371   -9.2977    0.0000 C   0  0  0  0  0  0  0  0  0  0  0  0
    7.0563  -10.2228    0.0000 C   0  0  0  0  0  0  0  0  0  0  0  0
    5.7726  -10.9988    0.0000 C   0  0  0  0  0  0  0  0  0  0  0  0
    4.4048  -11.6144    0.0000 C   0  0  0  0  0  0  0  0  0  0  0  0
    2.9727  -12.0607    0.0000 C   0  0  0  0  0  0  0  0  0  0  0  0
    1.4973  -12.3311    0.0000 C   0  0  0  0  0  0  0  0  0  0  0  0
   -0.0000  -12.4216    0.0000 C   0  0  0  0  0  0  0  0  0  0  0  0
   -1.4973  -12.3311    0.0000 C   0  0  0  0  0  0  0  0  0  0  0  0
   -2.9727  -12.0607    0.0000 C   0  0  0  0  0  0  0  0  0  0  0  0
   -4.4048  -11.6144    0.0000 C   0  0  0  0  0  0  0  0  0  0  0  0
   -5.7726  -10.9988    0.0000 C   0  0  0  0  0  0  0  0  0  0  0  0
   -7.0563  -10.2228    0.0000 C   0  0  0  0  0  0  0  0  0  0  0  0
   -8.2371   -9.2977    0.0000 C   0  0  0  0  0  0  0  0  0  0  0  0
   -9.2977   -8.2371    0.0000 C   0  0  0  0  0  0  0  0  0  0  0  0
  -10.2228   -7.0563    0.0000 C   0  0  0  0  0  0  0  0  0  0  0  0
  -10.9988   -5.7726    0.0000 C   0  0  0  0  0  0  0  0  0  0  0  0
  -11.6144   -4.4048    0.0000 C   0  0  0  0  0  0  0  0  0  0  0  0
  -12.0607   -2.9727    0.0000 C   0  0  0  0  0  0  0  0  0  0  0  0
  -12.3311   -1.4973    0.0000 C   0  0  0  0  0  0  0  0  0  0  0  0
  -12.4216    0.0000    0.0000 C   0  0  0  0  0  0  0  0  0  0  0  0
  -12.3311    1.4973    0.0000 C   0  0  0  0  0  0  0  0  0  0  0  0
  -12.0607    2.9727    0.0000 C   0  0  0  0  0  0  0  0  0  0  0  0
  -11.6144    4.4048    0.0000 C   0  0  0  0  0  0  0  0  0  0  0  0
  -10.9988    5.7726    0.0000 C   0  0  0  0  0  0  0  0  0  0  0  0
  -10.2228    7.0563    0.0000 C   0  0  0  0  0  0  0  0  0  0  0  0
   -9.2977    8.2371    0.0000 C   0  0  0  0  0  0  0  0  0  0  0  0
   -8.2371    9.2977    0.0000 C   0  0  0  0  0  0  0  0  0  0  0  0
   -7.0563   10.2228    0.0000 C   0  0  0  0  0  0  0  0  0  0  0  0
   -5.7726   10.9988    0.0000 C   0  0  0  0  0  0  0  0  0  0  0  0
   -4.4048   11.6144    0.0000 C   0  0  0  0  0  0  0  0  0  0  0  0
   -2.9727   12.0607    0.0000 C   0  0  0  0  0  0  0  0  0  0  0  0
   -1.4973   12.3311    0.0000 C   0  0  0  0  0  0  0  0  0  0  0  0
    0.0000   12.4216    0.0000 C   0  0  0  0  0  0  0  0  0  0  0  0
    1.4973   12.3311    0.0000 C   0  0  0  0  0  0  0  0  0  0  0  0
    2.9727   12.0607    0.0000 C   0  0  0  0  0  0  0  0  0  0  0  0
    4.4048   11.6144    0.0000 C   0  0  0  0  0  0  0  0  0  0  0  0
    5.7726   10.9988    0.0000 C   0  0  0  0  0  0  0  0  0  0  0  0
    7.0563   10.2228    0.0000 C   0  0  0  0  0  0  0  0  0  0  0  0
    8.2371    9.2977    0.0000 C   0  0  0  0  0  0  0  0  0  0  0  0
    9.2977    8.2371    0.0000 C   0  0  0  0  0  0  0  0  0  0  0  0
   10.2228    7.0563    0.0000 C   0  0  0  0  0  0  0  0  0  0  0  0
   10.9988    5.7726    0.0000 C   0  0  0  0  0  0  0  0  0  0  0  0
   11.6144    4.4048    0.0000 C   0  0  0  0  0  0  0  0  0  0  0  0
   12.0607    2.9727    0.0000 C   0  0  0  0  0  0  0  0  0  0  0  0
   12.3311    1.4973    0.0000 C   0  0  0  0  0  0  0  0  0  0  0  0
  1  2  1  0
  2  3  2  0
  3  4  1  0
  4  5  1  0
  5  6  1  0
  6  7  1  0
  7  8  1  0
  8  9  1  0
  9 10  1  0
 10 11  1  0
 11 12  1  0
 12 13  1  0
 13 14  1  0
 14 15  1  0
 15 16  1  0
 16 17  1  0
 17 18  1  0
 18 19  1  0
 19 20  1  0
 20 21  1  0
 21 22  1  0
 22 23  1  0
 23 24  1  0
 24 25  1  0
 25 26  1  0
 26 27  1  0
 27 28  1  0
 28 29  1  0
 29 30  1  0
 30 31  1  0
 31 32  1  0
 32 33  1  0
 33 34  1  0
 34 35  1  0
 35 36  1  0
 36 37  1  0
 37 38  1  0
 38 39  1  0
 39 40  1  0
 40 41  1  0
 41 42  1  0
 42 43  1  0
 43 44  1  0
 44 45  1  0
 45 46  1  0
 46 47  1  0
 47 48  1  0
 48 49  1  0
 49 50  1  0
 50 51  1  0
 51 52  1  0
 52 53  1  0
 53  2  1  0
M  END
>  <Title>  (406) 
idAANVgen7

$$$$

     RDKit          2D

 53 53  0  0  0  0  0  0  0  0999 V2000
   13.6831    0.0000    0.0000 C   0  0  0  0  0  0  0  0  0  0  0  0
   12.1831    0.0000    0.0000 C   0  0  0  0  0  0  0  0  0  0  0  0
   12.0907    1.4972    0.0000 C   0  0  0  0  0  0  0  0  0  0  0  0
   11.8151    2.9716    0.0000 C   0  0  0  0  0  0  0  0  0  0  0  0
   11.3604    4.4010    0.0000 C   0  0  0  0  0  0  0  0  0  0  0  0
   10.7334    5.7637    0.0000 C   0  0  0  0  0  0  0  0  0  0  0  0
    9.9438    7.0391    0.0000 C   0  0  0  0  0  0  0  0  0  0  0  0
    9.0034    8.2077    0.0000 C   0  0  0  0  0  0  0  0  0  0  0  0
    7.9265    9.2519    0.0000 C   0  0  0  0  0  0  0  0  0  0  0  0
    6.7295   10.1558    0.0000 C   0  0  0  0  0  0  0  0  0  0  0  0
    5.4305   10.9058    0.0000 C   0  0  0  0  0  0  0  0  0  0  0  0
    4.0491   11.4905    0.0000 C   0  0  0  0  0  0  0  0  0  0  0  0
    2.6064   11.9010    0.0000 C   0  0  0  0  0  0  0  0  0  0  0  0
    1.1241   12.1311    0.0000 C   0  0  0  0  0  0  0  0  0  0  0  0
   -0.3752   12.1773    0.0000 C   0  0  0  0  0  0  0  0  0  0  0  0
   -1.8688   12.0389    0.0000 C   0  0  0  0  0  0  0  0  0  0  0  0
   -3.3341   11.7180    0.0000 C   0  0  0  0  0  0  0  0  0  0  0  0
   -4.7488   11.2194    0.0000 C   0  0  0  0  0  0  0  0  0  0  0  0
   -6.0915   10.5508    0.0000 C   0  0  0  0  0  0  0  0  0  0  0  0
   -7.3419    9.7223    0.0000 C   0  0  0  0  0  0  0  0  0  0  0  0
   -8.4810    8.7464    0.0000 C   0  0  0  0  0  0  0  0  0  0  0  0
   -9.4916    7.6378    0.0000 C   0  0  0  0  0  0  0  0  0  0  0  0
  -10.3582    6.4136    0.0000 C   0  0  0  0  0  0  0  0  0  0  0  0
  -11.0679    5.0920    0.0000 C   0  0  0  0  0  0  0  0  0  0  0  0
  -11.6097    3.6933    0.0000 C   0  0  0  0  0  0  0  0  0  0  0  0
  -11.9756    2.2386    0.0000 C   0  0  0  0  0  0  0  0  0  0  0  0
  -12.1599    0.7500    0.0000 C   0  0  0  0  0  0  0  0  0  0  0  0
  -12.1599   -0.7500    0.0000 C   0  0  0  0  0  0  0  0  0  0  0  0
  -11.9756   -2.2386    0.0000 C   0  0  0  0  0  0  0  0  0  0  0  0
  -11.6097   -3.6933    0.0000 C   0  0  0  0  0  0  0  0  0  0  0  0
  -11.0679   -5.0920    0.0000 C   0  0  0  0  0  0  0  0  0  0  0  0
  -10.3582   -6.4136    0.0000 C   0  0  0  0  0  0  0  0  0  0  0  0
   -9.4916   -7.6378    0.0000 C   0  0  0  0  0  0  0  0  0  0  0  0
   -8.4810   -8.7464    0.0000 C   0  0  0  0  0  0  0  0  0  0  0  0
   -7.3419   -9.7223    0.0000 C   0  0  0  0  0  0  0  0  0  0  0  0
   -6.0915  -10.5508    0.0000 C   0  0  0  0  0  0  0  0  0  0  0  0
   -4.7488  -11.2194    0.0000 C   0  0  0  0  0  0  0  0  0  0  0  0
   -3.3341  -11.7180    0.0000 C   0  0  0  0  0  0  0  0  0  0  0  0
   -1.8688  -12.0389    0.0000 C   0  0  0  0  0  0  0  0  0  0  0  0
   -0.3752  -12.1773    0.0000 C   0  0  0  0  0  0  0  0  0  0  0  0
    1.1241  -12.1311    0.0000 C   0  0  0  0  0  0  0  0  0  0  0  0
    2.6064  -11.9010    0.0000 C   0  0  0  0  0  0  0  0  0  0  0  0
    4.0491  -11.4905    0.0000 C   0  0  0  0  0  0  0  0  0  0  0  0
    5.4305  -10.9058    0.0000 C   0  0  0  0  0  0  0  0  0  0  0  0
    6.7295  -10.1558    0.0000 C   0  0  0  0  0  0  0  0  0  0  0  0
    7.9265   -9.2519    0.0000 C   0  0  0  0  0  0  0  0  0  0  0  0
    9.0034   -8.2077    0.0000 C   0  0  0  0  0  0  0  0  0  0  0  0
    9.9438   -7.0391    0.0000 C   0  0  0  0  0  0  0  0  0  0  0  0
   10.7334   -5.7637    0.0000 C   0  0  0  0  0  0  0  0  0  0  0  0
   11.3604   -4.4010    0.0000 C   0  0  0  0  0  0  0  0  0  0  0  0
   11.8151   -2.9716    0.0000 C   0  0  0  0  0  0  0  0  0  0  0  0
   13.2698   -3.3375    0.0000 C   0  0  0  0  0  0  0  0  0  0  0  0
   12.0907   -1.4972    0.0000 C   0  0  0  0  0  0  0  0  0  0  0  0
  1  2  1  0
  2  3  1  0
  3  4  1  0
  4  5  1  0
  5  6  1  0
  6  7  1  0
  7  8  1  0
  8  9  1  0
  9 10  1  0
 10 11  1  0
 11 12  1  0
 12 13  1  0
 13 14  1  0
 14 15  1  0
 15 16  1  0
 16 17  1  0
 17 18  1  0
 18 19  1  0
 19 20  1  0
 20 21  1  0
 21 22  1  0
 22 23  1  0
 23 24  1  0
 24 25  1  0
 25 26  1  0
 26 27  1  0
 27 28  1  0
 28 29  1  0
 29 30  1  0
 30 31  1  0
 31 32  1  0
 32 33  1  0
 33 34  1  0
 34 35  1  0
 35 36  1  0
 36 37  1  0
 37 38  1  0
 38 39  1  0
 39 40  1  0
 40 41  1  0
 41 42  1  0
 42 43  1  0
 43 44  1  0
 44 45  1  0
 45 46  1  0
 46 47  1  0
 47 48  1  0
 48 49  1  0
 49 50  1  0
 50 51  1  0
 51 52  1  0
 51 53  1  0
 53  2  1  0
M  END
>  <Title>  (407) 
idAANWgen7

$$$$

     RDKit          2D

 21 23  0  0  0  0  0  0  0  0999 V2000
   -5.4505   -0.2368    0.0000 C   0  0  0  0  0  0  0  0  0  0  0  0
   -6.2198   -1.5245    0.0000 C   0  0  0  0  0  0  0  0  0  0  0  0
   -7.7138   -1.6590    0.0000 C   0  0  0  0  0  0  0  0  0  0  0  0
   -8.0476   -3.1214    0.0000 C   0  0  0  0  0  0  0  0  0  0  0  0
   -6.7599   -3.8907    0.0000 C   0  0  0  0  0  0  0  0  0  0  0  0
   -5.6303   -2.9038    0.0000 C   0  0  0  0  0  0  0  0  0  0  0  0
   -4.1679   -3.2376    0.0000 C   0  0  0  0  0  0  0  0  0  0  0  0
   -3.7258   -4.6709    0.0000 O   0  0  0  0  0  0  0  0  0  0  0  0
   -3.1476   -2.1380    0.0000 N   0  0  0  0  0  0  0  0  0  0  0  0
   -1.6852   -2.4718    0.0000 C   0  0  0  0  0  0  0  0  0  0  0  0
   -1.3515   -3.9342    0.0000 N   0  0  0  0  0  0  0  0  0  0  0  0
   -0.0000   -4.5850    0.0000 N   0  0  0  0  0  0  0  0  0  0  0  0
    1.3515   -3.9342    0.0000 N   0  0  0  0  0  0  0  0  0  0  0  0
    1.6852   -2.4718    0.0000 N   0  0  0  0  0  0  0  0  0  0  0  0
    3.1476   -2.1380    0.0000 C   0  0  0  0  0  0  0  0  0  0  0  0
    0.7500   -1.2990    0.0000 C   0  0  0  0  0  0  0  0  0  0  0  0
    1.5000    0.0000    0.0000 C   0  0  0  0  0  0  0  0  0  0  0  0
    0.7500    1.2990    0.0000 C   0  0  0  0  0  0  0  0  0  0  0  0
   -0.7500    1.2990    0.0000 C   0  0  0  0  0  0  0  0  0  0  0  0
   -1.5000    0.0000    0.0000 C   0  0  0  0  0  0  0  0  0  0  0  0
   -0.7500   -1.2990    0.0000 C   0  0  0  0  0  0  0  0  0  0  0  0
  1  2  1  0
  2  3  1  0
  3  4  2  0
  4  5  1  0
  5  6  1  0
  6  7  1  0
  7  8  2  0
  7  9  1  0
  9 10  1  0
 10 11  2  0
 11 12  1  0
 12 13  2  0
 13 14  1  0
 14 15  1  0
 14 16  1  0
 16 17  2  0
 17 18  1  0
 18 19  2  0
 19 20  1  0
 20 21  2  0
  6  2  1  0
 21 10  1  0
 21 16  1  0
M  END
>  <Title>  (408) 
idAANXgen7

$$$$

     RDKit          2D

 21 22  0  0  0  0  0  0  0  0999 V2000
    4.1621    0.0000    0.0000 C   0  0  0  0  0  0  0  0  0  0  0  0
    2.6621    0.0000    0.0000 C   0  0  0  0  0  0  0  0  0  0  0  0
    2.2395    1.4392    0.0000 C   0  0  0  0  0  0  0  0  0  0  0  0
    1.1059    2.4215    0.0000 C   0  0  0  0  0  0  0  0  0  0  0  0
   -0.3789    2.6350    0.0000 C   0  0  0  0  0  0  0  0  0  0  0  0
   -1.7433    2.0119    0.0000 C   0  0  0  0  0  0  0  0  0  0  0  0
   -2.5543    0.7500    0.0000 C   0  0  0  0  0  0  0  0  0  0  0  0
   -2.5543   -0.7500    0.0000 C   0  0  0  0  0  0  0  0  0  0  0  0
   -1.7433   -2.0119    0.0000 C   0  0  0  0  0  0  0  0  0  0  0  0
   -0.3789   -2.6350    0.0000 C   0  0  0  0  0  0  0  0  0  0  0  0
   -0.5923   -4.1197    0.0000 C   0  0  0  0  0  0  0  0  0  0  0  0
    0.5868   -5.0470    0.0000 O   0  0  0  0  0  0  0  0  0  0  0  0
   -1.9849   -4.6772    0.0000 N   0  0  0  0  0  0  0  0  0  0  0  0
   -2.1984   -6.1620    0.0000 C   0  0  0  0  0  0  0  0  0  0  0  0
   -3.5909   -6.7195    0.0000 N   0  0  0  0  0  0  0  0  0  0  0  0
   -3.8044   -8.2042    0.0000 N   0  0  0  0  0  0  0  0  0  0  0  0
   -2.6253   -9.1314    0.0000 N   0  0  0  0  0  0  0  0  0  0  0  0
   -1.2327   -8.5739    0.0000 N   0  0  0  0  0  0  0  0  0  0  0  0
   -1.0193   -7.0892    0.0000 N   0  0  0  0  0  0  0  0  0  0  0  0
    1.1059   -2.4215    0.0000 C   0  0  0  0  0  0  0  0  0  0  0  0
    2.2395   -1.4392    0.0000 C   0  0  0  0  0  0  0  0  0  0  0  0
  1  2  1  0
  2  3  1  0
  3  4  1  0
  4  5  1  0
  5  6  1  0
  6  7  1  0
  7  8  1  0
  8  9  1  0
  9 10  1  0
 10 11  1  0
 11 12  2  0
 11 13  1  0
 13 14  1  0
 14 15  2  0
 15 16  1  0
 16 17  2  0
 17 18  1  0
 18 19  2  0
 10 20  1  0
 20 21  1  0
 21  2  1  0
 19 14  1  0
M  END
>  <Title>  (409) 
idAANYgen7

$$$$

     RDKit          2D

  6  5  0  0  0  0  0  0  0  0999 V2000
    0.0000    0.0000    0.0000 C   0  0  0  0  0  0  0  0  0  0  0  0
    1.2990    0.7500    0.0000 C   0  0  0  0  0  0  0  0  0  0  0  0
    1.2990    2.2500    0.0000 O   0  0  0  0  0  0  0  0  0  0  0  0
    2.5981   -0.0000    0.0000 C   0  0  0  0  0  0  0  0  0  0  0  0
    3.8971    0.7500    0.0000 C   0  0  0  0  0  0  0  0  0  0  0  0
    2.5981   -1.5000    0.0000 O   0  0  0  0  0  0  0  0  0  0  0  0
  1  2  1  0
  2  3  2  0
  2  4  1  0
  4  5  1  0
  4  6  1  0
M  END
>  <Title>  (410) 
idAANZgen7

$$$$

     RDKit          2D

 58 58  0  0  0  0  0  0  0  0999 V2000
   15.1146    0.0000    0.0000 C   0  0  0  0  0  0  0  0  0  0  0  0
   13.6146    0.0000    0.0000 C   0  0  0  0  0  0  0  0  0  0  0  0
   13.5320    1.4977    0.0000 C   0  0  0  0  0  0  0  0  0  0  0  0
   13.2851    2.9773    0.0000 C   0  0  0  0  0  0  0  0  0  0  0  0
   12.8770    4.4207    0.0000 C   0  0  0  0  0  0  0  0  0  0  0  0
   12.3125    5.8104    0.0000 C   0  0  0  0  0  0  0  0  0  0  0  0
   11.5986    7.1296    0.0000 C   0  0  0  0  0  0  0  0  0  0  0  0
   10.7439    8.3623    0.0000 C   0  0  0  0  0  0  0  0  0  0  0  0
    9.7587    9.4934    0.0000 C   0  0  0  0  0  0  0  0  0  0  0  0
    8.6551   10.5094    0.0000 C   0  0  0  0  0  0  0  0  0  0  0  0
    7.4465   11.3977    0.0000 C   0  0  0  0  0  0  0  0  0  0  0  0
    6.1475   12.1477    0.0000 C   0  0  0  0  0  0  0  0  0  0  0  0
    4.7738   12.7503    0.0000 C   0  0  0  0  0  0  0  0  0  0  0  0
    3.3422   13.1980    0.0000 C   0  0  0  0  0  0  0  0  0  0  0  0
    1.8700   13.4856    0.0000 C   0  0  0  0  0  0  0  0  0  0  0  0
    0.3751   13.6095    0.0000 C   0  0  0  0  0  0  0  0  0  0  0  0
   -1.1243   13.5681    0.0000 C   0  0  0  0  0  0  0  0  0  0  0  0
   -2.6101   13.3621    0.0000 C   0  0  0  0  0  0  0  0  0  0  0  0
   -4.0642   12.9939    0.0000 C   0  0  0  0  0  0  0  0  0  0  0  0
   -5.4689   12.4679    0.0000 C   0  0  0  0  0  0  0  0  0  0  0  0
   -6.8073   11.7906    0.0000 C   0  0  0  0  0  0  0  0  0  0  0  0
   -8.0631   10.9702    0.0000 C   0  0  0  0  0  0  0  0  0  0  0  0
   -9.2209   10.0166    0.0000 C   0  0  0  0  0  0  0  0  0  0  0  0
  -10.2669    8.9414    0.0000 C   0  0  0  0  0  0  0  0  0  0  0  0
  -11.1882    7.7577    0.0000 C   0  0  0  0  0  0  0  0  0  0  0  0
  -11.9737    6.4799    0.0000 C   0  0  0  0  0  0  0  0  0  0  0  0
  -12.6139    5.1233    0.0000 C   0  0  0  0  0  0  0  0  0  0  0  0
  -13.1009    3.7046    0.0000 C   0  0  0  0  0  0  0  0  0  0  0  0
  -13.4290    2.2409    0.0000 C   0  0  0  0  0  0  0  0  0  0  0  0
  -13.5940    0.7500    0.0000 C   0  0  0  0  0  0  0  0  0  0  0  0
  -13.5940   -0.7500    0.0000 C   0  0  0  0  0  0  0  0  0  0  0  0
  -13.4290   -2.2409    0.0000 C   0  0  0  0  0  0  0  0  0  0  0  0
  -13.1009   -3.7046    0.0000 C   0  0  0  0  0  0  0  0  0  0  0  0
  -12.6139   -5.1233    0.0000 C   0  0  0  0  0  0  0  0  0  0  0  0
  -11.9737   -6.4799    0.0000 C   0  0  0  0  0  0  0  0  0  0  0  0
  -11.1882   -7.7577    0.0000 C   0  0  0  0  0  0  0  0  0  0  0  0
  -10.2669   -8.9414    0.0000 C   0  0  0  0  0  0  0  0  0  0  0  0
   -9.2209  -10.0166    0.0000 C   0  0  0  0  0  0  0  0  0  0  0  0
   -8.0631  -10.9702    0.0000 C   0  0  0  0  0  0  0  0  0  0  0  0
   -6.8073  -11.7906    0.0000 C   0  0  0  0  0  0  0  0  0  0  0  0
   -5.4689  -12.4679    0.0000 C   0  0  0  0  0  0  0  0  0  0  0  0
   -4.0642  -12.9939    0.0000 C   0  0  0  0  0  0  0  0  0  0  0  0
   -2.6101  -13.3621    0.0000 C   0  0  0  0  0  0  0  0  0  0  0  0
   -1.1243  -13.5681    0.0000 C   0  0  0  0  0  0  0  0  0  0  0  0
    0.3751  -13.6095    0.0000 C   0  0  0  0  0  0  0  0  0  0  0  0
    1.8700  -13.4856    0.0000 C   0  0  0  0  0  0  0  0  0  0  0  0
    3.3422  -13.1980    0.0000 C   0  0  0  0  0  0  0  0  0  0  0  0
    4.7738  -12.7503    0.0000 C   0  0  0  0  0  0  0  0  0  0  0  0
    6.1475  -12.1477    0.0000 C   0  0  0  0  0  0  0  0  0  0  0  0
    7.4465  -11.3977    0.0000 C   0  0  0  0  0  0  0  0  0  0  0  0
    8.6551  -10.5094    0.0000 C   0  0  0  0  0  0  0  0  0  0  0  0
    9.7587   -9.4934    0.0000 C   0  0  0  0  0  0  0  0  0  0  0  0
   10.7439   -8.3623    0.0000 C   0  0  0  0  0  0  0  0  0  0  0  0
   11.5986   -7.1296    0.0000 C   0  0  0  0  0  0  0  0  0  0  0  0
   12.3125   -5.8104    0.0000 C   0  0  0  0  0  0  0  0  0  0  0  0
   12.8770   -4.4207    0.0000 C   0  0  0  0  0  0  0  0  0  0  0  0
   13.2851   -2.9773    0.0000 C   0  0  0  0  0  0  0  0  0  0  0  0
   13.5320   -1.4977    0.0000 C   0  0  0  0  0  0  0  0  0  0  0  0
  1  2  1  0
  2  3  1  0
  3  4  1  0
  4  5  1  0
  5  6  1  0
  6  7  1  0
  7  8  1  0
  8  9  1  0
  9 10  1  0
 10 11  1  0
 11 12  1  0
 12 13  1  0
 13 14  1  0
 14 15  1  0
 15 16  1  0
 16 17  1  0
 17 18  1  0
 18 19  1  0
 19 20  1  0
 20 21  1  0
 21 22  1  0
 22 23  1  0
 23 24  1  0
 24 25  1  0
 25 26  1  0
 26 27  1  0
 27 28  1  0
 28 29  1  0
 29 30  1  0
 30 31  1  0
 31 32  1  0
 32 33  1  0
 33 34  1  0
 34 35  1  0
 35 36  1  0
 36 37  1  0
 37 38  1  0
 38 39  1  0
 39 40  1  0
 40 41  1  0
 41 42  1  0
 42 43  1  0
 43 44  1  0
 44 45  1  0
 45 46  1  0
 46 47  1  0
 47 48  1  0
 48 49  1  0
 49 50  1  0
 50 51  1  0
 51 52  1  0
 52 53  1  0
 53 54  1  0
 54 55  1  0
 55 56  1  0
 56 57  1  0
 57 58  1  0
 58  2  1  0
M  END
>  <Title>  (411) 
idAAOAgen7

$$$$

     RDKit          2D

 24 24  0  0  0  0  0  0  0  0999 V2000
    7.0080   -0.0000    0.0000 O   0  0  0  0  0  0  0  0  0  0  0  0
    5.5080    0.0000    0.0000 C   0  0  0  0  0  0  0  0  0  0  0  0
    5.3037    1.4860    0.0000 C   0  0  0  0  0  0  0  0  0  0  0  0
    4.7061    2.8618    0.0000 C   0  0  0  0  0  0  0  0  0  0  0  0
    3.7595    4.0254    0.0000 C   0  0  0  0  0  0  0  0  0  0  0  0
    2.5340    4.8904    0.0000 C   0  0  0  0  0  0  0  0  0  0  0  0
    1.1206    5.3928    0.0000 C   0  0  0  0  0  0  0  0  0  0  0  0
   -0.3759    5.4951    0.0000 C   0  0  0  0  0  0  0  0  0  0  0  0
   -1.8445    5.1899    0.0000 C   0  0  0  0  0  0  0  0  0  0  0  0
   -3.1763    4.4998    0.0000 C   0  0  0  0  0  0  0  0  0  0  0  0
   -4.2726    3.4760    0.0000 C   0  0  0  0  0  0  0  0  0  0  0  0
   -5.0520    2.1944    0.0000 C   0  0  0  0  0  0  0  0  0  0  0  0
   -5.4567    0.7500    0.0000 C   0  0  0  0  0  0  0  0  0  0  0  0
   -5.4567   -0.7500    0.0000 C   0  0  0  0  0  0  0  0  0  0  0  0
   -5.0520   -2.1944    0.0000 C   0  0  0  0  0  0  0  0  0  0  0  0
   -4.2726   -3.4760    0.0000 C   0  0  0  0  0  0  0  0  0  0  0  0
   -3.1763   -4.4998    0.0000 C   0  0  0  0  0  0  0  0  0  0  0  0
   -1.8445   -5.1899    0.0000 C   0  0  0  0  0  0  0  0  0  0  0  0
   -0.3759   -5.4951    0.0000 C   0  0  0  0  0  0  0  0  0  0  0  0
    1.1206   -5.3928    0.0000 C   0  0  0  0  0  0  0  0  0  0  0  0
    2.5340   -4.8904    0.0000 C   0  0  0  0  0  0  0  0  0  0  0  0
    3.7595   -4.0254    0.0000 C   0  0  0  0  0  0  0  0  0  0  0  0
    4.7061   -2.8618    0.0000 C   0  0  0  0  0  0  0  0  0  0  0  0
    5.3037   -1.4860    0.0000 C   0  0  0  0  0  0  0  0  0  0  0  0
  1  2  1  0
  2  3  1  0
  3  4  1  0
  4  5  1  0
  5  6  1  0
  6  7  1  0
  7  8  1  0
  8  9  1  0
  9 10  1  0
 10 11  1  0
 11 12  1  0
 12 13  1  0
 13 14  1  0
 14 15  1  0
 15 16  1  0
 16 17  1  0
 17 18  1  0
 18 19  1  0
 19 20  1  0
 20 21  1  0
 21 22  1  0
 22 23  1  0
 23 24  1  0
 24  2  1  0
M  END
>  <Title>  (412) 
idAAOBgen7

$$$$

     RDKit          2D

 10  9  0  0  0  0  0  0  0  0999 V2000
    0.0000    0.0000    0.0000 C   0  0  0  0  0  0  0  0  0  0  0  0
   -0.0000   -1.5000    0.0000 C   0  0  0  0  0  0  0  0  0  0  0  0
   -0.0000   -3.0000    0.0000 C   0  0  0  0  0  0  0  0  0  0  0  0
   -0.0000   -4.5000    0.0000 C   0  0  0  0  0  0  0  0  0  0  0  0
   -0.0000   -6.0000    0.0000 C   0  0  0  0  0  0  0  0  0  0  0  0
   -0.0000   -7.5000    0.0000 C   0  0  0  0  0  0  0  0  0  0  0  0
   -0.0000   -9.0000    0.0000 C   0  0  0  0  0  0  0  0  0  0  0  0
   -0.0000  -10.5000    0.0000 C   0  0  0  0  0  0  0  0  0  0  0  0
   -0.0000  -12.0000    0.0000 C   0  0  0  0  0  0  0  0  0  0  0  0
   -0.0000  -13.5000    0.0000 N   0  0  0  0  0  0  0  0  0  0  0  0
  1  2  3  0
  2  3  1  0
  3  4  3  0
  4  5  1  0
  5  6  3  0
  6  7  1  0
  7  8  3  0
  8  9  1  0
  9 10  3  0
M  END
>  <Title>  (413) 
idAAOCgen7

$$$$

     RDKit          2D

100100  0  0  0  0  0  0  0  0999 V2000
   25.1385    0.0000    0.0000 O   0  0  0  0  0  0  0  0  0  0  0  0
   23.6385    0.0000    0.0000 C   0  0  0  0  0  0  0  0  0  0  0  0
   23.5909    1.4992    0.0000 C   0  0  0  0  0  0  0  0  0  0  0  0
   23.4483    2.9925    0.0000 C   0  0  0  0  0  0  0  0  0  0  0  0
   23.2113    4.4736    0.0000 C   0  0  0  0  0  0  0  0  0  0  0  0
   22.8808    5.9368    0.0000 C   0  0  0  0  0  0  0  0  0  0  0  0
   22.4582    7.3760    0.0000 C   0  0  0  0  0  0  0  0  0  0  0  0
   21.9452    8.7855    0.0000 C   0  0  0  0  0  0  0  0  0  0  0  0
   21.3438   10.1597    0.0000 C   0  0  0  0  0  0  0  0  0  0  0  0
   20.6565   11.4929    0.0000 C   0  0  0  0  0  0  0  0  0  0  0  0
   19.8860   12.7799    0.0000 C   0  0  0  0  0  0  0  0  0  0  0  0
   19.0354   14.0154    0.0000 C   0  0  0  0  0  0  0  0  0  0  0  0
   18.1081   15.1945    0.0000 C   0  0  0  0  0  0  0  0  0  0  0  0
   17.1080   16.3124    0.0000 C   0  0  0  0  0  0  0  0  0  0  0  0
   16.0389   17.3646    0.0000 C   0  0  0  0  0  0  0  0  0  0  0  0
   14.9053   18.3469    0.0000 C   0  0  0  0  0  0  0  0  0  0  0  0
   13.7117   19.2553    0.0000 C   0  0  0  0  0  0  0  0  0  0  0  0
   12.4628   20.0862    0.0000 C   0  0  0  0  0  0  0  0  0  0  0  0
   11.1638   20.8362    0.0000 C   0  0  0  0  0  0  0  0  0  0  0  0
    9.8198   21.5023    0.0000 C   0  0  0  0  0  0  0  0  0  0  0  0
    8.4362   22.0818    0.0000 C   0  0  0  0  0  0  0  0  0  0  0  0
    7.0187   22.5724    0.0000 C   0  0  0  0  0  0  0  0  0  0  0  0
    5.5730   22.9721    0.0000 C   0  0  0  0  0  0  0  0  0  0  0  0
    4.1048   23.2794    0.0000 C   0  0  0  0  0  0  0  0  0  0  0  0
    2.6200   23.4928    0.0000 C   0  0  0  0  0  0  0  0  0  0  0  0
    1.1248   23.6117    0.0000 C   0  0  0  0  0  0  0  0  0  0  0  0
   -0.3750   23.6355    0.0000 C   0  0  0  0  0  0  0  0  0  0  0  0
   -1.8733   23.5641    0.0000 C   0  0  0  0  0  0  0  0  0  0  0  0
   -3.3641   23.3979    0.0000 C   0  0  0  0  0  0  0  0  0  0  0  0
   -4.8413   23.1374    0.0000 C   0  0  0  0  0  0  0  0  0  0  0  0
   -6.2990   22.7838    0.0000 C   0  0  0  0  0  0  0  0  0  0  0  0
   -7.7314   22.3384    0.0000 C   0  0  0  0  0  0  0  0  0  0  0  0
   -9.1326   21.8031    0.0000 C   0  0  0  0  0  0  0  0  0  0  0  0
  -10.4971   21.1799    0.0000 C   0  0  0  0  0  0  0  0  0  0  0  0
  -11.8192   20.4715    0.0000 C   0  0  0  0  0  0  0  0  0  0  0  0
  -13.0938   19.6807    0.0000 C   0  0  0  0  0  0  0  0  0  0  0  0
  -14.3157   18.8106    0.0000 C   0  0  0  0  0  0  0  0  0  0  0  0
  -15.4799   17.8648    0.0000 C   0  0  0  0  0  0  0  0  0  0  0  0
  -16.5818   16.8470    0.0000 C   0  0  0  0  0  0  0  0  0  0  0  0
  -17.6169   15.7614    0.0000 C   0  0  0  0  0  0  0  0  0  0  0  0
  -18.5811   14.6123    0.0000 C   0  0  0  0  0  0  0  0  0  0  0  0
  -19.4705   13.4044    0.0000 C   0  0  0  0  0  0  0  0  0  0  0  0
  -20.2814   12.1426    0.0000 C   0  0  0  0  0  0  0  0  0  0  0  0
  -21.0107   10.8318    0.0000 C   0  0  0  0  0  0  0  0  0  0  0  0
  -21.6554    9.4774    0.0000 C   0  0  0  0  0  0  0  0  0  0  0  0
  -22.2129    8.0848    0.0000 C   0  0  0  0  0  0  0  0  0  0  0  0
  -22.6810    6.6597    0.0000 C   0  0  0  0  0  0  0  0  0  0  0  0
  -23.0577    5.2078    0.0000 C   0  0  0  0  0  0  0  0  0  0  0  0
  -23.3416    3.7349    0.0000 C   0  0  0  0  0  0  0  0  0  0  0  0
  -23.5314    2.2470    0.0000 C   0  0  0  0  0  0  0  0  0  0  0  0
  -23.6266    0.7500    0.0000 C   0  0  0  0  0  0  0  0  0  0  0  0
  -23.6266   -0.7500    0.0000 C   0  0  0  0  0  0  0  0  0  0  0  0
  -23.5314   -2.2470    0.0000 C   0  0  0  0  0  0  0  0  0  0  0  0
  -23.3416   -3.7349    0.0000 C   0  0  0  0  0  0  0  0  0  0  0  0
  -23.0577   -5.2078    0.0000 C   0  0  0  0  0  0  0  0  0  0  0  0
  -22.6810   -6.6597    0.0000 C   0  0  0  0  0  0  0  0  0  0  0  0
  -22.2129   -8.0848    0.0000 C   0  0  0  0  0  0  0  0  0  0  0  0
  -21.6554   -9.4774    0.0000 C   0  0  0  0  0  0  0  0  0  0  0  0
  -21.0107  -10.8318    0.0000 C   0  0  0  0  0  0  0  0  0  0  0  0
  -20.2814  -12.1426    0.0000 C   0  0  0  0  0  0  0  0  0  0  0  0
  -19.4705  -13.4044    0.0000 C   0  0  0  0  0  0  0  0  0  0  0  0
  -18.5811  -14.6123    0.0000 C   0  0  0  0  0  0  0  0  0  0  0  0
  -17.6169  -15.7614    0.0000 C   0  0  0  0  0  0  0  0  0  0  0  0
  -16.5818  -16.8470    0.0000 C   0  0  0  0  0  0  0  0  0  0  0  0
  -15.4799  -17.8648    0.0000 C   0  0  0  0  0  0  0  0  0  0  0  0
  -14.3157  -18.8106    0.0000 C   0  0  0  0  0  0  0  0  0  0  0  0
  -13.0938  -19.6807    0.0000 C   0  0  0  0  0  0  0  0  0  0  0  0
  -11.8192  -20.4715    0.0000 C   0  0  0  0  0  0  0  0  0  0  0  0
  -10.4971  -21.1799    0.0000 C   0  0  0  0  0  0  0  0  0  0  0  0
   -9.1326  -21.8031    0.0000 C   0  0  0  0  0  0  0  0  0  0  0  0
   -7.7314  -22.3384    0.0000 C   0  0  0  0  0  0  0  0  0  0  0  0
   -6.2990  -22.7838    0.0000 C   0  0  0  0  0  0  0  0  0  0  0  0
   -4.8413  -23.1374    0.0000 C   0  0  0  0  0  0  0  0  0  0  0  0
   -3.3641  -23.3979    0.0000 C   0  0  0  0  0  0  0  0  0  0  0  0
   -1.8733  -23.5641    0.0000 C   0  0  0  0  0  0  0  0  0  0  0  0
   -0.3750  -23.6355    0.0000 C   0  0  0  0  0  0  0  0  0  0  0  0
    1.1248  -23.6117    0.0000 C   0  0  0  0  0  0  0  0  0  0  0  0
    2.6200  -23.4928    0.0000 C   0  0  0  0  0  0  0  0  0  0  0  0
    4.1048  -23.2794    0.0000 C   0  0  0  0  0  0  0  0  0  0  0  0
    5.5730  -22.9721    0.0000 C   0  0  0  0  0  0  0  0  0  0  0  0
    7.0187  -22.5724    0.0000 C   0  0  0  0  0  0  0  0  0  0  0  0
    8.4362  -22.0818    0.0000 C   0  0  0  0  0  0  0  0  0  0  0  0
    9.8198  -21.5023    0.0000 C   0  0  0  0  0  0  0  0  0  0  0  0
   11.1638  -20.8362    0.0000 C   0  0  0  0  0  0  0  0  0  0  0  0
   12.4628  -20.0862    0.0000 C   0  0  0  0  0  0  0  0  0  0  0  0
   13.7117  -19.2553    0.0000 C   0  0  0  0  0  0  0  0  0  0  0  0
   14.9053  -18.3469    0.0000 C   0  0  0  0  0  0  0  0  0  0  0  0
   16.0389  -17.3646    0.0000 C   0  0  0  0  0  0  0  0  0  0  0  0
   17.1080  -16.3124    0.0000 C   0  0  0  0  0  0  0  0  0  0  0  0
   18.1081  -15.1945    0.0000 C   0  0  0  0  0  0  0  0  0  0  0  0
   19.0354  -14.0154    0.0000 C   0  0  0  0  0  0  0  0  0  0  0  0
   19.8860  -12.7799    0.0000 C   0  0  0  0  0  0  0  0  0  0  0  0
   20.6565  -11.4929    0.0000 C   0  0  0  0  0  0  0  0  0  0  0  0
   21.3438  -10.1597    0.0000 C   0  0  0  0  0  0  0  0  0  0  0  0
   21.9452   -8.7855    0.0000 C   0  0  0  0  0  0  0  0  0  0  0  0
   22.4582   -7.3760    0.0000 C   0  0  0  0  0  0  0  0  0  0  0  0
   22.8808   -5.9368    0.0000 C   0  0  0  0  0  0  0  0  0  0  0  0
   23.2113   -4.4736    0.0000 C   0  0  0  0  0  0  0  0  0  0  0  0
   23.4483   -2.9925    0.0000 C   0  0  0  0  0  0  0  0  0  0  0  0
   23.5909   -1.4992    0.0000 C   0  0  0  0  0  0  0  0  0  0  0  0
  1  2  1  0
  2  3  1  0
  3  4  1  0
  4  5  1  0
  5  6  1  0
  6  7  1  0
  7  8  1  0
  8  9  1  0
  9 10  1  0
 10 11  1  0
 11 12  1  0
 12 13  1  0
 13 14  1  0
 14 15  1  0
 15 16  1  0
 16 17  1  0
 17 18  1  0
 18 19  1  0
 19 20  1  0
 20 21  1  0
 21 22  1  0
 22 23  1  0
 23 24  1  0
 24 25  1  0
 25 26  1  0
 26 27  1  0
 27 28  1  0
 28 29  1  0
 29 30  1  0
 30 31  1  0
 31 32  1  0
 32 33  1  0
 33 34  1  0
 34 35  1  0
 35 36  1  0
 36 37  1  0
 37 38  1  0
 38 39  1  0
 39 40  1  0
 40 41  1  0
 41 42  1  0
 42 43  1  0
 43 44  1  0
 44 45  1  0
 45 46  1  0
 46 47  1  0
 47 48  1  0
 48 49  1  0
 49 50  1  0
 50 51  1  0
 51 52  1  0
 52 53  1  0
 53 54  1  0
 54 55  1  0
 55 56  1  0
 56 57  1  0
 57 58  1  0
 58 59  1  0
 59 60  1  0
 60 61  1  0
 61 62  1  0
 62 63  1  0
 63 64  1  0
 64 65  1  0
 65 66  1  0
 66 67  1  0
 67 68  1  0
 68 69  1  0
 69 70  1  0
 70 71  1  0
 71 72  1  0
 72 73  1  0
 73 74  1  0
 74 75  1  0
 75 76  1  0
 76 77  1  0
 77 78  1  0
 78 79  1  0
 79 80  1  0
 80 81  1  0
 81 82  1  0
 82 83  1  0
 83 84  1  0
 84 85  1  0
 85 86  1  0
 86 87  1  0
 87 88  1  0
 88 89  1  0
 89 90  1  0
 90 91  1  0
 91 92  1  0
 92 93  1  0
 93 94  1  0
 94 95  1  0
 95 96  1  0
 96 97  1  0
 97 98  1  0
 98 99  1  0
 99100  1  0
100  2  1  0
M  END
>  <Title>  (414) 
idAAODgen7

$$$$

     RDKit          2D

 10 10  0  0  0  0  0  0  0  0999 V2000
    5.2500   -1.2990    0.0000 C   0  0  0  0  0  0  0  0  0  0  0  0
    3.7500   -1.2990    0.0000 C   0  0  0  0  0  0  0  0  0  0  0  0
    3.0000   -2.5981    0.0000 O   0  0  0  0  0  0  0  0  0  0  0  0
    3.0000    0.0000    0.0000 O   0  0  0  0  0  0  0  0  0  0  0  0
    1.5000    0.0000    0.0000 C   0  0  0  0  0  0  0  0  0  0  0  0
    0.7500   -1.2990    0.0000 C   0  0  0  0  0  0  0  0  0  0  0  0
   -0.7500   -1.2990    0.0000 C   0  0  0  0  0  0  0  0  0  0  0  0
   -1.5000    0.0000    0.0000 C   0  0  0  0  0  0  0  0  0  0  0  0
   -0.7500    1.2990    0.0000 C   0  0  0  0  0  0  0  0  0  0  0  0
    0.7500    1.2990    0.0000 C   0  0  0  0  0  0  0  0  0  0  0  0
  1  2  1  0
  2  3  2  0
  2  4  1  0
  4  5  1  0
  5  6  1  0
  6  7  2  0
  7  8  1  0
  8  9  2  0
  9 10  1  0
 10  5  1  0
M  END
>  <Title>  (415) 
idAAOEgen7

$$$$

     RDKit          2D

  8  8  0  0  0  0  0  0  0  0999 V2000
    3.7500   -1.2990    0.0000 O   0  0  0  0  0  0  0  0  0  0  0  0
    3.0000    0.0000    0.0000 C   0  0  0  0  0  0  0  0  0  0  0  0
    1.5000    0.0000    0.0000 C   0  0  0  0  0  0  0  0  0  0  0  0
    0.7500   -1.2990    0.0000 C   0  0  0  0  0  0  0  0  0  0  0  0
   -0.7500   -1.2990    0.0000 C   0  0  0  0  0  0  0  0  0  0  0  0
   -1.5000    0.0000    0.0000 C   0  0  0  0  0  0  0  0  0  0  0  0
   -0.7500    1.2990    0.0000 C   0  0  0  0  0  0  0  0  0  0  0  0
    0.7500    1.2990    0.0000 C   0  0  0  0  0  0  0  0  0  0  0  0
  1  2  1  0
  2  3  1  0
  3  4  1  0
  4  5  1  0
  5  6  2  0
  6  7  1  0
  7  8  1  0
  8  3  1  0
M  END
>  <Title>  (416) 
idAAOFgen7

$$$$

     RDKit          2D

 67 67  0  0  0  0  0  0  0  0999 V2000
   16.0009    0.0000    0.0000 C   0  0  0  0  0  0  0  0  0  0  0  0
   15.9306    1.4984    0.0000 C   0  0  0  0  0  0  0  0  0  0  0  0
   15.7203    2.9835    0.0000 C   0  0  0  0  0  0  0  0  0  0  0  0
   15.3719    4.4425    0.0000 C   0  0  0  0  0  0  0  0  0  0  0  0
   14.8883    5.8624    0.0000 C   0  0  0  0  0  0  0  0  0  0  0  0
   14.2739    7.2308    0.0000 C   0  0  0  0  0  0  0  0  0  0  0  0
   13.5341    8.5357    0.0000 C   0  0  0  0  0  0  0  0  0  0  0  0
   12.6753    9.7655    0.0000 C   0  0  0  0  0  0  0  0  0  0  0  0
   11.7052   10.9096    0.0000 C   0  0  0  0  0  0  0  0  0  0  0  0
   10.6322   11.9577    0.0000 C   0  0  0  0  0  0  0  0  0  0  0  0
    9.4657   12.9008    0.0000 C   0  0  0  0  0  0  0  0  0  0  0  0
    8.2161   13.7305    0.0000 C   0  0  0  0  0  0  0  0  0  0  0  0
    6.8942   14.4395    0.0000 C   0  0  0  0  0  0  0  0  0  0  0  0
    5.5118   15.0217    0.0000 C   0  0  0  0  0  0  0  0  0  0  0  0
    4.0809   15.4718    0.0000 C   0  0  0  0  0  0  0  0  0  0  0  0
    2.6142   15.7859    0.0000 C   0  0  0  0  0  0  0  0  0  0  0  0
    1.1245   15.9614    0.0000 C   0  0  0  0  0  0  0  0  0  0  0  0
   -0.3751   15.9965    0.0000 C   0  0  0  0  0  0  0  0  0  0  0  0
   -1.8714   15.8911    0.0000 C   0  0  0  0  0  0  0  0  0  0  0  0
   -3.3512   15.6461    0.0000 C   0  0  0  0  0  0  0  0  0  0  0  0
   -4.8016   15.2635    0.0000 C   0  0  0  0  0  0  0  0  0  0  0  0
   -6.2098   14.7468    0.0000 C   0  0  0  0  0  0  0  0  0  0  0  0
   -7.5635   14.1005    0.0000 C   0  0  0  0  0  0  0  0  0  0  0  0
   -8.8506   13.3303    0.0000 C   0  0  0  0  0  0  0  0  0  0  0  0
  -10.0600   12.4429    0.0000 C   0  0  0  0  0  0  0  0  0  0  0  0
  -11.1810   11.4462    0.0000 C   0  0  0  0  0  0  0  0  0  0  0  0
  -12.2037   10.3489    0.0000 C   0  0  0  0  0  0  0  0  0  0  0  0
  -13.1191    9.1607    0.0000 C   0  0  0  0  0  0  0  0  0  0  0  0
  -13.9193    7.8919    0.0000 C   0  0  0  0  0  0  0  0  0  0  0  0
  -14.5972    6.5538    0.0000 C   0  0  0  0  0  0  0  0  0  0  0  0
  -15.1467    5.1581    0.0000 C   0  0  0  0  0  0  0  0  0  0  0  0
  -15.5632    3.7171    0.0000 C   0  0  0  0  0  0  0  0  0  0  0  0
  -15.8429    2.2434    0.0000 C   0  0  0  0  0  0  0  0  0  0  0  0
  -15.9833    0.7500    0.0000 C   0  0  0  0  0  0  0  0  0  0  0  0
  -15.9833   -0.7500    0.0000 N   0  0  0  0  0  0  0  0  0  0  0  0
  -15.8429   -2.2434    0.0000 C   0  0  0  0  0  0  0  0  0  0  0  0
  -15.5632   -3.7171    0.0000 C   0  0  0  0  0  0  0  0  0  0  0  0
  -15.1467   -5.1581    0.0000 C   0  0  0  0  0  0  0  0  0  0  0  0
  -14.5972   -6.5538    0.0000 C   0  0  0  0  0  0  0  0  0  0  0  0
  -13.9193   -7.8919    0.0000 C   0  0  0  0  0  0  0  0  0  0  0  0
  -13.1191   -9.1607    0.0000 C   0  0  0  0  0  0  0  0  0  0  0  0
  -12.2037  -10.3489    0.0000 C   0  0  0  0  0  0  0  0  0  0  0  0
  -11.1810  -11.4462    0.0000 C   0  0  0  0  0  0  0  0  0  0  0  0
  -10.0600  -12.4429    0.0000 C   0  0  0  0  0  0  0  0  0  0  0  0
   -8.8506  -13.3303    0.0000 C   0  0  0  0  0  0  0  0  0  0  0  0
   -7.5635  -14.1005    0.0000 C   0  0  0  0  0  0  0  0  0  0  0  0
   -6.2098  -14.7468    0.0000 C   0  0  0  0  0  0  0  0  0  0  0  0
   -4.8016  -15.2635    0.0000 C   0  0  0  0  0  0  0  0  0  0  0  0
   -3.3512  -15.6461    0.0000 C   0  0  0  0  0  0  0  0  0  0  0  0
   -1.8714  -15.8911    0.0000 C   0  0  0  0  0  0  0  0  0  0  0  0
   -0.3751  -15.9965    0.0000 C   0  0  0  0  0  0  0  0  0  0  0  0
    1.1245  -15.9614    0.0000 C   0  0  0  0  0  0  0  0  0  0  0  0
    2.6142  -15.7859    0.0000 C   0  0  0  0  0  0  0  0  0  0  0  0
    4.0809  -15.4718    0.0000 C   0  0  0  0  0  0  0  0  0  0  0  0
    5.5118  -15.0217    0.0000 C   0  0  0  0  0  0  0  0  0  0  0  0
    6.8942  -14.4395    0.0000 C   0  0  0  0  0  0  0  0  0  0  0  0
    8.2161  -13.7305    0.0000 C   0  0  0  0  0  0  0  0  0  0  0  0
    9.4657  -12.9008    0.0000 C   0  0  0  0  0  0  0  0  0  0  0  0
   10.6322  -11.9577    0.0000 C   0  0  0  0  0  0  0  0  0  0  0  0
   11.7052  -10.9096    0.0000 C   0  0  0  0  0  0  0  0  0  0  0  0
   12.6753   -9.7655    0.0000 C   0  0  0  0  0  0  0  0  0  0  0  0
   13.5341   -8.5357    0.0000 C   0  0  0  0  0  0  0  0  0  0  0  0
   14.2739   -7.2308    0.0000 C   0  0  0  0  0  0  0  0  0  0  0  0
   14.8883   -5.8624    0.0000 C   0  0  0  0  0  0  0  0  0  0  0  0
   15.3719   -4.4425    0.0000 C   0  0  0  0  0  0  0  0  0  0  0  0
   15.7203   -2.9835    0.0000 C   0  0  0  0  0  0  0  0  0  0  0  0
   15.9306   -1.4984    0.0000 C   0  0  0  0  0  0  0  0  0  0  0  0
  1  2  1  0
  2  3  1  0
  3  4  1  0
  4  5  1  0
  5  6  1  0
  6  7  1  0
  7  8  1  0
  8  9  1  0
  9 10  1  0
 10 11  1  0
 11 12  1  0
 12 13  1  0
 13 14  1  0
 14 15  1  0
 15 16  1  0
 16 17  1  0
 17 18  1  0
 18 19  1  0
 19 20  1  0
 20 21  1  0
 21 22  1  0
 22 23  1  0
 23 24  1  0
 24 25  1  0
 25 26  1  0
 26 27  1  0
 27 28  1  0
 28 29  1  0
 29 30  1  0
 30 31  1  0
 31 32  1  0
 32 33  1  0
 33 34  1  0
 34 35  1  0
 35 36  1  0
 36 37  1  0
 37 38  1  0
 38 39  1  0
 39 40  1  0
 40 41  1  0
 41 42  1  0
 42 43  1  0
 43 44  1  0
 44 45  1  0
 45 46  1  0
 46 47  1  0
 47 48  1  0
 48 49  1  0
 49 50  1  0
 50 51  1  0
 51 52  1  0
 52 53  1  0
 53 54  1  0
 54 55  1  0
 55 56  1  0
 56 57  1  0
 57 58  1  0
 58 59  1  0
 59 60  1  0
 60 61  1  0
 61 62  1  0
 62 63  1  0
 63 64  1  0
 64 65  1  0
 65 66  1  0
 66 67  1  0
 67  1  1  0
M  END
>  <Title>  (417) 
idAAOGgen7

$$$$

     RDKit          2D

 26 29  0  0  0  0  0  0  0  0999 V2000
   -1.3240   -6.3062    0.0000 O   0  0  0  0  0  0  0  0  0  0  0  0
   -0.7500   -4.9204    0.0000 C   0  0  0  0  0  0  0  0  0  0  0  0
    0.7500   -4.9204    0.0000 C   0  0  0  0  0  0  0  0  0  0  0  0
    1.8107   -3.8597    0.0000 C   0  0  0  0  0  0  0  0  0  0  0  0
    1.8107   -2.3597    0.0000 C   0  0  0  0  0  0  0  0  0  0  0  0
    3.1965   -1.7857    0.0000 C   0  0  0  0  0  0  0  0  0  0  0  0
    3.3923   -0.2985    0.0000 O   0  0  0  0  0  0  0  0  0  0  0  0
    4.3865   -2.6988    0.0000 N   0  0  0  0  0  0  0  0  0  0  0  0
    5.7723   -2.1248    0.0000 C   0  0  0  0  0  0  0  0  0  0  0  0
    6.9624   -3.0379    0.0000 N   0  0  0  0  0  0  0  0  0  0  0  0
    8.3482   -2.4639    0.0000 N   0  0  0  0  0  0  0  0  0  0  0  0
    8.5440   -0.9767    0.0000 N   0  0  0  0  0  0  0  0  0  0  0  0
    7.3539   -0.0636    0.0000 N   0  0  0  0  0  0  0  0  0  0  0  0
    5.9681   -0.6376    0.0000 N   0  0  0  0  0  0  0  0  0  0  0  0
    0.7500   -1.2990    0.0000 C   0  0  0  0  0  0  0  0  0  0  0  0
    1.5000    0.0000    0.0000 C   0  0  0  0  0  0  0  0  0  0  0  0
    0.7500    1.2990    0.0000 C   0  0  0  0  0  0  0  0  0  0  0  0
   -0.7500    1.2990    0.0000 C   0  0  0  0  0  0  0  0  0  0  0  0
   -1.5000    0.0000    0.0000 C   0  0  0  0  0  0  0  0  0  0  0  0
   -0.7500   -1.2990    0.0000 C   0  0  0  0  0  0  0  0  0  0  0  0
   -1.8107   -2.3597    0.0000 C   0  0  0  0  0  0  0  0  0  0  0  0
   -3.1097   -1.6097    0.0000 C   0  0  0  0  0  0  0  0  0  0  0  0
   -4.4087   -2.3597    0.0000 C   0  0  0  0  0  0  0  0  0  0  0  0
   -4.4087   -3.8597    0.0000 C   0  0  0  0  0  0  0  0  0  0  0  0
   -3.1097   -4.6097    0.0000 C   0  0  0  0  0  0  0  0  0  0  0  0
   -1.8107   -3.8597    0.0000 C   0  0  0  0  0  0  0  0  0  0  0  0
  1  2  2  0
  2  3  1  0
  3  4  1  0
  4  5  1  0
  5  6  1  0
  6  7  2  0
  6  8  1  0
  8  9  1  0
  9 10  2  0
 10 11  1  0
 11 12  2  0
 12 13  1  0
 13 14  2  0
  5 15  1  0
 15 16  2  0
 16 17  1  0
 17 18  2  0
 18 19  1  0
 19 20  2  0
 20 21  1  0
 21 22  2  0
 22 23  1  0
 23 24  2  0
 24 25  1  0
 25 26  2  0
 26  2  1  0
 14  9  1  0
 20 15  1  0
 26 21  1  0
M  END
>  <Title>  (418) 
idAAOHgen7

$$$$

     RDKit          2D

 27 30  0  0  0  0  0  0  0  0999 V2000
   -2.3737   -6.1885    0.0000 C   0  0  0  0  0  0  0  0  0  0  0  0
   -1.4095   -5.0395    0.0000 C   0  0  0  0  0  0  0  0  0  0  0  0
   -0.0000   -5.5525    0.0000 C   0  0  0  0  0  0  0  0  0  0  0  0
    1.4095   -5.0395    0.0000 C   0  0  0  0  0  0  0  0  0  0  0  0
    2.1595   -3.7404    0.0000 C   0  0  0  0  0  0  0  0  0  0  0  0
    1.8991   -2.2632    0.0000 C   0  0  0  0  0  0  0  0  0  0  0  0
    3.1981   -1.5132    0.0000 C   0  0  0  0  0  0  0  0  0  0  0  0
    4.4971   -2.2632    0.0000 C   0  0  0  0  0  0  0  0  0  0  0  0
    3.1981   -0.0132    0.0000 N   0  0  0  0  0  0  0  0  0  0  0  0
    4.4971    0.7368    0.0000 C   0  0  0  0  0  0  0  0  0  0  0  0
    5.7962   -0.0132    0.0000 N   0  0  0  0  0  0  0  0  0  0  0  0
    7.0952    0.7368    0.0000 N   0  0  0  0  0  0  0  0  0  0  0  0
    7.0952    2.2368    0.0000 N   0  0  0  0  0  0  0  0  0  0  0  0
    5.7962    2.9868    0.0000 N   0  0  0  0  0  0  0  0  0  0  0  0
    4.4971    2.2368    0.0000 N   0  0  0  0  0  0  0  0  0  0  0  0
    0.7500   -1.2990    0.0000 C   0  0  0  0  0  0  0  0  0  0  0  0
    1.5000    0.0000    0.0000 C   0  0  0  0  0  0  0  0  0  0  0  0
    0.7500    1.2990    0.0000 C   0  0  0  0  0  0  0  0  0  0  0  0
   -0.7500    1.2990    0.0000 C   0  0  0  0  0  0  0  0  0  0  0  0
   -1.5000    0.0000    0.0000 C   0  0  0  0  0  0  0  0  0  0  0  0
   -0.7500   -1.2990    0.0000 C   0  0  0  0  0  0  0  0  0  0  0  0
   -1.8991   -2.2632    0.0000 C   0  0  0  0  0  0  0  0  0  0  0  0
   -3.0481   -1.2990    0.0000 C   0  0  0  0  0  0  0  0  0  0  0  0
   -4.4577   -1.8121    0.0000 C   0  0  0  0  0  0  0  0  0  0  0  0
   -4.7181   -3.2893    0.0000 C   0  0  0  0  0  0  0  0  0  0  0  0
   -3.5691   -4.2535    0.0000 C   0  0  0  0  0  0  0  0  0  0  0  0
   -2.1595   -3.7404    0.0000 C   0  0  0  0  0  0  0  0  0  0  0  0
  1  2  1  0
  2  3  2  0
  3  4  1  0
  4  5  1  0
  5  6  1  0
  6  7  1  0
  7  8  1  0
  7  9  1  0
  9 10  1  0
 10 11  2  0
 11 12  1  0
 12 13  2  0
 13 14  1  0
 14 15  2  0
  6 16  1  0
 16 17  2  0
 17 18  1  0
 18 19  2  0
 19 20  1  0
 20 21  2  0
 21 22  1  0
 22 23  2  0
 23 24  1  0
 24 25  2  0
 25 26  1  0
 26 27  2  0
 27  2  1  0
 15 10  1  0
 21 16  1  0
 27 22  1  0
M  END
>  <Title>  (419) 
idAAOIgen7

$$$$

     RDKit          2D

 17 18  0  0  0  0  0  0  0  0999 V2000
    3.0613   -9.9436    0.0000 O   0  0  0  0  0  0  0  0  0  0  0  0
    1.8478   -9.0619    0.0000 C   0  0  0  0  0  0  0  0  0  0  0  0
    0.4775   -9.6721    0.0000 O   0  0  0  0  0  0  0  0  0  0  0  0
    2.0046   -7.5702    0.0000 N   0  0  0  0  0  0  0  0  0  0  0  0
    3.3037   -6.8202    0.0000 C   0  0  0  0  0  0  0  0  0  0  0  0
    2.9918   -5.3529    0.0000 C   0  0  0  0  0  0  0  0  0  0  0  0
    1.5000   -5.1962    0.0000 N   0  0  0  0  0  0  0  0  0  0  0  0
    0.7500   -3.8971    0.0000 C   0  0  0  0  0  0  0  0  0  0  0  0
   -0.7500   -3.8971    0.0000 O   0  0  0  0  0  0  0  0  0  0  0  0
    1.5000   -2.5981    0.0000 C   0  0  0  0  0  0  0  0  0  0  0  0
    0.7500   -1.2990    0.0000 C   0  0  0  0  0  0  0  0  0  0  0  0
    1.5000    0.0000    0.0000 N   0  0  0  0  0  0  0  0  0  0  0  0
    0.7500    1.2990    0.0000 N   0  0  0  0  0  0  0  0  0  0  0  0
   -0.7500    1.2990    0.0000 N   0  0  0  0  0  0  0  0  0  0  0  0
   -1.5000    0.0000    0.0000 N   0  0  0  0  0  0  0  0  0  0  0  0
   -0.7500   -1.2990    0.0000 N   0  0  0  0  0  0  0  0  0  0  0  0
    0.8899   -6.5665    0.0000 C   0  0  0  0  0  0  0  0  0  0  0  0
  1  2  2  0
  2  3  1  0
  2  4  1  0
  4  5  1  0
  5  6  1  0
  6  7  1  0
  7  8  1  0
  8  9  2  0
  8 10  1  0
 10 11  1  0
 11 12  2  0
 12 13  1  0
 13 14  2  0
 14 15  1  0
 15 16  2  0
  7 17  1  0
 17  4  1  0
 16 11  1  0
M  END
>  <Title>  (420) 
idAAOJgen7

$$$$

     RDKit          2D

 10 10  0  0  0  0  0  0  0  0999 V2000
    7.5000    0.0000    0.0000 N   0  0  0  0  0  0  0  0  0  0  0  0
    6.0000    0.0000    0.0000 C   0  0  0  0  0  0  0  0  0  0  0  0
    4.5000    0.0000    0.0000 C   0  0  0  0  0  0  0  0  0  0  0  0
    3.0000    0.0000    0.0000 C   0  0  0  0  0  0  0  0  0  0  0  0
    1.5000    0.0000    0.0000 C   0  0  0  0  0  0  0  0  0  0  0  0
    0.7500   -1.2990    0.0000 C   0  0  0  0  0  0  0  0  0  0  0  0
   -0.7500   -1.2990    0.0000 C   0  0  0  0  0  0  0  0  0  0  0  0
   -1.5000    0.0000    0.0000 C   0  0  0  0  0  0  0  0  0  0  0  0
   -0.7500    1.2990    0.0000 C   0  0  0  0  0  0  0  0  0  0  0  0
    0.7500    1.2990    0.0000 C   0  0  0  0  0  0  0  0  0  0  0  0
  1  2  3  0
  2  3  1  0
  3  4  3  0
  4  5  1  0
  5  6  2  0
  6  7  1  0
  7  8  1  0
  8  9  1  0
  9 10  1  0
 10  5  1  0
M  END
>  <Title>  (421) 
idAAOKgen7

$$$$

     RDKit          2D

 56 57  0  0  0  0  0  0  0  0999 V2000
   12.4902    0.0000    0.0000 C   0  0  0  0  0  0  0  0  0  0  0  0
   10.9902    0.0000    0.0000 C   0  0  0  0  0  0  0  0  0  0  0  0
   10.8879   -1.4965    0.0000 C   0  0  0  0  0  0  0  0  0  0  0  0
   10.5827   -2.9651    0.0000 C   0  0  0  0  0  0  0  0  0  0  0  0
   10.0804   -4.3785    0.0000 C   0  0  0  0  0  0  0  0  0  0  0  0
    9.3903   -5.7103    0.0000 C   0  0  0  0  0  0  0  0  0  0  0  0
    8.5252   -6.9358    0.0000 C   0  0  0  0  0  0  0  0  0  0  0  0
    7.5014   -8.0321    0.0000 C   0  0  0  0  0  0  0  0  0  0  0  0
    6.3379   -8.9787    0.0000 C   0  0  0  0  0  0  0  0  0  0  0  0
    5.0562   -9.7581    0.0000 C   0  0  0  0  0  0  0  0  0  0  0  0
    3.6804  -10.3557    0.0000 C   0  0  0  0  0  0  0  0  0  0  0  0
    2.2360  -10.7604    0.0000 C   0  0  0  0  0  0  0  0  0  0  0  0
    0.7500  -10.9646    0.0000 C   0  0  0  0  0  0  0  0  0  0  0  0
   -0.7500  -10.9646    0.0000 C   0  0  0  0  0  0  0  0  0  0  0  0
   -2.2360  -10.7604    0.0000 C   0  0  0  0  0  0  0  0  0  0  0  0
   -3.6804  -10.3557    0.0000 C   0  0  0  0  0  0  0  0  0  0  0  0
   -5.0562   -9.7581    0.0000 C   0  0  0  0  0  0  0  0  0  0  0  0
   -6.3379   -8.9787    0.0000 C   0  0  0  0  0  0  0  0  0  0  0  0
   -7.5014   -8.0321    0.0000 C   0  0  0  0  0  0  0  0  0  0  0  0
   -8.5252   -6.9358    0.0000 C   0  0  0  0  0  0  0  0  0  0  0  0
   -9.3903   -5.7103    0.0000 C   0  0  0  0  0  0  0  0  0  0  0  0
  -10.0804   -4.3785    0.0000 C   0  0  0  0  0  0  0  0  0  0  0  0
  -10.5827   -2.9651    0.0000 C   0  0  0  0  0  0  0  0  0  0  0  0
  -10.8879   -1.4965    0.0000 C   0  0  0  0  0  0  0  0  0  0  0  0
  -10.9902    0.0000    0.0000 C   0  0  0  0  0  0  0  0  0  0  0  0
  -10.8879    1.4965    0.0000 C   0  0  0  0  0  0  0  0  0  0  0  0
  -10.5827    2.9651    0.0000 C   0  0  0  0  0  0  0  0  0  0  0  0
  -10.0804    4.3785    0.0000 C   0  0  0  0  0  0  0  0  0  0  0  0
   -9.3903    5.7103    0.0000 C   0  0  0  0  0  0  0  0  0  0  0  0
   -8.5252    6.9358    0.0000 C   0  0  0  0  0  0  0  0  0  0  0  0
   -7.5014    8.0321    0.0000 C   0  0  0  0  0  0  0  0  0  0  0  0
   -6.3379    8.9787    0.0000 C   0  0  0  0  0  0  0  0  0  0  0  0
   -5.0562    9.7581    0.0000 C   0  0  0  0  0  0  0  0  0  0  0  0
   -3.6804   10.3557    0.0000 C   0  0  0  0  0  0  0  0  0  0  0  0
   -2.2360   10.7604    0.0000 C   0  0  0  0  0  0  0  0  0  0  0  0
   -0.7500   10.9646    0.0000 C   0  0  0  0  0  0  0  0  0  0  0  0
    0.7500   10.9646    0.0000 C   0  0  0  0  0  0  0  0  0  0  0  0
    2.2360   10.7604    0.0000 C   0  0  0  0  0  0  0  0  0  0  0  0
    3.6804   10.3557    0.0000 C   0  0  0  0  0  0  0  0  0  0  0  0
    5.0562    9.7581    0.0000 C   0  0  0  0  0  0  0  0  0  0  0  0
    6.3379    8.9787    0.0000 C   0  0  0  0  0  0  0  0  0  0  0  0
    7.5014    8.0321    0.0000 C   0  0  0  0  0  0  0  0  0  0  0  0
    8.5252    6.9358    0.0000 C   0  0  0  0  0  0  0  0  0  0  0  0
    9.3903    5.7103    0.0000 C   0  0  0  0  0  0  0  0  0  0  0  0
   10.0804    4.3785    0.0000 C   0  0  0  0  0  0  0  0  0  0  0  0
   10.5827    2.9651    0.0000 C   0  0  0  0  0  0  0  0  0  0  0  0
   12.0271    3.3698    0.0000 C   0  0  0  0  0  0  0  0  0  0  0  0
   13.0997    2.3213    0.0000 O   0  0  0  0  0  0  0  0  0  0  0  0
   12.3988    4.8230    0.0000 N   0  0  0  0  0  0  0  0  0  0  0  0
   13.8431    5.2277    0.0000 C   0  0  0  0  0  0  0  0  0  0  0  0
   14.9158    4.1792    0.0000 N   0  0  0  0  0  0  0  0  0  0  0  0
   16.3602    4.5839    0.0000 N   0  0  0  0  0  0  0  0  0  0  0  0
   16.7319    6.0371    0.0000 N   0  0  0  0  0  0  0  0  0  0  0  0
   15.6592    7.0856    0.0000 N   0  0  0  0  0  0  0  0  0  0  0  0
   14.2149    6.6809    0.0000 N   0  0  0  0  0  0  0  0  0  0  0  0
   10.8879    1.4965    0.0000 C   0  0  0  0  0  0  0  0  0  0  0  0
  1  2  1  0
  2  3  1  0
  3  4  1  0
  4  5  1  0
  5  6  1  0
  6  7  1  0
  7  8  1  0
  8  9  1  0
  9 10  1  0
 10 11  1  0
 11 12  1  0
 12 13  1  0
 13 14  1  0
 14 15  1  0
 15 16  1  0
 16 17  1  0
 17 18  1  0
 18 19  1  0
 19 20  1  0
 20 21  1  0
 21 22  1  0
 22 23  1  0
 23 24  1  0
 24 25  1  0
 25 26  1  0
 26 27  1  0
 27 28  1  0
 28 29  1  0
 29 30  1  0
 30 31  1  0
 31 32  1  0
 32 33  1  0
 33 34  1  0
 34 35  1  0
 35 36  1  0
 36 37  1  0
 37 38  1  0
 38 39  1  0
 39 40  1  0
 40 41  1  0
 41 42  1  0
 42 43  1  0
 43 44  1  0
 44 45  1  0
 45 46  1  0
 46 47  1  0
 47 48  2  0
 47 49  1  0
 49 50  1  0
 50 51  2  0
 51 52  1  0
 52 53  2  0
 53 54  1  0
 54 55  2  0
 46 56  1  0
 56  2  1  0
 55 50  1  0
M  END
>  <Title>  (422) 
idAAOLgen7

$$$$

     RDKit          2D

  9  9  0  0  0  0  0  0  0  0999 V2000
    3.0000    0.0000    0.0000 C   0  0  0  0  0  0  0  0  0  0  0  0
    1.5000    0.0000    0.0000 C   0  0  0  0  0  0  0  0  0  0  0  0
    0.7500   -1.2990    0.0000 C   0  0  0  0  0  0  0  0  0  0  0  0
   -0.7500   -1.2990    0.0000 C   0  0  0  0  0  0  0  0  0  0  0  0
   -1.5000    0.0000    0.0000 C   0  0  0  0  0  0  0  0  0  0  0  0
   -3.0000    0.0000    0.0000 C   0  0  0  0  0  0  0  0  0  0  0  0
   -4.5000    0.0000    0.0000 N   0  0  0  0  0  0  0  0  0  0  0  0
   -0.7500    1.2990    0.0000 C   0  0  0  0  0  0  0  0  0  0  0  0
    0.7500    1.2990    0.0000 C   0  0  0  0  0  0  0  0  0  0  0  0
  1  2  1  0
  2  3  2  0
  3  4  1  0
  4  5  1  0
  5  6  1  0
  6  7  3  0
  5  8  2  0
  8  9  1  0
  9  2  1  0
M  END
>  <Title>  (423) 
idAAOMgen7

$$$$

     RDKit          2D

 14 14  0  0  0  0  0  0  0  0999 V2000
    5.0260    1.2990    0.0000 N   0  0  0  0  0  0  0  0  0  0  0  0
    3.5260    1.2990    0.0000 C   0  0  0  0  0  0  0  0  0  0  0  0
    2.7760    2.5981    0.0000 O   0  0  0  0  0  0  0  0  0  0  0  0
    2.7760    0.0000    0.0000 C   0  0  0  0  0  0  0  0  0  0  0  0
    3.5260   -1.2990    0.0000 O   0  0  0  0  0  0  0  0  0  0  0  0
    1.2760    0.0000    0.0000 N   0  0  0  0  0  0  0  0  0  0  0  0
    0.3943    1.2135    0.0000 C   0  0  0  0  0  0  0  0  0  0  0  0
   -1.0323    0.7500    0.0000 C   0  0  0  0  0  0  0  0  0  0  0  0
   -1.0323   -0.7500    0.0000 C   0  0  0  0  0  0  0  0  0  0  0  0
   -2.2458   -1.6317    0.0000 C   0  0  0  0  0  0  0  0  0  0  0  0
   -2.0890   -3.1235    0.0000 O   0  0  0  0  0  0  0  0  0  0  0  0
   -3.6161   -1.0216    0.0000 O   0  0  0  0  0  0  0  0  0  0  0  0
    0.3943   -1.2135    0.0000 C   0  0  0  0  0  0  0  0  0  0  0  0
    0.8578   -2.6401    0.0000 O   0  0  0  0  0  0  0  0  0  0  0  0
  1  2  1  0
  2  3  2  0
  2  4  1  0
  4  5  2  0
  4  6  1  0
  6  7  1  0
  7  8  1  0
  8  9  1  0
  9 10  1  0
 10 11  2  0
 10 12  1  0
  9 13  1  0
 13 14  2  0
 13  6  1  0
M  END
>  <Title>  (424) 
idAAONgen7

$$$$

     RDKit          2D

 10 10  0  0  0  0  0  0  0  0999 V2000
    2.7760    1.5000    0.0000 C   0  0  0  0  0  0  0  0  0  0  0  0
    2.7760    0.0000    0.0000 C   0  0  0  0  0  0  0  0  0  0  0  0
    2.7760   -1.5000    0.0000 C   0  0  0  0  0  0  0  0  0  0  0  0
    4.2760    0.0000    0.0000 C   0  0  0  0  0  0  0  0  0  0  0  0
    5.7760    0.0000    0.0000 N   0  0  0  0  0  0  0  0  0  0  0  0
    1.2760    0.0000    0.0000 C   0  0  0  0  0  0  0  0  0  0  0  0
    0.3943    1.2135    0.0000 C   0  0  0  0  0  0  0  0  0  0  0  0
   -1.0323    0.7500    0.0000 C   0  0  0  0  0  0  0  0  0  0  0  0
   -1.0323   -0.7500    0.0000 C   0  0  0  0  0  0  0  0  0  0  0  0
    0.3943   -1.2135    0.0000 C   0  0  0  0  0  0  0  0  0  0  0  0
  1  2  1  0
  2  3  1  0
  2  4  1  0
  4  5  3  0
  2  6  1  0
  6  7  2  0
  7  8  1  0
  8  9  1  0
  9 10  2  0
 10  6  1  0
M  END
>  <Title>  (425) 
idAAOOgen7

$$$$

     RDKit          2D

  7  6  0  0  0  0  0  0  0  0999 V2000
    0.0000    0.0000    0.0000 C   0  0  0  0  0  0  0  0  0  0  0  0
    1.2990    0.7500    0.0000 C   0  0  0  0  0  0  0  0  0  0  0  0
    2.5981   -0.0000    0.0000 C   0  0  0  0  0  0  0  0  0  0  0  0
    3.8971    0.7500    0.0000 O   0  0  0  0  0  0  0  0  0  0  0  0
    1.2990    2.2500    0.0000 C   0  0  0  0  0  0  0  0  0  0  0  0
   -0.0000    3.0000    0.0000 O   0  0  0  0  0  0  0  0  0  0  0  0
    2.5981    3.0000    0.0000 O   0  0  0  0  0  0  0  0  0  0  0  0
  1  2  1  0
  2  3  1  0
  3  4  1  0
  2  5  1  0
  5  6  2  0
  5  7  1  0
M  END
>  <Title>  (426) 
idAAOPgen7

$$$$

     RDKit          2D

 70 70  0  0  0  0  0  0  0  0999 V2000
   17.9782    0.0000    0.0000 C   0  0  0  0  0  0  0  0  0  0  0  0
   16.4782    0.0000    0.0000 C   0  0  0  0  0  0  0  0  0  0  0  0
   16.4100    1.4984    0.0000 C   0  0  0  0  0  0  0  0  0  0  0  0
   16.2057    2.9845    0.0000 C   0  0  0  0  0  0  0  0  0  0  0  0
   15.8672    4.4458    0.0000 C   0  0  0  0  0  0  0  0  0  0  0  0
   15.3972    5.8702    0.0000 C   0  0  0  0  0  0  0  0  0  0  0  0
   14.7996    7.2460    0.0000 C   0  0  0  0  0  0  0  0  0  0  0  0
   14.0793    8.5618    0.0000 C   0  0  0  0  0  0  0  0  0  0  0  0
   13.2424    9.8067    0.0000 C   0  0  0  0  0  0  0  0  0  0  0  0
   12.2958   10.9702    0.0000 C   0  0  0  0  0  0  0  0  0  0  0  0
   11.2473   12.0429    0.0000 C   0  0  0  0  0  0  0  0  0  0  0  0
   10.1056   13.0158    0.0000 C   0  0  0  0  0  0  0  0  0  0  0  0
    8.8801   13.8808    0.0000 C   0  0  0  0  0  0  0  0  0  0  0  0
    7.5811   14.6308    0.0000 C   0  0  0  0  0  0  0  0  0  0  0  0
    6.2192   15.2595    0.0000 C   0  0  0  0  0  0  0  0  0  0  0  0
    4.8058   15.7619    0.0000 C   0  0  0  0  0  0  0  0  0  0  0  0
    3.3526   16.1336    0.0000 C   0  0  0  0  0  0  0  0  0  0  0  0
    1.8716   16.3716    0.0000 C   0  0  0  0  0  0  0  0  0  0  0  0
    0.3751   16.4740    0.0000 C   0  0  0  0  0  0  0  0  0  0  0  0
   -1.1245   16.4398    0.0000 C   0  0  0  0  0  0  0  0  0  0  0  0
   -2.6148   16.2694    0.0000 C   0  0  0  0  0  0  0  0  0  0  0  0
   -4.0834   15.9643    0.0000 C   0  0  0  0  0  0  0  0  0  0  0  0
   -5.5182   15.5268    0.0000 C   0  0  0  0  0  0  0  0  0  0  0  0
   -6.9073   14.9607    0.0000 C   0  0  0  0  0  0  0  0  0  0  0  0
   -8.2391   14.2706    0.0000 C   0  0  0  0  0  0  0  0  0  0  0  0
   -9.5027   13.4622    0.0000 C   0  0  0  0  0  0  0  0  0  0  0  0
  -10.6875   12.5423    0.0000 C   0  0  0  0  0  0  0  0  0  0  0  0
  -11.7837   11.5185    0.0000 C   0  0  0  0  0  0  0  0  0  0  0  0
  -12.7823   10.3992    0.0000 C   0  0  0  0  0  0  0  0  0  0  0  0
  -13.6750    9.1938    0.0000 C   0  0  0  0  0  0  0  0  0  0  0  0
  -14.4544    7.9121    0.0000 C   0  0  0  0  0  0  0  0  0  0  0  0
  -15.1140    6.5649    0.0000 C   0  0  0  0  0  0  0  0  0  0  0  0
  -15.6484    5.1634    0.0000 C   0  0  0  0  0  0  0  0  0  0  0  0
  -16.0531    3.7190    0.0000 C   0  0  0  0  0  0  0  0  0  0  0  0
  -16.3248    2.2438    0.0000 C   0  0  0  0  0  0  0  0  0  0  0  0
  -16.4612    0.7500    0.0000 C   0  0  0  0  0  0  0  0  0  0  0  0
  -16.4612   -0.7500    0.0000 C   0  0  0  0  0  0  0  0  0  0  0  0
  -16.3248   -2.2438    0.0000 C   0  0  0  0  0  0  0  0  0  0  0  0
  -16.0531   -3.7190    0.0000 C   0  0  0  0  0  0  0  0  0  0  0  0
  -15.6484   -5.1634    0.0000 C   0  0  0  0  0  0  0  0  0  0  0  0
  -15.1140   -6.5649    0.0000 C   0  0  0  0  0  0  0  0  0  0  0  0
  -14.4544   -7.9121    0.0000 C   0  0  0  0  0  0  0  0  0  0  0  0
  -13.6750   -9.1938    0.0000 C   0  0  0  0  0  0  0  0  0  0  0  0
  -12.7823  -10.3992    0.0000 C   0  0  0  0  0  0  0  0  0  0  0  0
  -11.7837  -11.5185    0.0000 C   0  0  0  0  0  0  0  0  0  0  0  0
  -10.6875  -12.5423    0.0000 C   0  0  0  0  0  0  0  0  0  0  0  0
   -9.5027  -13.4622    0.0000 C   0  0  0  0  0  0  0  0  0  0  0  0
   -8.2391  -14.2706    0.0000 C   0  0  0  0  0  0  0  0  0  0  0  0
   -6.9073  -14.9607    0.0000 C   0  0  0  0  0  0  0  0  0  0  0  0
   -5.5182  -15.5268    0.0000 C   0  0  0  0  0  0  0  0  0  0  0  0
   -4.0834  -15.9643    0.0000 C   0  0  0  0  0  0  0  0  0  0  0  0
   -2.6148  -16.2694    0.0000 C   0  0  0  0  0  0  0  0  0  0  0  0
   -1.1245  -16.4398    0.0000 C   0  0  0  0  0  0  0  0  0  0  0  0
    0.3751  -16.4740    0.0000 C   0  0  0  0  0  0  0  0  0  0  0  0
    1.8716  -16.3716    0.0000 C   0  0  0  0  0  0  0  0  0  0  0  0
    3.3526  -16.1336    0.0000 C   0  0  0  0  0  0  0  0  0  0  0  0
    4.8058  -15.7619    0.0000 C   0  0  0  0  0  0  0  0  0  0  0  0
    6.2192  -15.2595    0.0000 C   0  0  0  0  0  0  0  0  0  0  0  0
    7.5811  -14.6308    0.0000 C   0  0  0  0  0  0  0  0  0  0  0  0
    8.8801  -13.8808    0.0000 C   0  0  0  0  0  0  0  0  0  0  0  0
   10.1056  -13.0158    0.0000 C   0  0  0  0  0  0  0  0  0  0  0  0
   11.2473  -12.0429    0.0000 C   0  0  0  0  0  0  0  0  0  0  0  0
   12.2958  -10.9702    0.0000 C   0  0  0  0  0  0  0  0  0  0  0  0
   13.2424   -9.8067    0.0000 C   0  0  0  0  0  0  0  0  0  0  0  0
   14.0793   -8.5618    0.0000 C   0  0  0  0  0  0  0  0  0  0  0  0
   14.7996   -7.2460    0.0000 C   0  0  0  0  0  0  0  0  0  0  0  0
   15.3972   -5.8702    0.0000 C   0  0  0  0  0  0  0  0  0  0  0  0
   15.8672   -4.4458    0.0000 C   0  0  0  0  0  0  0  0  0  0  0  0
   16.2057   -2.9845    0.0000 C   0  0  0  0  0  0  0  0  0  0  0  0
   16.4100   -1.4984    0.0000 C   0  0  0  0  0  0  0  0  0  0  0  0
  1  2  1  0
  2  3  1  0
  3  4  2  0
  4  5  1  0
  5  6  2  0
  6  7  1  0
  7  8  2  0
  8  9  1  0
  9 10  2  0
 10 11  1  0
 11 12  2  0
 12 13  1  0
 13 14  1  0
 14 15  1  0
 15 16  1  0
 16 17  1  0
 17 18  1  0
 18 19  1  0
 19 20  1  0
 20 21  1  0
 21 22  1  0
 22 23  1  0
 23 24  1  0
 24 25  1  0
 25 26  1  0
 26 27  1  0
 27 28  1  0
 28 29  1  0
 29 30  1  0
 30 31  1  0
 31 32  1  0
 32 33  1  0
 33 34  1  0
 34 35  1  0
 35 36  1  0
 36 37  1  0
 37 38  1  0
 38 39  1  0
 39 40  1  0
 40 41  1  0
 41 42  1  0
 42 43  1  0
 43 44  1  0
 44 45  1  0
 45 46  1  0
 46 47  1  0
 47 48  1  0
 48 49  1  0
 49 50  1  0
 50 51  1  0
 51 52  1  0
 52 53  1  0
 53 54  1  0
 54 55  1  0
 55 56  1  0
 56 57  1  0
 57 58  1  0
 58 59  1  0
 59 60  1  0
 60 61  1  0
 61 62  1  0
 62 63  1  0
 63 64  1  0
 64 65  1  0
 65 66  1  0
 66 67  1  0
 67 68  1  0
 68 69  1  0
 69 70  1  0
 70  2  1  0
M  END
>  <Title>  (427) 
idAAOQgen7

$$$$

     RDKit          2D

 70 70  0  0  0  0  0  0  0  0999 V2000
   18.4896   -1.2990    0.0000 O   0  0  0  0  0  0  0  0  0  0  0  0
   17.7396    0.0000    0.0000 C   0  0  0  0  0  0  0  0  0  0  0  0
   16.2396    0.0000    0.0000 C   0  0  0  0  0  0  0  0  0  0  0  0
   16.1703   -1.4984    0.0000 C   0  0  0  0  0  0  0  0  0  0  0  0
   15.9631   -2.9840    0.0000 C   0  0  0  0  0  0  0  0  0  0  0  0
   15.6196   -4.4442    0.0000 C   0  0  0  0  0  0  0  0  0  0  0  0
   15.1430   -5.8664    0.0000 C   0  0  0  0  0  0  0  0  0  0  0  0
   14.5371   -7.2386    0.0000 C   0  0  0  0  0  0  0  0  0  0  0  0
   13.8072   -8.5490    0.0000 C   0  0  0  0  0  0  0  0  0  0  0  0
   12.9595   -9.7865    0.0000 C   0  0  0  0  0  0  0  0  0  0  0  0
   12.0012  -10.9405    0.0000 C   0  0  0  0  0  0  0  0  0  0  0  0
   10.9405  -12.0012    0.0000 C   0  0  0  0  0  0  0  0  0  0  0  0
    9.7865  -12.9595    0.0000 C   0  0  0  0  0  0  0  0  0  0  0  0
    8.5490  -13.8072    0.0000 C   0  0  0  0  0  0  0  0  0  0  0  0
    7.2386  -14.5371    0.0000 C   0  0  0  0  0  0  0  0  0  0  0  0
    5.8664  -15.1430    0.0000 C   0  0  0  0  0  0  0  0  0  0  0  0
    4.4442  -15.6196    0.0000 C   0  0  0  0  0  0  0  0  0  0  0  0
    2.9840  -15.9631    0.0000 C   0  0  0  0  0  0  0  0  0  0  0  0
    1.4984  -16.1703    0.0000 C   0  0  0  0  0  0  0  0  0  0  0  0
   -0.0000  -16.2396    0.0000 C   0  0  0  0  0  0  0  0  0  0  0  0
   -1.4984  -16.1703    0.0000 C   0  0  0  0  0  0  0  0  0  0  0  0
   -2.9840  -15.9631    0.0000 C   0  0  0  0  0  0  0  0  0  0  0  0
   -4.4442  -15.6196    0.0000 C   0  0  0  0  0  0  0  0  0  0  0  0
   -5.8664  -15.1430    0.0000 C   0  0  0  0  0  0  0  0  0  0  0  0
   -7.2386  -14.5371    0.0000 C   0  0  0  0  0  0  0  0  0  0  0  0
   -8.5490  -13.8072    0.0000 C   0  0  0  0  0  0  0  0  0  0  0  0
   -9.7865  -12.9595    0.0000 C   0  0  0  0  0  0  0  0  0  0  0  0
  -10.9405  -12.0012    0.0000 C   0  0  0  0  0  0  0  0  0  0  0  0
  -12.0012  -10.9405    0.0000 C   0  0  0  0  0  0  0  0  0  0  0  0
  -12.9595   -9.7865    0.0000 C   0  0  0  0  0  0  0  0  0  0  0  0
  -13.8072   -8.5490    0.0000 C   0  0  0  0  0  0  0  0  0  0  0  0
  -14.5371   -7.2386    0.0000 C   0  0  0  0  0  0  0  0  0  0  0  0
  -15.1430   -5.8664    0.0000 C   0  0  0  0  0  0  0  0  0  0  0  0
  -15.6196   -4.4442    0.0000 C   0  0  0  0  0  0  0  0  0  0  0  0
  -15.9631   -2.9840    0.0000 C   0  0  0  0  0  0  0  0  0  0  0  0
  -16.1703   -1.4984    0.0000 C   0  0  0  0  0  0  0  0  0  0  0  0
  -16.2396    0.0000    0.0000 C   0  0  0  0  0  0  0  0  0  0  0  0
  -16.1703    1.4984    0.0000 C   0  0  0  0  0  0  0  0  0  0  0  0
  -15.9631    2.9840    0.0000 C   0  0  0  0  0  0  0  0  0  0  0  0
  -15.6196    4.4442    0.0000 C   0  0  0  0  0  0  0  0  0  0  0  0
  -15.1430    5.8664    0.0000 C   0  0  0  0  0  0  0  0  0  0  0  0
  -14.5371    7.2386    0.0000 C   0  0  0  0  0  0  0  0  0  0  0  0
  -13.8072    8.5490    0.0000 C   0  0  0  0  0  0  0  0  0  0  0  0
  -12.9595    9.7865    0.0000 C   0  0  0  0  0  0  0  0  0  0  0  0
  -12.0012   10.9405    0.0000 C   0  0  0  0  0  0  0  0  0  0  0  0
  -10.9405   12.0012    0.0000 C   0  0  0  0  0  0  0  0  0  0  0  0
   -9.7865   12.9595    0.0000 C   0  0  0  0  0  0  0  0  0  0  0  0
   -8.5490   13.8072    0.0000 C   0  0  0  0  0  0  0  0  0  0  0  0
   -7.2386   14.5371    0.0000 C   0  0  0  0  0  0  0  0  0  0  0  0
   -5.8664   15.1430    0.0000 C   0  0  0  0  0  0  0  0  0  0  0  0
   -4.4442   15.6196    0.0000 C   0  0  0  0  0  0  0  0  0  0  0  0
   -2.9840   15.9631    0.0000 C   0  0  0  0  0  0  0  0  0  0  0  0
   -1.4984   16.1703    0.0000 C   0  0  0  0  0  0  0  0  0  0  0  0
    0.0000   16.2396    0.0000 C   0  0  0  0  0  0  0  0  0  0  0  0
    1.4984   16.1703    0.0000 C   0  0  0  0  0  0  0  0  0  0  0  0
    2.9840   15.9631    0.0000 C   0  0  0  0  0  0  0  0  0  0  0  0
    4.4442   15.6196    0.0000 C   0  0  0  0  0  0  0  0  0  0  0  0
    5.8664   15.1430    0.0000 C   0  0  0  0  0  0  0  0  0  0  0  0
    7.2386   14.5371    0.0000 C   0  0  0  0  0  0  0  0  0  0  0  0
    8.5490   13.8072    0.0000 C   0  0  0  0  0  0  0  0  0  0  0  0
    9.7865   12.9595    0.0000 C   0  0  0  0  0  0  0  0  0  0  0  0
   10.9405   12.0012    0.0000 C   0  0  0  0  0  0  0  0  0  0  0  0
   12.0012   10.9405    0.0000 C   0  0  0  0  0  0  0  0  0  0  0  0
   12.9595    9.7865    0.0000 C   0  0  0  0  0  0  0  0  0  0  0  0
   13.8072    8.5490    0.0000 C   0  0  0  0  0  0  0  0  0  0  0  0
   14.5371    7.2386    0.0000 C   0  0  0  0  0  0  0  0  0  0  0  0
   15.1430    5.8664    0.0000 C   0  0  0  0  0  0  0  0  0  0  0  0
   15.6196    4.4442    0.0000 C   0  0  0  0  0  0  0  0  0  0  0  0
   15.9631    2.9840    0.0000 C   0  0  0  0  0  0  0  0  0  0  0  0
   16.1703    1.4984    0.0000 C   0  0  0  0  0  0  0  0  0  0  0  0
  1  2  1  0
  2  3  1  0
  3  4  1  0
  4  5  1  0
  5  6  1  0
  6  7  1  0
  7  8  1  0
  8  9  1  0
  9 10  1  0
 10 11  1  0
 11 12  1  0
 12 13  1  0
 13 14  1  0
 14 15  1  0
 15 16  1  0
 16 17  1  0
 17 18  1  0
 18 19  1  0
 19 20  1  0
 20 21  1  0
 21 22  1  0
 22 23  1  0
 23 24  1  0
 24 25  1  0
 25 26  1  0
 26 27  1  0
 27 28  1  0
 28 29  1  0
 29 30  1  0
 30 31  1  0
 31 32  1  0
 32 33  1  0
 33 34  1  0
 34 35  1  0
 35 36  1  0
 36 37  1  0
 37 38  1  0
 38 39  1  0
 39 40  1  0
 40 41  1  0
 41 42  1  0
 42 43  1  0
 43 44  1  0
 44 45  1  0
 45 46  1  0
 46 47  1  0
 47 48  1  0
 48 49  1  0
 49 50  1  0
 50 51  1  0
 51 52  1  0
 52 53  1  0
 53 54  1  0
 54 55  1  0
 55 56  1  0
 56 57  1  0
 57 58  1  0
 58 59  1  0
 59 60  1  0
 60 61  1  0
 61 62  1  0
 62 63  1  0
 63 64  1  0
 64 65  1  0
 65 66  1  0
 66 67  1  0
 67 68  1  0
 68 69  1  0
 69 70  1  0
 70  3  1  0
M  END
>  <Title>  (428) 
idAAORgen7

$$$$

     RDKit          2D

 93 93  0  0  0  0  0  0  0  0999 V2000
   22.2063    0.0000    0.0000 C   0  0  0  0  0  0  0  0  0  0  0  0
   22.1557    1.4991    0.0000 C   0  0  0  0  0  0  0  0  0  0  0  0
   22.0039    2.9914    0.0000 C   0  0  0  0  0  0  0  0  0  0  0  0
   21.7518    4.4701    0.0000 C   0  0  0  0  0  0  0  0  0  0  0  0
   21.4004    5.9284    0.0000 C   0  0  0  0  0  0  0  0  0  0  0  0
   20.9513    7.3596    0.0000 C   0  0  0  0  0  0  0  0  0  0  0  0
   20.4067    8.7572    0.0000 C   0  0  0  0  0  0  0  0  0  0  0  0
   19.7689   10.1149    0.0000 C   0  0  0  0  0  0  0  0  0  0  0  0
   19.0410   11.4264    0.0000 C   0  0  0  0  0  0  0  0  0  0  0  0
   18.2262   12.6858    0.0000 C   0  0  0  0  0  0  0  0  0  0  0  0
   17.3282   13.8873    0.0000 C   0  0  0  0  0  0  0  0  0  0  0  0
   16.3511   15.0254    0.0000 C   0  0  0  0  0  0  0  0  0  0  0  0
   15.2994   16.0950    0.0000 C   0  0  0  0  0  0  0  0  0  0  0  0
   14.1780   17.0911    0.0000 C   0  0  0  0  0  0  0  0  0  0  0  0
   12.9918   18.0093    0.0000 C   0  0  0  0  0  0  0  0  0  0  0  0
   11.7464   18.8453    0.0000 C   0  0  0  0  0  0  0  0  0  0  0  0
   10.4473   19.5953    0.0000 C   0  0  0  0  0  0  0  0  0  0  0  0
    9.1006   20.2559    0.0000 C   0  0  0  0  0  0  0  0  0  0  0  0
    7.7124   20.8240    0.0000 C   0  0  0  0  0  0  0  0  0  0  0  0
    6.2890   21.2972    0.0000 C   0  0  0  0  0  0  0  0  0  0  0  0
    4.8368   21.6732    0.0000 C   0  0  0  0  0  0  0  0  0  0  0  0
    3.3627   21.9503    0.0000 C   0  0  0  0  0  0  0  0  0  0  0  0
    1.8731   22.1272    0.0000 C   0  0  0  0  0  0  0  0  0  0  0  0
    0.3751   22.2032    0.0000 C   0  0  0  0  0  0  0  0  0  0  0  0
   -1.1247   22.1778    0.0000 C   0  0  0  0  0  0  0  0  0  0  0  0
   -2.6194   22.0513    0.0000 C   0  0  0  0  0  0  0  0  0  0  0  0
   -4.1021   21.8242    0.0000 C   0  0  0  0  0  0  0  0  0  0  0  0
   -5.5661   21.4974    0.0000 C   0  0  0  0  0  0  0  0  0  0  0  0
   -7.0047   21.0726    0.0000 C   0  0  0  0  0  0  0  0  0  0  0  0
   -8.4113   20.5517    0.0000 C   0  0  0  0  0  0  0  0  0  0  0  0
   -9.7795   19.9370    0.0000 C   0  0  0  0  0  0  0  0  0  0  0  0
  -11.1032   19.2313    0.0000 C   0  0  0  0  0  0  0  0  0  0  0  0
  -12.3761   18.4378    0.0000 C   0  0  0  0  0  0  0  0  0  0  0  0
  -13.5926   17.5602    0.0000 C   0  0  0  0  0  0  0  0  0  0  0  0
  -14.7471   16.6025    0.0000 C   0  0  0  0  0  0  0  0  0  0  0  0
  -15.8343   15.5691    0.0000 C   0  0  0  0  0  0  0  0  0  0  0  0
  -16.8492   14.4646    0.0000 C   0  0  0  0  0  0  0  0  0  0  0  0
  -17.7873   13.2941    0.0000 C   0  0  0  0  0  0  0  0  0  0  0  0
  -18.6442   12.0630    0.0000 C   0  0  0  0  0  0  0  0  0  0  0  0
  -19.4160   10.7768    0.0000 C   0  0  0  0  0  0  0  0  0  0  0  0
  -20.0993    9.4414    0.0000 C   0  0  0  0  0  0  0  0  0  0  0  0
  -20.6908    8.0630    0.0000 C   0  0  0  0  0  0  0  0  0  0  0  0
  -21.1879    6.6478    0.0000 C   0  0  0  0  0  0  0  0  0  0  0  0
  -21.5884    5.2022    0.0000 C   0  0  0  0  0  0  0  0  0  0  0  0
  -21.8903    3.7329    0.0000 C   0  0  0  0  0  0  0  0  0  0  0  0
  -22.0924    2.2466    0.0000 C   0  0  0  0  0  0  0  0  0  0  0  0
  -22.1937    0.7500    0.0000 C   0  0  0  0  0  0  0  0  0  0  0  0
  -22.1937   -0.7500    0.0000 C   0  0  0  0  0  0  0  0  0  0  0  0
  -22.0924   -2.2466    0.0000 C   0  0  0  0  0  0  0  0  0  0  0  0
  -21.8903   -3.7329    0.0000 C   0  0  0  0  0  0  0  0  0  0  0  0
  -21.5884   -5.2022    0.0000 C   0  0  0  0  0  0  0  0  0  0  0  0
  -21.1879   -6.6478    0.0000 C   0  0  0  0  0  0  0  0  0  0  0  0
  -20.6908   -8.0630    0.0000 C   0  0  0  0  0  0  0  0  0  0  0  0
  -20.0993   -9.4414    0.0000 C   0  0  0  0  0  0  0  0  0  0  0  0
  -19.4160  -10.7768    0.0000 C   0  0  0  0  0  0  0  0  0  0  0  0
  -18.6442  -12.0630    0.0000 C   0  0  0  0  0  0  0  0  0  0  0  0
  -17.7873  -13.2941    0.0000 C   0  0  0  0  0  0  0  0  0  0  0  0
  -16.8492  -14.4646    0.0000 C   0  0  0  0  0  0  0  0  0  0  0  0
  -15.8343  -15.5691    0.0000 C   0  0  0  0  0  0  0  0  0  0  0  0
  -14.7471  -16.6025    0.0000 C   0  0  0  0  0  0  0  0  0  0  0  0
  -13.5926  -17.5602    0.0000 C   0  0  0  0  0  0  0  0  0  0  0  0
  -12.3761  -18.4378    0.0000 C   0  0  0  0  0  0  0  0  0  0  0  0
  -11.1032  -19.2313    0.0000 C   0  0  0  0  0  0  0  0  0  0  0  0
   -9.7795  -19.9370    0.0000 C   0  0  0  0  0  0  0  0  0  0  0  0
   -8.4113  -20.5517    0.0000 C   0  0  0  0  0  0  0  0  0  0  0  0
   -7.0047  -21.0726    0.0000 C   0  0  0  0  0  0  0  0  0  0  0  0
   -5.5661  -21.4974    0.0000 C   0  0  0  0  0  0  0  0  0  0  0  0
   -4.1021  -21.8242    0.0000 C   0  0  0  0  0  0  0  0  0  0  0  0
   -2.6194  -22.0513    0.0000 C   0  0  0  0  0  0  0  0  0  0  0  0
   -1.1247  -22.1778    0.0000 C   0  0  0  0  0  0  0  0  0  0  0  0
    0.3751  -22.2032    0.0000 C   0  0  0  0  0  0  0  0  0  0  0  0
    1.8731  -22.1272    0.0000 C   0  0  0  0  0  0  0  0  0  0  0  0
    3.3627  -21.9503    0.0000 C   0  0  0  0  0  0  0  0  0  0  0  0
    4.8368  -21.6732    0.0000 C   0  0  0  0  0  0  0  0  0  0  0  0
    6.2890  -21.2972    0.0000 C   0  0  0  0  0  0  0  0  0  0  0  0
    7.7124  -20.8240    0.0000 C   0  0  0  0  0  0  0  0  0  0  0  0
    9.1006  -20.2559    0.0000 C   0  0  0  0  0  0  0  0  0  0  0  0
   10.4473  -19.5953    0.0000 C   0  0  0  0  0  0  0  0  0  0  0  0
   11.7464  -18.8453    0.0000 C   0  0  0  0  0  0  0  0  0  0  0  0
   12.9918  -18.0093    0.0000 C   0  0  0  0  0  0  0  0  0  0  0  0
   14.1780  -17.0911    0.0000 C   0  0  0  0  0  0  0  0  0  0  0  0
   15.2994  -16.0950    0.0000 C   0  0  0  0  0  0  0  0  0  0  0  0
   16.3511  -15.0254    0.0000 C   0  0  0  0  0  0  0  0  0  0  0  0
   17.3282  -13.8873    0.0000 C   0  0  0  0  0  0  0  0  0  0  0  0
   18.2262  -12.6858    0.0000 C   0  0  0  0  0  0  0  0  0  0  0  0
   19.0410  -11.4264    0.0000 C   0  0  0  0  0  0  0  0  0  0  0  0
   19.7689  -10.1149    0.0000 C   0  0  0  0  0  0  0  0  0  0  0  0
   20.4067   -8.7572    0.0000 C   0  0  0  0  0  0  0  0  0  0  0  0
   20.9513   -7.3596    0.0000 C   0  0  0  0  0  0  0  0  0  0  0  0
   21.4004   -5.9284    0.0000 C   0  0  0  0  0  0  0  0  0  0  0  0
   21.7518   -4.4701    0.0000 C   0  0  0  0  0  0  0  0  0  0  0  0
   22.0039   -2.9914    0.0000 C   0  0  0  0  0  0  0  0  0  0  0  0
   22.1557   -1.4991    0.0000 C   0  0  0  0  0  0  0  0  0  0  0  0
  1  2  1  0
  2  3  1  0
  3  4  1  0
  4  5  1  0
  5  6  1  0
  6  7  1  0
  7  8  1  0
  8  9  1  0
  9 10  1  0
 10 11  1  0
 11 12  1  0
 12 13  1  0
 13 14  1  0
 14 15  1  0
 15 16  1  0
 16 17  1  0
 17 18  1  0
 18 19  1  0
 19 20  1  0
 20 21  1  0
 21 22  1  0
 22 23  1  0
 23 24  1  0
 24 25  1  0
 25 26  1  0
 26 27  1  0
 27 28  1  0
 28 29  1  0
 29 30  1  0
 30 31  1  0
 31 32  1  0
 32 33  1  0
 33 34  1  0
 34 35  1  0
 35 36  1  0
 36 37  1  0
 37 38  1  0
 38 39  1  0
 39 40  1  0
 40 41  1  0
 41 42  1  0
 42 43  1  0
 43 44  1  0
 44 45  1  0
 45 46  1  0
 46 47  1  0
 47 48  1  0
 48 49  1  0
 49 50  1  0
 50 51  1  0
 51 52  1  0
 52 53  1  0
 53 54  1  0
 54 55  1  0
 55 56  1  0
 56 57  1  0
 57 58  1  0
 58 59  1  0
 59 60  1  0
 60 61  1  0
 61 62  1  0
 62 63  1  0
 63 64  1  0
 64 65  1  0
 65 66  1  0
 66 67  1  0
 67 68  1  0
 68 69  1  0
 69 70  1  0
 70 71  1  0
 71 72  1  0
 72 73  1  0
 73 74  1  0
 74 75  1  0
 75 76  1  0
 76 77  1  0
 77 78  1  0
 78 79  1  0
 79 80  1  0
 80 81  1  0
 81 82  1  0
 82 83  1  0
 83 84  1  0
 84 85  1  0
 85 86  1  0
 86 87  1  0
 87 88  1  0
 88 89  1  0
 89 90  1  0
 90 91  1  0
 91 92  1  0
 92 93  1  0
 93  1  1  0
M  END
>  <Title>  (429) 
idAAOSgen7

$$$$

     RDKit          2D

 54 60  0  0  0  0  0  0  0  0999 V2000
    4.3881   -6.6982    0.0000 C   0  0  0  0  0  0  0  0  0  0  0  0
    3.0367   -6.0474    0.0000 C   0  0  0  0  0  0  0  0  0  0  0  0
    3.3705   -4.5850    0.0000 C   0  0  0  0  0  0  0  0  0  0  0  0
    3.0367   -3.1226    0.0000 C   0  0  0  0  0  0  0  0  0  0  0  0
    2.1015   -1.9499    0.0000 C   0  0  0  0  0  0  0  0  0  0  0  0
    3.0367   -0.7771    0.0000 C   0  0  0  0  0  0  0  0  0  0  0  0
    4.5199   -1.0007    0.0000 C   0  0  0  0  0  0  0  0  0  0  0  0
    2.4887    0.6192    0.0000 N   0  0  0  0  0  0  0  0  0  0  0  0
    3.4239    1.7919    0.0000 C   0  0  0  0  0  0  0  0  0  0  0  0
    4.9072    1.5684    0.0000 N   0  0  0  0  0  0  0  0  0  0  0  0
    5.8424    2.7411    0.0000 N   0  0  0  0  0  0  0  0  0  0  0  0
    5.2944    4.1374    0.0000 N   0  0  0  0  0  0  0  0  0  0  0  0
    3.8111    4.3610    0.0000 N   0  0  0  0  0  0  0  0  0  0  0  0
    2.8759    3.1883    0.0000 N   0  0  0  0  0  0  0  0  0  0  0  0
    0.7500   -1.2990    0.0000 C   0  0  0  0  0  0  0  0  0  0  0  0
    1.5000    0.0000    0.0000 C   0  0  0  0  0  0  0  0  0  0  0  0
    0.7500    1.2990    0.0000 C   0  0  0  0  0  0  0  0  0  0  0  0
   -0.7500    1.2990    0.0000 C   0  0  0  0  0  0  0  0  0  0  0  0
   -1.5000    0.0000    0.0000 C   0  0  0  0  0  0  0  0  0  0  0  0
   -0.7500   -1.2990    0.0000 C   0  0  0  0  0  0  0  0  0  0  0  0
   -2.1015   -1.9499    0.0000 C   0  0  0  0  0  0  0  0  0  0  0  0
   -2.6495   -0.5536    0.0000 C   0  0  0  0  0  0  0  0  0  0  0  0
   -4.1327   -0.3300    0.0000 C   0  0  0  0  0  0  0  0  0  0  0  0
   -5.0679   -1.5027    0.0000 C   0  0  0  0  0  0  0  0  0  0  0  0
   -4.5199   -2.8990    0.0000 C   0  0  0  0  0  0  0  0  0  0  0  0
   -3.0367   -3.1226    0.0000 C   0  0  0  0  0  0  0  0  0  0  0  0
   -3.3705   -4.5850    0.0000 C   0  0  0  0  0  0  0  0  0  0  0  0
   -2.4060   -5.7437    0.0000 C   0  0  0  0  0  0  0  0  0  0  0  0
   -1.6650   -6.6729    0.0000 C   0  0  0  0  0  0  0  0  0  0  0  0
   -0.5942   -7.1885    0.0000 C   0  0  0  0  0  0  0  0  0  0  0  0
    0.7500   -7.8710    0.0000 C   0  0  0  0  0  0  0  0  0  0  0  0
   -0.3747   -8.8635    0.0000 N   0  0  0  0  0  0  0  0  0  0  0  0
   -1.8742   -8.9009    0.0000 C   0  0  0  0  0  0  0  0  0  0  0  0
   -2.3519  -10.3228    0.0000 O   0  0  0  0  0  0  0  0  0  0  0  0
   -3.0470   -7.9657    0.0000 C   0  0  0  0  0  0  0  0  0  0  0  0
   -3.5247   -9.3875    0.0000 C   0  0  0  0  0  0  0  0  0  0  0  0
   -4.6494  -10.3801    0.0000 C   0  0  0  0  0  0  0  0  0  0  0  0
   -6.1196  -10.6773    0.0000 C   0  0  0  0  0  0  0  0  0  0  0  0
   -6.2131  -12.1744    0.0000 C   0  0  0  0  0  0  0  0  0  0  0  0
   -7.5563  -12.8420    0.0000 C   0  0  0  0  0  0  0  0  0  0  0  0
   -7.6497  -14.3391    0.0000 C   0  0  0  0  0  0  0  0  0  0  0  0
   -6.3999  -15.1686    0.0000 C   0  0  0  0  0  0  0  0  0  0  0  0
   -5.0567  -14.5009    0.0000 C   0  0  0  0  0  0  0  0  0  0  0  0
   -4.9633  -13.0038    0.0000 C   0  0  0  0  0  0  0  0  0  0  0  0
   -7.5415  -10.1996    0.0000 C   0  0  0  0  0  0  0  0  0  0  0  0
   -8.5340   -9.0749    0.0000 C   0  0  0  0  0  0  0  0  0  0  0  0
   -8.8313   -7.6046    0.0000 C   0  0  0  0  0  0  0  0  0  0  0  0
   -8.3535   -6.1827    0.0000 C   0  0  0  0  0  0  0  0  0  0  0  0
   -7.2289   -5.1902    0.0000 C   0  0  0  0  0  0  0  0  0  0  0  0
   -5.7586   -4.8930    0.0000 C   0  0  0  0  0  0  0  0  0  0  0  0
   -4.3367   -5.3707    0.0000 C   0  0  0  0  0  0  0  0  0  0  0  0
   -3.3442   -6.4954    0.0000 C   0  0  0  0  0  0  0  0  0  0  0  0
    2.1015   -7.2201    0.0000 C   0  0  0  0  0  0  0  0  0  0  0  0
    3.0367   -8.3929    0.0000 O   0  0  0  0  0  0  0  0  0  0  0  0
  1  2  1  0
  2  3  1  0
  3  4  1  0
  4  5  1  0
  5  6  1  0
  6  7  1  0
  6  8  1  0
  8  9  1  0
  9 10  2  0
 10 11  1  0
 11 12  2  0
 12 13  1  0
 13 14  2  0
  5 15  1  0
 15 16  2  0
 16 17  1  0
 17 18  2  0
 18 19  1  0
 19 20  2  0
 20 21  1  0
 21 22  2  0
 22 23  1  0
 23 24  2  0
 24 25  1  0
 25 26  2  0
 26 27  1  0
 27 28  2  0
 28 29  1  0
 29 30  2  0
 30 31  1  0
 31 32  1  0
 32 33  1  0
 33 34  2  0
 33 35  1  0
 35 36  1  0
 36 37  1  0
 37 38  1  0
 38 39  1  0
 39 40  2  0
 40 41  1  0
 41 42  2  0
 42 43  1  0
 43 44  2  0
 38 45  1  0
 45 46  1  0
 46 47  1  0
 47 48  2  0
 48 49  1  0
 49 50  2  0
 50 51  1  0
 51 52  2  0
 31 53  1  0
 53 54  2  0
 53  2  1  0
 14  9  1  0
 20 15  1  0
 26 21  1  0
 52 27  1  0
 52 35  1  0
 44 39  1  0
M  END
>  <Title>  (430) 
idAAOTgen7

$$$$

     RDKit          2D

 35 35  0  0  0  0  0  0  0  0999 V2000
    9.6285    0.0000    0.0000 C   0  0  0  0  0  0  0  0  0  0  0  0
    8.1285    0.0000    0.0000 C   0  0  0  0  0  0  0  0  0  0  0  0
    7.9901   -1.4936    0.0000 C   0  0  0  0  0  0  0  0  0  0  0  0
    7.5796   -2.9363    0.0000 C   0  0  0  0  0  0  0  0  0  0  0  0
    6.9110   -4.2791    0.0000 C   0  0  0  0  0  0  0  0  0  0  0  0
    6.0070   -5.4761    0.0000 C   0  0  0  0  0  0  0  0  0  0  0  0
    4.8985   -6.4867    0.0000 C   0  0  0  0  0  0  0  0  0  0  0  0
    3.6232   -7.2763    0.0000 C   0  0  0  0  0  0  0  0  0  0  0  0
    2.2245   -7.8182    0.0000 C   0  0  0  0  0  0  0  0  0  0  0  0
    0.7500   -8.0938    0.0000 C   0  0  0  0  0  0  0  0  0  0  0  0
   -0.7500   -8.0938    0.0000 C   0  0  0  0  0  0  0  0  0  0  0  0
   -2.2245   -7.8182    0.0000 C   0  0  0  0  0  0  0  0  0  0  0  0
   -3.6232   -7.2763    0.0000 C   0  0  0  0  0  0  0  0  0  0  0  0
   -4.8985   -6.4867    0.0000 C   0  0  0  0  0  0  0  0  0  0  0  0
   -6.0070   -5.4761    0.0000 C   0  0  0  0  0  0  0  0  0  0  0  0
   -6.9110   -4.2791    0.0000 C   0  0  0  0  0  0  0  0  0  0  0  0
   -7.5796   -2.9363    0.0000 C   0  0  0  0  0  0  0  0  0  0  0  0
   -7.9901   -1.4936    0.0000 C   0  0  0  0  0  0  0  0  0  0  0  0
   -8.1285    0.0000    0.0000 C   0  0  0  0  0  0  0  0  0  0  0  0
   -7.9901    1.4936    0.0000 C   0  0  0  0  0  0  0  0  0  0  0  0
   -7.5796    2.9363    0.0000 C   0  0  0  0  0  0  0  0  0  0  0  0
   -6.9110    4.2791    0.0000 C   0  0  0  0  0  0  0  0  0  0  0  0
   -6.0070    5.4761    0.0000 C   0  0  0  0  0  0  0  0  0  0  0  0
   -4.8985    6.4867    0.0000 C   0  0  0  0  0  0  0  0  0  0  0  0
   -3.6232    7.2763    0.0000 C   0  0  0  0  0  0  0  0  0  0  0  0
   -2.2245    7.8182    0.0000 C   0  0  0  0  0  0  0  0  0  0  0  0
   -0.7500    8.0938    0.0000 C   0  0  0  0  0  0  0  0  0  0  0  0
    0.7500    8.0938    0.0000 C   0  0  0  0  0  0  0  0  0  0  0  0
    2.2245    7.8182    0.0000 C   0  0  0  0  0  0  0  0  0  0  0  0
    3.6232    7.2763    0.0000 C   0  0  0  0  0  0  0  0  0  0  0  0
    4.8985    6.4867    0.0000 C   0  0  0  0  0  0  0  0  0  0  0  0
    6.0070    5.4761    0.0000 C   0  0  0  0  0  0  0  0  0  0  0  0
    6.9110    4.2791    0.0000 C   0  0  0  0  0  0  0  0  0  0  0  0
    7.5796    2.9363    0.0000 C   0  0  0  0  0  0  0  0  0  0  0  0
    7.9901    1.4936    0.0000 C   0  0  0  0  0  0  0  0  0  0  0  0
  1  2  1  0
  2  3  1  0
  3  4  1  0
  4  5  1  0
  5  6  1  0
  6  7  1  0
  7  8  1  0
  8  9  1  0
  9 10  1  0
 10 11  1  0
 11 12  1  0
 12 13  1  0
 13 14  1  0
 14 15  1  0
 15 16  1  0
 16 17  1  0
 17 18  1  0
 18 19  1  0
 19 20  1  0
 20 21  1  0
 21 22  1  0
 22 23  1  0
 23 24  1  0
 24 25  1  0
 25 26  1  0
 26 27  1  0
 27 28  1  0
 28 29  1  0
 29 30  1  0
 30 31  1  0
 31 32  1  0
 32 33  1  0
 33 34  1  0
 34 35  1  0
 35  2  1  0
M  END
>  <Title>  (431) 
idAAOUgen7

$$$$

     RDKit          2D

 10 10  0  0  0  0  0  0  0  0999 V2000
    3.4598   -0.0000    0.0000 C   0  0  0  0  0  0  0  0  0  0  0  0
    1.9598    0.0000    0.0000 C   0  0  0  0  0  0  0  0  0  0  0  0
    1.3858   -1.3858    0.0000 C   0  0  0  0  0  0  0  0  0  0  0  0
   -0.0000   -1.9598    0.0000 C   0  0  0  0  0  0  0  0  0  0  0  0
   -1.3858   -1.3858    0.0000 C   0  0  0  0  0  0  0  0  0  0  0  0
   -1.9598    0.0000    0.0000 C   0  0  0  0  0  0  0  0  0  0  0  0
   -1.3858    1.3858    0.0000 C   0  0  0  0  0  0  0  0  0  0  0  0
    0.0000    1.9598    0.0000 C   0  0  0  0  0  0  0  0  0  0  0  0
    0.0000    3.4598    0.0000 C   0  0  0  0  0  0  0  0  0  0  0  0
    1.3858    1.3858    0.0000 C   0  0  0  0  0  0  0  0  0  0  0  0
  1  2  1  0
  2  3  1  0
  3  4  1  0
  4  5  1  0
  5  6  1  0
  6  7  1  0
  7  8  1  0
  8  9  1  0
  8 10  1  0
 10  2  1  0
M  END
>  <Title>  (432) 
idAAOVgen7

$$$$

     RDKit          2D

 83 84  0  0  0  0  0  0  0  0999 V2000
   15.4774   -2.9830    0.0000 C   0  0  0  0  0  0  0  0  0  0  0  0
   15.6909   -1.4983    0.0000 C   0  0  0  0  0  0  0  0  0  0  0  0
   15.7623    0.0000    0.0000 C   0  0  0  0  0  0  0  0  0  0  0  0
   15.6909    1.4983    0.0000 C   0  0  0  0  0  0  0  0  0  0  0  0
   15.4774    2.9830    0.0000 C   0  0  0  0  0  0  0  0  0  0  0  0
   15.1238    4.4408    0.0000 C   0  0  0  0  0  0  0  0  0  0  0  0
   14.6332    5.8583    0.0000 C   0  0  0  0  0  0  0  0  0  0  0  0
   14.0101    7.2227    0.0000 C   0  0  0  0  0  0  0  0  0  0  0  0
   13.2601    8.5217    0.0000 C   0  0  0  0  0  0  0  0  0  0  0  0
   12.3900    9.7436    0.0000 C   0  0  0  0  0  0  0  0  0  0  0  0
   11.4077   10.8772    0.0000 C   0  0  0  0  0  0  0  0  0  0  0  0
   10.3221   11.9123    0.0000 C   0  0  0  0  0  0  0  0  0  0  0  0
    9.1430   12.8396    0.0000 C   0  0  0  0  0  0  0  0  0  0  0  0
    7.8811   13.6505    0.0000 C   0  0  0  0  0  0  0  0  0  0  0  0
    6.5479   14.3379    0.0000 C   0  0  0  0  0  0  0  0  0  0  0  0
    5.1553   14.8954    0.0000 C   0  0  0  0  0  0  0  0  0  0  0  0
    3.7161   15.3180    0.0000 C   0  0  0  0  0  0  0  0  0  0  0  0
    2.2432   15.6019    0.0000 C   0  0  0  0  0  0  0  0  0  0  0  0
    0.7500   15.7444    0.0000 C   0  0  0  0  0  0  0  0  0  0  0  0
   -0.7500   15.7444    0.0000 C   0  0  0  0  0  0  0  0  0  0  0  0
   -2.2432   15.6019    0.0000 C   0  0  0  0  0  0  0  0  0  0  0  0
   -3.7161   15.3180    0.0000 C   0  0  0  0  0  0  0  0  0  0  0  0
   -5.1553   14.8954    0.0000 C   0  0  0  0  0  0  0  0  0  0  0  0
   -6.5479   14.3379    0.0000 C   0  0  0  0  0  0  0  0  0  0  0  0
   -7.8811   13.6505    0.0000 C   0  0  0  0  0  0  0  0  0  0  0  0
   -9.1430   12.8396    0.0000 C   0  0  0  0  0  0  0  0  0  0  0  0
  -10.3221   11.9123    0.0000 C   0  0  0  0  0  0  0  0  0  0  0  0
  -11.4077   10.8772    0.0000 C   0  0  0  0  0  0  0  0  0  0  0  0
  -12.3900    9.7436    0.0000 C   0  0  0  0  0  0  0  0  0  0  0  0
  -13.2601    8.5217    0.0000 C   0  0  0  0  0  0  0  0  0  0  0  0
  -14.0101    7.2227    0.0000 C   0  0  0  0  0  0  0  0  0  0  0  0
  -14.6332    5.8583    0.0000 C   0  0  0  0  0  0  0  0  0  0  0  0
  -15.1238    4.4408    0.0000 C   0  0  0  0  0  0  0  0  0  0  0  0
  -15.4774    2.9830    0.0000 C   0  0  0  0  0  0  0  0  0  0  0  0
  -15.6909    1.4983    0.0000 C   0  0  0  0  0  0  0  0  0  0  0  0
  -15.7623    0.0000    0.0000 C   0  0  0  0  0  0  0  0  0  0  0  0
  -15.6909   -1.4983    0.0000 C   0  0  0  0  0  0  0  0  0  0  0  0
  -15.4774   -2.9830    0.0000 C   0  0  0  0  0  0  0  0  0  0  0  0
  -15.1238   -4.4408    0.0000 C   0  0  0  0  0  0  0  0  0  0  0  0
  -14.6332   -5.8583    0.0000 C   0  0  0  0  0  0  0  0  0  0  0  0
  -14.0101   -7.2227    0.0000 C   0  0  0  0  0  0  0  0  0  0  0  0
  -13.2601   -8.5217    0.0000 C   0  0  0  0  0  0  0  0  0  0  0  0
  -12.3900   -9.7436    0.0000 C   0  0  0  0  0  0  0  0  0  0  0  0
  -11.4077  -10.8772    0.0000 C   0  0  0  0  0  0  0  0  0  0  0  0
  -10.3221  -11.9123    0.0000 C   0  0  0  0  0  0  0  0  0  0  0  0
   -9.1430  -12.8396    0.0000 C   0  0  0  0  0  0  0  0  0  0  0  0
   -7.8811  -13.6505    0.0000 C   0  0  0  0  0  0  0  0  0  0  0  0
   -6.5479  -14.3379    0.0000 C   0  0  0  0  0  0  0  0  0  0  0  0
   -5.1553  -14.8954    0.0000 C   0  0  0  0  0  0  0  0  0  0  0  0
   -3.7161  -15.3180    0.0000 C   0  0  0  0  0  0  0  0  0  0  0  0
   -2.2432  -15.6019    0.0000 C   0  0  0  0  0  0  0  0  0  0  0  0
   -0.7500  -15.7444    0.0000 C   0  0  0  0  0  0  0  0  0  0  0  0
    0.7500  -15.7444    0.0000 C   0  0  0  0  0  0  0  0  0  0  0  0
    2.2432  -15.6019    0.0000 C   0  0  0  0  0  0  0  0  0  0  0  0
    3.7161  -15.3180    0.0000 C   0  0  0  0  0  0  0  0  0  0  0  0
    5.1553  -14.8954    0.0000 C   0  0  0  0  0  0  0  0  0  0  0  0
    6.5479  -14.3379    0.0000 C   0  0  0  0  0  0  0  0  0  0  0  0
    7.8811  -13.6505    0.0000 C   0  0  0  0  0  0  0  0  0  0  0  0
    9.1430  -12.8396    0.0000 C   0  0  0  0  0  0  0  0  0  0  0  0
   10.3221  -11.9123    0.0000 C   0  0  0  0  0  0  0  0  0  0  0  0
   11.4077  -10.8772    0.0000 C   0  0  0  0  0  0  0  0  0  0  0  0
   12.3900   -9.7436    0.0000 C   0  0  0  0  0  0  0  0  0  0  0  0
   13.2601   -8.5217    0.0000 C   0  0  0  0  0  0  0  0  0  0  0  0
   14.0101   -7.2227    0.0000 C   0  0  0  0  0  0  0  0  0  0  0  0
   14.6332   -5.8583    0.0000 C   0  0  0  0  0  0  0  0  0  0  0  0
   15.1238   -4.4408    0.0000 C   0  0  0  0  0  0  0  0  0  0  0  0
   13.9612   -9.8478    0.0000 C   0  0  0  0  0  0  0  0  0  0  0  0
   14.9941  -10.9355    0.0000 C   0  0  0  0  0  0  0  0  0  0  0  0
   16.2821  -11.7043    0.0000 C   0  0  0  0  0  0  0  0  0  0  0  0
   17.7298  -12.0970    0.0000 C   0  0  0  0  0  0  0  0  0  0  0  0
   19.2297  -12.0846    0.0000 C   0  0  0  0  0  0  0  0  0  0  0  0
   20.6707  -11.6680    0.0000 C   0  0  0  0  0  0  0  0  0  0  0  0
   21.9458  -10.8780    0.0000 C   0  0  0  0  0  0  0  0  0  0  0  0
   22.9605   -9.7733    0.0000 C   0  0  0  0  0  0  0  0  0  0  0  0
   23.6396   -8.4358    0.0000 C   0  0  0  0  0  0  0  0  0  0  0  0
   23.9326   -6.9647    0.0000 C   0  0  0  0  0  0  0  0  0  0  0  0
   23.8179   -5.4691    0.0000 C   0  0  0  0  0  0  0  0  0  0  0  0
   23.3039   -4.0599    0.0000 C   0  0  0  0  0  0  0  0  0  0  0  0
   22.4287   -2.8417    0.0000 C   0  0  0  0  0  0  0  0  0  0  0  0
   21.2574   -1.9047    0.0000 C   0  0  0  0  0  0  0  0  0  0  0  0
   19.8766   -1.3185    0.0000 C   0  0  0  0  0  0  0  0  0  0  0  0
   18.3890   -1.1266    0.0000 C   0  0  0  0  0  0  0  0  0  0  0  0
   16.9047   -1.3431    0.0000 C   0  0  0  0  0  0  0  0  0  0  0  0
  1  2  2  0
  2  3  1  0
  3  4  1  0
  4  5  1  0
  5  6  1  0
  6  7  1  0
  7  8  1  0
  8  9  1  0
  9 10  1  0
 10 11  1  0
 11 12  1  0
 12 13  1  0
 13 14  1  0
 14 15  1  0
 15 16  1  0
 16 17  1  0
 17 18  1  0
 18 19  1  0
 19 20  1  0
 20 21  1  0
 21 22  1  0
 22 23  1  0
 23 24  1  0
 24 25  1  0
 25 26  1  0
 26 27  1  0
 27 28  1  0
 28 29  1  0
 29 30  1  0
 30 31  1  0
 31 32  1  0
 32 33  1  0
 33 34  1  0
 34 35  1  0
 35 36  1  0
 36 37  1  0
 37 38  1  0
 38 39  1  0
 39 40  1  0
 40 41  1  0
 41 42  1  0
 42 43  1  0
 43 44  1  0
 44 45  1  0
 45 46  1  0
 46 47  1  0
 47 48  1  0
 48 49  1  0
 49 50  1  0
 50 51  1  0
 51 52  1  0
 52 53  1  0
 53 54  1  0
 54 55  1  0
 55 56  1  0
 56 57  1  0
 57 58  1  0
 58 59  1  0
 59 60  1  0
 60 61  1  0
 61 62  1  0
 62 63  1  0
 63 64  1  0
 64 65  1  0
 65 66  1  0
 63 67  1  0
 67 68  1  0
 68 69  1  0
 69 70  1  0
 70 71  1  0
 71 72  1  0
 72 73  1  0
 73 74  1  0
 74 75  1  0
 75 76  1  0
 76 77  1  0
 77 78  1  0
 78 79  1  0
 79 80  1  0
 80 81  1  0
 81 82  1  0
 82 83  1  0
 66  1  1  0
 83  2  1  0
M  END
>  <Title>  (433) 
idAAOWgen7

$$$$

     RDKit          2D

  8  7  0  0  0  0  0  0  0  0999 V2000
    0.0000    0.0000    0.0000 C   0  0  0  0  0  0  0  0  0  0  0  0
    1.2990    0.7500    0.0000 C   0  0  0  0  0  0  0  0  0  0  0  0
    2.5981   -0.0000    0.0000 C   0  0  0  0  0  0  0  0  0  0  0  0
    3.8971    0.7500    0.0000 C   0  0  0  0  0  0  0  0  0  0  0  0
    2.5981   -1.5000    0.0000 N   0  0  0  0  0  0  0  0  0  0  0  0
    3.8971   -2.2500    0.0000 C   0  0  0  0  0  0  0  0  0  0  0  0
    3.8971   -3.7500    0.0000 C   0  0  0  0  0  0  0  0  0  0  0  0
    5.1962   -1.5000    0.0000 O   0  0  0  0  0  0  0  0  0  0  0  0
  1  2  1  0
  2  3  1  0
  3  4  1  0
  3  5  1  0
  5  6  1  0
  6  7  1  0
  6  8  2  0
M  END
>  <Title>  (434) 
idAAOXgen7

$$$$

     RDKit          2D

 21 23  0  0  0  0  0  0  0  0999 V2000
   -3.0000   -2.5981    0.0000 C   0  0  0  0  0  0  0  0  0  0  0  0
   -1.5000   -2.5981    0.0000 C   0  0  0  0  0  0  0  0  0  0  0  0
   -0.7500   -3.8971    0.0000 C   0  0  0  0  0  0  0  0  0  0  0  0
    0.7500   -3.8971    0.0000 C   0  0  0  0  0  0  0  0  0  0  0  0
    1.5000   -2.5981    0.0000 C   0  0  0  0  0  0  0  0  0  0  0  0
    3.0000   -2.5981    0.0000 C   0  0  0  0  0  0  0  0  0  0  0  0
    3.7500   -1.2990    0.0000 O   0  0  0  0  0  0  0  0  0  0  0  0
    3.7500   -3.8971    0.0000 N   0  0  0  0  0  0  0  0  0  0  0  0
    5.2500   -3.8971    0.0000 C   0  0  0  0  0  0  0  0  0  0  0  0
    6.0000   -5.1962    0.0000 N   0  0  0  0  0  0  0  0  0  0  0  0
    7.5000   -5.1962    0.0000 N   0  0  0  0  0  0  0  0  0  0  0  0
    8.2500   -3.8971    0.0000 N   0  0  0  0  0  0  0  0  0  0  0  0
    7.5000   -2.5981    0.0000 N   0  0  0  0  0  0  0  0  0  0  0  0
    6.0000   -2.5981    0.0000 N   0  0  0  0  0  0  0  0  0  0  0  0
    0.7500   -1.2990    0.0000 C   0  0  0  0  0  0  0  0  0  0  0  0
    1.5000    0.0000    0.0000 C   0  0  0  0  0  0  0  0  0  0  0  0
    0.7500    1.2990    0.0000 C   0  0  0  0  0  0  0  0  0  0  0  0
   -0.7500    1.2990    0.0000 C   0  0  0  0  0  0  0  0  0  0  0  0
   -1.5000    2.5981    0.0000 Cl  0  0  0  0  0  0  0  0  0  0  0  0
   -1.5000    0.0000    0.0000 C   0  0  0  0  0  0  0  0  0  0  0  0
   -0.7500   -1.2990    0.0000 C   0  0  0  0  0  0  0  0  0  0  0  0
  1  2  1  0
  2  3  1  0
  3  4  1  0
  4  5  1  0
  5  6  1  0
  6  7  2  0
  6  8  1  0
  8  9  1  0
  9 10  2  0
 10 11  1  0
 11 12  2  0
 12 13  1  0
 13 14  2  0
  5 15  1  0
 15 16  2  0
 16 17  1  0
 17 18  2  0
 18 19  1  0
 18 20  1  0
 20 21  2  0
 21  2  1  0
 14  9  1  0
 21 15  1  0
M  END
>  <Title>  (435) 
idAAOYgen7

$$$$

     RDKit          2D

  9  8  0  0  0  0  0  0  0  0999 V2000
    0.0000    0.0000    0.0000 C   0  0  0  0  0  0  0  0  0  0  0  0
    1.2990    0.7500    0.0000 C   0  0  0  0  0  0  0  0  0  0  0  0
    2.5981   -0.0000    0.0000 C   0  0  0  0  0  0  0  0  0  0  0  0
    3.8971    0.7500    0.0000 C   0  0  0  0  0  0  0  0  0  0  0  0
    5.1962   -0.0000    0.0000 C   0  0  0  0  0  0  0  0  0  0  0  0
    6.4952    0.7500    0.0000 C   0  0  0  0  0  0  0  0  0  0  0  0
    7.7942   -0.0000    0.0000 C   0  0  0  0  0  0  0  0  0  0  0  0
    9.0933    0.7500    0.0000 C   0  0  0  0  0  0  0  0  0  0  0  0
    7.7942   -1.5000    0.0000 C   0  0  0  0  0  0  0  0  0  0  0  0
  1  2  1  0
  2  3  2  3
  3  4  1  0
  4  5  2  3
  5  6  1  0
  6  7  1  0
  7  8  1  0
  7  9  1  0
M  END
>  <Title>  (436) 
idAAOZgen7

$$$$

     RDKit          2D

  8  8  0  0  0  0  0  0  0  0999 V2000
    3.0000    0.0000    0.0000 C   0  0  0  0  0  0  0  0  0  0  0  0
    1.5000    0.0000    0.0000 C   0  0  0  0  0  0  0  0  0  0  0  0
    0.7500   -1.2990    0.0000 C   0  0  0  0  0  0  0  0  0  0  0  0
   -0.7500   -1.2990    0.0000 C   0  0  0  0  0  0  0  0  0  0  0  0
   -1.5000    0.0000    0.0000 C   0  0  0  0  0  0  0  0  0  0  0  0
   -3.0000    0.0000    0.0000 C   0  0  0  0  0  0  0  0  0  0  0  0
   -0.7500    1.2990    0.0000 C   0  0  0  0  0  0  0  0  0  0  0  0
    0.7500    1.2990    0.0000 C   0  0  0  0  0  0  0  0  0  0  0  0
  1  2  1  0
  2  3  1  0
  3  4  1  0
  4  5  1  0
  5  6  1  0
  5  7  1  0
  7  8  1  0
  8  2  1  0
M  END
>  <Title>  (437) 
idAAPAgen7

$$$$

     RDKit          2D

  7  7  0  0  0  0  0  0  0  0999 V2000
    3.0000    0.0000    0.0000 C   0  0  0  0  0  0  0  0  0  0  0  0
    1.5000    0.0000    0.0000 C   0  0  0  0  0  0  0  0  0  0  0  0
    0.7500   -1.2990    0.0000 C   0  0  0  0  0  0  0  0  0  0  0  0
   -0.7500   -1.2990    0.0000 C   0  0  0  0  0  0  0  0  0  0  0  0
   -1.5000    0.0000    0.0000 C   0  0  0  0  0  0  0  0  0  0  0  0
   -0.7500    1.2990    0.0000 C   0  0  0  0  0  0  0  0  0  0  0  0
    0.7500    1.2990    0.0000 C   0  0  0  0  0  0  0  0  0  0  0  0
  1  2  1  0
  2  3  2  0
  3  4  1  0
  4  5  2  0
  5  6  1  0
  6  7  2  0
  7  2  1  0
M  END
>  <Title>  (438) 
idAAPBgen7

$$$$

     RDKit          2D

 63 63  0  0  0  0  0  0  0  0999 V2000
   16.3077   -0.0000    0.0000 C   0  0  0  0  0  0  0  0  0  0  0  0
   14.8077    0.0000    0.0000 C   0  0  0  0  0  0  0  0  0  0  0  0
   14.7318   -1.4981    0.0000 C   0  0  0  0  0  0  0  0  0  0  0  0
   14.5046   -2.9808    0.0000 C   0  0  0  0  0  0  0  0  0  0  0  0
   14.1287   -4.4329    0.0000 C   0  0  0  0  0  0  0  0  0  0  0  0
   13.6077   -5.8395    0.0000 C   0  0  0  0  0  0  0  0  0  0  0  0
   12.9471   -7.1862    0.0000 C   0  0  0  0  0  0  0  0  0  0  0  0
   12.1537   -8.4592    0.0000 C   0  0  0  0  0  0  0  0  0  0  0  0
   11.2355   -9.6454    0.0000 C   0  0  0  0  0  0  0  0  0  0  0  0
   10.2020  -10.7325    0.0000 C   0  0  0  0  0  0  0  0  0  0  0  0
    9.0639  -11.7096    0.0000 C   0  0  0  0  0  0  0  0  0  0  0  0
    7.8328  -12.5665    0.0000 C   0  0  0  0  0  0  0  0  0  0  0  0
    6.5212  -13.2945    0.0000 C   0  0  0  0  0  0  0  0  0  0  0  0
    5.1428  -13.8860    0.0000 C   0  0  0  0  0  0  0  0  0  0  0  0
    3.7116  -14.3350    0.0000 C   0  0  0  0  0  0  0  0  0  0  0  0
    2.2423  -14.6370    0.0000 C   0  0  0  0  0  0  0  0  0  0  0  0
    0.7500  -14.7887    0.0000 C   0  0  0  0  0  0  0  0  0  0  0  0
   -0.7500  -14.7887    0.0000 C   0  0  0  0  0  0  0  0  0  0  0  0
   -2.2423  -14.6370    0.0000 C   0  0  0  0  0  0  0  0  0  0  0  0
   -3.7116  -14.3350    0.0000 C   0  0  0  0  0  0  0  0  0  0  0  0
   -5.1428  -13.8860    0.0000 C   0  0  0  0  0  0  0  0  0  0  0  0
   -6.5212  -13.2945    0.0000 C   0  0  0  0  0  0  0  0  0  0  0  0
   -7.8328  -12.5665    0.0000 C   0  0  0  0  0  0  0  0  0  0  0  0
   -9.0639  -11.7096    0.0000 C   0  0  0  0  0  0  0  0  0  0  0  0
  -10.2020  -10.7325    0.0000 C   0  0  0  0  0  0  0  0  0  0  0  0
  -11.2355   -9.6454    0.0000 C   0  0  0  0  0  0  0  0  0  0  0  0
  -12.1537   -8.4592    0.0000 C   0  0  0  0  0  0  0  0  0  0  0  0
  -12.9471   -7.1862    0.0000 C   0  0  0  0  0  0  0  0  0  0  0  0
  -13.6077   -5.8395    0.0000 C   0  0  0  0  0  0  0  0  0  0  0  0
  -14.1287   -4.4329    0.0000 C   0  0  0  0  0  0  0  0  0  0  0  0
  -14.5046   -2.9808    0.0000 C   0  0  0  0  0  0  0  0  0  0  0  0
  -14.7318   -1.4981    0.0000 C   0  0  0  0  0  0  0  0  0  0  0  0
  -14.8077    0.0000    0.0000 C   0  0  0  0  0  0  0  0  0  0  0  0
  -14.7318    1.4981    0.0000 C   0  0  0  0  0  0  0  0  0  0  0  0
  -14.5046    2.9808    0.0000 N   0  0  0  0  0  0  0  0  0  0  0  0
  -14.1287    4.4329    0.0000 C   0  0  0  0  0  0  0  0  0  0  0  0
  -13.6077    5.8395    0.0000 C   0  0  0  0  0  0  0  0  0  0  0  0
  -12.9471    7.1862    0.0000 C   0  0  0  0  0  0  0  0  0  0  0  0
  -12.1537    8.4592    0.0000 C   0  0  0  0  0  0  0  0  0  0  0  0
  -11.2355    9.6454    0.0000 C   0  0  0  0  0  0  0  0  0  0  0  0
  -10.2020   10.7325    0.0000 C   0  0  0  0  0  0  0  0  0  0  0  0
   -9.0639   11.7096    0.0000 C   0  0  0  0  0  0  0  0  0  0  0  0
   -7.8328   12.5665    0.0000 C   0  0  0  0  0  0  0  0  0  0  0  0
   -6.5212   13.2945    0.0000 C   0  0  0  0  0  0  0  0  0  0  0  0
   -5.1428   13.8860    0.0000 C   0  0  0  0  0  0  0  0  0  0  0  0
   -3.7116   14.3350    0.0000 C   0  0  0  0  0  0  0  0  0  0  0  0
   -2.2423   14.6370    0.0000 C   0  0  0  0  0  0  0  0  0  0  0  0
   -0.7500   14.7887    0.0000 C   0  0  0  0  0  0  0  0  0  0  0  0
    0.7500   14.7887    0.0000 C   0  0  0  0  0  0  0  0  0  0  0  0
    2.2423   14.6370    0.0000 C   0  0  0  0  0  0  0  0  0  0  0  0
    3.7116   14.3350    0.0000 C   0  0  0  0  0  0  0  0  0  0  0  0
    5.1428   13.8860    0.0000 C   0  0  0  0  0  0  0  0  0  0  0  0
    6.5212   13.2945    0.0000 C   0  0  0  0  0  0  0  0  0  0  0  0
    7.8328   12.5665    0.0000 C   0  0  0  0  0  0  0  0  0  0  0  0
    9.0639   11.7096    0.0000 C   0  0  0  0  0  0  0  0  0  0  0  0
   10.2020   10.7325    0.0000 C   0  0  0  0  0  0  0  0  0  0  0  0
   11.2355    9.6454    0.0000 C   0  0  0  0  0  0  0  0  0  0  0  0
   12.1537    8.4592    0.0000 C   0  0  0  0  0  0  0  0  0  0  0  0
   12.9471    7.1862    0.0000 C   0  0  0  0  0  0  0  0  0  0  0  0
   13.6077    5.8395    0.0000 C   0  0  0  0  0  0  0  0  0  0  0  0
   14.1287    4.4329    0.0000 C   0  0  0  0  0  0  0  0  0  0  0  0
   14.5046    2.9808    0.0000 C   0  0  0  0  0  0  0  0  0  0  0  0
   14.7318    1.4981    0.0000 C   0  0  0  0  0  0  0  0  0  0  0  0
  1  2  1  0
  2  3  1  0
  3  4  2  0
  4  5  1  0
  5  6  2  0
  6  7  1  0
  7  8  2  0
  8  9  1  0
  9 10  2  0
 10 11  1  0
 11 12  2  0
 12 13  1  0
 13 14  2  0
 14 15  1  0
 15 16  2  0
 16 17  1  0
 17 18  2  0
 18 19  1  0
 19 20  2  0
 20 21  1  0
 21 22  2  0
 22 23  1  0
 23 24  2  0
 24 25  1  0
 25 26  2  0
 26 27  1  0
 27 28  2  0
 28 29  1  0
 29 30  2  0
 30 31  1  0
 31 32  2  0
 32 33  1  0
 33 34  1  0
 34 35  1  0
 35 36  1  0
 36 37  1  0
 37 38  1  0
 38 39  1  0
 39 40  1  0
 40 41  1  0
 41 42  1  0
 42 43  1  0
 43 44  1  0
 44 45  1  0
 45 46  1  0
 46 47  1  0
 47 48  1  0
 48 49  1  0
 49 50  1  0
 50 51  1  0
 51 52  1  0
 52 53  1  0
 53 54  1  0
 54 55  1  0
 55 56  1  0
 56 57  1  0
 57 58  1  0
 58 59  1  0
 59 60  1  0
 60 61  1  0
 61 62  1  0
 62 63  1  0
 63  2  1  0
M  END
>  <Title>  (439) 
idAAPCgen7

$$$$

     RDKit          2D

 38 43  0  0  0  0  0  0  0  0999 V2000
    3.1097   -7.2078    0.0000 C   0  0  0  0  0  0  0  0  0  0  0  0
    2.0490   -6.1471    0.0000 C   0  0  0  0  0  0  0  0  0  0  0  0
    2.7990   -4.8481    0.0000 C   0  0  0  0  0  0  0  0  0  0  0  0
    2.7990   -3.3481    0.0000 C   0  0  0  0  0  0  0  0  0  0  0  0
    2.0490   -2.0490    0.0000 C   0  0  0  0  0  0  0  0  0  0  0  0
    3.1097   -0.9884    0.0000 C   0  0  0  0  0  0  0  0  0  0  0  0
    2.7215    0.4605    0.0000 O   0  0  0  0  0  0  0  0  0  0  0  0
    4.5586   -1.3766    0.0000 O   0  0  0  0  0  0  0  0  0  0  0  0
    5.6192   -0.3159    0.0000 C   0  0  0  0  0  0  0  0  0  0  0  0
    7.0681   -0.7042    0.0000 N   0  0  0  0  0  0  0  0  0  0  0  0
    8.1288    0.3565    0.0000 N   0  0  0  0  0  0  0  0  0  0  0  0
    7.7406    1.8054    0.0000 N   0  0  0  0  0  0  0  0  0  0  0  0
    6.2917    2.1936    0.0000 N   0  0  0  0  0  0  0  0  0  0  0  0
    5.2310    1.1329    0.0000 N   0  0  0  0  0  0  0  0  0  0  0  0
    0.7500   -1.2990    0.0000 C   0  0  0  0  0  0  0  0  0  0  0  0
    1.5000    0.0000    0.0000 C   0  0  0  0  0  0  0  0  0  0  0  0
    0.7500    1.2990    0.0000 C   0  0  0  0  0  0  0  0  0  0  0  0
   -0.7500    1.2990    0.0000 C   0  0  0  0  0  0  0  0  0  0  0  0
   -1.5000    0.0000    0.0000 C   0  0  0  0  0  0  0  0  0  0  0  0
   -0.7500   -1.2990    0.0000 C   0  0  0  0  0  0  0  0  0  0  0  0
   -2.0490   -2.0490    0.0000 C   0  0  0  0  0  0  0  0  0  0  0  0
   -2.7990   -0.7500    0.0000 C   0  0  0  0  0  0  0  0  0  0  0  0
   -4.2990   -0.7500    0.0000 C   0  0  0  0  0  0  0  0  0  0  0  0
   -5.0490   -2.0490    0.0000 C   0  0  0  0  0  0  0  0  0  0  0  0
   -4.2990   -3.3481    0.0000 C   0  0  0  0  0  0  0  0  0  0  0  0
   -2.7990   -3.3481    0.0000 C   0  0  0  0  0  0  0  0  0  0  0  0
   -2.7990   -4.8481    0.0000 C   0  0  0  0  0  0  0  0  0  0  0  0
   -4.2990   -4.8481    0.0000 C   0  0  0  0  0  0  0  0  0  0  0  0
   -5.0490   -6.1471    0.0000 C   0  0  0  0  0  0  0  0  0  0  0  0
   -4.2990   -7.4462    0.0000 C   0  0  0  0  0  0  0  0  0  0  0  0
   -2.7990   -7.4462    0.0000 C   0  0  0  0  0  0  0  0  0  0  0  0
   -2.0490   -6.1471    0.0000 C   0  0  0  0  0  0  0  0  0  0  0  0
   -0.7500   -6.8971    0.0000 C   0  0  0  0  0  0  0  0  0  0  0  0
   -1.5000   -8.1962    0.0000 C   0  0  0  0  0  0  0  0  0  0  0  0
   -0.7500   -9.4952    0.0000 C   0  0  0  0  0  0  0  0  0  0  0  0
    0.7500   -9.4952    0.0000 C   0  0  0  0  0  0  0  0  0  0  0  0
    1.5000   -8.1962    0.0000 C   0  0  0  0  0  0  0  0  0  0  0  0
    0.7500   -6.8971    0.0000 C   0  0  0  0  0  0  0  0  0  0  0  0
  1  2  1  0
  2  3  1  0
  3  4  1  0
  4  5  1  0
  5  6  1  0
  6  7  2  0
  6  8  1  0
  8  9  1  0
  9 10  2  0
 10 11  1  0
 11 12  2  0
 12 13  1  0
 13 14  2  0
  5 15  1  0
 15 16  2  0
 16 17  1  0
 17 18  2  0
 18 19  1  0
 19 20  2  0
 20 21  1  0
 21 22  2  0
 22 23  1  0
 23 24  2  0
 24 25  1  0
 25 26  2  0
 26 27  1  0
 27 28  2  0
 28 29  1  0
 29 30  2  0
 30 31  1  0
 31 32  2  0
 32 33  1  0
 33 34  2  0
 34 35  1  0
 35 36  2  0
 36 37  1  0
 37 38  2  0
 38  2  1  0
 14  9  1  0
 20 15  1  0
 26 21  1  0
 32 27  1  0
 38 33  1  0
M  END
>  <Title>  (440) 
idAAPDgen7

$$$$

     RDKit          2D

 34 34  0  0  0  0  0  0  0  0999 V2000
    9.3901    0.0000    0.0000 C   0  0  0  0  0  0  0  0  0  0  0  0
    7.8901    0.0000    0.0000 C   0  0  0  0  0  0  0  0  0  0  0  0
    7.7475    1.4932    0.0000 C   0  0  0  0  0  0  0  0  0  0  0  0
    7.3249    2.9324    0.0000 C   0  0  0  0  0  0  0  0  0  0  0  0
    6.6376    4.2657    0.0000 C   0  0  0  0  0  0  0  0  0  0  0  0
    5.7103    5.4448    0.0000 C   0  0  0  0  0  0  0  0  0  0  0  0
    4.5767    6.4271    0.0000 C   0  0  0  0  0  0  0  0  0  0  0  0
    3.2777    7.1771    0.0000 C   0  0  0  0  0  0  0  0  0  0  0  0
    1.8602    7.6677    0.0000 C   0  0  0  0  0  0  0  0  0  0  0  0
    0.3754    7.8811    0.0000 C   0  0  0  0  0  0  0  0  0  0  0  0
   -1.1229    7.8098    0.0000 C   0  0  0  0  0  0  0  0  0  0  0  0
   -2.5806    7.4561    0.0000 C   0  0  0  0  0  0  0  0  0  0  0  0
   -3.9450    6.8330    0.0000 C   0  0  0  0  0  0  0  0  0  0  0  0
   -5.1669    5.9629    0.0000 C   0  0  0  0  0  0  0  0  0  0  0  0
   -6.2020    4.8773    0.0000 C   0  0  0  0  0  0  0  0  0  0  0  0
   -7.0130    3.6154    0.0000 C   0  0  0  0  0  0  0  0  0  0  0  0
   -7.5705    2.2229    0.0000 C   0  0  0  0  0  0  0  0  0  0  0  0
   -7.8544    0.7500    0.0000 C   0  0  0  0  0  0  0  0  0  0  0  0
   -7.8544   -0.7500    0.0000 C   0  0  0  0  0  0  0  0  0  0  0  0
   -7.5705   -2.2229    0.0000 C   0  0  0  0  0  0  0  0  0  0  0  0
   -7.0130   -3.6154    0.0000 C   0  0  0  0  0  0  0  0  0  0  0  0
   -6.2020   -4.8773    0.0000 C   0  0  0  0  0  0  0  0  0  0  0  0
   -5.1669   -5.9629    0.0000 C   0  0  0  0  0  0  0  0  0  0  0  0
   -3.9450   -6.8330    0.0000 C   0  0  0  0  0  0  0  0  0  0  0  0
   -2.5806   -7.4561    0.0000 C   0  0  0  0  0  0  0  0  0  0  0  0
   -1.1229   -7.8098    0.0000 C   0  0  0  0  0  0  0  0  0  0  0  0
    0.3754   -7.8811    0.0000 C   0  0  0  0  0  0  0  0  0  0  0  0
    1.8602   -7.6677    0.0000 C   0  0  0  0  0  0  0  0  0  0  0  0
    3.2777   -7.1771    0.0000 C   0  0  0  0  0  0  0  0  0  0  0  0
    4.5767   -6.4271    0.0000 C   0  0  0  0  0  0  0  0  0  0  0  0
    5.7103   -5.4448    0.0000 C   0  0  0  0  0  0  0  0  0  0  0  0
    6.6376   -4.2657    0.0000 C   0  0  0  0  0  0  0  0  0  0  0  0
    7.3249   -2.9324    0.0000 C   0  0  0  0  0  0  0  0  0  0  0  0
    7.7475   -1.4932    0.0000 C   0  0  0  0  0  0  0  0  0  0  0  0
  1  2  1  0
  2  3  1  0
  3  4  1  0
  4  5  1  0
  5  6  1  0
  6  7  1  0
  7  8  1  0
  8  9  1  0
  9 10  1  0
 10 11  1  0
 11 12  1  0
 12 13  1  0
 13 14  1  0
 14 15  1  0
 15 16  1  0
 16 17  1  0
 17 18  1  0
 18 19  1  0
 19 20  1  0
 20 21  1  0
 21 22  1  0
 22 23  1  0
 23 24  1  0
 24 25  1  0
 25 26  1  0
 26 27  1  0
 27 28  1  0
 28 29  1  0
 29 30  1  0
 30 31  1  0
 31 32  1  0
 32 33  1  0
 33 34  1  0
 34  2  1  0
M  END
>  <Title>  (441) 
idAAPEgen7

$$$$

     RDKit          2D

 26 26  0  0  0  0  0  0  0  0999 V2000
    7.4840    0.0000    0.0000 C   0  0  0  0  0  0  0  0  0  0  0  0
    5.9840    0.0000    0.0000 C   0  0  0  0  0  0  0  0  0  0  0  0
    5.7960    1.4882    0.0000 C   0  0  0  0  0  0  0  0  0  0  0  0
    5.2439    2.8828    0.0000 C   0  0  0  0  0  0  0  0  0  0  0  0
    4.3622    4.0964    0.0000 C   0  0  0  0  0  0  0  0  0  0  0  0
    3.2064    5.0525    0.0000 C   0  0  0  0  0  0  0  0  0  0  0  0
    1.8492    5.6912    0.0000 C   0  0  0  0  0  0  0  0  0  0  0  0
    0.3757    5.9722    0.0000 C   0  0  0  0  0  0  0  0  0  0  0  0
   -1.1213    5.8781    0.0000 C   0  0  0  0  0  0  0  0  0  0  0  0
   -2.5479    5.4145    0.0000 C   0  0  0  0  0  0  0  0  0  0  0  0
   -3.8144    4.6108    0.0000 C   0  0  0  0  0  0  0  0  0  0  0  0
   -4.8412    3.5173    0.0000 C   0  0  0  0  0  0  0  0  0  0  0  0
   -5.5638    2.2029    0.0000 C   0  0  0  0  0  0  0  0  0  0  0  0
   -5.9369    0.7500    0.0000 C   0  0  0  0  0  0  0  0  0  0  0  0
   -5.9369   -0.7500    0.0000 C   0  0  0  0  0  0  0  0  0  0  0  0
   -5.5638   -2.2029    0.0000 C   0  0  0  0  0  0  0  0  0  0  0  0
   -4.8412   -3.5173    0.0000 C   0  0  0  0  0  0  0  0  0  0  0  0
   -3.8144   -4.6108    0.0000 C   0  0  0  0  0  0  0  0  0  0  0  0
   -2.5479   -5.4145    0.0000 C   0  0  0  0  0  0  0  0  0  0  0  0
   -1.1213   -5.8781    0.0000 C   0  0  0  0  0  0  0  0  0  0  0  0
    0.3757   -5.9722    0.0000 C   0  0  0  0  0  0  0  0  0  0  0  0
    1.8492   -5.6912    0.0000 C   0  0  0  0  0  0  0  0  0  0  0  0
    3.2064   -5.0525    0.0000 C   0  0  0  0  0  0  0  0  0  0  0  0
    4.3622   -4.0964    0.0000 C   0  0  0  0  0  0  0  0  0  0  0  0
    5.2439   -2.8828    0.0000 C   0  0  0  0  0  0  0  0  0  0  0  0
    5.7960   -1.4882    0.0000 C   0  0  0  0  0  0  0  0  0  0  0  0
  1  2  1  0
  2  3  1  0
  3  4  1  0
  4  5  1  0
  5  6  1  0
  6  7  1  0
  7  8  1  0
  8  9  1  0
  9 10  1  0
 10 11  1  0
 11 12  1  0
 12 13  1  0
 13 14  1  0
 14 15  1  0
 15 16  1  0
 16 17  1  0
 17 18  1  0
 18 19  1  0
 19 20  1  0
 20 21  1  0
 21 22  1  0
 22 23  1  0
 23 24  1  0
 24 25  1  0
 25 26  1  0
 26  2  1  0
M  END
>  <Title>  (442) 
idAAPFgen7

$$$$

     RDKit          2D

 42 42  0  0  0  0  0  0  0  0999 V2000
   10.8206    0.0000    0.0000 C   0  0  0  0  0  0  0  0  0  0  0  0
    9.3206    0.0000    0.0000 C   0  0  0  0  0  0  0  0  0  0  0  0
    9.1999    1.4951    0.0000 C   0  0  0  0  0  0  0  0  0  0  0  0
    8.8410    2.9515    0.0000 C   0  0  0  0  0  0  0  0  0  0  0  0
    8.2530    4.3315    0.0000 C   0  0  0  0  0  0  0  0  0  0  0  0
    7.4513    5.5993    0.0000 C   0  0  0  0  0  0  0  0  0  0  0  0
    6.4566    6.7221    0.0000 C   0  0  0  0  0  0  0  0  0  0  0  0
    5.2947    7.6707    0.0000 C   0  0  0  0  0  0  0  0  0  0  0  0
    3.9957    8.4207    0.0000 C   0  0  0  0  0  0  0  0  0  0  0  0
    2.5932    8.9526    0.0000 C   0  0  0  0  0  0  0  0  0  0  0  0
    1.1235    9.2527    0.0000 C   0  0  0  0  0  0  0  0  0  0  0  0
   -0.3753    9.3131    0.0000 C   0  0  0  0  0  0  0  0  0  0  0  0
   -1.8644    9.1323    0.0000 C   0  0  0  0  0  0  0  0  0  0  0  0
   -3.3051    8.7150    0.0000 C   0  0  0  0  0  0  0  0  0  0  0  0
   -4.6603    8.0719    0.0000 C   0  0  0  0  0  0  0  0  0  0  0  0
   -5.8948    7.2198    0.0000 C   0  0  0  0  0  0  0  0  0  0  0  0
   -6.9766    6.1807    0.0000 C   0  0  0  0  0  0  0  0  0  0  0  0
   -7.8777    4.9816    0.0000 C   0  0  0  0  0  0  0  0  0  0  0  0
   -8.5748    3.6534    0.0000 C   0  0  0  0  0  0  0  0  0  0  0  0
   -9.0498    2.2306    0.0000 C   0  0  0  0  0  0  0  0  0  0  0  0
   -9.2904    0.7500    0.0000 C   0  0  0  0  0  0  0  0  0  0  0  0
   -9.2904   -0.7500    0.0000 C   0  0  0  0  0  0  0  0  0  0  0  0
   -9.0498   -2.2306    0.0000 C   0  0  0  0  0  0  0  0  0  0  0  0
   -8.5748   -3.6534    0.0000 C   0  0  0  0  0  0  0  0  0  0  0  0
   -7.8777   -4.9816    0.0000 C   0  0  0  0  0  0  0  0  0  0  0  0
   -6.9766   -6.1807    0.0000 C   0  0  0  0  0  0  0  0  0  0  0  0
   -5.8948   -7.2198    0.0000 C   0  0  0  0  0  0  0  0  0  0  0  0
   -4.6603   -8.0719    0.0000 C   0  0  0  0  0  0  0  0  0  0  0  0
   -3.3051   -8.7150    0.0000 C   0  0  0  0  0  0  0  0  0  0  0  0
   -1.8644   -9.1323    0.0000 C   0  0  0  0  0  0  0  0  0  0  0  0
   -0.3753   -9.3131    0.0000 C   0  0  0  0  0  0  0  0  0  0  0  0
    1.1235   -9.2527    0.0000 C   0  0  0  0  0  0  0  0  0  0  0  0
    1.3043  -10.7417    0.0000 C   0  0  0  0  0  0  0  0  0  0  0  0
    1.4851  -12.2308    0.0000 N   0  0  0  0  0  0  0  0  0  0  0  0
    2.5932   -8.9526    0.0000 C   0  0  0  0  0  0  0  0  0  0  0  0
    3.9957   -8.4207    0.0000 C   0  0  0  0  0  0  0  0  0  0  0  0
    5.2947   -7.6707    0.0000 C   0  0  0  0  0  0  0  0  0  0  0  0
    6.4566   -6.7221    0.0000 C   0  0  0  0  0  0  0  0  0  0  0  0
    7.4513   -5.5993    0.0000 C   0  0  0  0  0  0  0  0  0  0  0  0
    8.2530   -4.3315    0.0000 C   0  0  0  0  0  0  0  0  0  0  0  0
    8.8410   -2.9515    0.0000 C   0  0  0  0  0  0  0  0  0  0  0  0
    9.1999   -1.4951    0.0000 C   0  0  0  0  0  0  0  0  0  0  0  0
  1  2  1  0
  2  3  2  0
  3  4  1  0
  4  5  1  0
  5  6  1  0
  6  7  1  0
  7  8  1  0
  8  9  1  0
  9 10  1  0
 10 11  1  0
 11 12  1  0
 12 13  1  0
 13 14  1  0
 14 15  1  0
 15 16  1  0
 16 17  1  0
 17 18  1  0
 18 19  1  0
 19 20  1  0
 20 21  1  0
 21 22  1  0
 22 23  1  0
 23 24  1  0
 24 25  1  0
 25 26  1  0
 26 27  1  0
 27 28  1  0
 28 29  1  0
 29 30  1  0
 30 31  1  0
 31 32  1  0
 32 33  1  0
 33 34  3  0
 32 35  2  0
 35 36  1  0
 36 37  2  0
 37 38  1  0
 38 39  2  0
 39 40  1  0
 40 41  2  0
 41 42  1  0
 42  2  1  0
M  END
>  <Title>  (443) 
idAAPGgen7

$$$$

     RDKit          2D

 38 43  0  0  0  0  0  0  0  0999 V2000
   -3.0000   -2.5981    0.0000 C   0  0  0  0  0  0  0  0  0  0  0  0
   -1.5000   -2.5981    0.0000 C   0  0  0  0  0  0  0  0  0  0  0  0
   -0.7500   -3.8971    0.0000 C   0  0  0  0  0  0  0  0  0  0  0  0
    0.7500   -3.8971    0.0000 C   0  0  0  0  0  0  0  0  0  0  0  0
    1.5000   -2.5981    0.0000 C   0  0  0  0  0  0  0  0  0  0  0  0
    3.0000   -2.5981    0.0000 C   0  0  0  0  0  0  0  0  0  0  0  0
    3.7500   -1.2990    0.0000 O   0  0  0  0  0  0  0  0  0  0  0  0
    3.7500   -3.8971    0.0000 N   0  0  0  0  0  0  0  0  0  0  0  0
    5.2500   -3.8971    0.0000 C   0  0  0  0  0  0  0  0  0  0  0  0
    6.1317   -2.6836    0.0000 N   0  0  0  0  0  0  0  0  0  0  0  0
    7.5583   -3.1471    0.0000 N   0  0  0  0  0  0  0  0  0  0  0  0
    7.5583   -4.6471    0.0000 N   0  0  0  0  0  0  0  0  0  0  0  0
    6.1317   -5.1106    0.0000 N   0  0  0  0  0  0  0  0  0  0  0  0
    5.6682   -6.5372    0.0000 N   0  0  0  0  0  0  0  0  0  0  0  0
    4.2009   -6.8491    0.0000 C   0  0  0  0  0  0  0  0  0  0  0  0
    3.7374   -8.2757    0.0000 C   0  0  0  0  0  0  0  0  0  0  0  0
    4.7411   -9.3904    0.0000 C   0  0  0  0  0  0  0  0  0  0  0  0
    4.2776  -10.8170    0.0000 C   0  0  0  0  0  0  0  0  0  0  0  0
    2.8104  -11.1288    0.0000 C   0  0  0  0  0  0  0  0  0  0  0  0
    2.3468  -12.5554    0.0000 C   0  0  0  0  0  0  0  0  0  0  0  0
    3.3505  -13.6701    0.0000 C   0  0  0  0  0  0  0  0  0  0  0  0
    4.8177  -13.3583    0.0000 C   0  0  0  0  0  0  0  0  0  0  0  0
    5.2813  -11.9317    0.0000 C   0  0  0  0  0  0  0  0  0  0  0  0
    6.7485  -11.6198    0.0000 C   0  0  0  0  0  0  0  0  0  0  0  0
    7.7522  -12.7345    0.0000 C   0  0  0  0  0  0  0  0  0  0  0  0
    7.2887  -14.1611    0.0000 C   0  0  0  0  0  0  0  0  0  0  0  0
    8.2924  -15.2758    0.0000 C   0  0  0  0  0  0  0  0  0  0  0  0
    9.7596  -14.9640    0.0000 C   0  0  0  0  0  0  0  0  0  0  0  0
   10.2231  -13.5374    0.0000 C   0  0  0  0  0  0  0  0  0  0  0  0
    9.2194  -12.4227    0.0000 C   0  0  0  0  0  0  0  0  0  0  0  0
    6.2083   -9.0785    0.0000 C   0  0  0  0  0  0  0  0  0  0  0  0
    6.6718   -7.6519    0.0000 C   0  0  0  0  0  0  0  0  0  0  0  0
    0.7500   -1.2990    0.0000 C   0  0  0  0  0  0  0  0  0  0  0  0
    1.5000    0.0000    0.0000 C   0  0  0  0  0  0  0  0  0  0  0  0
    0.7500    1.2990    0.0000 C   0  0  0  0  0  0  0  0  0  0  0  0
   -0.7500    1.2990    0.0000 C   0  0  0  0  0  0  0  0  0  0  0  0
   -1.5000    0.0000    0.0000 C   0  0  0  0  0  0  0  0  0  0  0  0
   -0.7500   -1.2990    0.0000 C   0  0  0  0  0  0  0  0  0  0  0  0
  1  2  1  0
  2  3  1  0
  3  4  1  0
  4  5  1  0
  5  6  1  0
  6  7  2  0
  6  8  1  0
  8  9  1  0
  9 10  2  0
 10 11  1  0
 11 12  2  0
 12 13  1  0
 13 14  1  0
 14 15  1  0
 15 16  1  0
 16 17  1  0
 17 18  1  0
 18 19  2  0
 19 20  1  0
 20 21  2  0
 21 22  1  0
 22 23  2  0
 23 24  1  0
 24 25  1  0
 25 26  2  0
 26 27  1  0
 27 28  2  0
 28 29  1  0
 29 30  2  0
 17 31  1  0
 31 32  1  0
  5 33  1  0
 33 34  2  0
 34 35  1  0
 35 36  2  0
 36 37  1  0
 37 38  2  0
 38  2  1  0
 13  9  1  0
 32 14  1  0
 38 33  1  0
 23 18  1  0
 30 25  1  0
M  END
>  <Title>  (444) 
idAAPHgen7

$$$$

     RDKit          2D

 68 78  0  0  0  0  0  0  0  0999 V2000
    6.4958   -4.6081    0.0000 C   0  0  0  0  0  0  0  0  0  0  0  0
    5.0565   -5.0307    0.0000 C   0  0  0  0  0  0  0  0  0  0  0  0
    4.4334   -3.6662    0.0000 C   0  0  0  0  0  0  0  0  0  0  0  0
    3.4511   -2.5326    0.0000 C   0  0  0  0  0  0  0  0  0  0  0  0
    2.1892   -1.7216    0.0000 C   0  0  0  0  0  0  0  0  0  0  0  0
    2.8124   -0.3572    0.0000 C   0  0  0  0  0  0  0  0  0  0  0  0
    1.9423    0.8647    0.0000 O   0  0  0  0  0  0  0  0  0  0  0  0
    4.3056   -0.2146    0.0000 N   0  0  0  0  0  0  0  0  0  0  0  0
    4.9287    1.1498    0.0000 C   0  0  0  0  0  0  0  0  0  0  0  0
    6.4219    1.2924    0.0000 N   0  0  0  0  0  0  0  0  0  0  0  0
    7.0450    2.6569    0.0000 N   0  0  0  0  0  0  0  0  0  0  0  0
    6.1749    3.8787    0.0000 N   0  0  0  0  0  0  0  0  0  0  0  0
    4.6817    3.7362    0.0000 N   0  0  0  0  0  0  0  0  0  0  0  0
    4.0586    2.3717    0.0000 N   0  0  0  0  0  0  0  0  0  0  0  0
    0.7500   -1.2990    0.0000 C   0  0  0  0  0  0  0  0  0  0  0  0
    1.5000    0.0000    0.0000 C   0  0  0  0  0  0  0  0  0  0  0  0
    0.7500    1.2990    0.0000 C   0  0  0  0  0  0  0  0  0  0  0  0
   -0.7500    1.2990    0.0000 C   0  0  0  0  0  0  0  0  0  0  0  0
   -1.5000    0.0000    0.0000 C   0  0  0  0  0  0  0  0  0  0  0  0
   -0.7500   -1.2990    0.0000 C   0  0  0  0  0  0  0  0  0  0  0  0
   -2.1892   -1.7216    0.0000 C   0  0  0  0  0  0  0  0  0  0  0  0
   -2.2606   -0.2233    0.0000 C   0  0  0  0  0  0  0  0  0  0  0  0
   -3.5939    0.4640    0.0000 C   0  0  0  0  0  0  0  0  0  0  0  0
   -4.8557   -0.3470    0.0000 C   0  0  0  0  0  0  0  0  0  0  0  0
   -4.7844   -1.8453    0.0000 C   0  0  0  0  0  0  0  0  0  0  0  0
   -3.4511   -2.5326    0.0000 C   0  0  0  0  0  0  0  0  0  0  0  0
   -4.4334   -3.6662    0.0000 C   0  0  0  0  0  0  0  0  0  0  0  0
   -5.3035   -2.4444    0.0000 C   0  0  0  0  0  0  0  0  0  0  0  0
   -6.7967   -2.5869    0.0000 C   0  0  0  0  0  0  0  0  0  0  0  0
   -7.4198   -3.9514    0.0000 C   0  0  0  0  0  0  0  0  0  0  0  0
   -6.5497   -5.1733    0.0000 C   0  0  0  0  0  0  0  0  0  0  0  0
   -5.0565   -5.0307    0.0000 C   0  0  0  0  0  0  0  0  0  0  0  0
   -5.2700   -6.5154    0.0000 C   0  0  0  0  0  0  0  0  0  0  0  0
   -6.6626   -5.9579    0.0000 C   0  0  0  0  0  0  0  0  0  0  0  0
   -7.8416   -6.8851    0.0000 C   0  0  0  0  0  0  0  0  0  0  0  0
   -7.6282   -8.3699    0.0000 C   0  0  0  0  0  0  0  0  0  0  0  0
   -6.2356   -8.9274    0.0000 C   0  0  0  0  0  0  0  0  0  0  0  0
   -5.0565   -8.0001    0.0000 C   0  0  0  0  0  0  0  0  0  0  0  0
   -4.4334   -9.3646    0.0000 C   0  0  0  0  0  0  0  0  0  0  0  0
   -5.9063   -9.6485    0.0000 C   0  0  0  0  0  0  0  0  0  0  0  0
   -6.3969  -11.0660    0.0000 C   0  0  0  0  0  0  0  0  0  0  0  0
   -5.4146  -12.1996    0.0000 C   0  0  0  0  0  0  0  0  0  0  0  0
   -3.9417  -11.9157    0.0000 C   0  0  0  0  0  0  0  0  0  0  0  0
   -3.4511  -10.4982    0.0000 C   0  0  0  0  0  0  0  0  0  0  0  0
   -2.1892  -11.3092    0.0000 C   0  0  0  0  0  0  0  0  0  0  0  0
   -3.2748  -12.3443    0.0000 C   0  0  0  0  0  0  0  0  0  0  0  0
   -2.9212  -13.8020    0.0000 C   0  0  0  0  0  0  0  0  0  0  0  0
   -1.4820  -14.2246    0.0000 C   0  0  0  0  0  0  0  0  0  0  0  0
   -0.3964  -13.1895    0.0000 C   0  0  0  0  0  0  0  0  0  0  0  0
   -0.7500  -11.7318    0.0000 C   0  0  0  0  0  0  0  0  0  0  0  0
    0.7500  -11.7318    0.0000 C   0  0  0  0  0  0  0  0  0  0  0  0
    0.3964  -13.1895    0.0000 C   0  0  0  0  0  0  0  0  0  0  0  0
    1.4820  -14.2246    0.0000 C   0  0  0  0  0  0  0  0  0  0  0  0
    2.9212  -13.8020    0.0000 C   0  0  0  0  0  0  0  0  0  0  0  0
    3.2748  -12.3443    0.0000 C   0  0  0  0  0  0  0  0  0  0  0  0
    2.1892  -11.3092    0.0000 C   0  0  0  0  0  0  0  0  0  0  0  0
    3.4511  -10.4982    0.0000 C   0  0  0  0  0  0  0  0  0  0  0  0
    3.9417  -11.9157    0.0000 C   0  0  0  0  0  0  0  0  0  0  0  0
    5.4146  -12.1996    0.0000 C   0  0  0  0  0  0  0  0  0  0  0  0
    6.3969  -11.0660    0.0000 C   0  0  0  0  0  0  0  0  0  0  0  0
    5.9063   -9.6485    0.0000 C   0  0  0  0  0  0  0  0  0  0  0  0
    4.4334   -9.3646    0.0000 C   0  0  0  0  0  0  0  0  0  0  0  0
    5.0565   -8.0001    0.0000 C   0  0  0  0  0  0  0  0  0  0  0  0
    6.2356   -8.9274    0.0000 C   0  0  0  0  0  0  0  0  0  0  0  0
    7.6282   -8.3699    0.0000 C   0  0  0  0  0  0  0  0  0  0  0  0
    7.8416   -6.8851    0.0000 C   0  0  0  0  0  0  0  0  0  0  0  0
    6.6626   -5.9579    0.0000 C   0  0  0  0  0  0  0  0  0  0  0  0
    5.2700   -6.5154    0.0000 C   0  0  0  0  0  0  0  0  0  0  0  0
  1  2  1  0
  2  3  1  0
  3  4  1  0
  4  5  1  0
  5  6  1  0
  6  7  2  0
  6  8  1  0
  8  9  1  0
  9 10  2  0
 10 11  1  0
 11 12  2  0
 12 13  1  0
 13 14  2  0
  5 15  1  0
 15 16  2  0
 16 17  1  0
 17 18  2  0
 18 19  1  0
 19 20  2  0
 20 21  1  0
 21 22  2  0
 22 23  1  0
 23 24  1  0
 24 25  1  0
 25 26  1  0
 26 27  1  0
 27 28  2  0
 28 29  1  0
 29 30  2  0
 30 31  1  0
 31 32  2  0
 32 33  1  0
 33 34  2  0
 34 35  1  0
 35 36  2  0
 36 37  1  0
 37 38  2  0
 38 39  1  0
 39 40  2  0
 40 41  1  0
 41 42  2  0
 42 43  1  0
 43 44  2  0
 44 45  1  0
 45 46  2  0
 46 47  1  0
 47 48  2  0
 48 49  1  0
 49 50  2  0
 50 51  1  0
 51 52  2  0
 52 53  1  0
 53 54  2  0
 54 55  1  0
 55 56  2  0
 56 57  1  0
 57 58  2  0
 58 59  1  0
 59 60  2  0
 60 61  1  0
 61 62  2  0
 62 63  1  0
 63 64  2  0
 64 65  1  0
 65 66  2  0
 66 67  1  0
 67 68  2  0
 68  2  1  0
 14  9  1  0
 20 15  1  0
 26 21  1  0
 32 27  1  0
 38 33  1  0
 44 39  1  0
 50 45  1  0
 56 51  1  0
 62 57  1  0
 68 63  1  0
M  END
>  <Title>  (445) 
idAAPIgen7

$$$$

     RDKit          2D

 20 20  0  0  0  0  0  0  0  0999 V2000
    6.0567    0.0000    0.0000 C   0  0  0  0  0  0  0  0  0  0  0  0
    4.5567    0.0000    0.0000 C   0  0  0  0  0  0  0  0  0  0  0  0
    4.3098    1.4795    0.0000 C   0  0  0  0  0  0  0  0  0  0  0  0
    3.5958    2.7988    0.0000 C   0  0  0  0  0  0  0  0  0  0  0  0
    2.4923    3.8147    0.0000 C   0  0  0  0  0  0  0  0  0  0  0  0
    1.1186    4.4172    0.0000 C   0  0  0  0  0  0  0  0  0  0  0  0
   -0.3763    4.5411    0.0000 C   0  0  0  0  0  0  0  0  0  0  0  0
   -1.8304    4.1729    0.0000 C   0  0  0  0  0  0  0  0  0  0  0  0
   -3.0861    3.3524    0.0000 C   0  0  0  0  0  0  0  0  0  0  0  0
   -4.0075    2.1687    0.0000 C   0  0  0  0  0  0  0  0  0  0  0  0
   -4.4945    0.7500    0.0000 C   0  0  0  0  0  0  0  0  0  0  0  0
   -4.4945   -0.7500    0.0000 C   0  0  0  0  0  0  0  0  0  0  0  0
   -4.0075   -2.1687    0.0000 C   0  0  0  0  0  0  0  0  0  0  0  0
   -3.0861   -3.3524    0.0000 C   0  0  0  0  0  0  0  0  0  0  0  0
   -1.8304   -4.1729    0.0000 C   0  0  0  0  0  0  0  0  0  0  0  0
   -0.3763   -4.5411    0.0000 C   0  0  0  0  0  0  0  0  0  0  0  0
    1.1186   -4.4172    0.0000 C   0  0  0  0  0  0  0  0  0  0  0  0
    2.4923   -3.8147    0.0000 C   0  0  0  0  0  0  0  0  0  0  0  0
    3.5958   -2.7988    0.0000 C   0  0  0  0  0  0  0  0  0  0  0  0
    4.3098   -1.4795    0.0000 C   0  0  0  0  0  0  0  0  0  0  0  0
  1  2  1  0
  2  3  1  0
  3  4  1  0
  4  5  1  0
  5  6  1  0
  6  7  1  0
  7  8  1  0
  8  9  1  0
  9 10  1  0
 10 11  1  0
 11 12  1  0
 12 13  1  0
 13 14  1  0
 14 15  1  0
 15 16  1  0
 16 17  1  0
 17 18  1  0
 18 19  1  0
 19 20  1  0
 20  2  1  0
M  END
>  <Title>  (446) 
idAAPJgen7

$$$$

     RDKit          2D

  9  9  0  0  0  0  0  0  0  0999 V2000
    3.0000    0.0000    0.0000 C   0  0  0  0  0  0  0  0  0  0  0  0
    1.5000    0.0000    0.0000 C   0  0  0  0  0  0  0  0  0  0  0  0
    0.7500   -1.2990    0.0000 C   0  0  0  0  0  0  0  0  0  0  0  0
   -0.7500   -1.2990    0.0000 C   0  0  0  0  0  0  0  0  0  0  0  0
   -1.5000    0.0000    0.0000 C   0  0  0  0  0  0  0  0  0  0  0  0
   -3.0000    0.0000    0.0000 C   0  0  0  0  0  0  0  0  0  0  0  0
   -4.5000    0.0000    0.0000 N   0  0  0  0  0  0  0  0  0  0  0  0
   -0.7500    1.2990    0.0000 C   0  0  0  0  0  0  0  0  0  0  0  0
    0.7500    1.2990    0.0000 C   0  0  0  0  0  0  0  0  0  0  0  0
  1  2  1  0
  2  3  1  0
  3  4  1  0
  4  5  1  0
  5  6  1  0
  6  7  3  0
  5  8  1  0
  8  9  1  0
  9  2  1  0
M  END
>  <Title>  (447) 
idAAPKgen7

$$$$

     RDKit          2D

 44 50  0  0  0  0  0  0  0  0999 V2000
    4.3881   -6.6982    0.0000 C   0  0  0  0  0  0  0  0  0  0  0  0
    3.0367   -6.0474    0.0000 C   0  0  0  0  0  0  0  0  0  0  0  0
    3.3705   -4.5850    0.0000 C   0  0  0  0  0  0  0  0  0  0  0  0
    3.0367   -3.1226    0.0000 C   0  0  0  0  0  0  0  0  0  0  0  0
    2.1015   -1.9499    0.0000 C   0  0  0  0  0  0  0  0  0  0  0  0
    3.0367   -0.7771    0.0000 C   0  0  0  0  0  0  0  0  0  0  0  0
    2.4887    0.6192    0.0000 O   0  0  0  0  0  0  0  0  0  0  0  0
    4.5199   -1.0007    0.0000 N   0  0  0  0  0  0  0  0  0  0  0  0
    5.4552    0.1721    0.0000 C   0  0  0  0  0  0  0  0  0  0  0  0
    6.9384   -0.0515    0.0000 N   0  0  0  0  0  0  0  0  0  0  0  0
    7.8736    1.1213    0.0000 N   0  0  0  0  0  0  0  0  0  0  0  0
    7.3256    2.5176    0.0000 N   0  0  0  0  0  0  0  0  0  0  0  0
    5.8424    2.7411    0.0000 N   0  0  0  0  0  0  0  0  0  0  0  0
    4.9072    1.5684    0.0000 N   0  0  0  0  0  0  0  0  0  0  0  0
    0.7500   -1.2990    0.0000 C   0  0  0  0  0  0  0  0  0  0  0  0
    1.5000    0.0000    0.0000 C   0  0  0  0  0  0  0  0  0  0  0  0
    0.7500    1.2990    0.0000 C   0  0  0  0  0  0  0  0  0  0  0  0
   -0.7500    1.2990    0.0000 C   0  0  0  0  0  0  0  0  0  0  0  0
   -1.5000    0.0000    0.0000 C   0  0  0  0  0  0  0  0  0  0  0  0
   -0.7500   -1.2990    0.0000 C   0  0  0  0  0  0  0  0  0  0  0  0
   -2.1015   -1.9499    0.0000 C   0  0  0  0  0  0  0  0  0  0  0  0
   -2.6495   -0.5536    0.0000 C   0  0  0  0  0  0  0  0  0  0  0  0
   -4.1327   -0.3300    0.0000 C   0  0  0  0  0  0  0  0  0  0  0  0
   -5.0679   -1.5027    0.0000 C   0  0  0  0  0  0  0  0  0  0  0  0
   -4.5199   -2.8990    0.0000 C   0  0  0  0  0  0  0  0  0  0  0  0
   -3.0367   -3.1226    0.0000 C   0  0  0  0  0  0  0  0  0  0  0  0
   -3.3705   -4.5850    0.0000 C   0  0  0  0  0  0  0  0  0  0  0  0
   -4.8038   -4.1429    0.0000 C   0  0  0  0  0  0  0  0  0  0  0  0
   -5.9034   -5.1631    0.0000 C   0  0  0  0  0  0  0  0  0  0  0  0
   -5.5696   -6.6255    0.0000 C   0  0  0  0  0  0  0  0  0  0  0  0
   -4.1363   -7.0677    0.0000 C   0  0  0  0  0  0  0  0  0  0  0  0
   -3.0367   -6.0474    0.0000 C   0  0  0  0  0  0  0  0  0  0  0  0
   -2.1015   -7.2201    0.0000 C   0  0  0  0  0  0  0  0  0  0  0  0
   -3.3408   -8.0651    0.0000 C   0  0  0  0  0  0  0  0  0  0  0  0
   -3.2287   -9.5609    0.0000 C   0  0  0  0  0  0  0  0  0  0  0  0
   -1.8773  -10.2118    0.0000 C   0  0  0  0  0  0  0  0  0  0  0  0
   -0.6379   -9.3668    0.0000 C   0  0  0  0  0  0  0  0  0  0  0  0
   -0.7500   -7.8710    0.0000 C   0  0  0  0  0  0  0  0  0  0  0  0
    0.7500   -7.8710    0.0000 C   0  0  0  0  0  0  0  0  0  0  0  0
    0.6379   -9.3668    0.0000 C   0  0  0  0  0  0  0  0  0  0  0  0
    1.8773  -10.2118    0.0000 C   0  0  0  0  0  0  0  0  0  0  0  0
    3.2287   -9.5609    0.0000 C   0  0  0  0  0  0  0  0  0  0  0  0
    3.3408   -8.0651    0.0000 C   0  0  0  0  0  0  0  0  0  0  0  0
    2.1015   -7.2201    0.0000 C   0  0  0  0  0  0  0  0  0  0  0  0
  1  2  1  0
  2  3  1  0
  3  4  1  0
  4  5  1  0
  5  6  1  0
  6  7  2  0
  6  8  1  0
  8  9  1  0
  9 10  2  0
 10 11  1  0
 11 12  2  0
 12 13  1  0
 13 14  2  0
  5 15  1  0
 15 16  2  0
 16 17  1  0
 17 18  2  0
 18 19  1  0
 19 20  2  0
 20 21  1  0
 21 22  2  0
 22 23  1  0
 23 24  2  0
 24 25  1  0
 25 26  2  0
 26 27  1  0
 27 28  2  0
 28 29  1  0
 29 30  2  0
 30 31  1  0
 31 32  2  0
 32 33  1  0
 33 34  2  0
 34 35  1  0
 35 36  2  0
 36 37  1  0
 37 38  2  0
 38 39  1  0
 39 40  2  0
 40 41  1  0
 41 42  2  0
 42 43  1  0
 43 44  2  0
 44  2  1  0
 14  9  1  0
 20 15  1  0
 26 21  1  0
 32 27  1  0
 38 33  1  0
 44 39  1  0
M  END
>  <Title>  (448) 
idAAPLgen7

$$$$

     RDKit          2D

  7  7  0  0  0  0  0  0  0  0999 V2000
    3.5260   -1.2990    0.0000 O   0  0  0  0  0  0  0  0  0  0  0  0
    2.7760    0.0000    0.0000 O   0  0  0  0  0  0  0  0  0  0  0  0
    1.2760    0.0000    0.0000 C   0  0  0  0  0  0  0  0  0  0  0  0
    0.3943    1.2135    0.0000 C   0  0  0  0  0  0  0  0  0  0  0  0
   -1.0323    0.7500    0.0000 C   0  0  0  0  0  0  0  0  0  0  0  0
   -1.0323   -0.7500    0.0000 C   0  0  0  0  0  0  0  0  0  0  0  0
    0.3943   -1.2135    0.0000 C   0  0  0  0  0  0  0  0  0  0  0  0
  1  2  1  0
  2  3  1  0
  3  4  1  0
  4  5  1  0
  5  6  2  0
  6  7  1  0
  7  3  1  0
M  END
>  <Title>  (449) 
idAAPMgen7

$$$$

     RDKit          2D

 72 83  0  0  0  0  0  0  0  0999 V2000
    6.5139   -6.7631    0.0000 C   0  0  0  0  0  0  0  0  0  0  0  0
    5.0181   -6.6510    0.0000 C   0  0  0  0  0  0  0  0  0  0  0  0
    4.9060   -5.1552    0.0000 C   0  0  0  0  0  0  0  0  0  0  0  0
    4.3580   -3.7589    0.0000 C   0  0  0  0  0  0  0  0  0  0  0  0
    3.4227   -2.5862    0.0000 C   0  0  0  0  0  0  0  0  0  0  0  0
    4.8561   -2.1440    0.0000 C   0  0  0  0  0  0  0  0  0  0  0  0
    5.8763   -3.2436    0.0000 O   0  0  0  0  0  0  0  0  0  0  0  0
    5.4041   -0.7477    0.0000 N   0  0  0  0  0  0  0  0  0  0  0  0
    4.6541    0.5513    0.0000 C   0  0  0  0  0  0  0  0  0  0  0  0
    5.3251    1.8929    0.0000 N   0  0  0  0  0  0  0  0  0  0  0  0
    4.2565    2.9456    0.0000 N   0  0  0  0  0  0  0  0  0  0  0  0
    2.9251    2.2546    0.0000 N   0  0  0  0  0  0  0  0  0  0  0  0
    3.1708    0.7749    0.0000 N   0  0  0  0  0  0  0  0  0  0  0  0
    2.7229   -0.5011    0.0000 N   0  0  0  0  0  0  0  0  0  0  0  0
    0.6750    0.3026    0.0000 C   0  0  0  0  0  0  0  0  0  0  0  0
    0.4514    1.7859    0.0000 C   0  0  0  0  0  0  0  0  0  0  0  0
   -0.9449    2.3339    0.0000 C   0  0  0  0  0  0  0  0  0  0  0  0
   -1.1685    3.8172    0.0000 C   0  0  0  0  0  0  0  0  0  0  0  0
   -2.5648    4.3652    0.0000 C   0  0  0  0  0  0  0  0  0  0  0  0
   -2.7884    5.8484    0.0000 C   0  0  0  0  0  0  0  0  0  0  0  0
   -4.1847    6.3964    0.0000 C   0  0  0  0  0  0  0  0  0  0  0  0
   -5.3574    5.4612    0.0000 C   0  0  0  0  0  0  0  0  0  0  0  0
   -5.1339    3.9779    0.0000 C   0  0  0  0  0  0  0  0  0  0  0  0
   -3.7375    3.4299    0.0000 C   0  0  0  0  0  0  0  0  0  0  0  0
    2.1834   -1.7412    0.0000 C   0  0  0  0  0  0  0  0  0  0  0  0
    0.7500   -1.2990    0.0000 C   0  0  0  0  0  0  0  0  0  0  0  0
    1.5000    0.0000    0.0000 C   0  0  0  0  0  0  0  0  0  0  0  0
    0.7500    1.2990    0.0000 C   0  0  0  0  0  0  0  0  0  0  0  0
   -0.7500    1.2990    0.0000 C   0  0  0  0  0  0  0  0  0  0  0  0
   -1.5000    0.0000    0.0000 C   0  0  0  0  0  0  0  0  0  0  0  0
   -0.7500   -1.2990    0.0000 C   0  0  0  0  0  0  0  0  0  0  0  0
   -2.1834   -1.7412    0.0000 C   0  0  0  0  0  0  0  0  0  0  0  0
   -2.2955   -0.2454    0.0000 C   0  0  0  0  0  0  0  0  0  0  0  0
   -3.6469    0.4055    0.0000 C   0  0  0  0  0  0  0  0  0  0  0  0
   -4.8863   -0.4395    0.0000 C   0  0  0  0  0  0  0  0  0  0  0  0
   -4.7742   -1.9353    0.0000 C   0  0  0  0  0  0  0  0  0  0  0  0
   -3.4227   -2.5862    0.0000 C   0  0  0  0  0  0  0  0  0  0  0  0
   -4.3580   -3.7589    0.0000 C   0  0  0  0  0  0  0  0  0  0  0  0
   -5.2932   -2.5862    0.0000 C   0  0  0  0  0  0  0  0  0  0  0  0
   -6.7764   -2.8097    0.0000 C   0  0  0  0  0  0  0  0  0  0  0  0
   -7.3244   -4.2060    0.0000 C   0  0  0  0  0  0  0  0  0  0  0  0
   -6.3892   -5.3788    0.0000 C   0  0  0  0  0  0  0  0  0  0  0  0
   -4.9060   -5.1552    0.0000 C   0  0  0  0  0  0  0  0  0  0  0  0
   -5.0181   -6.6510    0.0000 C   0  0  0  0  0  0  0  0  0  0  0  0
   -6.4514   -6.2089    0.0000 C   0  0  0  0  0  0  0  0  0  0  0  0
   -7.5510   -7.2291    0.0000 C   0  0  0  0  0  0  0  0  0  0  0  0
   -7.2172   -8.6915    0.0000 C   0  0  0  0  0  0  0  0  0  0  0  0
   -5.7839   -9.1337    0.0000 C   0  0  0  0  0  0  0  0  0  0  0  0
   -4.6843   -8.1134    0.0000 C   0  0  0  0  0  0  0  0  0  0  0  0
   -3.9343   -9.4124    0.0000 C   0  0  0  0  0  0  0  0  0  0  0  0
   -5.3676   -9.8546    0.0000 C   0  0  0  0  0  0  0  0  0  0  0  0
   -5.7014  -11.3170    0.0000 C   0  0  0  0  0  0  0  0  0  0  0  0
   -4.6018  -12.3372    0.0000 C   0  0  0  0  0  0  0  0  0  0  0  0
   -3.1685  -11.8951    0.0000 C   0  0  0  0  0  0  0  0  0  0  0  0
   -2.8347  -10.4327    0.0000 C   0  0  0  0  0  0  0  0  0  0  0  0
   -1.4832  -11.0835    0.0000 N   0  0  0  0  0  0  0  0  0  0  0  0
   -2.1542  -12.4251    0.0000 C   0  0  0  0  0  0  0  0  0  0  0  0
   -1.0857  -13.4778    0.0000 C   0  0  0  0  0  0  0  0  0  0  0  0
    0.2457  -12.7868    0.0000 C   0  0  0  0  0  0  0  0  0  0  0  0
   -0.0000  -11.3071    0.0000 C   0  0  0  0  0  0  0  0  0  0  0  0
    1.4832  -11.0835    0.0000 C   0  0  0  0  0  0  0  0  0  0  0  0
    1.3712  -12.5793    0.0000 C   0  0  0  0  0  0  0  0  0  0  0  0
    2.6105  -13.4243    0.0000 C   0  0  0  0  0  0  0  0  0  0  0  0
    3.9620  -12.7735    0.0000 C   0  0  0  0  0  0  0  0  0  0  0  0
    4.0741  -11.2777    0.0000 C   0  0  0  0  0  0  0  0  0  0  0  0
    2.8347  -10.4327    0.0000 C   0  0  0  0  0  0  0  0  0  0  0  0
    3.9343   -9.4124    0.0000 C   0  0  0  0  0  0  0  0  0  0  0  0
    4.6843  -10.7115    0.0000 C   0  0  0  0  0  0  0  0  0  0  0  0
    6.1843  -10.7115    0.0000 C   0  0  0  0  0  0  0  0  0  0  0  0
    6.9343   -9.4124    0.0000 C   0  0  0  0  0  0  0  0  0  0  0  0
    6.1843   -8.1134    0.0000 C   0  0  0  0  0  0  0  0  0  0  0  0
    4.6843   -8.1134    0.0000 C   0  0  0  0  0  0  0  0  0  0  0  0
  1  2  1  0
  2  3  1  0
  3  4  1  0
  4  5  1  0
  5  6  1  0
  6  7  2  0
  6  8  1  0
  8  9  1  0
  9 10  2  0
 10 11  1  0
 11 12  2  0
 12 13  1  0
 13 14  1  0
 14 15  1  0
 15 16  1  0
 16 17  1  0
 17 18  1  0
 18 19  1  0
 19 20  2  0
 20 21  1  0
 21 22  2  0
 22 23  1  0
 23 24  2  0
 14 25  1  0
 25 26  1  0
 26 27  2  0
 27 28  1  0
 28 29  2  0
 29 30  1  0
 30 31  2  0
 31 32  1  0
 32 33  2  0
 33 34  1  0
 34 35  2  0
 35 36  1  0
 36 37  2  0
 37 38  1  0
 38 39  2  0
 39 40  1  0
 40 41  2  0
 41 42  1  0
 42 43  2  0
 43 44  1  0
 44 45  2  0
 45 46  1  0
 46 47  2  0
 47 48  1  0
 48 49  2  0
 49 50  1  0
 50 51  2  0
 51 52  1  0
 52 53  2  0
 53 54  1  0
 54 55  2  0
 55 56  1  0
 56 57  1  0
 57 58  1  0
 58 59  1  0
 59 60  2  0
 60 61  1  0
 61 62  2  0
 62 63  1  0
 63 64  2  0
 64 65  1  0
 65 66  2  0
 66 67  1  0
 67 68  2  0
 68 69  1  0
 69 70  2  0
 70 71  1  0
 71 72  2  0
 72  2  1  0
 25  5  1  0
 31 26  1  0
 37 32  1  0
 43 38  1  0
 49 44  1  0
 55 50  1  0
 60 56  1  0
 66 61  1  0
 72 67  1  0
 13  9  1  0
 24 19  1  0
M  END
>  <Title>  (450) 
idAAPNgen7

$$$$

     RDKit          2D

 27 30  0  0  0  0  0  0  0  0999 V2000
   -4.0731    1.2411    0.0000 C   0  0  0  0  0  0  0  0  0  0  0  0
   -2.6909    1.8237    0.0000 C   0  0  0  0  0  0  0  0  0  0  0  0
   -2.7657    3.3219    0.0000 C   0  0  0  0  0  0  0  0  0  0  0  0
   -1.8600    4.5176    0.0000 C   0  0  0  0  0  0  0  0  0  0  0  0
   -0.3976    4.8513    0.0000 C   0  0  0  0  0  0  0  0  0  0  0  0
   -0.2111    6.3397    0.0000 C   0  0  0  0  0  0  0  0  0  0  0  0
    1.1712    6.9224    0.0000 O   0  0  0  0  0  0  0  0  0  0  0  0
   -1.4068    7.2454    0.0000 N   0  0  0  0  0  0  0  0  0  0  0  0
   -1.2202    8.7338    0.0000 C   0  0  0  0  0  0  0  0  0  0  0  0
    0.1620    9.3164    0.0000 N   0  0  0  0  0  0  0  0  0  0  0  0
    0.3485   10.8048    0.0000 N   0  0  0  0  0  0  0  0  0  0  0  0
   -0.8472   11.7105    0.0000 N   0  0  0  0  0  0  0  0  0  0  0  0
   -2.2294   11.1278    0.0000 N   0  0  0  0  0  0  0  0  0  0  0  0
   -2.4159    9.6395    0.0000 N   0  0  0  0  0  0  0  0  0  0  0  0
    0.9372    4.1670    0.0000 C   0  0  0  0  0  0  0  0  0  0  0  0
    1.8429    5.3627    0.0000 C   0  0  0  0  0  0  0  0  0  0  0  0
    3.3313    5.1762    0.0000 C   0  0  0  0  0  0  0  0  0  0  0  0
    3.9139    3.7940    0.0000 C   0  0  0  0  0  0  0  0  0  0  0  0
    3.0082    2.5983    0.0000 C   0  0  0  0  0  0  0  0  0  0  0  0
    1.5199    2.7848    0.0000 C   0  0  0  0  0  0  0  0  0  0  0  0
    1.0777    1.3515    0.0000 C   0  0  0  0  0  0  0  0  0  0  0  0
    1.7286    0.0000    0.0000 C   0  0  0  0  0  0  0  0  0  0  0  0
    1.0777   -1.3515    0.0000 C   0  0  0  0  0  0  0  0  0  0  0  0
   -0.3846   -1.6852    0.0000 C   0  0  0  0  0  0  0  0  0  0  0  0
   -1.5574   -0.7500    0.0000 C   0  0  0  0  0  0  0  0  0  0  0  0
   -1.5574    0.7500    0.0000 C   0  0  0  0  0  0  0  0  0  0  0  0
   -0.3846    1.6852    0.0000 C   0  0  0  0  0  0  0  0  0  0  0  0
  1  2  1  0
  2  3  1  0
  3  4  1  0
  4  5  1  0
  5  6  1  0
  6  7  2  0
  6  8  1  0
  8  9  1  0
  9 10  2  0
 10 11  1  0
 11 12  2  0
 12 13  1  0
 13 14  2  0
  5 15  1  0
 15 16  2  0
 16 17  1  0
 17 18  2  0
 18 19  1  0
 19 20  2  0
 20 21  1  0
 21 22  2  0
 22 23  1  0
 23 24  2  0
 24 25  1  0
 25 26  2  0
 26 27  1  0
 26  2  1  0
 14  9  1  0
 20 15  1  0
 27 21  1  0
M  END
>  <Title>  (451) 
idAAPOgen7

$$$$

     RDKit          2D

 39 43  0  0  0  0  0  0  0  0999 V2000
   -4.9965   -7.7991    0.0000 C   0  0  0  0  0  0  0  0  0  0  0  0
   -3.6537   -7.1305    0.0000 C   0  0  0  0  0  0  0  0  0  0  0  0
   -2.7498   -8.3276    0.0000 C   0  0  0  0  0  0  0  0  0  0  0  0
   -1.4745   -9.1172    0.0000 C   0  0  0  0  0  0  0  0  0  0  0  0
   -0.0000   -9.3928    0.0000 C   0  0  0  0  0  0  0  0  0  0  0  0
    1.4745   -9.1172    0.0000 C   0  0  0  0  0  0  0  0  0  0  0  0
    2.7498   -8.3276    0.0000 C   0  0  0  0  0  0  0  0  0  0  0  0
    3.6537   -7.1305    0.0000 C   0  0  0  0  0  0  0  0  0  0  0  0
    4.0642   -5.6878    0.0000 C   0  0  0  0  0  0  0  0  0  0  0  0
    3.9258   -4.1942    0.0000 C   0  0  0  0  0  0  0  0  0  0  0  0
    3.2572   -2.8514    0.0000 C   0  0  0  0  0  0  0  0  0  0  0  0
    2.1487   -1.8409    0.0000 C   0  0  0  0  0  0  0  0  0  0  0  0
    2.9384   -0.5656    0.0000 C   0  0  0  0  0  0  0  0  0  0  0  0
    2.2287    0.7559    0.0000 O   0  0  0  0  0  0  0  0  0  0  0  0
    4.4376   -0.6118    0.0000 N   0  0  0  0  0  0  0  0  0  0  0  0
    5.2273    0.6636    0.0000 C   0  0  0  0  0  0  0  0  0  0  0  0
    6.7266    0.6174    0.0000 N   0  0  0  0  0  0  0  0  0  0  0  0
    7.5162    1.8927    0.0000 N   0  0  0  0  0  0  0  0  0  0  0  0
    6.8066    3.2142    0.0000 N   0  0  0  0  0  0  0  0  0  0  0  0
    5.3073    3.2604    0.0000 N   0  0  0  0  0  0  0  0  0  0  0  0
    4.5177    1.9851    0.0000 N   0  0  0  0  0  0  0  0  0  0  0  0
    0.7500   -1.2990    0.0000 C   0  0  0  0  0  0  0  0  0  0  0  0
    1.5000    0.0000    0.0000 C   0  0  0  0  0  0  0  0  0  0  0  0
    0.7500    1.2990    0.0000 C   0  0  0  0  0  0  0  0  0  0  0  0
   -0.7500    1.2990    0.0000 C   0  0  0  0  0  0  0  0  0  0  0  0
   -1.5000    0.0000    0.0000 C   0  0  0  0  0  0  0  0  0  0  0  0
   -0.7500   -1.2990    0.0000 C   0  0  0  0  0  0  0  0  0  0  0  0
   -2.1487   -1.8409    0.0000 C   0  0  0  0  0  0  0  0  0  0  0  0
   -2.4696   -0.3756    0.0000 C   0  0  0  0  0  0  0  0  0  0  0  0
   -3.8990    0.0791    0.0000 C   0  0  0  0  0  0  0  0  0  0  0  0
   -5.0075   -0.9314    0.0000 C   0  0  0  0  0  0  0  0  0  0  0  0
   -4.6866   -2.3967    0.0000 C   0  0  0  0  0  0  0  0  0  0  0  0
   -3.2572   -2.8514    0.0000 C   0  0  0  0  0  0  0  0  0  0  0  0
   -3.9258   -4.1942    0.0000 C   0  0  0  0  0  0  0  0  0  0  0  0
   -5.1501   -3.3275    0.0000 C   0  0  0  0  0  0  0  0  0  0  0  0
   -6.5128   -3.9545    0.0000 C   0  0  0  0  0  0  0  0  0  0  0  0
   -6.6512   -5.4481    0.0000 C   0  0  0  0  0  0  0  0  0  0  0  0
   -5.4269   -6.3147    0.0000 C   0  0  0  0  0  0  0  0  0  0  0  0
   -4.0642   -5.6878    0.0000 C   0  0  0  0  0  0  0  0  0  0  0  0
  1  2  1  0
  2  3  1  0
  3  4  2  0
  4  5  1  0
  5  6  1  0
  6  7  2  0
  7  8  1  0
  8  9  2  0
  9 10  1  0
 10 11  2  0
 11 12  1  0
 12 13  1  0
 13 14  2  0
 13 15  1  0
 15 16  1  0
 16 17  2  0
 17 18  1  0
 18 19  2  0
 19 20  1  0
 20 21  2  0
 12 22  1  0
 22 23  2  0
 23 24  1  0
 24 25  2  0
 25 26  1  0
 26 27  2  0
 27 28  1  0
 28 29  2  0
 29 30  1  0
 30 31  2  0
 31 32  1  0
 32 33  2  0
 33 34  1  0
 34 35  2  0
 35 36  1  0
 36 37  2  0
 37 38  1  0
 38 39  2  0
 39  2  1  0
 21 16  1  0
 27 22  1  0
 33 28  1  0
 39 34  1  0
M  END
>  <Title>  (452) 
idAAPPgen7

$$$$

     RDKit          2D

116116  0  0  0  0  0  0  0  0999 V2000
   28.7189    0.0000    0.0000 C   0  0  0  0  0  0  0  0  0  0  0  0
   27.2189    0.0000    0.0000 C   0  0  0  0  0  0  0  0  0  0  0  0
   27.1776   -1.4994    0.0000 C   0  0  0  0  0  0  0  0  0  0  0  0
   27.0537   -2.9943    0.0000 C   0  0  0  0  0  0  0  0  0  0  0  0
   26.8477   -4.4801    0.0000 C   0  0  0  0  0  0  0  0  0  0  0  0
   26.5601   -5.9523    0.0000 C   0  0  0  0  0  0  0  0  0  0  0  0
   26.1919   -7.4064    0.0000 C   0  0  0  0  0  0  0  0  0  0  0  0
   25.7441   -8.8380    0.0000 C   0  0  0  0  0  0  0  0  0  0  0  0
   25.2182  -10.2427    0.0000 C   0  0  0  0  0  0  0  0  0  0  0  0
   24.6156  -11.6164    0.0000 C   0  0  0  0  0  0  0  0  0  0  0  0
   25.9722  -12.2566    0.0000 C   0  0  0  0  0  0  0  0  0  0  0  0
   23.9383  -12.9548    0.0000 C   0  0  0  0  0  0  0  0  0  0  0  0
   23.1883  -14.2538    0.0000 C   0  0  0  0  0  0  0  0  0  0  0  0
   22.3679  -15.5096    0.0000 C   0  0  0  0  0  0  0  0  0  0  0  0
   21.4796  -16.7182    0.0000 C   0  0  0  0  0  0  0  0  0  0  0  0
   20.5260  -17.8761    0.0000 C   0  0  0  0  0  0  0  0  0  0  0  0
   19.5101  -18.9797    0.0000 C   0  0  0  0  0  0  0  0  0  0  0  0
   18.4349  -20.0256    0.0000 C   0  0  0  0  0  0  0  0  0  0  0  0
   17.3037  -21.0108    0.0000 C   0  0  0  0  0  0  0  0  0  0  0  0
   16.1200  -21.9321    0.0000 C   0  0  0  0  0  0  0  0  0  0  0  0
   14.8873  -22.7868    0.0000 C   0  0  0  0  0  0  0  0  0  0  0  0
   13.6095  -23.5723    0.0000 C   0  0  0  0  0  0  0  0  0  0  0  0
   12.2903  -24.2862    0.0000 C   0  0  0  0  0  0  0  0  0  0  0  0
   10.9337  -24.9264    0.0000 C   0  0  0  0  0  0  0  0  0  0  0  0
    9.5440  -25.4908    0.0000 C   0  0  0  0  0  0  0  0  0  0  0  0
    8.1253  -25.9779    0.0000 C   0  0  0  0  0  0  0  0  0  0  0  0
    6.6819  -26.3860    0.0000 C   0  0  0  0  0  0  0  0  0  0  0  0
    5.2182  -26.7141    0.0000 C   0  0  0  0  0  0  0  0  0  0  0  0
    3.7386  -26.9610    0.0000 C   0  0  0  0  0  0  0  0  0  0  0  0
    2.2477  -27.1260    0.0000 C   0  0  0  0  0  0  0  0  0  0  0  0
    0.7500  -27.2086    0.0000 C   0  0  0  0  0  0  0  0  0  0  0  0
   -0.7500  -27.2086    0.0000 C   0  0  0  0  0  0  0  0  0  0  0  0
   -2.2477  -27.1260    0.0000 C   0  0  0  0  0  0  0  0  0  0  0  0
   -3.7386  -26.9610    0.0000 C   0  0  0  0  0  0  0  0  0  0  0  0
   -5.2182  -26.7141    0.0000 C   0  0  0  0  0  0  0  0  0  0  0  0
   -6.6819  -26.3860    0.0000 C   0  0  0  0  0  0  0  0  0  0  0  0
   -8.1253  -25.9779    0.0000 C   0  0  0  0  0  0  0  0  0  0  0  0
   -9.5440  -25.4908    0.0000 C   0  0  0  0  0  0  0  0  0  0  0  0
  -10.9337  -24.9264    0.0000 C   0  0  0  0  0  0  0  0  0  0  0  0
  -12.2903  -24.2862    0.0000 C   0  0  0  0  0  0  0  0  0  0  0  0
  -13.6095  -23.5723    0.0000 C   0  0  0  0  0  0  0  0  0  0  0  0
  -14.8873  -22.7868    0.0000 C   0  0  0  0  0  0  0  0  0  0  0  0
  -16.1200  -21.9321    0.0000 C   0  0  0  0  0  0  0  0  0  0  0  0
  -17.3037  -21.0108    0.0000 C   0  0  0  0  0  0  0  0  0  0  0  0
  -18.4349  -20.0256    0.0000 C   0  0  0  0  0  0  0  0  0  0  0  0
  -19.5101  -18.9797    0.0000 C   0  0  0  0  0  0  0  0  0  0  0  0
  -20.5260  -17.8761    0.0000 C   0  0  0  0  0  0  0  0  0  0  0  0
  -21.4796  -16.7182    0.0000 C   0  0  0  0  0  0  0  0  0  0  0  0
  -22.3679  -15.5096    0.0000 C   0  0  0  0  0  0  0  0  0  0  0  0
  -23.1883  -14.2538    0.0000 C   0  0  0  0  0  0  0  0  0  0  0  0
  -23.9383  -12.9548    0.0000 C   0  0  0  0  0  0  0  0  0  0  0  0
  -24.6156  -11.6164    0.0000 C   0  0  0  0  0  0  0  0  0  0  0  0
  -25.2182  -10.2427    0.0000 C   0  0  0  0  0  0  0  0  0  0  0  0
  -25.7441   -8.8380    0.0000 C   0  0  0  0  0  0  0  0  0  0  0  0
  -26.1919   -7.4064    0.0000 C   0  0  0  0  0  0  0  0  0  0  0  0
  -26.5601   -5.9523    0.0000 C   0  0  0  0  0  0  0  0  0  0  0  0
  -26.8477   -4.4801    0.0000 C   0  0  0  0  0  0  0  0  0  0  0  0
  -27.0537   -2.9943    0.0000 C   0  0  0  0  0  0  0  0  0  0  0  0
  -27.1776   -1.4994    0.0000 C   0  0  0  0  0  0  0  0  0  0  0  0
  -27.2189    0.0000    0.0000 C   0  0  0  0  0  0  0  0  0  0  0  0
  -27.1776    1.4994    0.0000 C   0  0  0  0  0  0  0  0  0  0  0  0
  -27.0537    2.9943    0.0000 C   0  0  0  0  0  0  0  0  0  0  0  0
  -26.8477    4.4801    0.0000 C   0  0  0  0  0  0  0  0  0  0  0  0
  -26.5601    5.9523    0.0000 C   0  0  0  0  0  0  0  0  0  0  0  0
  -26.1919    7.4064    0.0000 C   0  0  0  0  0  0  0  0  0  0  0  0
  -25.7441    8.8380    0.0000 C   0  0  0  0  0  0  0  0  0  0  0  0
  -25.2182   10.2427    0.0000 C   0  0  0  0  0  0  0  0  0  0  0  0
  -24.6156   11.6164    0.0000 C   0  0  0  0  0  0  0  0  0  0  0  0
  -23.9383   12.9548    0.0000 C   0  0  0  0  0  0  0  0  0  0  0  0
  -23.1883   14.2538    0.0000 C   0  0  0  0  0  0  0  0  0  0  0  0
  -22.3679   15.5096    0.0000 C   0  0  0  0  0  0  0  0  0  0  0  0
  -21.4796   16.7182    0.0000 C   0  0  0  0  0  0  0  0  0  0  0  0
  -20.5260   17.8761    0.0000 C   0  0  0  0  0  0  0  0  0  0  0  0
  -19.5101   18.9797    0.0000 C   0  0  0  0  0  0  0  0  0  0  0  0
  -18.4349   20.0256    0.0000 C   0  0  0  0  0  0  0  0  0  0  0  0
  -17.3037   21.0108    0.0000 C   0  0  0  0  0  0  0  0  0  0  0  0
  -16.1200   21.9321    0.0000 C   0  0  0  0  0  0  0  0  0  0  0  0
  -14.8873   22.7868    0.0000 C   0  0  0  0  0  0  0  0  0  0  0  0
  -13.6095   23.5723    0.0000 C   0  0  0  0  0  0  0  0  0  0  0  0
  -12.2903   24.2862    0.0000 C   0  0  0  0  0  0  0  0  0  0  0  0
  -10.9337   24.9264    0.0000 C   0  0  0  0  0  0  0  0  0  0  0  0
   -9.5440   25.4908    0.0000 C   0  0  0  0  0  0  0  0  0  0  0  0
   -8.1253   25.9779    0.0000 C   0  0  0  0  0  0  0  0  0  0  0  0
   -6.6819   26.3860    0.0000 C   0  0  0  0  0  0  0  0  0  0  0  0
   -5.2182   26.7141    0.0000 C   0  0  0  0  0  0  0  0  0  0  0  0
   -3.7386   26.9610    0.0000 C   0  0  0  0  0  0  0  0  0  0  0  0
   -2.2477   27.1260    0.0000 C   0  0  0  0  0  0  0  0  0  0  0  0
   -0.7500   27.2086    0.0000 C   0  0  0  0  0  0  0  0  0  0  0  0
    0.7500   27.2086    0.0000 C   0  0  0  0  0  0  0  0  0  0  0  0
    2.2477   27.1260    0.0000 C   0  0  0  0  0  0  0  0  0  0  0  0
    3.7386   26.9610    0.0000 C   0  0  0  0  0  0  0  0  0  0  0  0
    5.2182   26.7141    0.0000 C   0  0  0  0  0  0  0  0  0  0  0  0
    6.6819   26.3860    0.0000 C   0  0  0  0  0  0  0  0  0  0  0  0
    8.1253   25.9779    0.0000 C   0  0  0  0  0  0  0  0  0  0  0  0
    9.5440   25.4908    0.0000 C   0  0  0  0  0  0  0  0  0  0  0  0
   10.9337   24.9264    0.0000 C   0  0  0  0  0  0  0  0  0  0  0  0
   12.2903   24.2862    0.0000 C   0  0  0  0  0  0  0  0  0  0  0  0
   13.6095   23.5723    0.0000 C   0  0  0  0  0  0  0  0  0  0  0  0
   14.8873   22.7868    0.0000 C   0  0  0  0  0  0  0  0  0  0  0  0
   16.1200   21.9321    0.0000 C   0  0  0  0  0  0  0  0  0  0  0  0
   17.3037   21.0108    0.0000 C   0  0  0  0  0  0  0  0  0  0  0  0
   18.4349   20.0256    0.0000 C   0  0  0  0  0  0  0  0  0  0  0  0
   19.5101   18.9797    0.0000 C   0  0  0  0  0  0  0  0  0  0  0  0
   20.5260   17.8761    0.0000 C   0  0  0  0  0  0  0  0  0  0  0  0
   21.4796   16.7182    0.0000 C   0  0  0  0  0  0  0  0  0  0  0  0
   22.3679   15.5096    0.0000 C   0  0  0  0  0  0  0  0  0  0  0  0
   23.1883   14.2538    0.0000 C   0  0  0  0  0  0  0  0  0  0  0  0
   23.9383   12.9548    0.0000 C   0  0  0  0  0  0  0  0  0  0  0  0
   24.6156   11.6164    0.0000 C   0  0  0  0  0  0  0  0  0  0  0  0
   25.2182   10.2427    0.0000 C   0  0  0  0  0  0  0  0  0  0  0  0
   25.7441    8.8380    0.0000 C   0  0  0  0  0  0  0  0  0  0  0  0
   26.1919    7.4064    0.0000 C   0  0  0  0  0  0  0  0  0  0  0  0
   26.5601    5.9523    0.0000 C   0  0  0  0  0  0  0  0  0  0  0  0
   26.8477    4.4801    0.0000 C   0  0  0  0  0  0  0  0  0  0  0  0
   27.0537    2.9943    0.0000 C   0  0  0  0  0  0  0  0  0  0  0  0
   27.1776    1.4994    0.0000 C   0  0  0  0  0  0  0  0  0  0  0  0
  1  2  1  0
  2  3  1  0
  3  4  2  0
  4  5  1  0
  5  6  2  0
  6  7  1  0
  7  8  2  0
  8  9  1  0
  9 10  1  0
 10 11  1  0
 10 12  1  0
 12 13  1  0
 13 14  1  0
 14 15  1  0
 15 16  1  0
 16 17  1  0
 17 18  1  0
 18 19  1  0
 19 20  1  0
 20 21  1  0
 21 22  1  0
 22 23  1  0
 23 24  1  0
 24 25  1  0
 25 26  1  0
 26 27  1  0
 27 28  1  0
 28 29  1  0
 29 30  1  0
 30 31  1  0
 31 32  1  0
 32 33  1  0
 33 34  1  0
 34 35  1  0
 35 36  1  0
 36 37  1  0
 37 38  1  0
 38 39  1  0
 39 40  1  0
 40 41  1  0
 41 42  1  0
 42 43  1  0
 43 44  1  0
 44 45  1  0
 45 46  1  0
 46 47  1  0
 47 48  1  0
 48 49  1  0
 49 50  1  0
 50 51  1  0
 51 52  1  0
 52 53  1  0
 53 54  1  0
 54 55  1  0
 55 56  1  0
 56 57  1  0
 57 58  1  0
 58 59  1  0
 59 60  1  0
 60 61  1  0
 61 62  1  0
 62 63  1  0
 63 64  1  0
 64 65  1  0
 65 66  1  0
 66 67  1  0
 67 68  1  0
 68 69  1  0
 69 70  1  0
 70 71  1  0
 71 72  1  0
 72 73  1  0
 73 74  1  0
 74 75  1  0
 75 76  1  0
 76 77  1  0
 77 78  1  0
 78 79  1  0
 79 80  1  0
 80 81  1  0
 81 82  1  0
 82 83  1  0
 83 84  1  0
 84 85  1  0
 85 86  1  0
 86 87  1  0
 87 88  1  0
 88 89  1  0
 89 90  1  0
 90 91  1  0
 91 92  1  0
 92 93  1  0
 93 94  1  0
 94 95  1  0
 95 96  1  0
 96 97  1  0
 97 98  1  0
 98 99  1  0
 99100  1  0
100101  1  0
101102  1  0
102103  1  0
103104  1  0
104105  1  0
105106  1  0
106107  1  0
107108  1  0
108109  1  0
109110  1  0
110111  1  0
111112  1  0
112113  1  0
113114  2  0
114115  1  0
115116  1  0
116  2  1  0
M  END
>  <Title>  (453) 
idAAPQgen7

$$$$

     RDKit          2D

 20 20  0  0  0  0  0  0  0  0999 V2000
    5.3444   -2.5981    0.0000 O   0  0  0  0  0  0  0  0  0  0  0  0
    6.0944   -1.2990    0.0000 C   0  0  0  0  0  0  0  0  0  0  0  0
    7.5944   -1.2990    0.0000 O   0  0  0  0  0  0  0  0  0  0  0  0
    5.3444    0.0000    0.0000 O   0  0  0  0  0  0  0  0  0  0  0  0
    3.8444    0.0000    0.0000 C   0  0  0  0  0  0  0  0  0  0  0  0
    3.5517   -1.4712    0.0000 C   0  0  0  0  0  0  0  0  0  0  0  0
    2.7184   -2.7184    0.0000 C   0  0  0  0  0  0  0  0  0  0  0  0
    1.4712   -3.5517    0.0000 C   0  0  0  0  0  0  0  0  0  0  0  0
   -0.0000   -3.8444    0.0000 C   0  0  0  0  0  0  0  0  0  0  0  0
   -1.4712   -3.5517    0.0000 C   0  0  0  0  0  0  0  0  0  0  0  0
   -2.7184   -2.7184    0.0000 C   0  0  0  0  0  0  0  0  0  0  0  0
   -3.5517   -1.4712    0.0000 C   0  0  0  0  0  0  0  0  0  0  0  0
   -3.8444    0.0000    0.0000 C   0  0  0  0  0  0  0  0  0  0  0  0
   -3.5517    1.4712    0.0000 C   0  0  0  0  0  0  0  0  0  0  0  0
   -2.7184    2.7184    0.0000 C   0  0  0  0  0  0  0  0  0  0  0  0
   -1.4712    3.5517    0.0000 C   0  0  0  0  0  0  0  0  0  0  0  0
    0.0000    3.8444    0.0000 C   0  0  0  0  0  0  0  0  0  0  0  0
    1.4712    3.5517    0.0000 C   0  0  0  0  0  0  0  0  0  0  0  0
    2.7184    2.7184    0.0000 C   0  0  0  0  0  0  0  0  0  0  0  0
    3.5517    1.4712    0.0000 C   0  0  0  0  0  0  0  0  0  0  0  0
  1  2  2  0
  2  3  1  0
  2  4  1  0
  4  5  1  0
  5  6  1  0
  6  7  1  0
  7  8  1  0
  8  9  1  0
  9 10  1  0
 10 11  1  0
 11 12  1  0
 12 13  1  0
 13 14  1  0
 14 15  1  0
 15 16  1  0
 16 17  1  0
 17 18  1  0
 18 19  1  0
 19 20  1  0
 20  5  1  0
M  END
>  <Title>  (454) 
idAAPRgen7

$$$$

     RDKit          2D

 11 11  0  0  0  0  0  0  0  0999 V2000
    3.6929    0.0000    0.0000 C   0  0  0  0  0  0  0  0  0  0  0  0
    2.1929    0.0000    0.0000 C   0  0  0  0  0  0  0  0  0  0  0  0
    1.6798    1.4095    0.0000 C   0  0  0  0  0  0  0  0  0  0  0  0
    0.3808    2.1595    0.0000 C   0  0  0  0  0  0  0  0  0  0  0  0
   -1.0964    1.8991    0.0000 C   0  0  0  0  0  0  0  0  0  0  0  0
   -2.0606    0.7500    0.0000 C   0  0  0  0  0  0  0  0  0  0  0  0
   -2.0606   -0.7500    0.0000 C   0  0  0  0  0  0  0  0  0  0  0  0
   -1.0964   -1.8991    0.0000 C   0  0  0  0  0  0  0  0  0  0  0  0
    0.3808   -2.1595    0.0000 C   0  0  0  0  0  0  0  0  0  0  0  0
    0.6413   -3.6368    0.0000 C   0  0  0  0  0  0  0  0  0  0  0  0
    1.6798   -1.4095    0.0000 C   0  0  0  0  0  0  0  0  0  0  0  0
  1  2  1  0
  2  3  2  0
  3  4  1  0
  4  5  1  0
  5  6  1  0
  6  7  1  0
  7  8  1  0
  8  9  1  0
  9 10  1  0
  9 11  1  0
 11  2  1  0
M  END
>  <Title>  (455) 
idAAPSgen7

$$$$

     RDKit          2D

 13 14  0  0  0  0  0  0  0  0999 V2000
    3.3287    1.8373    0.0000 O   0  0  0  0  0  0  0  0  0  0  0  0
    2.3250    2.9520    0.0000 C   0  0  0  0  0  0  0  0  0  0  0  0
    0.8578    2.6401    0.0000 N   0  0  0  0  0  0  0  0  0  0  0  0
    0.3943    1.2135    0.0000 C   0  0  0  0  0  0  0  0  0  0  0  0
    1.2760    0.0000    0.0000 C   0  0  0  0  0  0  0  0  0  0  0  0
    0.3943   -1.2135    0.0000 C   0  0  0  0  0  0  0  0  0  0  0  0
   -1.0323   -0.7500    0.0000 C   0  0  0  0  0  0  0  0  0  0  0  0
   -1.0323    0.7500    0.0000 C   0  0  0  0  0  0  0  0  0  0  0  0
    2.7886    4.3786    0.0000 C   0  0  0  0  0  0  0  0  0  0  0  0
    1.9069    5.5921    0.0000 C   0  0  0  0  0  0  0  0  0  0  0  0
    2.7886    6.8056    0.0000 C   0  0  0  0  0  0  0  0  0  0  0  0
    4.2152    6.3421    0.0000 C   0  0  0  0  0  0  0  0  0  0  0  0
    4.2152    4.8421    0.0000 C   0  0  0  0  0  0  0  0  0  0  0  0
  1  2  2  0
  2  3  1  0
  3  4  1  0
  4  5  2  0
  5  6  1  0
  6  7  2  0
  7  8  1  0
  2  9  1  0
  9 10  2  0
 10 11  1  0
 11 12  2  0
 12 13  1  0
  8  4  1  0
 13  9  1  0
M  END
>  <Title>  (456) 
idAAPTgen7

$$$$

     RDKit          2D

120120  0  0  0  0  0  0  0  0999 V2000
   29.9125    0.0000    0.0000 C   0  0  0  0  0  0  0  0  0  0  0  0
   28.4125    0.0000    0.0000 C   0  0  0  0  0  0  0  0  0  0  0  0
   28.3729    1.4995    0.0000 C   0  0  0  0  0  0  0  0  0  0  0  0
   28.2542    2.9948    0.0000 C   0  0  0  0  0  0  0  0  0  0  0  0
   28.0568    4.4817    0.0000 C   0  0  0  0  0  0  0  0  0  0  0  0
   27.7811    5.9562    0.0000 C   0  0  0  0  0  0  0  0  0  0  0  0
   27.4281    7.4140    0.0000 C   0  0  0  0  0  0  0  0  0  0  0  0
   26.9986    8.8512    0.0000 C   0  0  0  0  0  0  0  0  0  0  0  0
   26.4938   10.2638    0.0000 C   0  0  0  0  0  0  0  0  0  0  0  0
   25.9152   11.6477    0.0000 C   0  0  0  0  0  0  0  0  0  0  0  0
   25.2644   12.9991    0.0000 C   0  0  0  0  0  0  0  0  0  0  0  0
   24.5432   14.3144    0.0000 C   0  0  0  0  0  0  0  0  0  0  0  0
   23.7535   15.5897    0.0000 C   0  0  0  0  0  0  0  0  0  0  0  0
   22.8977   16.8216    0.0000 C   0  0  0  0  0  0  0  0  0  0  0  0
   21.9780   18.0065    0.0000 C   0  0  0  0  0  0  0  0  0  0  0  0
   20.9971   19.1413    0.0000 C   0  0  0  0  0  0  0  0  0  0  0  0
   19.9576   20.2228    0.0000 C   0  0  0  0  0  0  0  0  0  0  0  0
   18.8625   21.2479    0.0000 C   0  0  0  0  0  0  0  0  0  0  0  0
   17.7149   22.2138    0.0000 C   0  0  0  0  0  0  0  0  0  0  0  0
   16.5179   23.1177    0.0000 C   0  0  0  0  0  0  0  0  0  0  0  0
   15.2748   23.9572    0.0000 C   0  0  0  0  0  0  0  0  0  0  0  0
   13.9892   24.7300    0.0000 C   0  0  0  0  0  0  0  0  0  0  0  0
   12.6645   25.4338    0.0000 C   0  0  0  0  0  0  0  0  0  0  0  0
   11.3046   26.0667    0.0000 C   0  0  0  0  0  0  0  0  0  0  0  0
    9.9132   26.6270    0.0000 C   0  0  0  0  0  0  0  0  0  0  0  0
    8.4941   27.1131    0.0000 C   0  0  0  0  0  0  0  0  0  0  0  0
    7.0514   27.5236    0.0000 C   0  0  0  0  0  0  0  0  0  0  0  0
    5.5890   27.8573    0.0000 C   0  0  0  0  0  0  0  0  0  0  0  0
    4.1110   28.1135    0.0000 C   0  0  0  0  0  0  0  0  0  0  0  0
    2.6216   28.2913    0.0000 C   0  0  0  0  0  0  0  0  0  0  0  0
    1.1248   28.3902    0.0000 C   0  0  0  0  0  0  0  0  0  0  0  0
   -0.3750   28.4100    0.0000 C   0  0  0  0  0  0  0  0  0  0  0  0
   -1.8739   28.3506    0.0000 C   0  0  0  0  0  0  0  0  0  0  0  0
   -3.3675   28.2122    0.0000 C   0  0  0  0  0  0  0  0  0  0  0  0
   -4.8517   27.9952    0.0000 C   0  0  0  0  0  0  0  0  0  0  0  0
   -6.3224   27.7001    0.0000 C   0  0  0  0  0  0  0  0  0  0  0  0
   -7.7754   27.3278    0.0000 C   0  0  0  0  0  0  0  0  0  0  0  0
   -9.2068   26.8794    0.0000 C   0  0  0  0  0  0  0  0  0  0  0  0
  -10.6126   26.3560    0.0000 C   0  0  0  0  0  0  0  0  0  0  0  0
  -11.9887   25.7592    0.0000 C   0  0  0  0  0  0  0  0  0  0  0  0
  -13.3315   25.0906    0.0000 C   0  0  0  0  0  0  0  0  0  0  0  0
  -14.6371   24.3521    0.0000 C   0  0  0  0  0  0  0  0  0  0  0  0
  -15.9019   23.5457    0.0000 C   0  0  0  0  0  0  0  0  0  0  0  0
  -17.1223   22.6736    0.0000 C   0  0  0  0  0  0  0  0  0  0  0  0
  -18.2951   21.7384    0.0000 C   0  0  0  0  0  0  0  0  0  0  0  0
  -19.4168   20.7426    0.0000 C   0  0  0  0  0  0  0  0  0  0  0  0
  -20.4845   19.6889    0.0000 C   0  0  0  0  0  0  0  0  0  0  0  0
  -21.4950   18.5804    0.0000 C   0  0  0  0  0  0  0  0  0  0  0  0
  -22.4456   17.4201    0.0000 C   0  0  0  0  0  0  0  0  0  0  0  0
  -23.3337   16.2113    0.0000 C   0  0  0  0  0  0  0  0  0  0  0  0
  -24.1568   14.9572    0.0000 C   0  0  0  0  0  0  0  0  0  0  0  0
  -24.9125   13.6615    0.0000 C   0  0  0  0  0  0  0  0  0  0  0  0
  -25.5987   12.3277    0.0000 C   0  0  0  0  0  0  0  0  0  0  0  0
  -26.2137   10.9595    0.0000 C   0  0  0  0  0  0  0  0  0  0  0  0
  -26.7555    9.5608    0.0000 C   0  0  0  0  0  0  0  0  0  0  0  0
  -27.2228    8.1355    0.0000 C   0  0  0  0  0  0  0  0  0  0  0  0
  -27.6142    6.6874    0.0000 C   0  0  0  0  0  0  0  0  0  0  0  0
  -27.9287    5.2208    0.0000 C   0  0  0  0  0  0  0  0  0  0  0  0
  -28.1653    3.7396    0.0000 C   0  0  0  0  0  0  0  0  0  0  0  0
  -28.3234    2.2479    0.0000 C   0  0  0  0  0  0  0  0  0  0  0  0
  -28.4026    0.7500    0.0000 C   0  0  0  0  0  0  0  0  0  0  0  0
  -28.4026   -0.7500    0.0000 C   0  0  0  0  0  0  0  0  0  0  0  0
  -28.3234   -2.2479    0.0000 C   0  0  0  0  0  0  0  0  0  0  0  0
  -28.1653   -3.7396    0.0000 C   0  0  0  0  0  0  0  0  0  0  0  0
  -27.9287   -5.2208    0.0000 C   0  0  0  0  0  0  0  0  0  0  0  0
  -27.6142   -6.6874    0.0000 C   0  0  0  0  0  0  0  0  0  0  0  0
  -27.2228   -8.1355    0.0000 C   0  0  0  0  0  0  0  0  0  0  0  0
  -26.7555   -9.5608    0.0000 C   0  0  0  0  0  0  0  0  0  0  0  0
  -26.2137  -10.9595    0.0000 C   0  0  0  0  0  0  0  0  0  0  0  0
  -25.5987  -12.3277    0.0000 C   0  0  0  0  0  0  0  0  0  0  0  0
  -24.9125  -13.6615    0.0000 C   0  0  0  0  0  0  0  0  0  0  0  0
  -24.1568  -14.9572    0.0000 C   0  0  0  0  0  0  0  0  0  0  0  0
  -23.3337  -16.2113    0.0000 C   0  0  0  0  0  0  0  0  0  0  0  0
  -22.4456  -17.4201    0.0000 C   0  0  0  0  0  0  0  0  0  0  0  0
  -21.4950  -18.5804    0.0000 C   0  0  0  0  0  0  0  0  0  0  0  0
  -20.4845  -19.6889    0.0000 C   0  0  0  0  0  0  0  0  0  0  0  0
  -19.4168  -20.7426    0.0000 C   0  0  0  0  0  0  0  0  0  0  0  0
  -18.2951  -21.7384    0.0000 C   0  0  0  0  0  0  0  0  0  0  0  0
  -17.1223  -22.6736    0.0000 C   0  0  0  0  0  0  0  0  0  0  0  0
  -15.9019  -23.5457    0.0000 C   0  0  0  0  0  0  0  0  0  0  0  0
  -14.6371  -24.3521    0.0000 C   0  0  0  0  0  0  0  0  0  0  0  0
  -13.3315  -25.0906    0.0000 C   0  0  0  0  0  0  0  0  0  0  0  0
  -11.9887  -25.7592    0.0000 C   0  0  0  0  0  0  0  0  0  0  0  0
  -10.6126  -26.3560    0.0000 C   0  0  0  0  0  0  0  0  0  0  0  0
   -9.2068  -26.8794    0.0000 C   0  0  0  0  0  0  0  0  0  0  0  0
   -7.7754  -27.3278    0.0000 C   0  0  0  0  0  0  0  0  0  0  0  0
   -6.3224  -27.7001    0.0000 C   0  0  0  0  0  0  0  0  0  0  0  0
   -4.8517  -27.9952    0.0000 C   0  0  0  0  0  0  0  0  0  0  0  0
   -3.3675  -28.2122    0.0000 C   0  0  0  0  0  0  0  0  0  0  0  0
   -1.8739  -28.3506    0.0000 C   0  0  0  0  0  0  0  0  0  0  0  0
   -0.3750  -28.4100    0.0000 C   0  0  0  0  0  0  0  0  0  0  0  0
    1.1248  -28.3902    0.0000 C   0  0  0  0  0  0  0  0  0  0  0  0
    2.6216  -28.2913    0.0000 C   0  0  0  0  0  0  0  0  0  0  0  0
    4.1110  -28.1135    0.0000 C   0  0  0  0  0  0  0  0  0  0  0  0
    5.5890  -27.8573    0.0000 C   0  0  0  0  0  0  0  0  0  0  0  0
    7.0514  -27.5236    0.0000 C   0  0  0  0  0  0  0  0  0  0  0  0
    8.4941  -27.1131    0.0000 C   0  0  0  0  0  0  0  0  0  0  0  0
    9.9132  -26.6270    0.0000 C   0  0  0  0  0  0  0  0  0  0  0  0
   11.3046  -26.0667    0.0000 C   0  0  0  0  0  0  0  0  0  0  0  0
   12.6645  -25.4338    0.0000 C   0  0  0  0  0  0  0  0  0  0  0  0
   13.9892  -24.7300    0.0000 C   0  0  0  0  0  0  0  0  0  0  0  0
   15.2748  -23.9572    0.0000 C   0  0  0  0  0  0  0  0  0  0  0  0
   16.5179  -23.1177    0.0000 C   0  0  0  0  0  0  0  0  0  0  0  0
   17.7149  -22.2138    0.0000 C   0  0  0  0  0  0  0  0  0  0  0  0
   18.8625  -21.2479    0.0000 C   0  0  0  0  0  0  0  0  0  0  0  0
   19.9576  -20.2228    0.0000 C   0  0  0  0  0  0  0  0  0  0  0  0
   20.9971  -19.1413    0.0000 C   0  0  0  0  0  0  0  0  0  0  0  0
   21.9780  -18.0065    0.0000 C   0  0  0  0  0  0  0  0  0  0  0  0
   22.8977  -16.8216    0.0000 C   0  0  0  0  0  0  0  0  0  0  0  0
   23.7535  -15.5897    0.0000 C   0  0  0  0  0  0  0  0  0  0  0  0
   24.5432  -14.3144    0.0000 C   0  0  0  0  0  0  0  0  0  0  0  0
   25.2644  -12.9991    0.0000 C   0  0  0  0  0  0  0  0  0  0  0  0
   25.9152  -11.6477    0.0000 C   0  0  0  0  0  0  0  0  0  0  0  0
   26.4938  -10.2638    0.0000 C   0  0  0  0  0  0  0  0  0  0  0  0
   26.9986   -8.8512    0.0000 C   0  0  0  0  0  0  0  0  0  0  0  0
   27.4281   -7.4140    0.0000 C   0  0  0  0  0  0  0  0  0  0  0  0
   27.7811   -5.9562    0.0000 C   0  0  0  0  0  0  0  0  0  0  0  0
   28.0568   -4.4817    0.0000 C   0  0  0  0  0  0  0  0  0  0  0  0
   28.2542   -2.9948    0.0000 C   0  0  0  0  0  0  0  0  0  0  0  0
   28.3729   -1.4995    0.0000 C   0  0  0  0  0  0  0  0  0  0  0  0
  1  2  1  0
  2  3  1  0
  3  4  1  0
  4  5  1  0
  5  6  1  0
  6  7  1  0
  7  8  1  0
  8  9  1  0
  9 10  1  0
 10 11  1  0
 11 12  1  0
 12 13  1  0
 13 14  1  0
 14 15  1  0
 15 16  1  0
 16 17  1  0
 17 18  1  0
 18 19  1  0
 19 20  1  0
 20 21  1  0
 21 22  1  0
 22 23  1  0
 23 24  1  0
 24 25  1  0
 25 26  1  0
 26 27  1  0
 27 28  1  0
 28 29  1  0
 29 30  1  0
 30 31  1  0
 31 32  1  0
 32 33  1  0
 33 34  1  0
 34 35  1  0
 35 36  1  0
 36 37  1  0
 37 38  1  0
 38 39  1  0
 39 40  1  0
 40 41  1  0
 41 42  1  0
 42 43  1  0
 43 44  1  0
 44 45  1  0
 45 46  1  0
 46 47  1  0
 47 48  1  0
 48 49  1  0
 49 50  1  0
 50 51  1  0
 51 52  1  0
 52 53  1  0
 53 54  1  0
 54 55  1  0
 55 56  1  0
 56 57  1  0
 57 58  1  0
 58 59  1  0
 59 60  1  0
 60 61  1  0
 61 62  1  0
 62 63  1  0
 63 64  1  0
 64 65  1  0
 65 66  1  0
 66 67  1  0
 67 68  1  0
 68 69  1  0
 69 70  1  0
 70 71  1  0
 71 72  1  0
 72 73  1  0
 73 74  1  0
 74 75  1  0
 75 76  1  0
 76 77  1  0
 77 78  1  0
 78 79  1  0
 79 80  1  0
 80 81  1  0
 81 82  1  0
 82 83  1  0
 83 84  1  0
 84 85  1  0
 85 86  1  0
 86 87  1  0
 87 88  1  0
 88 89  1  0
 89 90  1  0
 90 91  1  0
 91 92  1  0
 92 93  1  0
 93 94  1  0
 94 95  1  0
 95 96  1  0
 96 97  1  0
 97 98  1  0
 98 99  1  0
 99100  1  0
100101  1  0
101102  1  0
102103  1  0
103104  1  0
104105  1  0
105106  1  0
106107  1  0
107108  1  0
108109  1  0
109110  1  0
110111  1  0
111112  1  0
112113  1  0
113114  1  0
114115  1  0
115116  1  0
116117  1  0
117118  1  0
118119  1  0
119120  1  0
120  2  1  0
M  END
>  <Title>  (457) 
idAAPUgen7

$$$$

     RDKit          2D

 16 16  0  0  0  0  0  0  0  0999 V2000
    4.6339    0.0000    0.0000 C   0  0  0  0  0  0  0  0  0  0  0  0
    3.1339    0.0000    0.0000 C   0  0  0  0  0  0  0  0  0  0  0  0
    2.7750    1.4564    0.0000 C   0  0  0  0  0  0  0  0  0  0  0  0
    1.7803    2.5792    0.0000 C   0  0  0  0  0  0  0  0  0  0  0  0
    0.3778    3.1111    0.0000 C   0  0  0  0  0  0  0  0  0  0  0  0
   -1.1113    2.9303    0.0000 C   0  0  0  0  0  0  0  0  0  0  0  0
   -1.6432    4.3328    0.0000 C   0  0  0  0  0  0  0  0  0  0  0  0
   -2.1751    5.7353    0.0000 N   0  0  0  0  0  0  0  0  0  0  0  0
   -2.3458    2.0782    0.0000 C   0  0  0  0  0  0  0  0  0  0  0  0
   -3.0429    0.7500    0.0000 C   0  0  0  0  0  0  0  0  0  0  0  0
   -3.0429   -0.7500    0.0000 C   0  0  0  0  0  0  0  0  0  0  0  0
   -2.3458   -2.0782    0.0000 C   0  0  0  0  0  0  0  0  0  0  0  0
   -1.1113   -2.9303    0.0000 C   0  0  0  0  0  0  0  0  0  0  0  0
    0.3778   -3.1111    0.0000 C   0  0  0  0  0  0  0  0  0  0  0  0
    1.7803   -2.5792    0.0000 C   0  0  0  0  0  0  0  0  0  0  0  0
    2.7750   -1.4564    0.0000 C   0  0  0  0  0  0  0  0  0  0  0  0
  1  2  1  0
  2  3  2  0
  3  4  1  0
  4  5  1  0
  5  6  1  0
  6  7  1  0
  7  8  3  0
  6  9  2  0
  9 10  1  0
 10 11  2  0
 11 12  1  0
 12 13  2  0
 13 14  1  0
 14 15  2  0
 15 16  1  0
 16  2  1  0
M  END
>  <Title>  (458) 
idAAPVgen7

$$$$

     RDKit          2D

 29 32  0  0  0  0  0  0  0  0999 V2000
   -3.1771   -5.9156    0.0000 C   0  0  0  0  0  0  0  0  0  0  0  0
   -1.9635   -5.0339    0.0000 C   0  0  0  0  0  0  0  0  0  0  0  0
   -0.7500   -5.9156    0.0000 C   0  0  0  0  0  0  0  0  0  0  0  0
    0.7500   -5.9156    0.0000 C   0  0  0  0  0  0  0  0  0  0  0  0
    1.9635   -5.0339    0.0000 C   0  0  0  0  0  0  0  0  0  0  0  0
    3.1771   -5.9156    0.0000 C   0  0  0  0  0  0  0  0  0  0  0  0
    3.0203   -7.4073    0.0000 N   0  0  0  0  0  0  0  0  0  0  0  0
    4.5474   -5.3055    0.0000 O   0  0  0  0  0  0  0  0  0  0  0  0
    2.4271   -3.6073    0.0000 C   0  0  0  0  0  0  0  0  0  0  0  0
    3.8943   -3.9192    0.0000 C   0  0  0  0  0  0  0  0  0  0  0  0
    4.8980   -2.8045    0.0000 C   0  0  0  0  0  0  0  0  0  0  0  0
    4.4344   -1.3779    0.0000 C   0  0  0  0  0  0  0  0  0  0  0  0
    5.4381   -0.2631    0.0000 C   0  0  0  0  0  0  0  0  0  0  0  0
    6.9054   -0.5750    0.0000 N   0  0  0  0  0  0  0  0  0  0  0  0
    4.9746    1.1634    0.0000 O   0  0  0  0  0  0  0  0  0  0  0  0
    2.9672   -1.0660    0.0000 C   0  0  0  0  0  0  0  0  0  0  0  0
    1.9635   -2.1807    0.0000 C   0  0  0  0  0  0  0  0  0  0  0  0
    0.7500   -1.2990    0.0000 C   0  0  0  0  0  0  0  0  0  0  0  0
    1.5000    0.0000    0.0000 C   0  0  0  0  0  0  0  0  0  0  0  0
    0.7500    1.2990    0.0000 C   0  0  0  0  0  0  0  0  0  0  0  0
   -0.7500    1.2990    0.0000 C   0  0  0  0  0  0  0  0  0  0  0  0
   -1.5000    0.0000    0.0000 C   0  0  0  0  0  0  0  0  0  0  0  0
   -0.7500   -1.2990    0.0000 C   0  0  0  0  0  0  0  0  0  0  0  0
   -1.9635   -2.1807    0.0000 C   0  0  0  0  0  0  0  0  0  0  0  0
   -2.9672   -1.0660    0.0000 C   0  0  0  0  0  0  0  0  0  0  0  0
   -4.4344   -1.3779    0.0000 C   0  0  0  0  0  0  0  0  0  0  0  0
   -4.8980   -2.8045    0.0000 C   0  0  0  0  0  0  0  0  0  0  0  0
   -3.8943   -3.9192    0.0000 C   0  0  0  0  0  0  0  0  0  0  0  0
   -2.4271   -3.6073    0.0000 C   0  0  0  0  0  0  0  0  0  0  0  0
  1  2  1  0
  2  3  1  0
  3  4  1  0
  4  5  1  0
  5  6  1  0
  6  7  1  0
  6  8  2  0
  5  9  1  0
  9 10  2  0
 10 11  1  0
 11 12  2  0
 12 13  1  0
 13 14  1  0
 13 15  2  0
 12 16  1  0
 16 17  2  0
 17 18  1  0
 18 19  2  0
 19 20  1  0
 20 21  2  0
 21 22  1  0
 22 23  2  0
 23 24  1  0
 24 25  2  0
 25 26  1  0
 26 27  2  0
 27 28  1  0
 28 29  2  0
 29  2  1  0
 17  9  1  0
 23 18  1  0
 29 24  1  0
M  END
>  <Title>  (459) 
idAAPWgen7

$$$$

     RDKit          2D

 38 43  0  0  0  0  0  0  0  0999 V2000
    3.1097   -7.2078    0.0000 C   0  0  0  0  0  0  0  0  0  0  0  0
    2.0490   -6.1471    0.0000 C   0  0  0  0  0  0  0  0  0  0  0  0
    2.7990   -4.8481    0.0000 C   0  0  0  0  0  0  0  0  0  0  0  0
    2.7990   -3.3481    0.0000 C   0  0  0  0  0  0  0  0  0  0  0  0
    2.0490   -2.0490    0.0000 C   0  0  0  0  0  0  0  0  0  0  0  0
    3.1097   -0.9884    0.0000 C   0  0  0  0  0  0  0  0  0  0  0  0
    2.7215    0.4605    0.0000 O   0  0  0  0  0  0  0  0  0  0  0  0
    4.5586   -1.3766    0.0000 N   0  0  0  0  0  0  0  0  0  0  0  0
    5.6192   -0.3159    0.0000 C   0  0  0  0  0  0  0  0  0  0  0  0
    7.0681   -0.7042    0.0000 N   0  0  0  0  0  0  0  0  0  0  0  0
    8.1288    0.3565    0.0000 N   0  0  0  0  0  0  0  0  0  0  0  0
    7.7406    1.8054    0.0000 N   0  0  0  0  0  0  0  0  0  0  0  0
    6.2917    2.1936    0.0000 N   0  0  0  0  0  0  0  0  0  0  0  0
    5.2310    1.1329    0.0000 N   0  0  0  0  0  0  0  0  0  0  0  0
    0.7500   -1.2990    0.0000 C   0  0  0  0  0  0  0  0  0  0  0  0
    1.5000    0.0000    0.0000 C   0  0  0  0  0  0  0  0  0  0  0  0
    0.7500    1.2990    0.0000 C   0  0  0  0  0  0  0  0  0  0  0  0
   -0.7500    1.2990    0.0000 C   0  0  0  0  0  0  0  0  0  0  0  0
   -1.5000    0.0000    0.0000 C   0  0  0  0  0  0  0  0  0  0  0  0
   -0.7500   -1.2990    0.0000 C   0  0  0  0  0  0  0  0  0  0  0  0
   -2.0490   -2.0490    0.0000 C   0  0  0  0  0  0  0  0  0  0  0  0
   -2.7990   -0.7500    0.0000 C   0  0  0  0  0  0  0  0  0  0  0  0
   -4.2990   -0.7500    0.0000 C   0  0  0  0  0  0  0  0  0  0  0  0
   -5.0490   -2.0490    0.0000 C   0  0  0  0  0  0  0  0  0  0  0  0
   -4.2990   -3.3481    0.0000 C   0  0  0  0  0  0  0  0  0  0  0  0
   -2.7990   -3.3481    0.0000 C   0  0  0  0  0  0  0  0  0  0  0  0
   -2.7990   -4.8481    0.0000 C   0  0  0  0  0  0  0  0  0  0  0  0
   -4.2990   -4.8481    0.0000 C   0  0  0  0  0  0  0  0  0  0  0  0
   -5.0490   -6.1471    0.0000 C   0  0  0  0  0  0  0  0  0  0  0  0
   -4.2990   -7.4462    0.0000 C   0  0  0  0  0  0  0  0  0  0  0  0
   -2.7990   -7.4462    0.0000 C   0  0  0  0  0  0  0  0  0  0  0  0
   -2.0490   -6.1471    0.0000 C   0  0  0  0  0  0  0  0  0  0  0  0
   -0.7500   -6.8971    0.0000 C   0  0  0  0  0  0  0  0  0  0  0  0
   -1.5000   -8.1962    0.0000 C   0  0  0  0  0  0  0  0  0  0  0  0
   -0.7500   -9.4952    0.0000 C   0  0  0  0  0  0  0  0  0  0  0  0
    0.7500   -9.4952    0.0000 C   0  0  0  0  0  0  0  0  0  0  0  0
    1.5000   -8.1962    0.0000 C   0  0  0  0  0  0  0  0  0  0  0  0
    0.7500   -6.8971    0.0000 C   0  0  0  0  0  0  0  0  0  0  0  0
  1  2  1  0
  2  3  1  0
  3  4  2  0
  4  5  1  0
  5  6  1  0
  6  7  2  0
  6  8  1  0
  8  9  1  0
  9 10  2  0
 10 11  1  0
 11 12  2  0
 12 13  1  0
 13 14  2  0
  5 15  1  0
 15 16  2  0
 16 17  1  0
 17 18  2  0
 18 19  1  0
 19 20  2  0
 20 21  1  0
 21 22  2  0
 22 23  1  0
 23 24  2  0
 24 25  1  0
 25 26  2  0
 26 27  1  0
 27 28  2  0
 28 29  1  0
 29 30  2  0
 30 31  1  0
 31 32  2  0
 32 33  1  0
 33 34  2  0
 34 35  1  0
 35 36  2  0
 36 37  1  0
 37 38  2  0
 38  2  1  0
 14  9  1  0
 20 15  1  0
 26 21  1  0
 32 27  1  0
 38 33  1  0
M  END
>  <Title>  (460) 
idAAPXgen7

$$$$

     RDKit          2D

 46 46  0  0  0  0  0  0  0  0999 V2000
   12.2517    0.0000    0.0000 C   0  0  0  0  0  0  0  0  0  0  0  0
   10.7517    0.0000    0.0000 C   0  0  0  0  0  0  0  0  0  0  0  0
   10.6471    1.4963    0.0000 C   0  0  0  0  0  0  0  0  0  0  0  0
   10.3352    2.9636    0.0000 C   0  0  0  0  0  0  0  0  0  0  0  0
    9.8222    4.3731    0.0000 C   0  0  0  0  0  0  0  0  0  0  0  0
    9.1180    5.6975    0.0000 C   0  0  0  0  0  0  0  0  0  0  0  0
    8.2363    6.9111    0.0000 C   0  0  0  0  0  0  0  0  0  0  0  0
    7.1943    7.9901    0.0000 C   0  0  0  0  0  0  0  0  0  0  0  0
    6.0123    8.9136    0.0000 C   0  0  0  0  0  0  0  0  0  0  0  0
    4.7132    9.6636    0.0000 C   0  0  0  0  0  0  0  0  0  0  0  0
    3.3225   10.2255    0.0000 C   0  0  0  0  0  0  0  0  0  0  0  0
    1.8670   10.5883    0.0000 C   0  0  0  0  0  0  0  0  0  0  0  0
    0.3752   10.7451    0.0000 C   0  0  0  0  0  0  0  0  0  0  0  0
   -1.1239   10.6928    0.0000 C   0  0  0  0  0  0  0  0  0  0  0  0
   -2.6011   10.4323    0.0000 C   0  0  0  0  0  0  0  0  0  0  0  0
   -4.0277    9.9688    0.0000 C   0  0  0  0  0  0  0  0  0  0  0  0
   -5.3758    9.3112    0.0000 C   0  0  0  0  0  0  0  0  0  0  0  0
   -6.6194    8.4724    0.0000 C   0  0  0  0  0  0  0  0  0  0  0  0
   -7.7341    7.4688    0.0000 C   0  0  0  0  0  0  0  0  0  0  0  0
   -8.6983    6.3197    0.0000 C   0  0  0  0  0  0  0  0  0  0  0  0
   -9.4932    5.0476    0.0000 C   0  0  0  0  0  0  0  0  0  0  0  0
  -10.1033    3.6773    0.0000 C   0  0  0  0  0  0  0  0  0  0  0  0
  -10.5167    2.2354    0.0000 C   0  0  0  0  0  0  0  0  0  0  0  0
  -10.7255    0.7500    0.0000 C   0  0  0  0  0  0  0  0  0  0  0  0
  -10.7255   -0.7500    0.0000 C   0  0  0  0  0  0  0  0  0  0  0  0
  -10.5167   -2.2354    0.0000 C   0  0  0  0  0  0  0  0  0  0  0  0
  -10.1033   -3.6773    0.0000 C   0  0  0  0  0  0  0  0  0  0  0  0
   -9.4932   -5.0476    0.0000 C   0  0  0  0  0  0  0  0  0  0  0  0
   -8.6983   -6.3197    0.0000 C   0  0  0  0  0  0  0  0  0  0  0  0
   -7.7341   -7.4688    0.0000 C   0  0  0  0  0  0  0  0  0  0  0  0
   -6.6194   -8.4724    0.0000 C   0  0  0  0  0  0  0  0  0  0  0  0
   -5.3758   -9.3112    0.0000 C   0  0  0  0  0  0  0  0  0  0  0  0
   -4.0277   -9.9688    0.0000 C   0  0  0  0  0  0  0  0  0  0  0  0
   -2.6011  -10.4323    0.0000 C   0  0  0  0  0  0  0  0  0  0  0  0
   -1.1239  -10.6928    0.0000 C   0  0  0  0  0  0  0  0  0  0  0  0
    0.3752  -10.7451    0.0000 C   0  0  0  0  0  0  0  0  0  0  0  0
    1.8670  -10.5883    0.0000 C   0  0  0  0  0  0  0  0  0  0  0  0
    3.3225  -10.2255    0.0000 C   0  0  0  0  0  0  0  0  0  0  0  0
    4.7132   -9.6636    0.0000 C   0  0  0  0  0  0  0  0  0  0  0  0
    6.0123   -8.9136    0.0000 C   0  0  0  0  0  0  0  0  0  0  0  0
    7.1943   -7.9901    0.0000 C   0  0  0  0  0  0  0  0  0  0  0  0
    8.2363   -6.9111    0.0000 C   0  0  0  0  0  0  0  0  0  0  0  0
    9.1180   -5.6975    0.0000 C   0  0  0  0  0  0  0  0  0  0  0  0
    9.8222   -4.3731    0.0000 C   0  0  0  0  0  0  0  0  0  0  0  0
   10.3352   -2.9636    0.0000 C   0  0  0  0  0  0  0  0  0  0  0  0
   10.6471   -1.4963    0.0000 C   0  0  0  0  0  0  0  0  0  0  0  0
  1  2  1  0
  2  3  1  0
  3  4  1  0
  4  5  1  0
  5  6  1  0
  6  7  1  0
  7  8  1  0
  8  9  1  0
  9 10  1  0
 10 11  1  0
 11 12  1  0
 12 13  1  0
 13 14  1  0
 14 15  1  0
 15 16  1  0
 16 17  1  0
 17 18  1  0
 18 19  1  0
 19 20  1  0
 20 21  1  0
 21 22  1  0
 22 23  1  0
 23 24  1  0
 24 25  1  0
 25 26  1  0
 26 27  1  0
 27 28  1  0
 28 29  1  0
 29 30  1  0
 30 31  1  0
 31 32  1  0
 32 33  1  0
 33 34  1  0
 34 35  1  0
 35 36  1  0
 36 37  1  0
 37 38  1  0
 38 39  1  0
 39 40  1  0
 40 41  1  0
 41 42  1  0
 42 43  1  0
 43 44  1  0
 44 45  1  0
 45 46  1  0
 46  2  1  0
M  END
>  <Title>  (461) 
idAAPYgen7

$$$$

     RDKit          2D

 99102  0  0  0  0  0  0  0  0999 V2000
   -2.4238    0.0711    0.0000 C   0  0  0  0  0  0  0  0  0  0  0  0
   -2.2453   -1.4182    0.0000 C   0  0  0  0  0  0  0  0  0  0  0  0
   -3.7263   -1.6558    0.0000 C   0  0  0  0  0  0  0  0  0  0  0  0
   -5.1838   -2.0103    0.0000 C   0  0  0  0  0  0  0  0  0  0  0  0
   -6.6086   -2.4795    0.0000 C   0  0  0  0  0  0  0  0  0  0  0  0
   -7.9915   -3.0604    0.0000 C   0  0  0  0  0  0  0  0  0  0  0  0
   -9.3239   -3.7494    0.0000 C   0  0  0  0  0  0  0  0  0  0  0  0
  -10.5974   -4.5420    0.0000 C   0  0  0  0  0  0  0  0  0  0  0  0
  -11.8039   -5.4333    0.0000 C   0  0  0  0  0  0  0  0  0  0  0  0
  -12.9357   -6.4176    0.0000 C   0  0  0  0  0  0  0  0  0  0  0  0
  -13.9858   -7.4888    0.0000 C   0  0  0  0  0  0  0  0  0  0  0  0
  -14.9474   -8.6400    0.0000 C   0  0  0  0  0  0  0  0  0  0  0  0
  -15.8146   -9.8639    0.0000 C   0  0  0  0  0  0  0  0  0  0  0  0
  -16.5817  -11.1529    0.0000 C   0  0  0  0  0  0  0  0  0  0  0  0
  -17.2440  -12.4988    0.0000 C   0  0  0  0  0  0  0  0  0  0  0  0
  -17.7973  -13.8930    0.0000 C   0  0  0  0  0  0  0  0  0  0  0  0
  -18.2381  -15.3268    0.0000 C   0  0  0  0  0  0  0  0  0  0  0  0
  -18.5636  -16.7911    0.0000 C   0  0  0  0  0  0  0  0  0  0  0  0
  -18.7717  -18.2765    0.0000 C   0  0  0  0  0  0  0  0  0  0  0  0
  -18.8611  -19.7739    0.0000 C   0  0  0  0  0  0  0  0  0  0  0  0
  -18.8313  -21.2736    0.0000 C   0  0  0  0  0  0  0  0  0  0  0  0
  -18.6824  -22.7662    0.0000 C   0  0  0  0  0  0  0  0  0  0  0  0
  -18.4154  -24.2422    0.0000 C   0  0  0  0  0  0  0  0  0  0  0  0
  -18.0320  -25.6924    0.0000 C   0  0  0  0  0  0  0  0  0  0  0  0
  -17.5345  -27.1075    0.0000 C   0  0  0  0  0  0  0  0  0  0  0  0
  -16.9263  -28.4786    0.0000 C   0  0  0  0  0  0  0  0  0  0  0  0
  -16.2110  -29.7971    0.0000 C   0  0  0  0  0  0  0  0  0  0  0  0
  -15.3932  -31.0546    0.0000 C   0  0  0  0  0  0  0  0  0  0  0  0
  -14.4781  -32.2431    0.0000 C   0  0  0  0  0  0  0  0  0  0  0  0
  -13.4714  -33.3551    0.0000 C   0  0  0  0  0  0  0  0  0  0  0  0
  -12.3796  -34.3837    0.0000 C   0  0  0  0  0  0  0  0  0  0  0  0
  -11.2095  -35.3223    0.0000 C   0  0  0  0  0  0  0  0  0  0  0  0
   -9.9685  -36.1649    0.0000 C   0  0  0  0  0  0  0  0  0  0  0  0
   -8.6646  -36.9063    0.0000 C   0  0  0  0  0  0  0  0  0  0  0  0
   -7.3058  -37.5417    0.0000 C   0  0  0  0  0  0  0  0  0  0  0  0
   -5.9009  -38.0672    0.0000 C   0  0  0  0  0  0  0  0  0  0  0  0
   -4.4586  -38.4793    0.0000 C   0  0  0  0  0  0  0  0  0  0  0  0
   -2.9882  -38.7756    0.0000 C   0  0  0  0  0  0  0  0  0  0  0  0
   -1.4988  -38.9542    0.0000 C   0  0  0  0  0  0  0  0  0  0  0  0
   -0.0000  -39.0138    0.0000 C   0  0  0  0  0  0  0  0  0  0  0  0
    1.4988  -38.9542    0.0000 C   0  0  0  0  0  0  0  0  0  0  0  0
    2.9882  -38.7756    0.0000 C   0  0  0  0  0  0  0  0  0  0  0  0
    4.4586  -38.4793    0.0000 C   0  0  0  0  0  0  0  0  0  0  0  0
    5.9009  -38.0672    0.0000 C   0  0  0  0  0  0  0  0  0  0  0  0
    7.3058  -37.5417    0.0000 C   0  0  0  0  0  0  0  0  0  0  0  0
    8.6646  -36.9063    0.0000 C   0  0  0  0  0  0  0  0  0  0  0  0
    9.9685  -36.1649    0.0000 C   0  0  0  0  0  0  0  0  0  0  0  0
   11.2095  -35.3223    0.0000 C   0  0  0  0  0  0  0  0  0  0  0  0
   12.3796  -34.3837    0.0000 C   0  0  0  0  0  0  0  0  0  0  0  0
   13.4714  -33.3551    0.0000 C   0  0  0  0  0  0  0  0  0  0  0  0
   14.4781  -32.2431    0.0000 C   0  0  0  0  0  0  0  0  0  0  0  0
   15.3932  -31.0546    0.0000 C   0  0  0  0  0  0  0  0  0  0  0  0
   16.2110  -29.7971    0.0000 C   0  0  0  0  0  0  0  0  0  0  0  0
   16.9263  -28.4786    0.0000 C   0  0  0  0  0  0  0  0  0  0  0  0
   17.5345  -27.1075    0.0000 C   0  0  0  0  0  0  0  0  0  0  0  0
   18.0320  -25.6924    0.0000 C   0  0  0  0  0  0  0  0  0  0  0  0
   18.4154  -24.2422    0.0000 C   0  0  0  0  0  0  0  0  0  0  0  0
   18.6824  -22.7662    0.0000 C   0  0  0  0  0  0  0  0  0  0  0  0
   18.8313  -21.2736    0.0000 C   0  0  0  0  0  0  0  0  0  0  0  0
   18.8611  -19.7739    0.0000 C   0  0  0  0  0  0  0  0  0  0  0  0
   18.7717  -18.2765    0.0000 C   0  0  0  0  0  0  0  0  0  0  0  0
   18.5636  -16.7911    0.0000 C   0  0  0  0  0  0  0  0  0  0  0  0
   18.2381  -15.3268    0.0000 C   0  0  0  0  0  0  0  0  0  0  0  0
   17.7973  -13.8930    0.0000 C   0  0  0  0  0  0  0  0  0  0  0  0
   17.2440  -12.4988    0.0000 C   0  0  0  0  0  0  0  0  0  0  0  0
   16.5817  -11.1529    0.0000 C   0  0  0  0  0  0  0  0  0  0  0  0
   15.8146   -9.8639    0.0000 C   0  0  0  0  0  0  0  0  0  0  0  0
   14.9474   -8.6400    0.0000 C   0  0  0  0  0  0  0  0  0  0  0  0
   13.9858   -7.4888    0.0000 C   0  0  0  0  0  0  0  0  0  0  0  0
   12.9357   -6.4176    0.0000 C   0  0  0  0  0  0  0  0  0  0  0  0
   11.8039   -5.4333    0.0000 C   0  0  0  0  0  0  0  0  0  0  0  0
   10.5974   -4.5420    0.0000 C   0  0  0  0  0  0  0  0  0  0  0  0
    9.3239   -3.7494    0.0000 C   0  0  0  0  0  0  0  0  0  0  0  0
    7.9915   -3.0604    0.0000 C   0  0  0  0  0  0  0  0  0  0  0  0
    6.6086   -2.4795    0.0000 C   0  0  0  0  0  0  0  0  0  0  0  0
    5.1838   -2.0103    0.0000 C   0  0  0  0  0  0  0  0  0  0  0  0
    3.7263   -1.6558    0.0000 C   0  0  0  0  0  0  0  0  0  0  0  0
    2.2453   -1.4182    0.0000 C   0  0  0  0  0  0  0  0  0  0  0  0
    2.4238    0.0711    0.0000 C   0  0  0  0  0  0  0  0  0  0  0  0
    3.8029    0.6612    0.0000 C   0  0  0  0  0  0  0  0  0  0  0  0
    5.0034   -0.2381    0.0000 C   0  0  0  0  0  0  0  0  0  0  0  0
    6.3825    0.3520    0.0000 C   0  0  0  0  0  0  0  0  0  0  0  0
    6.5610    1.8413    0.0000 C   0  0  0  0  0  0  0  0  0  0  0  0
    5.3604    2.7406    0.0000 C   0  0  0  0  0  0  0  0  0  0  0  0
    3.9814    2.1505    0.0000 C   0  0  0  0  0  0  0  0  0  0  0  0
    2.7808    3.0498    0.0000 C   0  0  0  0  0  0  0  0  0  0  0  0
    2.9594    4.5391    0.0000 C   0  0  0  0  0  0  0  0  0  0  0  0
    1.7588    5.4384    0.0000 C   0  0  0  0  0  0  0  0  0  0  0  0
    0.3798    4.8484    0.0000 C   0  0  0  0  0  0  0  0  0  0  0  0
   -0.8208    5.7476    0.0000 C   0  0  0  0  0  0  0  0  0  0  0  0
   -2.0213    6.6469    0.0000 N   0  0  0  0  0  0  0  0  0  0  0  0
    0.2012    3.3590    0.0000 C   0  0  0  0  0  0  0  0  0  0  0  0
    1.4018    2.4597    0.0000 C   0  0  0  0  0  0  0  0  0  0  0  0
    0.7500   -1.2990    0.0000 C   0  0  0  0  0  0  0  0  0  0  0  0
    1.5000    0.0000    0.0000 C   0  0  0  0  0  0  0  0  0  0  0  0
    0.7500    1.2990    0.0000 C   0  0  0  0  0  0  0  0  0  0  0  0
   -0.7500    1.2990    0.0000 C   0  0  0  0  0  0  0  0  0  0  0  0
   -1.5000    0.0000    0.0000 C   0  0  0  0  0  0  0  0  0  0  0  0
   -0.7500   -1.2990    0.0000 C   0  0  0  0  0  0  0  0  0  0  0  0
  1  2  1  0
  2  3  1  0
  3  4  1  0
  4  5  1  0
  5  6  1  0
  6  7  1  0
  7  8  1  0
  8  9  1  0
  9 10  1  0
 10 11  1  0
 11 12  1  0
 12 13  1  0
 13 14  1  0
 14 15  1  0
 15 16  1  0
 16 17  1  0
 17 18  1  0
 18 19  1  0
 19 20  1  0
 20 21  1  0
 21 22  1  0
 22 23  1  0
 23 24  1  0
 24 25  1  0
 25 26  1  0
 26 27  1  0
 27 28  1  0
 28 29  1  0
 29 30  1  0
 30 31  1  0
 31 32  1  0
 32 33  1  0
 33 34  1  0
 34 35  1  0
 35 36  1  0
 36 37  1  0
 37 38  1  0
 38 39  1  0
 39 40  1  0
 40 41  1  0
 41 42  1  0
 42 43  1  0
 43 44  1  0
 44 45  1  0
 45 46  1  0
 46 47  1  0
 47 48  1  0
 48 49  1  0
 49 50  1  0
 50 51  1  0
 51 52  1  0
 52 53  1  0
 53 54  1  0
 54 55  1  0
 55 56  1  0
 56 57  1  0
 57 58  1  0
 58 59  1  0
 59 60  1  0
 60 61  1  0
 61 62  1  0
 62 63  1  0
 63 64  1  0
 64 65  1  0
 65 66  1  0
 66 67  1  0
 67 68  1  0
 68 69  1  0
 69 70  1  0
 70 71  1  0
 71 72  1  0
 72 73  1  0
 73 74  1  0
 74 75  1  0
 75 76  1  0
 76 77  1  0
 77 78  1  0
 78 79  1  0
 79 80  1  0
 80 81  2  0
 81 82  1  0
 82 83  2  0
 83 84  1  0
 84 85  2  0
 85 86  1  0
 86 87  2  0
 87 88  1  0
 88 89  2  0
 89 90  1  0
 90 91  3  0
 89 92  1  0
 92 93  2  0
 78 94  1  0
 94 95  2  0
 95 96  1  0
 96 97  2  0
 97 98  1  0
 98 99  2  0
 99  2  1  0
 85 80  1  0
 93 86  1  0
 99 94  1  0
M  END
>  <Title>  (462) 
idAAPZgen7

$$$$

     RDKit          2D

 17 18  0  0  0  0  0  0  0  0999 V2000
   -0.7500   -3.8971    0.0000 O   0  0  0  0  0  0  0  0  0  0  0  0
    0.7500   -3.8971    0.0000 C   0  0  0  0  0  0  0  0  0  0  0  0
    1.5000   -2.5981    0.0000 N   0  0  0  0  0  0  0  0  0  0  0  0
    0.7500   -1.2990    0.0000 C   0  0  0  0  0  0  0  0  0  0  0  0
    1.5000    0.0000    0.0000 N   0  0  0  0  0  0  0  0  0  0  0  0
    0.7500    1.2990    0.0000 N   0  0  0  0  0  0  0  0  0  0  0  0
   -0.7500    1.2990    0.0000 N   0  0  0  0  0  0  0  0  0  0  0  0
   -1.5000    0.0000    0.0000 N   0  0  0  0  0  0  0  0  0  0  0  0
   -0.7500   -1.2990    0.0000 N   0  0  0  0  0  0  0  0  0  0  0  0
    1.5000   -5.1962    0.0000 C   0  0  0  0  0  0  0  0  0  0  0  0
    2.9918   -5.3529    0.0000 C   0  0  0  0  0  0  0  0  0  0  0  0
    3.3037   -6.8202    0.0000 C   0  0  0  0  0  0  0  0  0  0  0  0
    2.0046   -7.5702    0.0000 N   0  0  0  0  0  0  0  0  0  0  0  0
    1.8478   -9.0619    0.0000 C   0  0  0  0  0  0  0  0  0  0  0  0
    3.0613   -9.9436    0.0000 O   0  0  0  0  0  0  0  0  0  0  0  0
    0.4775   -9.6721    0.0000 O   0  0  0  0  0  0  0  0  0  0  0  0
    0.8899   -6.5665    0.0000 C   0  0  0  0  0  0  0  0  0  0  0  0
  1  2  2  0
  2  3  1  0
  3  4  1  0
  4  5  2  0
  5  6  1  0
  6  7  2  0
  7  8  1  0
  8  9  2  0
  2 10  1  0
 10 11  1  0
 11 12  1  0
 12 13  1  0
 13 14  1  0
 14 15  2  0
 14 16  1  0
 13 17  1  0
  9  4  1  0
 17 10  1  0
M  END
>  <Title>  (463) 
idAAQAgen7

$$$$

     RDKit          2D

 29 29  0  0  0  0  0  0  0  0999 V2000
    6.9368    0.0000    0.0000 C   0  0  0  0  0  0  0  0  0  0  0  0
    6.7746    1.4912    0.0000 C   0  0  0  0  0  0  0  0  0  0  0  0
    6.2957    2.9127    0.0000 C   0  0  0  0  0  0  0  0  0  0  0  0
    5.5223    4.1980    0.0000 C   0  0  0  0  0  0  0  0  0  0  0  0
    4.4908    5.2870    0.0000 C   0  0  0  0  0  0  0  0  0  0  0  0
    3.2493    6.1287    0.0000 C   0  0  0  0  0  0  0  0  0  0  0  0
    1.8558    6.6840    0.0000 C   0  0  0  0  0  0  0  0  0  0  0  0
    0.3756    6.9266    0.0000 C   0  0  0  0  0  0  0  0  0  0  0  0
   -1.1222    6.8454    0.0000 C   0  0  0  0  0  0  0  0  0  0  0  0
   -2.5676    6.4441    0.0000 C   0  0  0  0  0  0  0  0  0  0  0  0
   -3.8928    5.7415    0.0000 C   0  0  0  0  0  0  0  0  0  0  0  0
   -5.0361    4.7704    0.0000 C   0  0  0  0  0  0  0  0  0  0  0  0
   -5.9438    3.5763    0.0000 C   0  0  0  0  0  0  0  0  0  0  0  0
   -6.5737    2.2149    0.0000 C   0  0  0  0  0  0  0  0  0  0  0  0
   -6.8961    0.7500    0.0000 C   0  0  0  0  0  0  0  0  0  0  0  0
   -6.8961   -0.7500    0.0000 C   0  0  0  0  0  0  0  0  0  0  0  0
   -6.5737   -2.2149    0.0000 C   0  0  0  0  0  0  0  0  0  0  0  0
   -5.9438   -3.5763    0.0000 C   0  0  0  0  0  0  0  0  0  0  0  0
   -5.0361   -4.7704    0.0000 C   0  0  0  0  0  0  0  0  0  0  0  0
   -3.8928   -5.7415    0.0000 C   0  0  0  0  0  0  0  0  0  0  0  0
   -2.5676   -6.4441    0.0000 C   0  0  0  0  0  0  0  0  0  0  0  0
   -1.1222   -6.8454    0.0000 C   0  0  0  0  0  0  0  0  0  0  0  0
    0.3756   -6.9266    0.0000 C   0  0  0  0  0  0  0  0  0  0  0  0
    1.8558   -6.6840    0.0000 C   0  0  0  0  0  0  0  0  0  0  0  0
    3.2493   -6.1287    0.0000 C   0  0  0  0  0  0  0  0  0  0  0  0
    4.4908   -5.2870    0.0000 C   0  0  0  0  0  0  0  0  0  0  0  0
    5.5223   -4.1980    0.0000 C   0  0  0  0  0  0  0  0  0  0  0  0
    6.2957   -2.9127    0.0000 C   0  0  0  0  0  0  0  0  0  0  0  0
    6.7746   -1.4912    0.0000 C   0  0  0  0  0  0  0  0  0  0  0  0
  1  2  1  0
  2  3  1  0
  3  4  1  0
  4  5  1  0
  5  6  1  0
  6  7  1  0
  7  8  1  0
  8  9  1  0
  9 10  1  0
 10 11  1  0
 11 12  1  0
 12 13  1  0
 13 14  1  0
 14 15  1  0
 15 16  1  0
 16 17  1  0
 17 18  1  0
 18 19  1  0
 19 20  1  0
 20 21  1  0
 21 22  1  0
 22 23  1  0
 23 24  1  0
 24 25  1  0
 25 26  1  0
 26 27  1  0
 27 28  1  0
 28 29  1  0
 29  1  1  0
M  END
>  <Title>  (464) 
idAAQBgen7

$$$$

     RDKit          2D

 47 53  0  0  0  0  0  0  0  0999 V2000
    0.9635  -13.2165    0.0000 C   0  0  0  0  0  0  0  0  0  0  0  0
    0.7500  -11.7318    0.0000 C   0  0  0  0  0  0  0  0  0  0  0  0
    2.1892  -11.3092    0.0000 C   0  0  0  0  0  0  0  0  0  0  0  0
    3.4511  -10.4982    0.0000 C   0  0  0  0  0  0  0  0  0  0  0  0
    4.4334   -9.3646    0.0000 C   0  0  0  0  0  0  0  0  0  0  0  0
    5.0565   -8.0001    0.0000 C   0  0  0  0  0  0  0  0  0  0  0  0
    5.2700   -6.5154    0.0000 C   0  0  0  0  0  0  0  0  0  0  0  0
    5.0565   -5.0307    0.0000 C   0  0  0  0  0  0  0  0  0  0  0  0
    4.4334   -3.6662    0.0000 C   0  0  0  0  0  0  0  0  0  0  0  0
    3.4511   -2.5326    0.0000 C   0  0  0  0  0  0  0  0  0  0  0  0
    2.1892   -1.7216    0.0000 C   0  0  0  0  0  0  0  0  0  0  0  0
    0.7500   -1.2990    0.0000 C   0  0  0  0  0  0  0  0  0  0  0  0
    1.5000    0.0000    0.0000 C   0  0  0  0  0  0  0  0  0  0  0  0
    0.7500    1.2990    0.0000 C   0  0  0  0  0  0  0  0  0  0  0  0
   -0.7500    1.2990    0.0000 C   0  0  0  0  0  0  0  0  0  0  0  0
   -1.5000    0.0000    0.0000 C   0  0  0  0  0  0  0  0  0  0  0  0
   -0.7500   -1.2990    0.0000 C   0  0  0  0  0  0  0  0  0  0  0  0
   -2.1892   -1.7216    0.0000 C   0  0  0  0  0  0  0  0  0  0  0  0
   -2.2606   -0.2233    0.0000 C   0  0  0  0  0  0  0  0  0  0  0  0
   -3.5939    0.4640    0.0000 C   0  0  0  0  0  0  0  0  0  0  0  0
   -4.8557   -0.3470    0.0000 C   0  0  0  0  0  0  0  0  0  0  0  0
   -4.7844   -1.8453    0.0000 C   0  0  0  0  0  0  0  0  0  0  0  0
   -3.4511   -2.5326    0.0000 C   0  0  0  0  0  0  0  0  0  0  0  0
   -4.4334   -3.6662    0.0000 C   0  0  0  0  0  0  0  0  0  0  0  0
   -5.3035   -2.4444    0.0000 C   0  0  0  0  0  0  0  0  0  0  0  0
   -6.7967   -2.5869    0.0000 C   0  0  0  0  0  0  0  0  0  0  0  0
   -7.4198   -3.9514    0.0000 C   0  0  0  0  0  0  0  0  0  0  0  0
   -6.5497   -5.1733    0.0000 C   0  0  0  0  0  0  0  0  0  0  0  0
   -5.0565   -5.0307    0.0000 C   0  0  0  0  0  0  0  0  0  0  0  0
   -5.2700   -6.5154    0.0000 C   0  0  0  0  0  0  0  0  0  0  0  0
   -6.6626   -5.9579    0.0000 C   0  0  0  0  0  0  0  0  0  0  0  0
   -7.8416   -6.8851    0.0000 C   0  0  0  0  0  0  0  0  0  0  0  0
   -7.6282   -8.3699    0.0000 C   0  0  0  0  0  0  0  0  0  0  0  0
   -6.2356   -8.9274    0.0000 C   0  0  0  0  0  0  0  0  0  0  0  0
   -5.0565   -8.0001    0.0000 C   0  0  0  0  0  0  0  0  0  0  0  0
   -4.4334   -9.3646    0.0000 C   0  0  0  0  0  0  0  0  0  0  0  0
   -5.9063   -9.6485    0.0000 C   0  0  0  0  0  0  0  0  0  0  0  0
   -6.3969  -11.0660    0.0000 C   0  0  0  0  0  0  0  0  0  0  0  0
   -5.4146  -12.1996    0.0000 C   0  0  0  0  0  0  0  0  0  0  0  0
   -3.9417  -11.9157    0.0000 C   0  0  0  0  0  0  0  0  0  0  0  0
   -3.4511  -10.4982    0.0000 C   0  0  0  0  0  0  0  0  0  0  0  0
   -2.1892  -11.3092    0.0000 C   0  0  0  0  0  0  0  0  0  0  0  0
   -3.2748  -12.3443    0.0000 C   0  0  0  0  0  0  0  0  0  0  0  0
   -2.9212  -13.8020    0.0000 C   0  0  0  0  0  0  0  0  0  0  0  0
   -1.4820  -14.2246    0.0000 C   0  0  0  0  0  0  0  0  0  0  0  0
   -0.3964  -13.1895    0.0000 C   0  0  0  0  0  0  0  0  0  0  0  0
   -0.7500  -11.7318    0.0000 C   0  0  0  0  0  0  0  0  0  0  0  0
  1  2  1  0
  2  3  2  0
  3  4  1  0
  4  5  1  0
  5  6  1  0
  6  7  1  0
  7  8  1  0
  8  9  1  0
  9 10  1  0
 10 11  1  0
 11 12  1  0
 12 13  2  0
 13 14  1  0
 14 15  2  0
 15 16  1  0
 16 17  2  0
 17 18  1  0
 18 19  2  0
 19 20  1  0
 20 21  2  0
 21 22  1  0
 22 23  2  0
 23 24  1  0
 24 25  2  0
 25 26  1  0
 26 27  2  0
 27 28  1  0
 28 29  2  0
 29 30  1  0
 30 31  2  0
 31 32  1  0
 32 33  2  0
 33 34  1  0
 34 35  2  0
 35 36  1  0
 36 37  2  0
 37 38  1  0
 38 39  2  0
 39 40  1  0
 40 41  2  0
 41 42  1  0
 42 43  2  0
 43 44  1  0
 44 45  2  0
 45 46  1  0
 46 47  2  0
 47  2  1  0
 17 12  1  0
 23 18  1  0
 29 24  1  0
 35 30  1  0
 41 36  1  0
 47 42  1  0
M  END
>  <Title>  (465) 
idAAQCgen7

$$$$

     RDKit          2D

 46 52  0  0  0  0  0  0  0  0999 V2000
    1.0838   -9.3334    0.0000 C   0  0  0  0  0  0  0  0  0  0  0  0
    0.7500   -7.8710    0.0000 C   0  0  0  0  0  0  0  0  0  0  0  0
    2.1015   -7.2201    0.0000 C   0  0  0  0  0  0  0  0  0  0  0  0
    3.0367   -6.0474    0.0000 C   0  0  0  0  0  0  0  0  0  0  0  0
    3.3705   -4.5850    0.0000 C   0  0  0  0  0  0  0  0  0  0  0  0
    4.8705   -4.5850    0.0000 C   0  0  0  0  0  0  0  0  0  0  0  0
    5.6205   -3.2860    0.0000 O   0  0  0  0  0  0  0  0  0  0  0  0
    5.6205   -5.8840    0.0000 N   0  0  0  0  0  0  0  0  0  0  0  0
    7.1205   -5.8840    0.0000 C   0  0  0  0  0  0  0  0  0  0  0  0
    7.8705   -7.1831    0.0000 N   0  0  0  0  0  0  0  0  0  0  0  0
    9.3705   -7.1831    0.0000 N   0  0  0  0  0  0  0  0  0  0  0  0
   10.1205   -5.8840    0.0000 N   0  0  0  0  0  0  0  0  0  0  0  0
    9.3705   -4.5850    0.0000 N   0  0  0  0  0  0  0  0  0  0  0  0
    7.8705   -4.5850    0.0000 N   0  0  0  0  0  0  0  0  0  0  0  0
    3.0367   -3.1226    0.0000 C   0  0  0  0  0  0  0  0  0  0  0  0
    4.5199   -2.8990    0.0000 C   0  0  0  0  0  0  0  0  0  0  0  0
    5.0679   -1.5027    0.0000 C   0  0  0  0  0  0  0  0  0  0  0  0
    4.1327   -0.3300    0.0000 C   0  0  0  0  0  0  0  0  0  0  0  0
    4.6807    1.0663    0.0000 C   0  0  0  0  0  0  0  0  0  0  0  0
    5.2287    2.4626    0.0000 N   0  0  0  0  0  0  0  0  0  0  0  0
    2.6495   -0.5536    0.0000 C   0  0  0  0  0  0  0  0  0  0  0  0
    2.1015   -1.9499    0.0000 C   0  0  0  0  0  0  0  0  0  0  0  0
    0.7500   -1.2990    0.0000 C   0  0  0  0  0  0  0  0  0  0  0  0
    1.5000    0.0000    0.0000 C   0  0  0  0  0  0  0  0  0  0  0  0
    0.7500    1.2990    0.0000 C   0  0  0  0  0  0  0  0  0  0  0  0
   -0.7500    1.2990    0.0000 C   0  0  0  0  0  0  0  0  0  0  0  0
   -1.5000    0.0000    0.0000 C   0  0  0  0  0  0  0  0  0  0  0  0
   -0.7500   -1.2990    0.0000 C   0  0  0  0  0  0  0  0  0  0  0  0
   -2.1015   -1.9499    0.0000 C   0  0  0  0  0  0  0  0  0  0  0  0
   -2.6495   -0.5536    0.0000 C   0  0  0  0  0  0  0  0  0  0  0  0
   -4.1327   -0.3300    0.0000 C   0  0  0  0  0  0  0  0  0  0  0  0
   -5.0679   -1.5027    0.0000 C   0  0  0  0  0  0  0  0  0  0  0  0
   -4.5199   -2.8990    0.0000 C   0  0  0  0  0  0  0  0  0  0  0  0
   -3.0367   -3.1226    0.0000 C   0  0  0  0  0  0  0  0  0  0  0  0
   -3.3705   -4.5850    0.0000 C   0  0  0  0  0  0  0  0  0  0  0  0
   -4.8038   -4.1429    0.0000 C   0  0  0  0  0  0  0  0  0  0  0  0
   -5.9034   -5.1631    0.0000 C   0  0  0  0  0  0  0  0  0  0  0  0
   -5.5696   -6.6255    0.0000 C   0  0  0  0  0  0  0  0  0  0  0  0
   -4.1363   -7.0677    0.0000 C   0  0  0  0  0  0  0  0  0  0  0  0
   -3.0367   -6.0474    0.0000 C   0  0  0  0  0  0  0  0  0  0  0  0
   -2.1015   -7.2201    0.0000 C   0  0  0  0  0  0  0  0  0  0  0  0
   -3.3408   -8.0651    0.0000 C   0  0  0  0  0  0  0  0  0  0  0  0
   -3.2287   -9.5609    0.0000 C   0  0  0  0  0  0  0  0  0  0  0  0
   -1.8773  -10.2118    0.0000 C   0  0  0  0  0  0  0  0  0  0  0  0
   -0.6379   -9.3668    0.0000 C   0  0  0  0  0  0  0  0  0  0  0  0
   -0.7500   -7.8710    0.0000 C   0  0  0  0  0  0  0  0  0  0  0  0
  1  2  1  0
  2  3  1  0
  3  4  1  0
  4  5  1  0
  5  6  1  0
  6  7  2  0
  6  8  1  0
  8  9  1  0
  9 10  2  0
 10 11  1  0
 11 12  2  0
 12 13  1  0
 13 14  2  0
  5 15  1  0
 15 16  2  0
 16 17  1  0
 17 18  2  0
 18 19  1  0
 19 20  3  0
 18 21  1  0
 21 22  2  0
 22 23  1  0
 23 24  2  0
 24 25  1  0
 25 26  2  0
 26 27  1  0
 27 28  2  0
 28 29  1  0
 29 30  2  0
 30 31  1  0
 31 32  2  0
 32 33  1  0
 33 34  2  0
 34 35  1  0
 35 36  2  0
 36 37  1  0
 37 38  2  0
 38 39  1  0
 39 40  2  0
 40 41  1  0
 41 42  2  0
 42 43  1  0
 43 44  2  0
 44 45  1  0
 45 46  2  0
 46  2  1  0
 14  9  1  0
 22 15  1  0
 28 23  1  0
 34 29  1  0
 40 35  1  0
 46 41  1  0
M  END
>  <Title>  (466) 
idAAQDgen7

$$$$

     RDKit          2D

 79 79  0  0  0  0  0  0  0  0999 V2000
   18.8648    0.0000    0.0000 C   0  0  0  0  0  0  0  0  0  0  0  0
   18.8052    1.4988    0.0000 C   0  0  0  0  0  0  0  0  0  0  0  0
   18.6267    2.9882    0.0000 C   0  0  0  0  0  0  0  0  0  0  0  0
   18.3304    4.4586    0.0000 C   0  0  0  0  0  0  0  0  0  0  0  0
   17.9182    5.9009    0.0000 C   0  0  0  0  0  0  0  0  0  0  0  0
   17.3927    7.3058    0.0000 C   0  0  0  0  0  0  0  0  0  0  0  0
   16.7573    8.6646    0.0000 C   0  0  0  0  0  0  0  0  0  0  0  0
   16.0159    9.9685    0.0000 C   0  0  0  0  0  0  0  0  0  0  0  0
   15.1733   11.2095    0.0000 C   0  0  0  0  0  0  0  0  0  0  0  0
   14.2347   12.3796    0.0000 C   0  0  0  0  0  0  0  0  0  0  0  0
   13.2062   13.4714    0.0000 C   0  0  0  0  0  0  0  0  0  0  0  0
   12.0941   14.4781    0.0000 C   0  0  0  0  0  0  0  0  0  0  0  0
   10.9056   15.3932    0.0000 C   0  0  0  0  0  0  0  0  0  0  0  0
    9.6481   16.2110    0.0000 C   0  0  0  0  0  0  0  0  0  0  0  0
    8.3297   16.9263    0.0000 C   0  0  0  0  0  0  0  0  0  0  0  0
    6.9586   17.5345    0.0000 C   0  0  0  0  0  0  0  0  0  0  0  0
    5.5434   18.0320    0.0000 C   0  0  0  0  0  0  0  0  0  0  0  0
    4.0933   18.4154    0.0000 C   0  0  0  0  0  0  0  0  0  0  0  0
    2.6172   18.6824    0.0000 C   0  0  0  0  0  0  0  0  0  0  0  0
    1.1246   18.8313    0.0000 C   0  0  0  0  0  0  0  0  0  0  0  0
   -0.3751   18.8611    0.0000 C   0  0  0  0  0  0  0  0  0  0  0  0
   -1.8724   18.7717    0.0000 C   0  0  0  0  0  0  0  0  0  0  0  0
   -3.3579   18.5636    0.0000 C   0  0  0  0  0  0  0  0  0  0  0  0
   -4.8222   18.2381    0.0000 C   0  0  0  0  0  0  0  0  0  0  0  0
   -6.2559   17.7973    0.0000 C   0  0  0  0  0  0  0  0  0  0  0  0
   -7.6502   17.2440    0.0000 C   0  0  0  0  0  0  0  0  0  0  0  0
   -8.9960   16.5817    0.0000 C   0  0  0  0  0  0  0  0  0  0  0  0
  -10.2850   15.8146    0.0000 C   0  0  0  0  0  0  0  0  0  0  0  0
  -11.5090   14.9474    0.0000 C   0  0  0  0  0  0  0  0  0  0  0  0
  -12.6602   13.9858    0.0000 C   0  0  0  0  0  0  0  0  0  0  0  0
  -13.7313   12.9357    0.0000 C   0  0  0  0  0  0  0  0  0  0  0  0
  -14.7157   11.8039    0.0000 C   0  0  0  0  0  0  0  0  0  0  0  0
  -15.6070   10.5974    0.0000 C   0  0  0  0  0  0  0  0  0  0  0  0
  -16.3996    9.3239    0.0000 C   0  0  0  0  0  0  0  0  0  0  0  0
  -17.0885    7.9915    0.0000 C   0  0  0  0  0  0  0  0  0  0  0  0
  -17.6694    6.6086    0.0000 C   0  0  0  0  0  0  0  0  0  0  0  0
  -18.1386    5.1838    0.0000 C   0  0  0  0  0  0  0  0  0  0  0  0
  -18.4931    3.7263    0.0000 C   0  0  0  0  0  0  0  0  0  0  0  0
  -18.7307    2.2453    0.0000 C   0  0  0  0  0  0  0  0  0  0  0  0
  -18.8499    0.7500    0.0000 C   0  0  0  0  0  0  0  0  0  0  0  0
  -18.8499   -0.7500    0.0000 C   0  0  0  0  0  0  0  0  0  0  0  0
  -18.7307   -2.2453    0.0000 C   0  0  0  0  0  0  0  0  0  0  0  0
  -18.4931   -3.7263    0.0000 C   0  0  0  0  0  0  0  0  0  0  0  0
  -18.1386   -5.1838    0.0000 C   0  0  0  0  0  0  0  0  0  0  0  0
  -17.6694   -6.6086    0.0000 C   0  0  0  0  0  0  0  0  0  0  0  0
  -17.0885   -7.9915    0.0000 C   0  0  0  0  0  0  0  0  0  0  0  0
  -16.3996   -9.3239    0.0000 C   0  0  0  0  0  0  0  0  0  0  0  0
  -15.6070  -10.5974    0.0000 C   0  0  0  0  0  0  0  0  0  0  0  0
  -14.7157  -11.8039    0.0000 C   0  0  0  0  0  0  0  0  0  0  0  0
  -13.7313  -12.9357    0.0000 C   0  0  0  0  0  0  0  0  0  0  0  0
  -12.6602  -13.9858    0.0000 C   0  0  0  0  0  0  0  0  0  0  0  0
  -11.5090  -14.9474    0.0000 C   0  0  0  0  0  0  0  0  0  0  0  0
  -10.2850  -15.8146    0.0000 C   0  0  0  0  0  0  0  0  0  0  0  0
   -8.9960  -16.5817    0.0000 C   0  0  0  0  0  0  0  0  0  0  0  0
   -7.6502  -17.2440    0.0000 C   0  0  0  0  0  0  0  0  0  0  0  0
   -6.2559  -17.7973    0.0000 C   0  0  0  0  0  0  0  0  0  0  0  0
   -4.8222  -18.2381    0.0000 C   0  0  0  0  0  0  0  0  0  0  0  0
   -3.3579  -18.5636    0.0000 C   0  0  0  0  0  0  0  0  0  0  0  0
   -1.8724  -18.7717    0.0000 C   0  0  0  0  0  0  0  0  0  0  0  0
   -0.3751  -18.8611    0.0000 C   0  0  0  0  0  0  0  0  0  0  0  0
    1.1246  -18.8313    0.0000 C   0  0  0  0  0  0  0  0  0  0  0  0
    2.6172  -18.6824    0.0000 C   0  0  0  0  0  0  0  0  0  0  0  0
    4.0933  -18.4154    0.0000 C   0  0  0  0  0  0  0  0  0  0  0  0
    5.5434  -18.0320    0.0000 C   0  0  0  0  0  0  0  0  0  0  0  0
    6.9586  -17.5345    0.0000 C   0  0  0  0  0  0  0  0  0  0  0  0
    8.3297  -16.9263    0.0000 C   0  0  0  0  0  0  0  0  0  0  0  0
    9.6481  -16.2110    0.0000 C   0  0  0  0  0  0  0  0  0  0  0  0
   10.9056  -15.3932    0.0000 C   0  0  0  0  0  0  0  0  0  0  0  0
   12.0941  -14.4781    0.0000 C   0  0  0  0  0  0  0  0  0  0  0  0
   13.2062  -13.4714    0.0000 C   0  0  0  0  0  0  0  0  0  0  0  0
   14.2347  -12.3796    0.0000 C   0  0  0  0  0  0  0  0  0  0  0  0
   15.1733  -11.2095    0.0000 C   0  0  0  0  0  0  0  0  0  0  0  0
   16.0159   -9.9685    0.0000 C   0  0  0  0  0  0  0  0  0  0  0  0
   16.7573   -8.6646    0.0000 C   0  0  0  0  0  0  0  0  0  0  0  0
   17.3927   -7.3058    0.0000 C   0  0  0  0  0  0  0  0  0  0  0  0
   17.9182   -5.9009    0.0000 C   0  0  0  0  0  0  0  0  0  0  0  0
   18.3304   -4.4586    0.0000 C   0  0  0  0  0  0  0  0  0  0  0  0
   18.6267   -2.9882    0.0000 C   0  0  0  0  0  0  0  0  0  0  0  0
   18.8052   -1.4988    0.0000 C   0  0  0  0  0  0  0  0  0  0  0  0
  1  2  2  0
  2  3  1  0
  3  4  1  0
  4  5  1  0
  5  6  1  0
  6  7  1  0
  7  8  1  0
  8  9  1  0
  9 10  1  0
 10 11  1  0
 11 12  1  0
 12 13  1  0
 13 14  1  0
 14 15  1  0
 15 16  1  0
 16 17  1  0
 17 18  1  0
 18 19  1  0
 19 20  1  0
 20 21  1  0
 21 22  1  0
 22 23  1  0
 23 24  1  0
 24 25  1  0
 25 26  1  0
 26 27  1  0
 27 28  1  0
 28 29  1  0
 29 30  1  0
 30 31  1  0
 31 32  1  0
 32 33  1  0
 33 34  1  0
 34 35  1  0
 35 36  1  0
 36 37  1  0
 37 38  1  0
 38 39  1  0
 39 40  1  0
 40 41  1  0
 41 42  1  0
 42 43  1  0
 43 44  1  0
 44 45  1  0
 45 46  1  0
 46 47  1  0
 47 48  1  0
 48 49  1  0
 49 50  1  0
 50 51  1  0
 51 52  1  0
 52 53  1  0
 53 54  1  0
 54 55  1  0
 55 56  1  0
 56 57  1  0
 57 58  1  0
 58 59  1  0
 59 60  1  0
 60 61  1  0
 61 62  1  0
 62 63  1  0
 63 64  1  0
 64 65  1  0
 65 66  1  0
 66 67  1  0
 67 68  1  0
 68 69  1  0
 69 70  1  0
 70 71  1  0
 71 72  1  0
 72 73  1  0
 73 74  1  0
 74 75  1  0
 75 76  1  0
 76 77  1  0
 77 78  1  0
 78 79  1  0
 79  1  1  0
M  END
>  <Title>  (467) 
idAAQEgen7

$$$$

     RDKit          2D

 16 17  0  0  0  0  0  0  0  0999 V2000
    1.8478   -9.0619    0.0000 C   0  0  0  0  0  0  0  0  0  0  0  0
    2.0046   -7.5702    0.0000 C   0  0  0  0  0  0  0  0  0  0  0  0
    3.3037   -6.8202    0.0000 C   0  0  0  0  0  0  0  0  0  0  0  0
    2.9918   -5.3529    0.0000 C   0  0  0  0  0  0  0  0  0  0  0  0
    1.5000   -5.1962    0.0000 C   0  0  0  0  0  0  0  0  0  0  0  0
    0.7500   -3.8971    0.0000 C   0  0  0  0  0  0  0  0  0  0  0  0
   -0.7500   -3.8971    0.0000 O   0  0  0  0  0  0  0  0  0  0  0  0
    1.5000   -2.5981    0.0000 N   0  0  0  0  0  0  0  0  0  0  0  0
    0.7500   -1.2990    0.0000 C   0  0  0  0  0  0  0  0  0  0  0  0
    1.5000    0.0000    0.0000 N   0  0  0  0  0  0  0  0  0  0  0  0
    0.7500    1.2990    0.0000 N   0  0  0  0  0  0  0  0  0  0  0  0
   -0.7500    1.2990    0.0000 N   0  0  0  0  0  0  0  0  0  0  0  0
   -1.5000    0.0000    0.0000 N   0  0  0  0  0  0  0  0  0  0  0  0
   -0.7500   -1.2990    0.0000 N   0  0  0  0  0  0  0  0  0  0  0  0
    0.8899   -6.5665    0.0000 C   0  0  0  0  0  0  0  0  0  0  0  0
   -0.5773   -6.8783    0.0000 O   0  0  0  0  0  0  0  0  0  0  0  0
  1  2  1  0
  2  3  1  0
  3  4  1  0
  4  5  1  0
  5  6  1  0
  6  7  2  0
  6  8  1  0
  8  9  1  0
  9 10  2  0
 10 11  1  0
 11 12  2  0
 12 13  1  0
 13 14  2  0
  5 15  1  0
 15 16  2  0
 15  2  1  0
 14  9  1  0
M  END
>  <Title>  (468) 
idAAQFgen7

$$$$

     RDKit          2D

 20 21  0  0  0  0  0  0  0  0999 V2000
    0.3207  -11.1638    0.0000 C   0  0  0  0  0  0  0  0  0  0  0  0
    0.4775   -9.6721    0.0000 C   0  0  0  0  0  0  0  0  0  0  0  0
   -0.7360   -8.7904    0.0000 O   0  0  0  0  0  0  0  0  0  0  0  0
    1.8478   -9.0619    0.0000 C   0  0  0  0  0  0  0  0  0  0  0  0
    3.0613   -9.9436    0.0000 O   0  0  0  0  0  0  0  0  0  0  0  0
    2.0046   -7.5702    0.0000 N   0  0  0  0  0  0  0  0  0  0  0  0
    3.3037   -6.8202    0.0000 C   0  0  0  0  0  0  0  0  0  0  0  0
    2.9918   -5.3529    0.0000 C   0  0  0  0  0  0  0  0  0  0  0  0
    1.5000   -5.1962    0.0000 C   0  0  0  0  0  0  0  0  0  0  0  0
    0.7500   -3.8971    0.0000 C   0  0  0  0  0  0  0  0  0  0  0  0
   -0.7500   -3.8971    0.0000 O   0  0  0  0  0  0  0  0  0  0  0  0
    1.5000   -2.5981    0.0000 N   0  0  0  0  0  0  0  0  0  0  0  0
    0.7500   -1.2990    0.0000 C   0  0  0  0  0  0  0  0  0  0  0  0
    1.5000    0.0000    0.0000 N   0  0  0  0  0  0  0  0  0  0  0  0
    0.7500    1.2990    0.0000 N   0  0  0  0  0  0  0  0  0  0  0  0
   -0.7500    1.2990    0.0000 N   0  0  0  0  0  0  0  0  0  0  0  0
   -1.5000    0.0000    0.0000 N   0  0  0  0  0  0  0  0  0  0  0  0
   -0.7500   -1.2990    0.0000 N   0  0  0  0  0  0  0  0  0  0  0  0
    0.8899   -6.5665    0.0000 C   0  0  0  0  0  0  0  0  0  0  0  0
   -0.5773   -6.8783    0.0000 O   0  0  0  0  0  0  0  0  0  0  0  0
  1  2  1  0
  2  3  2  0
  2  4  1  0
  4  5  2  0
  4  6  1  0
  6  7  1  0
  7  8  1  0
  8  9  1  0
  9 10  1  0
 10 11  2  0
 10 12  1  0
 12 13  1  0
 13 14  2  0
 14 15  1  0
 15 16  2  0
 16 17  1  0
 17 18  2  0
  9 19  1  0
 19 20  2  0
 19  6  1  0
 18 13  1  0
M  END
>  <Title>  (469) 
idAAQGgen7

$$$$

     RDKit          2D

102102  0  0  0  0  0  0  0  0999 V2000
   25.8885    1.2990    0.0000 O   0  0  0  0  0  0  0  0  0  0  0  0
   25.1385    0.0000    0.0000 C   0  0  0  0  0  0  0  0  0  0  0  0
   25.8885   -1.2990    0.0000 O   0  0  0  0  0  0  0  0  0  0  0  0
   23.6385    0.0000    0.0000 C   0  0  0  0  0  0  0  0  0  0  0  0
   23.5909    1.4992    0.0000 C   0  0  0  0  0  0  0  0  0  0  0  0
   23.4483    2.9925    0.0000 C   0  0  0  0  0  0  0  0  0  0  0  0
   23.2113    4.4736    0.0000 C   0  0  0  0  0  0  0  0  0  0  0  0
   22.8808    5.9368    0.0000 C   0  0  0  0  0  0  0  0  0  0  0  0
   22.4582    7.3760    0.0000 C   0  0  0  0  0  0  0  0  0  0  0  0
   21.9452    8.7855    0.0000 C   0  0  0  0  0  0  0  0  0  0  0  0
   21.3438   10.1597    0.0000 C   0  0  0  0  0  0  0  0  0  0  0  0
   20.6565   11.4929    0.0000 C   0  0  0  0  0  0  0  0  0  0  0  0
   19.8860   12.7799    0.0000 C   0  0  0  0  0  0  0  0  0  0  0  0
   19.0354   14.0154    0.0000 C   0  0  0  0  0  0  0  0  0  0  0  0
   18.1081   15.1945    0.0000 C   0  0  0  0  0  0  0  0  0  0  0  0
   17.1080   16.3124    0.0000 C   0  0  0  0  0  0  0  0  0  0  0  0
   16.0389   17.3646    0.0000 C   0  0  0  0  0  0  0  0  0  0  0  0
   14.9053   18.3469    0.0000 C   0  0  0  0  0  0  0  0  0  0  0  0
   13.7117   19.2553    0.0000 C   0  0  0  0  0  0  0  0  0  0  0  0
   12.4628   20.0862    0.0000 C   0  0  0  0  0  0  0  0  0  0  0  0
   11.1638   20.8362    0.0000 C   0  0  0  0  0  0  0  0  0  0  0  0
    9.8198   21.5023    0.0000 C   0  0  0  0  0  0  0  0  0  0  0  0
    8.4362   22.0818    0.0000 C   0  0  0  0  0  0  0  0  0  0  0  0
    7.0187   22.5724    0.0000 C   0  0  0  0  0  0  0  0  0  0  0  0
    5.5730   22.9721    0.0000 C   0  0  0  0  0  0  0  0  0  0  0  0
    4.1048   23.2794    0.0000 C   0  0  0  0  0  0  0  0  0  0  0  0
    2.6200   23.4928    0.0000 C   0  0  0  0  0  0  0  0  0  0  0  0
    1.1248   23.6117    0.0000 C   0  0  0  0  0  0  0  0  0  0  0  0
   -0.3750   23.6355    0.0000 C   0  0  0  0  0  0  0  0  0  0  0  0
   -1.8733   23.5641    0.0000 C   0  0  0  0  0  0  0  0  0  0  0  0
   -3.3641   23.3979    0.0000 C   0  0  0  0  0  0  0  0  0  0  0  0
   -4.8413   23.1374    0.0000 C   0  0  0  0  0  0  0  0  0  0  0  0
   -6.2990   22.7838    0.0000 C   0  0  0  0  0  0  0  0  0  0  0  0
   -7.7314   22.3384    0.0000 C   0  0  0  0  0  0  0  0  0  0  0  0
   -9.1326   21.8031    0.0000 C   0  0  0  0  0  0  0  0  0  0  0  0
  -10.4971   21.1799    0.0000 C   0  0  0  0  0  0  0  0  0  0  0  0
  -11.8192   20.4715    0.0000 C   0  0  0  0  0  0  0  0  0  0  0  0
  -13.0938   19.6807    0.0000 C   0  0  0  0  0  0  0  0  0  0  0  0
  -14.3157   18.8106    0.0000 C   0  0  0  0  0  0  0  0  0  0  0  0
  -15.4799   17.8648    0.0000 C   0  0  0  0  0  0  0  0  0  0  0  0
  -16.5818   16.8470    0.0000 C   0  0  0  0  0  0  0  0  0  0  0  0
  -17.6169   15.7614    0.0000 C   0  0  0  0  0  0  0  0  0  0  0  0
  -18.5811   14.6123    0.0000 C   0  0  0  0  0  0  0  0  0  0  0  0
  -19.4705   13.4044    0.0000 C   0  0  0  0  0  0  0  0  0  0  0  0
  -20.2814   12.1426    0.0000 C   0  0  0  0  0  0  0  0  0  0  0  0
  -21.0107   10.8318    0.0000 C   0  0  0  0  0  0  0  0  0  0  0  0
  -21.6554    9.4774    0.0000 C   0  0  0  0  0  0  0  0  0  0  0  0
  -22.2129    8.0848    0.0000 C   0  0  0  0  0  0  0  0  0  0  0  0
  -22.6810    6.6597    0.0000 C   0  0  0  0  0  0  0  0  0  0  0  0
  -23.0577    5.2078    0.0000 C   0  0  0  0  0  0  0  0  0  0  0  0
  -23.3416    3.7349    0.0000 C   0  0  0  0  0  0  0  0  0  0  0  0
  -23.5314    2.2470    0.0000 C   0  0  0  0  0  0  0  0  0  0  0  0
  -23.6266    0.7500    0.0000 C   0  0  0  0  0  0  0  0  0  0  0  0
  -23.6266   -0.7500    0.0000 C   0  0  0  0  0  0  0  0  0  0  0  0
  -23.5314   -2.2470    0.0000 C   0  0  0  0  0  0  0  0  0  0  0  0
  -23.3416   -3.7349    0.0000 C   0  0  0  0  0  0  0  0  0  0  0  0
  -23.0577   -5.2078    0.0000 C   0  0  0  0  0  0  0  0  0  0  0  0
  -22.6810   -6.6597    0.0000 C   0  0  0  0  0  0  0  0  0  0  0  0
  -22.2129   -8.0848    0.0000 C   0  0  0  0  0  0  0  0  0  0  0  0
  -21.6554   -9.4774    0.0000 C   0  0  0  0  0  0  0  0  0  0  0  0
  -21.0107  -10.8318    0.0000 C   0  0  0  0  0  0  0  0  0  0  0  0
  -20.2814  -12.1426    0.0000 C   0  0  0  0  0  0  0  0  0  0  0  0
  -19.4705  -13.4044    0.0000 C   0  0  0  0  0  0  0  0  0  0  0  0
  -18.5811  -14.6123    0.0000 C   0  0  0  0  0  0  0  0  0  0  0  0
  -17.6169  -15.7614    0.0000 C   0  0  0  0  0  0  0  0  0  0  0  0
  -16.5818  -16.8470    0.0000 C   0  0  0  0  0  0  0  0  0  0  0  0
  -15.4799  -17.8648    0.0000 C   0  0  0  0  0  0  0  0  0  0  0  0
  -14.3157  -18.8106    0.0000 C   0  0  0  0  0  0  0  0  0  0  0  0
  -13.0938  -19.6807    0.0000 C   0  0  0  0  0  0  0  0  0  0  0  0
  -11.8192  -20.4715    0.0000 C   0  0  0  0  0  0  0  0  0  0  0  0
  -10.4971  -21.1799    0.0000 C   0  0  0  0  0  0  0  0  0  0  0  0
   -9.1326  -21.8031    0.0000 C   0  0  0  0  0  0  0  0  0  0  0  0
   -7.7314  -22.3384    0.0000 C   0  0  0  0  0  0  0  0  0  0  0  0
   -6.2990  -22.7838    0.0000 C   0  0  0  0  0  0  0  0  0  0  0  0
   -4.8413  -23.1374    0.0000 C   0  0  0  0  0  0  0  0  0  0  0  0
   -3.3641  -23.3979    0.0000 C   0  0  0  0  0  0  0  0  0  0  0  0
   -1.8733  -23.5641    0.0000 C   0  0  0  0  0  0  0  0  0  0  0  0
   -0.3750  -23.6355    0.0000 C   0  0  0  0  0  0  0  0  0  0  0  0
    1.1248  -23.6117    0.0000 C   0  0  0  0  0  0  0  0  0  0  0  0
    2.6200  -23.4928    0.0000 C   0  0  0  0  0  0  0  0  0  0  0  0
    4.1048  -23.2794    0.0000 C   0  0  0  0  0  0  0  0  0  0  0  0
    5.5730  -22.9721    0.0000 C   0  0  0  0  0  0  0  0  0  0  0  0
    7.0187  -22.5724    0.0000 C   0  0  0  0  0  0  0  0  0  0  0  0
    8.4362  -22.0818    0.0000 C   0  0  0  0  0  0  0  0  0  0  0  0
    9.8198  -21.5023    0.0000 C   0  0  0  0  0  0  0  0  0  0  0  0
   11.1638  -20.8362    0.0000 C   0  0  0  0  0  0  0  0  0  0  0  0
   12.4628  -20.0862    0.0000 C   0  0  0  0  0  0  0  0  0  0  0  0
   13.7117  -19.2553    0.0000 C   0  0  0  0  0  0  0  0  0  0  0  0
   14.9053  -18.3469    0.0000 C   0  0  0  0  0  0  0  0  0  0  0  0
   16.0389  -17.3646    0.0000 C   0  0  0  0  0  0  0  0  0  0  0  0
   17.1080  -16.3124    0.0000 C   0  0  0  0  0  0  0  0  0  0  0  0
   18.1081  -15.1945    0.0000 C   0  0  0  0  0  0  0  0  0  0  0  0
   19.0354  -14.0154    0.0000 C   0  0  0  0  0  0  0  0  0  0  0  0
   19.8860  -12.7799    0.0000 C   0  0  0  0  0  0  0  0  0  0  0  0
   20.6565  -11.4929    0.0000 C   0  0  0  0  0  0  0  0  0  0  0  0
   21.3438  -10.1597    0.0000 C   0  0  0  0  0  0  0  0  0  0  0  0
   21.9452   -8.7855    0.0000 C   0  0  0  0  0  0  0  0  0  0  0  0
   22.4582   -7.3760    0.0000 C   0  0  0  0  0  0  0  0  0  0  0  0
   22.8808   -5.9368    0.0000 C   0  0  0  0  0  0  0  0  0  0  0  0
   23.2113   -4.4736    0.0000 C   0  0  0  0  0  0  0  0  0  0  0  0
   23.4483   -2.9925    0.0000 C   0  0  0  0  0  0  0  0  0  0  0  0
   23.5909   -1.4992    0.0000 C   0  0  0  0  0  0  0  0  0  0  0  0
  1  2  2  0
  2  3  1  0
  2  4  1  0
  4  5  1  0
  5  6  1  0
  6  7  1  0
  7  8  1  0
  8  9  1  0
  9 10  1  0
 10 11  1  0
 11 12  1  0
 12 13  1  0
 13 14  1  0
 14 15  1  0
 15 16  1  0
 16 17  1  0
 17 18  1  0
 18 19  1  0
 19 20  1  0
 20 21  1  0
 21 22  1  0
 22 23  1  0
 23 24  1  0
 24 25  1  0
 25 26  1  0
 26 27  1  0
 27 28  1  0
 28 29  1  0
 29 30  1  0
 30 31  1  0
 31 32  1  0
 32 33  1  0
 33 34  1  0
 34 35  1  0
 35 36  1  0
 36 37  1  0
 37 38  1  0
 38 39  1  0
 39 40  1  0
 40 41  1  0
 41 42  1  0
 42 43  1  0
 43 44  1  0
 44 45  1  0
 45 46  1  0
 46 47  1  0
 47 48  1  0
 48 49  1  0
 49 50  1  0
 50 51  1  0
 51 52  1  0
 52 53  1  0
 53 54  1  0
 54 55  1  0
 55 56  1  0
 56 57  1  0
 57 58  1  0
 58 59  1  0
 59 60  1  0
 60 61  1  0
 61 62  1  0
 62 63  1  0
 63 64  1  0
 64 65  1  0
 65 66  1  0
 66 67  1  0
 67 68  1  0
 68 69  1  0
 69 70  1  0
 70 71  1  0
 71 72  1  0
 72 73  1  0
 73 74  1  0
 74 75  1  0
 75 76  1  0
 76 77  1  0
 77 78  1  0
 78 79  1  0
 79 80  1  0
 80 81  1  0
 81 82  1  0
 82 83  1  0
 83 84  1  0
 84 85  1  0
 85 86  1  0
 86 87  1  0
 87 88  1  0
 88 89  1  0
 89 90  1  0
 90 91  1  0
 91 92  1  0
 92 93  1  0
 93 94  1  0
 94 95  1  0
 95 96  1  0
 96 97  1  0
 97 98  1  0
 98 99  1  0
 99100  1  0
100101  1  0
101102  1  0
102  4  1  0
M  END
>  <Title>  (470) 
idAAQHgen7

$$$$

     RDKit          2D

  4  3  0  0  0  0  0  0  0  0999 V2000
    0.0000    0.0000    0.0000 C   0  0  0  0  0  0  0  0  0  0  0  0
   -0.0000   -1.5000    0.0000 C   0  0  0  0  0  0  0  0  0  0  0  0
   -0.0000   -3.0000    0.0000 C   0  0  0  0  0  0  0  0  0  0  0  0
   -0.0000   -4.5000    0.0000 C   0  0  0  0  0  0  0  0  0  0  0  0
  1  2  3  0
  2  3  1  0
  3  4  3  0
M  END
>  <Title>  (471) 
idAAQIgen7

$$$$

     RDKit          2D

  9  9  0  0  0  0  0  0  0  0999 V2000
    6.5260   -1.2990    0.0000 O   0  0  0  0  0  0  0  0  0  0  0  0
    5.7760   -0.0000    0.0000 C   0  0  0  0  0  0  0  0  0  0  0  0
    4.2760   -0.0000    0.0000 C   0  0  0  0  0  0  0  0  0  0  0  0
    2.7760    0.0000    0.0000 C   0  0  0  0  0  0  0  0  0  0  0  0
    1.2760    0.0000    0.0000 C   0  0  0  0  0  0  0  0  0  0  0  0
    0.3943    1.2135    0.0000 C   0  0  0  0  0  0  0  0  0  0  0  0
   -1.0323    0.7500    0.0000 C   0  0  0  0  0  0  0  0  0  0  0  0
   -1.0323   -0.7500    0.0000 C   0  0  0  0  0  0  0  0  0  0  0  0
    0.3943   -1.2135    0.0000 C   0  0  0  0  0  0  0  0  0  0  0  0
  1  2  1  0
  2  3  1  0
  3  4  3  0
  4  5  1  0
  5  6  2  0
  6  7  1  0
  7  8  1  0
  8  9  2  0
  9  5  1  0
M  END
>  <Title>  (472) 
idAAQJgen7

$$$$

     RDKit          2D

 48 48  0  0  0  0  0  0  0  0999 V2000
   12.7288    0.0000    0.0000 C   0  0  0  0  0  0  0  0  0  0  0  0
   11.2288    0.0000    0.0000 C   0  0  0  0  0  0  0  0  0  0  0  0
   11.1286    1.4967    0.0000 C   0  0  0  0  0  0  0  0  0  0  0  0
   10.8298    2.9666    0.0000 C   0  0  0  0  0  0  0  0  0  0  0  0
   10.3378    4.3836    0.0000 C   0  0  0  0  0  0  0  0  0  0  0  0
    9.6613    5.7224    0.0000 C   0  0  0  0  0  0  0  0  0  0  0  0
    8.8123    6.9590    0.0000 C   0  0  0  0  0  0  0  0  0  0  0  0
    7.8062    8.0715    0.0000 C   0  0  0  0  0  0  0  0  0  0  0  0
    6.6607    9.0400    0.0000 C   0  0  0  0  0  0  0  0  0  0  0  0
    5.3963    9.8471    0.0000 C   0  0  0  0  0  0  0  0  0  0  0  0
    4.0357   10.4785    0.0000 C   0  0  0  0  0  0  0  0  0  0  0  0
    2.6031   10.9229    0.0000 C   0  0  0  0  0  0  0  0  0  0  0  0
    1.1240   11.1724    0.0000 C   0  0  0  0  0  0  0  0  0  0  0  0
   -0.3752   11.2225    0.0000 C   0  0  0  0  0  0  0  0  0  0  0  0
   -1.8677   11.0724    0.0000 C   0  0  0  0  0  0  0  0  0  0  0  0
   -3.3268   10.7246    0.0000 C   0  0  0  0  0  0  0  0  0  0  0  0
   -4.7266   10.1855    0.0000 C   0  0  0  0  0  0  0  0  0  0  0  0
   -6.0420    9.4647    0.0000 C   0  0  0  0  0  0  0  0  0  0  0  0
   -7.2496    8.5749    0.0000 C   0  0  0  0  0  0  0  0  0  0  0  0
   -8.3279    7.5321    0.0000 C   0  0  0  0  0  0  0  0  0  0  0  0
   -9.2575    6.3549    0.0000 C   0  0  0  0  0  0  0  0  0  0  0  0
  -10.0219    5.0643    0.0000 C   0  0  0  0  0  0  0  0  0  0  0  0
  -10.6075    3.6833    0.0000 C   0  0  0  0  0  0  0  0  0  0  0  0
  -11.0038    2.2366    0.0000 C   0  0  0  0  0  0  0  0  0  0  0  0
  -11.2037    0.7500    0.0000 C   0  0  0  0  0  0  0  0  0  0  0  0
  -11.2037   -0.7500    0.0000 C   0  0  0  0  0  0  0  0  0  0  0  0
  -11.0038   -2.2366    0.0000 C   0  0  0  0  0  0  0  0  0  0  0  0
  -10.6075   -3.6833    0.0000 C   0  0  0  0  0  0  0  0  0  0  0  0
  -10.0219   -5.0643    0.0000 C   0  0  0  0  0  0  0  0  0  0  0  0
   -9.2575   -6.3549    0.0000 C   0  0  0  0  0  0  0  0  0  0  0  0
   -8.3279   -7.5321    0.0000 C   0  0  0  0  0  0  0  0  0  0  0  0
   -7.2496   -8.5749    0.0000 C   0  0  0  0  0  0  0  0  0  0  0  0
   -6.0420   -9.4647    0.0000 C   0  0  0  0  0  0  0  0  0  0  0  0
   -4.7266  -10.1855    0.0000 C   0  0  0  0  0  0  0  0  0  0  0  0
   -3.3268  -10.7246    0.0000 C   0  0  0  0  0  0  0  0  0  0  0  0
   -1.8677  -11.0724    0.0000 C   0  0  0  0  0  0  0  0  0  0  0  0
   -0.3752  -11.2225    0.0000 C   0  0  0  0  0  0  0  0  0  0  0  0
    1.1240  -11.1724    0.0000 C   0  0  0  0  0  0  0  0  0  0  0  0
    2.6031  -10.9229    0.0000 C   0  0  0  0  0  0  0  0  0  0  0  0
    4.0357  -10.4785    0.0000 C   0  0  0  0  0  0  0  0  0  0  0  0
    5.3963   -9.8471    0.0000 C   0  0  0  0  0  0  0  0  0  0  0  0
    6.6607   -9.0400    0.0000 C   0  0  0  0  0  0  0  0  0  0  0  0
    7.8062   -8.0715    0.0000 C   0  0  0  0  0  0  0  0  0  0  0  0
    8.8123   -6.9590    0.0000 C   0  0  0  0  0  0  0  0  0  0  0  0
    9.6613   -5.7224    0.0000 C   0  0  0  0  0  0  0  0  0  0  0  0
   10.3378   -4.3836    0.0000 C   0  0  0  0  0  0  0  0  0  0  0  0
   10.8298   -2.9666    0.0000 C   0  0  0  0  0  0  0  0  0  0  0  0
   11.1286   -1.4967    0.0000 C   0  0  0  0  0  0  0  0  0  0  0  0
  1  2  1  0
  2  3  1  0
  3  4  1  0
  4  5  2  0
  5  6  1  0
  6  7  2  0
  7  8  1  0
  8  9  2  0
  9 10  1  0
 10 11  2  0
 11 12  1  0
 12 13  2  0
 13 14  1  0
 14 15  1  0
 15 16  1  0
 16 17  1  0
 17 18  1  0
 18 19  1  0
 19 20  1  0
 20 21  1  0
 21 22  1  0
 22 23  1  0
 23 24  1  0
 24 25  1  0
 25 26  1  0
 26 27  1  0
 27 28  1  0
 28 29  1  0
 29 30  1  0
 30 31  1  0
 31 32  1  0
 32 33  1  0
 33 34  1  0
 34 35  1  0
 35 36  1  0
 36 37  1  0
 37 38  1  0
 38 39  1  0
 39 40  1  0
 40 41  1  0
 41 42  1  0
 42 43  1  0
 43 44  1  0
 44 45  1  0
 45 46  1  0
 46 47  1  0
 47 48  1  0
 48  2  1  0
M  END
>  <Title>  (473) 
idAAQKgen7

$$$$

     RDKit          2D

102102  0  0  0  0  0  0  0  0999 V2000
   25.6159   -0.0000    0.0000 O   0  0  0  0  0  0  0  0  0  0  0  0
   24.1159    0.0000    0.0000 C   0  0  0  0  0  0  0  0  0  0  0  0
   24.0692    1.4993    0.0000 C   0  0  0  0  0  0  0  0  0  0  0  0
   23.9294    2.9927    0.0000 C   0  0  0  0  0  0  0  0  0  0  0  0
   23.6971    4.4746    0.0000 C   0  0  0  0  0  0  0  0  0  0  0  0
   23.3731    5.9392    0.0000 C   0  0  0  0  0  0  0  0  0  0  0  0
   22.9586    7.3808    0.0000 C   0  0  0  0  0  0  0  0  0  0  0  0
   22.4553    8.7939    0.0000 C   0  0  0  0  0  0  0  0  0  0  0  0
   21.8652   10.1729    0.0000 C   0  0  0  0  0  0  0  0  0  0  0  0
   21.1904   11.5126    0.0000 C   0  0  0  0  0  0  0  0  0  0  0  0
   20.4337   12.8077    0.0000 C   0  0  0  0  0  0  0  0  0  0  0  0
   19.5979   14.0533    0.0000 C   0  0  0  0  0  0  0  0  0  0  0  0
   18.6863   15.2445    0.0000 C   0  0  0  0  0  0  0  0  0  0  0  0
   17.7025   16.3767    0.0000 C   0  0  0  0  0  0  0  0  0  0  0  0
   16.6501   17.4456    0.0000 C   0  0  0  0  0  0  0  0  0  0  0  0
   15.5333   18.4470    0.0000 C   0  0  0  0  0  0  0  0  0  0  0  0
   14.3564   19.3770    0.0000 C   0  0  0  0  0  0  0  0  0  0  0  0
   13.1240   20.2321    0.0000 C   0  0  0  0  0  0  0  0  0  0  0  0
   11.8407   21.0088    0.0000 C   0  0  0  0  0  0  0  0  0  0  0  0
   10.5117   21.7043    0.0000 C   0  0  0  0  0  0  0  0  0  0  0  0
    9.1420   22.3159    0.0000 C   0  0  0  0  0  0  0  0  0  0  0  0
    7.7370   22.8411    0.0000 C   0  0  0  0  0  0  0  0  0  0  0  0
    6.3020   23.2779    0.0000 C   0  0  0  0  0  0  0  0  0  0  0  0
    4.8426   23.6246    0.0000 C   0  0  0  0  0  0  0  0  0  0  0  0
    3.3645   23.8800    0.0000 C   0  0  0  0  0  0  0  0  0  0  0  0
    1.8734   24.0430    0.0000 C   0  0  0  0  0  0  0  0  0  0  0  0
    0.3750   24.1129    0.0000 C   0  0  0  0  0  0  0  0  0  0  0  0
   -1.1248   24.0896    0.0000 C   0  0  0  0  0  0  0  0  0  0  0  0
   -2.6202   23.9731    0.0000 C   0  0  0  0  0  0  0  0  0  0  0  0
   -4.1056   23.7638    0.0000 C   0  0  0  0  0  0  0  0  0  0  0  0
   -5.5750   23.4626    0.0000 C   0  0  0  0  0  0  0  0  0  0  0  0
   -7.0229   23.0706    0.0000 C   0  0  0  0  0  0  0  0  0  0  0  0
   -8.4436   22.5894    0.0000 C   0  0  0  0  0  0  0  0  0  0  0  0
   -9.8316   22.0208    0.0000 C   0  0  0  0  0  0  0  0  0  0  0  0
  -11.1816   21.3669    0.0000 C   0  0  0  0  0  0  0  0  0  0  0  0
  -12.4884   20.6304    0.0000 C   0  0  0  0  0  0  0  0  0  0  0  0
  -13.7468   19.8141    0.0000 C   0  0  0  0  0  0  0  0  0  0  0  0
  -14.9521   18.9212    0.0000 C   0  0  0  0  0  0  0  0  0  0  0  0
  -16.0995   17.9550    0.0000 C   0  0  0  0  0  0  0  0  0  0  0  0
  -17.1846   16.9194    0.0000 C   0  0  0  0  0  0  0  0  0  0  0  0
  -18.2032   15.8183    0.0000 C   0  0  0  0  0  0  0  0  0  0  0  0
  -19.1514   14.6560    0.0000 C   0  0  0  0  0  0  0  0  0  0  0  0
  -20.0255   13.4370    0.0000 C   0  0  0  0  0  0  0  0  0  0  0  0
  -20.8222   12.1660    0.0000 C   0  0  0  0  0  0  0  0  0  0  0  0
  -21.5382   10.8480    0.0000 C   0  0  0  0  0  0  0  0  0  0  0  0
  -22.1710    9.4880    0.0000 C   0  0  0  0  0  0  0  0  0  0  0  0
  -22.7180    8.0913    0.0000 C   0  0  0  0  0  0  0  0  0  0  0  0
  -23.1771    6.6633    0.0000 C   0  0  0  0  0  0  0  0  0  0  0  0
  -23.5465    5.2095    0.0000 C   0  0  0  0  0  0  0  0  0  0  0  0
  -23.8248    3.7355    0.0000 C   0  0  0  0  0  0  0  0  0  0  0  0
  -24.0109    2.2471    0.0000 C   0  0  0  0  0  0  0  0  0  0  0  0
  -24.1042    0.7500    0.0000 C   0  0  0  0  0  0  0  0  0  0  0  0
  -24.1042   -0.7500    0.0000 C   0  0  0  0  0  0  0  0  0  0  0  0
  -24.0109   -2.2471    0.0000 C   0  0  0  0  0  0  0  0  0  0  0  0
  -23.8248   -3.7355    0.0000 C   0  0  0  0  0  0  0  0  0  0  0  0
  -23.5465   -5.2095    0.0000 C   0  0  0  0  0  0  0  0  0  0  0  0
  -23.1771   -6.6633    0.0000 C   0  0  0  0  0  0  0  0  0  0  0  0
  -22.7180   -8.0913    0.0000 C   0  0  0  0  0  0  0  0  0  0  0  0
  -22.1710   -9.4880    0.0000 C   0  0  0  0  0  0  0  0  0  0  0  0
  -21.5382  -10.8480    0.0000 C   0  0  0  0  0  0  0  0  0  0  0  0
  -20.8222  -12.1660    0.0000 C   0  0  0  0  0  0  0  0  0  0  0  0
  -20.0255  -13.4370    0.0000 C   0  0  0  0  0  0  0  0  0  0  0  0
  -19.1514  -14.6560    0.0000 C   0  0  0  0  0  0  0  0  0  0  0  0
  -18.2032  -15.8183    0.0000 C   0  0  0  0  0  0  0  0  0  0  0  0
  -17.1846  -16.9194    0.0000 C   0  0  0  0  0  0  0  0  0  0  0  0
  -16.0995  -17.9550    0.0000 C   0  0  0  0  0  0  0  0  0  0  0  0
  -14.9521  -18.9212    0.0000 C   0  0  0  0  0  0  0  0  0  0  0  0
  -13.7468  -19.8141    0.0000 C   0  0  0  0  0  0  0  0  0  0  0  0
  -12.4884  -20.6304    0.0000 C   0  0  0  0  0  0  0  0  0  0  0  0
  -11.1816  -21.3669    0.0000 C   0  0  0  0  0  0  0  0  0  0  0  0
   -9.8316  -22.0208    0.0000 C   0  0  0  0  0  0  0  0  0  0  0  0
   -8.4436  -22.5894    0.0000 C   0  0  0  0  0  0  0  0  0  0  0  0
   -7.0229  -23.0706    0.0000 C   0  0  0  0  0  0  0  0  0  0  0  0
   -5.5750  -23.4626    0.0000 C   0  0  0  0  0  0  0  0  0  0  0  0
   -4.1056  -23.7638    0.0000 C   0  0  0  0  0  0  0  0  0  0  0  0
   -2.6202  -23.9731    0.0000 C   0  0  0  0  0  0  0  0  0  0  0  0
   -1.1248  -24.0896    0.0000 C   0  0  0  0  0  0  0  0  0  0  0  0
    0.3750  -24.1129    0.0000 C   0  0  0  0  0  0  0  0  0  0  0  0
    1.8734  -24.0430    0.0000 C   0  0  0  0  0  0  0  0  0  0  0  0
    3.3645  -23.8800    0.0000 C   0  0  0  0  0  0  0  0  0  0  0  0
    4.8426  -23.6246    0.0000 C   0  0  0  0  0  0  0  0  0  0  0  0
    6.3020  -23.2779    0.0000 C   0  0  0  0  0  0  0  0  0  0  0  0
    7.7370  -22.8411    0.0000 C   0  0  0  0  0  0  0  0  0  0  0  0
    9.1420  -22.3159    0.0000 C   0  0  0  0  0  0  0  0  0  0  0  0
   10.5117  -21.7043    0.0000 C   0  0  0  0  0  0  0  0  0  0  0  0
   11.8407  -21.0088    0.0000 C   0  0  0  0  0  0  0  0  0  0  0  0
   13.1240  -20.2321    0.0000 C   0  0  0  0  0  0  0  0  0  0  0  0
   14.3564  -19.3770    0.0000 C   0  0  0  0  0  0  0  0  0  0  0  0
   15.5333  -18.4470    0.0000 C   0  0  0  0  0  0  0  0  0  0  0  0
   16.6501  -17.4456    0.0000 C   0  0  0  0  0  0  0  0  0  0  0  0
   17.7025  -16.3767    0.0000 C   0  0  0  0  0  0  0  0  0  0  0  0
   18.6863  -15.2445    0.0000 C   0  0  0  0  0  0  0  0  0  0  0  0
   19.5979  -14.0533    0.0000 C   0  0  0  0  0  0  0  0  0  0  0  0
   20.4337  -12.8077    0.0000 C   0  0  0  0  0  0  0  0  0  0  0  0
   21.1904  -11.5126    0.0000 C   0  0  0  0  0  0  0  0  0  0  0  0
   21.8652  -10.1729    0.0000 C   0  0  0  0  0  0  0  0  0  0  0  0
   22.4553   -8.7939    0.0000 C   0  0  0  0  0  0  0  0  0  0  0  0
   22.9586   -7.3808    0.0000 C   0  0  0  0  0  0  0  0  0  0  0  0
   23.3731   -5.9392    0.0000 C   0  0  0  0  0  0  0  0  0  0  0  0
   23.6971   -4.4746    0.0000 C   0  0  0  0  0  0  0  0  0  0  0  0
   23.9294   -2.9927    0.0000 C   0  0  0  0  0  0  0  0  0  0  0  0
   24.0692   -1.4993    0.0000 C   0  0  0  0  0  0  0  0  0  0  0  0
  1  2  1  0
  2  3  1  0
  3  4  1  0
  4  5  1  0
  5  6  1  0
  6  7  1  0
  7  8  1  0
  8  9  1  0
  9 10  1  0
 10 11  1  0
 11 12  1  0
 12 13  1  0
 13 14  1  0
 14 15  1  0
 15 16  1  0
 16 17  1  0
 17 18  1  0
 18 19  1  0
 19 20  1  0
 20 21  1  0
 21 22  1  0
 22 23  1  0
 23 24  1  0
 24 25  1  0
 25 26  1  0
 26 27  1  0
 27 28  1  0
 28 29  1  0
 29 30  1  0
 30 31  1  0
 31 32  1  0
 32 33  1  0
 33 34  1  0
 34 35  1  0
 35 36  1  0
 36 37  1  0
 37 38  1  0
 38 39  1  0
 39 40  1  0
 40 41  1  0
 41 42  1  0
 42 43  1  0
 43 44  1  0
 44 45  1  0
 45 46  1  0
 46 47  1  0
 47 48  1  0
 48 49  1  0
 49 50  1  0
 50 51  1  0
 51 52  1  0
 52 53  1  0
 53 54  1  0
 54 55  1  0
 55 56  1  0
 56 57  1  0
 57 58  1  0
 58 59  1  0
 59 60  1  0
 60 61  1  0
 61 62  1  0
 62 63  1  0
 63 64  1  0
 64 65  1  0
 65 66  1  0
 66 67  1  0
 67 68  1  0
 68 69  1  0
 69 70  1  0
 70 71  1  0
 71 72  1  0
 72 73  1  0
 73 74  1  0
 74 75  1  0
 75 76  1  0
 76 77  1  0
 77 78  1  0
 78 79  1  0
 79 80  1  0
 80 81  1  0
 81 82  1  0
 82 83  1  0
 83 84  1  0
 84 85  1  0
 85 86  1  0
 86 87  1  0
 87 88  1  0
 88 89  1  0
 89 90  1  0
 90 91  1  0
 91 92  1  0
 92 93  1  0
 93 94  1  0
 94 95  1  0
 95 96  1  0
 96 97  1  0
 97 98  1  0
 98 99  1  0
 99100  1  0
100101  1  0
101102  1  0
102  2  1  0
M  END
>  <Title>  (474) 
idAAQLgen7

$$$$

     RDKit          2D

 10 10  0  0  0  0  0  0  0  0999 V2000
    3.0000    0.0000    0.0000 C   0  0  0  0  0  0  0  0  0  0  0  0
    1.5000    0.0000    0.0000 C   0  0  0  0  0  0  0  0  0  0  0  0
    0.7500   -1.2990    0.0000 C   0  0  0  0  0  0  0  0  0  0  0  0
   -0.7500   -1.2990    0.0000 C   0  0  0  0  0  0  0  0  0  0  0  0
   -1.5000    0.0000    0.0000 N   0  0  0  0  0  0  0  0  0  0  0  0
   -3.0000    0.0000    0.0000 C   0  0  0  0  0  0  0  0  0  0  0  0
   -0.7500    1.2990    0.0000 C   0  0  0  0  0  0  0  0  0  0  0  0
    0.7500    1.2990    0.0000 C   0  0  0  0  0  0  0  0  0  0  0  0
    0.4895    2.7762    0.0000 C   0  0  0  0  0  0  0  0  0  0  0  0
    2.1595    1.8121    0.0000 C   0  0  0  0  0  0  0  0  0  0  0  0
  1  2  1  0
  2  3  1  0
  3  4  1  0
  4  5  1  0
  5  6  1  0
  5  7  1  0
  7  8  1  0
  8  9  1  0
  8 10  1  0
  8  2  1  0
M  END
>  <Title>  (475) 
idAAQMgen7

$$$$

     RDKit          2D

  9  9  0  0  0  0  0  0  0  0999 V2000
    3.2286   -0.0000    0.0000 C   0  0  0  0  0  0  0  0  0  0  0  0
    1.7286    0.0000    0.0000 C   0  0  0  0  0  0  0  0  0  0  0  0
    1.0777    1.3515    0.0000 C   0  0  0  0  0  0  0  0  0  0  0  0
   -0.3846    1.6852    0.0000 C   0  0  0  0  0  0  0  0  0  0  0  0
   -1.5574    0.7500    0.0000 C   0  0  0  0  0  0  0  0  0  0  0  0
   -1.5574   -0.7500    0.0000 C   0  0  0  0  0  0  0  0  0  0  0  0
   -0.3846   -1.6852    0.0000 C   0  0  0  0  0  0  0  0  0  0  0  0
    1.0777   -1.3515    0.0000 C   0  0  0  0  0  0  0  0  0  0  0  0
    2.0130   -2.5242    0.0000 C   0  0  0  0  0  0  0  0  0  0  0  0
  1  2  1  0
  2  3  2  0
  3  4  1  0
  4  5  1  0
  5  6  1  0
  6  7  1  0
  7  8  2  0
  8  9  1  0
  8  2  1  0
M  END
>  <Title>  (476) 
idAAQNgen7

$$$$

     RDKit          2D

105105  0  0  0  0  0  0  0  0999 V2000
   26.3319    0.0000    0.0000 C   0  0  0  0  0  0  0  0  0  0  0  0
   24.8319    0.0000    0.0000 C   0  0  0  0  0  0  0  0  0  0  0  0
   24.7866   -1.4993    0.0000 C   0  0  0  0  0  0  0  0  0  0  0  0
   24.6509   -2.9932    0.0000 C   0  0  0  0  0  0  0  0  0  0  0  0
   24.4252   -4.4761    0.0000 C   0  0  0  0  0  0  0  0  0  0  0  0
   24.1104   -5.9427    0.0000 C   0  0  0  0  0  0  0  0  0  0  0  0
   23.7076   -7.3876    0.0000 C   0  0  0  0  0  0  0  0  0  0  0  0
   23.2183   -8.8055    0.0000 C   0  0  0  0  0  0  0  0  0  0  0  0
   22.6442  -10.1913    0.0000 C   0  0  0  0  0  0  0  0  0  0  0  0
   21.9876  -11.5400    0.0000 C   0  0  0  0  0  0  0  0  0  0  0  0
   21.2507  -12.8465    0.0000 C   0  0  0  0  0  0  0  0  0  0  0  0
   20.4363  -14.1062    0.0000 C   0  0  0  0  0  0  0  0  0  0  0  0
   19.5473  -15.3143    0.0000 C   0  0  0  0  0  0  0  0  0  0  0  0
   18.5870  -16.4666    0.0000 C   0  0  0  0  0  0  0  0  0  0  0  0
   17.5588  -17.5588    0.0000 C   0  0  0  0  0  0  0  0  0  0  0  0
   16.4666  -18.5870    0.0000 C   0  0  0  0  0  0  0  0  0  0  0  0
   15.3143  -19.5473    0.0000 C   0  0  0  0  0  0  0  0  0  0  0  0
   14.1062  -20.4363    0.0000 C   0  0  0  0  0  0  0  0  0  0  0  0
   12.8465  -21.2507    0.0000 C   0  0  0  0  0  0  0  0  0  0  0  0
   11.5400  -21.9876    0.0000 C   0  0  0  0  0  0  0  0  0  0  0  0
   10.1913  -22.6442    0.0000 C   0  0  0  0  0  0  0  0  0  0  0  0
    8.8055  -23.2183    0.0000 C   0  0  0  0  0  0  0  0  0  0  0  0
    7.3876  -23.7076    0.0000 C   0  0  0  0  0  0  0  0  0  0  0  0
    5.9427  -24.1104    0.0000 C   0  0  0  0  0  0  0  0  0  0  0  0
    4.4761  -24.4252    0.0000 C   0  0  0  0  0  0  0  0  0  0  0  0
    2.9932  -24.6509    0.0000 C   0  0  0  0  0  0  0  0  0  0  0  0
    1.4993  -24.7866    0.0000 C   0  0  0  0  0  0  0  0  0  0  0  0
   -0.0000  -24.8319    0.0000 C   0  0  0  0  0  0  0  0  0  0  0  0
   -1.4993  -24.7866    0.0000 C   0  0  0  0  0  0  0  0  0  0  0  0
   -2.9932  -24.6509    0.0000 C   0  0  0  0  0  0  0  0  0  0  0  0
   -4.4761  -24.4252    0.0000 C   0  0  0  0  0  0  0  0  0  0  0  0
   -5.9427  -24.1104    0.0000 C   0  0  0  0  0  0  0  0  0  0  0  0
   -7.3876  -23.7076    0.0000 C   0  0  0  0  0  0  0  0  0  0  0  0
   -8.8055  -23.2183    0.0000 C   0  0  0  0  0  0  0  0  0  0  0  0
  -10.1913  -22.6442    0.0000 C   0  0  0  0  0  0  0  0  0  0  0  0
  -11.5400  -21.9876    0.0000 C   0  0  0  0  0  0  0  0  0  0  0  0
  -12.8465  -21.2507    0.0000 C   0  0  0  0  0  0  0  0  0  0  0  0
  -14.1062  -20.4363    0.0000 C   0  0  0  0  0  0  0  0  0  0  0  0
  -15.3143  -19.5473    0.0000 C   0  0  0  0  0  0  0  0  0  0  0  0
  -16.4666  -18.5870    0.0000 C   0  0  0  0  0  0  0  0  0  0  0  0
  -17.5588  -17.5588    0.0000 C   0  0  0  0  0  0  0  0  0  0  0  0
  -18.5870  -16.4666    0.0000 C   0  0  0  0  0  0  0  0  0  0  0  0
  -19.5473  -15.3143    0.0000 C   0  0  0  0  0  0  0  0  0  0  0  0
  -20.4363  -14.1062    0.0000 C   0  0  0  0  0  0  0  0  0  0  0  0
  -21.2507  -12.8465    0.0000 C   0  0  0  0  0  0  0  0  0  0  0  0
  -21.9876  -11.5400    0.0000 C   0  0  0  0  0  0  0  0  0  0  0  0
  -22.6442  -10.1913    0.0000 C   0  0  0  0  0  0  0  0  0  0  0  0
  -23.2183   -8.8055    0.0000 C   0  0  0  0  0  0  0  0  0  0  0  0
  -23.7076   -7.3876    0.0000 C   0  0  0  0  0  0  0  0  0  0  0  0
  -24.1104   -5.9427    0.0000 C   0  0  0  0  0  0  0  0  0  0  0  0
  -24.4252   -4.4761    0.0000 C   0  0  0  0  0  0  0  0  0  0  0  0
  -24.6509   -2.9932    0.0000 C   0  0  0  0  0  0  0  0  0  0  0  0
  -24.7866   -1.4993    0.0000 C   0  0  0  0  0  0  0  0  0  0  0  0
  -24.8319    0.0000    0.0000 C   0  0  0  0  0  0  0  0  0  0  0  0
  -24.7866    1.4993    0.0000 C   0  0  0  0  0  0  0  0  0  0  0  0
  -24.6509    2.9932    0.0000 C   0  0  0  0  0  0  0  0  0  0  0  0
  -24.4252    4.4761    0.0000 C   0  0  0  0  0  0  0  0  0  0  0  0
  -24.1104    5.9427    0.0000 C   0  0  0  0  0  0  0  0  0  0  0  0
  -23.7076    7.3876    0.0000 C   0  0  0  0  0  0  0  0  0  0  0  0
  -23.2183    8.8055    0.0000 C   0  0  0  0  0  0  0  0  0  0  0  0
  -22.6442   10.1913    0.0000 C   0  0  0  0  0  0  0  0  0  0  0  0
  -21.9876   11.5400    0.0000 C   0  0  0  0  0  0  0  0  0  0  0  0
  -21.2507   12.8465    0.0000 C   0  0  0  0  0  0  0  0  0  0  0  0
  -20.4363   14.1062    0.0000 C   0  0  0  0  0  0  0  0  0  0  0  0
  -19.5473   15.3143    0.0000 C   0  0  0  0  0  0  0  0  0  0  0  0
  -18.5870   16.4666    0.0000 C   0  0  0  0  0  0  0  0  0  0  0  0
  -17.5588   17.5588    0.0000 C   0  0  0  0  0  0  0  0  0  0  0  0
  -16.4666   18.5870    0.0000 C   0  0  0  0  0  0  0  0  0  0  0  0
  -15.3143   19.5473    0.0000 C   0  0  0  0  0  0  0  0  0  0  0  0
  -14.1062   20.4363    0.0000 C   0  0  0  0  0  0  0  0  0  0  0  0
  -12.8465   21.2507    0.0000 C   0  0  0  0  0  0  0  0  0  0  0  0
  -11.5400   21.9876    0.0000 C   0  0  0  0  0  0  0  0  0  0  0  0
  -10.1913   22.6442    0.0000 C   0  0  0  0  0  0  0  0  0  0  0  0
   -8.8055   23.2183    0.0000 C   0  0  0  0  0  0  0  0  0  0  0  0
   -7.3876   23.7076    0.0000 C   0  0  0  0  0  0  0  0  0  0  0  0
   -5.9427   24.1104    0.0000 C   0  0  0  0  0  0  0  0  0  0  0  0
   -4.4761   24.4252    0.0000 C   0  0  0  0  0  0  0  0  0  0  0  0
   -2.9932   24.6509    0.0000 C   0  0  0  0  0  0  0  0  0  0  0  0
   -1.4993   24.7866    0.0000 C   0  0  0  0  0  0  0  0  0  0  0  0
    0.0000   24.8319    0.0000 C   0  0  0  0  0  0  0  0  0  0  0  0
    1.4993   24.7866    0.0000 C   0  0  0  0  0  0  0  0  0  0  0  0
    2.9932   24.6509    0.0000 C   0  0  0  0  0  0  0  0  0  0  0  0
    4.4761   24.4252    0.0000 C   0  0  0  0  0  0  0  0  0  0  0  0
    5.9427   24.1104    0.0000 C   0  0  0  0  0  0  0  0  0  0  0  0
    7.3876   23.7076    0.0000 C   0  0  0  0  0  0  0  0  0  0  0  0
    8.8055   23.2183    0.0000 C   0  0  0  0  0  0  0  0  0  0  0  0
   10.1913   22.6442    0.0000 C   0  0  0  0  0  0  0  0  0  0  0  0
   11.5400   21.9876    0.0000 C   0  0  0  0  0  0  0  0  0  0  0  0
   12.8465   21.2507    0.0000 C   0  0  0  0  0  0  0  0  0  0  0  0
   14.1062   20.4363    0.0000 C   0  0  0  0  0  0  0  0  0  0  0  0
   15.3143   19.5473    0.0000 C   0  0  0  0  0  0  0  0  0  0  0  0
   16.4666   18.5870    0.0000 C   0  0  0  0  0  0  0  0  0  0  0  0
   17.5588   17.5588    0.0000 C   0  0  0  0  0  0  0  0  0  0  0  0
   18.5870   16.4666    0.0000 C   0  0  0  0  0  0  0  0  0  0  0  0
   19.5473   15.3143    0.0000 C   0  0  0  0  0  0  0  0  0  0  0  0
   20.4363   14.1062    0.0000 C   0  0  0  0  0  0  0  0  0  0  0  0
   21.2507   12.8465    0.0000 C   0  0  0  0  0  0  0  0  0  0  0  0
   21.9876   11.5400    0.0000 C   0  0  0  0  0  0  0  0  0  0  0  0
   22.6442   10.1913    0.0000 C   0  0  0  0  0  0  0  0  0  0  0  0
   23.2183    8.8055    0.0000 C   0  0  0  0  0  0  0  0  0  0  0  0
   23.7076    7.3876    0.0000 C   0  0  0  0  0  0  0  0  0  0  0  0
   24.1104    5.9427    0.0000 C   0  0  0  0  0  0  0  0  0  0  0  0
   24.4252    4.4761    0.0000 C   0  0  0  0  0  0  0  0  0  0  0  0
   24.6509    2.9932    0.0000 C   0  0  0  0  0  0  0  0  0  0  0  0
   24.7866    1.4993    0.0000 C   0  0  0  0  0  0  0  0  0  0  0  0
  1  2  1  0
  2  3  1  0
  3  4  1  0
  4  5  1  0
  5  6  1  0
  6  7  1  0
  7  8  1  0
  8  9  1  0
  9 10  1  0
 10 11  1  0
 11 12  1  0
 12 13  1  0
 13 14  1  0
 14 15  1  0
 15 16  1  0
 16 17  1  0
 17 18  1  0
 18 19  1  0
 19 20  1  0
 20 21  1  0
 21 22  1  0
 22 23  1  0
 23 24  1  0
 24 25  1  0
 25 26  1  0
 26 27  1  0
 27 28  1  0
 28 29  1  0
 29 30  1  0
 30 31  1  0
 31 32  1  0
 32 33  1  0
 33 34  1  0
 34 35  1  0
 35 36  1  0
 36 37  1  0
 37 38  1  0
 38 39  1  0
 39 40  1  0
 40 41  1  0
 41 42  1  0
 42 43  1  0
 43 44  1  0
 44 45  1  0
 45 46  1  0
 46 47  1  0
 47 48  1  0
 48 49  1  0
 49 50  1  0
 50 51  1  0
 51 52  1  0
 52 53  1  0
 53 54  1  0
 54 55  1  0
 55 56  1  0
 56 57  1  0
 57 58  1  0
 58 59  1  0
 59 60  1  0
 60 61  1  0
 61 62  1  0
 62 63  1  0
 63 64  1  0
 64 65  1  0
 65 66  1  0
 66 67  1  0
 67 68  1  0
 68 69  1  0
 69 70  1  0
 70 71  1  0
 71 72  1  0
 72 73  1  0
 73 74  1  0
 74 75  1  0
 75 76  1  0
 76 77  1  0
 77 78  1  0
 78 79  1  0
 79 80  1  0
 80 81  1  0
 81 82  1  0
 82 83  1  0
 83 84  1  0
 84 85  1  0
 85 86  1  0
 86 87  1  0
 87 88  1  0
 88 89  1  0
 89 90  1  0
 90 91  1  0
 91 92  1  0
 92 93  1  0
 93 94  1  0
 94 95  1  0
 95 96  1  0
 96 97  1  0
 97 98  1  0
 98 99  1  0
 99100  1  0
100101  1  0
101102  1  0
102103  1  0
103104  1  0
104105  1  0
105  2  1  0
M  END
>  <Title>  (477) 
idAAQOgen7

$$$$

     RDKit          2D

 40 40  0  0  0  0  0  0  0  0999 V2000
    9.5591    0.0000    0.0000 C   0  0  0  0  0  0  0  0  0  0  0  0
    9.4414   -1.4954    0.0000 C   0  0  0  0  0  0  0  0  0  0  0  0
    9.0913   -2.9539    0.0000 C   0  0  0  0  0  0  0  0  0  0  0  0
    8.5172   -4.3398    0.0000 C   0  0  0  0  0  0  0  0  0  0  0  0
    7.7335   -5.6187    0.0000 C   0  0  0  0  0  0  0  0  0  0  0  0
    6.7593   -6.7593    0.0000 C   0  0  0  0  0  0  0  0  0  0  0  0
    5.6187   -7.7335    0.0000 C   0  0  0  0  0  0  0  0  0  0  0  0
    4.3398   -8.5172    0.0000 C   0  0  0  0  0  0  0  0  0  0  0  0
    2.9539   -9.0913    0.0000 C   0  0  0  0  0  0  0  0  0  0  0  0
    1.4954   -9.4414    0.0000 C   0  0  0  0  0  0  0  0  0  0  0  0
   -0.0000   -9.5591    0.0000 C   0  0  0  0  0  0  0  0  0  0  0  0
   -1.4954   -9.4414    0.0000 C   0  0  0  0  0  0  0  0  0  0  0  0
   -2.9539   -9.0913    0.0000 C   0  0  0  0  0  0  0  0  0  0  0  0
   -4.3398   -8.5172    0.0000 C   0  0  0  0  0  0  0  0  0  0  0  0
   -5.6187   -7.7335    0.0000 C   0  0  0  0  0  0  0  0  0  0  0  0
   -6.7593   -6.7593    0.0000 C   0  0  0  0  0  0  0  0  0  0  0  0
   -7.7335   -5.6187    0.0000 C   0  0  0  0  0  0  0  0  0  0  0  0
   -8.5172   -4.3398    0.0000 C   0  0  0  0  0  0  0  0  0  0  0  0
   -9.0913   -2.9539    0.0000 C   0  0  0  0  0  0  0  0  0  0  0  0
   -9.4414   -1.4954    0.0000 C   0  0  0  0  0  0  0  0  0  0  0  0
   -9.5591    0.0000    0.0000 C   0  0  0  0  0  0  0  0  0  0  0  0
   -9.4414    1.4954    0.0000 C   0  0  0  0  0  0  0  0  0  0  0  0
   -9.0913    2.9539    0.0000 C   0  0  0  0  0  0  0  0  0  0  0  0
   -8.5172    4.3398    0.0000 C   0  0  0  0  0  0  0  0  0  0  0  0
   -7.7335    5.6187    0.0000 C   0  0  0  0  0  0  0  0  0  0  0  0
   -6.7593    6.7593    0.0000 C   0  0  0  0  0  0  0  0  0  0  0  0
   -5.6187    7.7335    0.0000 C   0  0  0  0  0  0  0  0  0  0  0  0
   -4.3398    8.5172    0.0000 C   0  0  0  0  0  0  0  0  0  0  0  0
   -2.9539    9.0913    0.0000 C   0  0  0  0  0  0  0  0  0  0  0  0
   -1.4954    9.4414    0.0000 C   0  0  0  0  0  0  0  0  0  0  0  0
    0.0000    9.5591    0.0000 C   0  0  0  0  0  0  0  0  0  0  0  0
    1.4954    9.4414    0.0000 C   0  0  0  0  0  0  0  0  0  0  0  0
    2.9539    9.0913    0.0000 C   0  0  0  0  0  0  0  0  0  0  0  0
    4.3398    8.5172    0.0000 C   0  0  0  0  0  0  0  0  0  0  0  0
    5.6187    7.7335    0.0000 C   0  0  0  0  0  0  0  0  0  0  0  0
    6.7593    6.7593    0.0000 C   0  0  0  0  0  0  0  0  0  0  0  0
    7.7335    5.6187    0.0000 C   0  0  0  0  0  0  0  0  0  0  0  0
    8.5172    4.3398    0.0000 C   0  0  0  0  0  0  0  0  0  0  0  0
    9.0913    2.9539    0.0000 C   0  0  0  0  0  0  0  0  0  0  0  0
    9.4414    1.4954    0.0000 C   0  0  0  0  0  0  0  0  0  0  0  0
  1  2  1  0
  2  3  1  0
  3  4  1  0
  4  5  1  0
  5  6  1  0
  6  7  1  0
  7  8  1  0
  8  9  1  0
  9 10  1  0
 10 11  1  0
 11 12  1  0
 12 13  1  0
 13 14  1  0
 14 15  1  0
 15 16  1  0
 16 17  1  0
 17 18  1  0
 18 19  1  0
 19 20  1  0
 20 21  1  0
 21 22  1  0
 22 23  1  0
 23 24  1  0
 24 25  1  0
 25 26  1  0
 26 27  1  0
 27 28  1  0
 28 29  1  0
 29 30  1  0
 30 31  1  0
 31 32  1  0
 32 33  1  0
 33 34  1  0
 34 35  1  0
 35 36  1  0
 36 37  1  0
 37 38  1  0
 38 39  1  0
 39 40  1  0
 40  1  1  0
M  END
>  <Title>  (478) 
idAAQPgen7

$$$$

     RDKit          2D

  8  8  0  0  0  0  0  0  0  0999 V2000
    5.0260   -1.2990    0.0000 C   0  0  0  0  0  0  0  0  0  0  0  0
    3.5260   -1.2990    0.0000 C   0  0  0  0  0  0  0  0  0  0  0  0
    2.7760    0.0000    0.0000 C   0  0  0  0  0  0  0  0  0  0  0  0
    1.2760    0.0000    0.0000 C   0  0  0  0  0  0  0  0  0  0  0  0
    0.3943    1.2135    0.0000 C   0  0  0  0  0  0  0  0  0  0  0  0
   -1.0323    0.7500    0.0000 C   0  0  0  0  0  0  0  0  0  0  0  0
   -1.0323   -0.7500    0.0000 C   0  0  0  0  0  0  0  0  0  0  0  0
    0.3943   -1.2135    0.0000 C   0  0  0  0  0  0  0  0  0  0  0  0
  1  2  1  0
  2  3  1  0
  3  4  1  0
  4  5  2  0
  5  6  1  0
  6  7  1  0
  7  8  1  0
  8  4  1  0
M  END
>  <Title>  (479) 
idAAQQgen7

$$$$

     RDKit          2D

 49 51  0  0  0  0  0  0  0  0999 V2000
   -2.6455   -0.1437    0.0000 C   0  0  0  0  0  0  0  0  0  0  0  0
   -2.2229   -1.5829    0.0000 C   0  0  0  0  0  0  0  0  0  0  0  0
   -3.6154   -2.1404    0.0000 C   0  0  0  0  0  0  0  0  0  0  0  0
   -4.8773   -2.9514    0.0000 C   0  0  0  0  0  0  0  0  0  0  0  0
   -5.9629   -3.9865    0.0000 C   0  0  0  0  0  0  0  0  0  0  0  0
   -6.8330   -5.2084    0.0000 C   0  0  0  0  0  0  0  0  0  0  0  0
   -7.4561   -6.5728    0.0000 C   0  0  0  0  0  0  0  0  0  0  0  0
   -7.8098   -8.0305    0.0000 C   0  0  0  0  0  0  0  0  0  0  0  0
   -7.8811   -9.5288    0.0000 C   0  0  0  0  0  0  0  0  0  0  0  0
   -7.6677  -11.0136    0.0000 C   0  0  0  0  0  0  0  0  0  0  0  0
   -7.1771  -12.4311    0.0000 C   0  0  0  0  0  0  0  0  0  0  0  0
   -6.4271  -13.7301    0.0000 C   0  0  0  0  0  0  0  0  0  0  0  0
   -5.4448  -14.8637    0.0000 C   0  0  0  0  0  0  0  0  0  0  0  0
   -4.2657  -15.7910    0.0000 C   0  0  0  0  0  0  0  0  0  0  0  0
   -2.9324  -16.4783    0.0000 C   0  0  0  0  0  0  0  0  0  0  0  0
   -1.4932  -16.9009    0.0000 C   0  0  0  0  0  0  0  0  0  0  0  0
   -0.0000  -17.0435    0.0000 C   0  0  0  0  0  0  0  0  0  0  0  0
    1.4932  -16.9009    0.0000 C   0  0  0  0  0  0  0  0  0  0  0  0
    2.9324  -16.4783    0.0000 C   0  0  0  0  0  0  0  0  0  0  0  0
    4.2657  -15.7910    0.0000 C   0  0  0  0  0  0  0  0  0  0  0  0
    5.4448  -14.8637    0.0000 C   0  0  0  0  0  0  0  0  0  0  0  0
    6.4271  -13.7301    0.0000 C   0  0  0  0  0  0  0  0  0  0  0  0
    7.1771  -12.4311    0.0000 C   0  0  0  0  0  0  0  0  0  0  0  0
    7.6677  -11.0136    0.0000 C   0  0  0  0  0  0  0  0  0  0  0  0
    7.8811   -9.5288    0.0000 C   0  0  0  0  0  0  0  0  0  0  0  0
    7.8098   -8.0305    0.0000 C   0  0  0  0  0  0  0  0  0  0  0  0
    7.4561   -6.5728    0.0000 C   0  0  0  0  0  0  0  0  0  0  0  0
    6.8330   -5.2084    0.0000 C   0  0  0  0  0  0  0  0  0  0  0  0
    5.9629   -3.9865    0.0000 C   0  0  0  0  0  0  0  0  0  0  0  0
    4.8773   -2.9514    0.0000 C   0  0  0  0  0  0  0  0  0  0  0  0
    3.6154   -2.1404    0.0000 C   0  0  0  0  0  0  0  0  0  0  0  0
    2.2229   -1.5829    0.0000 C   0  0  0  0  0  0  0  0  0  0  0  0
    2.6455   -0.1437    0.0000 C   0  0  0  0  0  0  0  0  0  0  0  0
    4.1032    0.2100    0.0000 C   0  0  0  0  0  0  0  0  0  0  0  0
    4.5258    1.6492    0.0000 C   0  0  0  0  0  0  0  0  0  0  0  0
    3.4907    2.7348    0.0000 O   0  0  0  0  0  0  0  0  0  0  0  0
    5.9835    2.0028    0.0000 N   0  0  0  0  0  0  0  0  0  0  0  0
    6.4061    3.4421    0.0000 C   0  0  0  0  0  0  0  0  0  0  0  0
    7.8638    3.7957    0.0000 N   0  0  0  0  0  0  0  0  0  0  0  0
    8.2864    5.2350    0.0000 N   0  0  0  0  0  0  0  0  0  0  0  0
    7.2513    6.3206    0.0000 N   0  0  0  0  0  0  0  0  0  0  0  0
    5.7936    5.9669    0.0000 N   0  0  0  0  0  0  0  0  0  0  0  0
    5.3710    4.5277    0.0000 N   0  0  0  0  0  0  0  0  0  0  0  0
    0.7500   -1.2990    0.0000 C   0  0  0  0  0  0  0  0  0  0  0  0
    1.5000    0.0000    0.0000 C   0  0  0  0  0  0  0  0  0  0  0  0
    0.7500    1.2990    0.0000 C   0  0  0  0  0  0  0  0  0  0  0  0
   -0.7500    1.2990    0.0000 C   0  0  0  0  0  0  0  0  0  0  0  0
   -1.5000    0.0000    0.0000 C   0  0  0  0  0  0  0  0  0  0  0  0
   -0.7500   -1.2990    0.0000 C   0  0  0  0  0  0  0  0  0  0  0  0
  1  2  1  0
  2  3  1  0
  3  4  1  0
  4  5  1  0
  5  6  1  0
  6  7  1  0
  7  8  1  0
  8  9  1  0
  9 10  1  0
 10 11  1  0
 11 12  1  0
 12 13  1  0
 13 14  1  0
 14 15  2  0
 15 16  1  0
 16 17  1  0
 17 18  1  0
 18 19  1  0
 19 20  1  0
 20 21  1  0
 21 22  1  0
 22 23  1  0
 23 24  1  0
 24 25  1  0
 25 26  1  0
 26 27  1  0
 27 28  1  0
 28 29  1  0
 29 30  1  0
 30 31  1  0
 31 32  1  0
 32 33  1  0
 33 34  1  0
 34 35  1  0
 35 36  2  0
 35 37  1  0
 37 38  1  0
 38 39  2  0
 39 40  1  0
 40 41  2  0
 41 42  1  0
 42 43  2  0
 32 44  1  0
 44 45  2  0
 45 46  1  0
 46 47  2  0
 47 48  1  0
 48 49  2  0
 49  2  1  0
 43 38  1  0
 49 44  1  0
M  END
>  <Title>  (480) 
idAAQRgen7

$$$$

     RDKit          2D

 11 11  0  0  0  0  0  0  0  0999 V2000
   10.2760   -0.0000    0.0000 C   0  0  0  0  0  0  0  0  0  0  0  0
    8.7760   -0.0000    0.0000 C   0  0  0  0  0  0  0  0  0  0  0  0
    7.2760   -0.0000    0.0000 C   0  0  0  0  0  0  0  0  0  0  0  0
    5.7760   -0.0000    0.0000 C   0  0  0  0  0  0  0  0  0  0  0  0
    4.2760   -0.0000    0.0000 C   0  0  0  0  0  0  0  0  0  0  0  0
    2.7760    0.0000    0.0000 C   0  0  0  0  0  0  0  0  0  0  0  0
    1.2760    0.0000    0.0000 C   0  0  0  0  0  0  0  0  0  0  0  0
    0.3943    1.2135    0.0000 C   0  0  0  0  0  0  0  0  0  0  0  0
   -1.0323    0.7500    0.0000 C   0  0  0  0  0  0  0  0  0  0  0  0
   -1.0323   -0.7500    0.0000 C   0  0  0  0  0  0  0  0  0  0  0  0
    0.3943   -1.2135    0.0000 C   0  0  0  0  0  0  0  0  0  0  0  0
  1  2  3  0
  2  3  1  0
  3  4  3  0
  4  5  1  0
  5  6  3  0
  6  7  1  0
  7  8  2  0
  8  9  1  0
  9 10  1  0
 10 11  2  0
 11  7  1  0
M  END
>  <Title>  (481) 
idAAQSgen7

$$$$

     RDKit          2D

 84 88  0  0  0  0  0  0  0  0999 V2000
   -5.6779   -0.8497    0.0000 C   0  0  0  0  0  0  0  0  0  0  0  0
   -5.1317   -2.2467    0.0000 C   0  0  0  0  0  0  0  0  0  0  0  0
   -6.4977   -2.8665    0.0000 C   0  0  0  0  0  0  0  0  0  0  0  0
   -7.7900   -3.6280    0.0000 C   0  0  0  0  0  0  0  0  0  0  0  0
   -8.9941   -4.5225    0.0000 C   0  0  0  0  0  0  0  0  0  0  0  0
  -10.0962   -5.5400    0.0000 C   0  0  0  0  0  0  0  0  0  0  0  0
  -11.0840   -6.6689    0.0000 C   0  0  0  0  0  0  0  0  0  0  0  0
  -11.9462   -7.8963    0.0000 C   0  0  0  0  0  0  0  0  0  0  0  0
  -12.6730   -9.2085    0.0000 C   0  0  0  0  0  0  0  0  0  0  0  0
  -13.2562  -10.5904    0.0000 C   0  0  0  0  0  0  0  0  0  0  0  0
  -13.6893  -12.0266    0.0000 C   0  0  0  0  0  0  0  0  0  0  0  0
  -13.9672  -13.5006    0.0000 C   0  0  0  0  0  0  0  0  0  0  0  0
  -14.0869  -14.9958    0.0000 C   0  0  0  0  0  0  0  0  0  0  0  0
  -14.0469  -16.4953    0.0000 C   0  0  0  0  0  0  0  0  0  0  0  0
  -13.8479  -17.9820    0.0000 C   0  0  0  0  0  0  0  0  0  0  0  0
  -13.4919  -19.4391    0.0000 C   0  0  0  0  0  0  0  0  0  0  0  0
  -12.9830  -20.8502    0.0000 C   0  0  0  0  0  0  0  0  0  0  0  0
  -12.3270  -22.1992    0.0000 C   0  0  0  0  0  0  0  0  0  0  0  0
  -11.5314  -23.4708    0.0000 C   0  0  0  0  0  0  0  0  0  0  0  0
  -10.6051  -24.6506    0.0000 C   0  0  0  0  0  0  0  0  0  0  0  0
   -9.5587  -25.7253    0.0000 C   0  0  0  0  0  0  0  0  0  0  0  0
   -8.4039  -26.6826    0.0000 C   0  0  0  0  0  0  0  0  0  0  0  0
   -7.1540  -27.5118    0.0000 C   0  0  0  0  0  0  0  0  0  0  0  0
   -5.8229  -28.2035    0.0000 C   0  0  0  0  0  0  0  0  0  0  0  0
   -4.4259  -28.7497    0.0000 C   0  0  0  0  0  0  0  0  0  0  0  0
   -2.9788  -29.1444    0.0000 C   0  0  0  0  0  0  0  0  0  0  0  0
   -1.4979  -29.3830    0.0000 C   0  0  0  0  0  0  0  0  0  0  0  0
    0.0000  -29.4628    0.0000 C   0  0  0  0  0  0  0  0  0  0  0  0
    1.4979  -29.3830    0.0000 C   0  0  0  0  0  0  0  0  0  0  0  0
    2.9788  -29.1444    0.0000 C   0  0  0  0  0  0  0  0  0  0  0  0
    4.4259  -28.7497    0.0000 C   0  0  0  0  0  0  0  0  0  0  0  0
    5.8229  -28.2035    0.0000 C   0  0  0  0  0  0  0  0  0  0  0  0
    7.1540  -27.5118    0.0000 C   0  0  0  0  0  0  0  0  0  0  0  0
    8.4039  -26.6826    0.0000 C   0  0  0  0  0  0  0  0  0  0  0  0
    9.5587  -25.7253    0.0000 C   0  0  0  0  0  0  0  0  0  0  0  0
   10.6051  -24.6506    0.0000 C   0  0  0  0  0  0  0  0  0  0  0  0
   11.5314  -23.4708    0.0000 C   0  0  0  0  0  0  0  0  0  0  0  0
   12.3270  -22.1992    0.0000 C   0  0  0  0  0  0  0  0  0  0  0  0
   12.9830  -20.8502    0.0000 C   0  0  0  0  0  0  0  0  0  0  0  0
   13.4919  -19.4391    0.0000 C   0  0  0  0  0  0  0  0  0  0  0  0
   13.8479  -17.9820    0.0000 C   0  0  0  0  0  0  0  0  0  0  0  0
   14.0469  -16.4953    0.0000 C   0  0  0  0  0  0  0  0  0  0  0  0
   14.0869  -14.9958    0.0000 C   0  0  0  0  0  0  0  0  0  0  0  0
   13.9672  -13.5006    0.0000 C   0  0  0  0  0  0  0  0  0  0  0  0
   13.6893  -12.0266    0.0000 C   0  0  0  0  0  0  0  0  0  0  0  0
   13.2562  -10.5904    0.0000 C   0  0  0  0  0  0  0  0  0  0  0  0
   12.6730   -9.2085    0.0000 C   0  0  0  0  0  0  0  0  0  0  0  0
   11.9462   -7.8963    0.0000 C   0  0  0  0  0  0  0  0  0  0  0  0
   11.0840   -6.6689    0.0000 C   0  0  0  0  0  0  0  0  0  0  0  0
   10.0962   -5.5400    0.0000 C   0  0  0  0  0  0  0  0  0  0  0  0
    8.9941   -4.5225    0.0000 C   0  0  0  0  0  0  0  0  0  0  0  0
    7.7900   -3.6280    0.0000 C   0  0  0  0  0  0  0  0  0  0  0  0
    6.4977   -2.8665    0.0000 C   0  0  0  0  0  0  0  0  0  0  0  0
    5.1317   -2.2467    0.0000 C   0  0  0  0  0  0  0  0  0  0  0  0
    3.7076   -1.7756    0.0000 C   0  0  0  0  0  0  0  0  0  0  0  0
    2.2415   -1.4585    0.0000 C   0  0  0  0  0  0  0  0  0  0  0  0
    2.4801    0.0224    0.0000 C   0  0  0  0  0  0  0  0  0  0  0  0
    3.8819    0.5562    0.0000 C   0  0  0  0  0  0  0  0  0  0  0  0
    5.0451   -0.3908    0.0000 C   0  0  0  0  0  0  0  0  0  0  0  0
    6.4469    0.1430    0.0000 C   0  0  0  0  0  0  0  0  0  0  0  0
    6.6855    1.6239    0.0000 C   0  0  0  0  0  0  0  0  0  0  0  0
    5.5223    2.5710    0.0000 C   0  0  0  0  0  0  0  0  0  0  0  0
    4.1205    2.0371    0.0000 C   0  0  0  0  0  0  0  0  0  0  0  0
    2.9573    2.9842    0.0000 C   0  0  0  0  0  0  0  0  0  0  0  0
    1.5555    2.4504    0.0000 O   0  0  0  0  0  0  0  0  0  0  0  0
    3.1959    4.4651    0.0000 N   0  0  0  0  0  0  0  0  0  0  0  0
    2.0327    5.4122    0.0000 C   0  0  0  0  0  0  0  0  0  0  0  0
    2.2713    6.8931    0.0000 N   0  0  0  0  0  0  0  0  0  0  0  0
    1.1081    7.8402    0.0000 N   0  0  0  0  0  0  0  0  0  0  0  0
   -0.2937    7.3064    0.0000 N   0  0  0  0  0  0  0  0  0  0  0  0
   -0.5323    5.8255    0.0000 N   0  0  0  0  0  0  0  0  0  0  0  0
    0.6309    4.8784    0.0000 N   0  0  0  0  0  0  0  0  0  0  0  0
    0.7500   -1.2990    0.0000 C   0  0  0  0  0  0  0  0  0  0  0  0
    1.5000    0.0000    0.0000 C   0  0  0  0  0  0  0  0  0  0  0  0
    0.7500    1.2990    0.0000 C   0  0  0  0  0  0  0  0  0  0  0  0
   -0.7500    1.2990    0.0000 C   0  0  0  0  0  0  0  0  0  0  0  0
   -1.5000    0.0000    0.0000 C   0  0  0  0  0  0  0  0  0  0  0  0
   -0.7500   -1.2990    0.0000 C   0  0  0  0  0  0  0  0  0  0  0  0
   -2.2415   -1.4585    0.0000 C   0  0  0  0  0  0  0  0  0  0  0  0
   -1.2339   -2.5696    0.0000 C   0  0  0  0  0  0  0  0  0  0  0  0
   -1.6923   -3.9978    0.0000 C   0  0  0  0  0  0  0  0  0  0  0  0
   -3.1584   -4.3149    0.0000 C   0  0  0  0  0  0  0  0  0  0  0  0
   -4.1661   -3.2038    0.0000 C   0  0  0  0  0  0  0  0  0  0  0  0
   -3.7076   -1.7756    0.0000 C   0  0  0  0  0  0  0  0  0  0  0  0
  1  2  1  0
  2  3  1  0
  3  4  1  0
  4  5  1  0
  5  6  1  0
  6  7  1  0
  7  8  1  0
  8  9  1  0
  9 10  1  0
 10 11  1  0
 11 12  1  0
 12 13  1  0
 13 14  1  0
 14 15  2  0
 15 16  1  0
 16 17  2  0
 17 18  1  0
 18 19  2  0
 19 20  1  0
 20 21  1  0
 21 22  1  0
 22 23  1  0
 23 24  1  0
 24 25  1  0
 25 26  1  0
 26 27  1  0
 27 28  1  0
 28 29  1  0
 29 30  1  0
 30 31  1  0
 31 32  1  0
 32 33  1  0
 33 34  1  0
 34 35  1  0
 35 36  1  0
 36 37  1  0
 37 38  1  0
 38 39  1  0
 39 40  1  0
 40 41  1  0
 41 42  1  0
 42 43  1  0
 43 44  1  0
 44 45  1  0
 45 46  1  0
 46 47  1  0
 47 48  1  0
 48 49  1  0
 49 50  1  0
 50 51  1  0
 51 52  1  0
 52 53  1  0
 53 54  1  0
 54 55  1  0
 55 56  1  0
 56 57  1  0
 57 58  1  0
 58 59  2  0
 59 60  1  0
 60 61  2  0
 61 62  1  0
 62 63  2  0
 63 64  1  0
 64 65  2  0
 64 66  1  0
 66 67  1  0
 67 68  2  0
 68 69  1  0
 69 70  2  0
 70 71  1  0
 71 72  2  0
 56 73  1  0
 73 74  2  0
 74 75  1  0
 75 76  2  0
 76 77  1  0
 77 78  2  0
 78 79  1  0
 79 80  2  0
 80 81  1  0
 81 82  2  0
 82 83  1  0
 83 84  2  0
 84  2  1  0
 63 58  1  0
 72 67  1  0
 78 73  1  0
 84 79  1  0
M  END
>  <Title>  (482) 
idAAQTgen7

$$$$

     RDKit          2D

 11 11  0  0  0  0  0  0  0  0999 V2000
    7.2760   -2.5981    0.0000 N   0  0  0  0  0  0  0  0  0  0  0  0
    6.5260   -1.2990    0.0000 C   0  0  0  0  0  0  0  0  0  0  0  0
    5.7760   -0.0000    0.0000 C   0  0  0  0  0  0  0  0  0  0  0  0
    6.5260    1.2990    0.0000 O   0  0  0  0  0  0  0  0  0  0  0  0
    4.2760   -0.0000    0.0000 C   0  0  0  0  0  0  0  0  0  0  0  0
    2.7760    0.0000    0.0000 C   0  0  0  0  0  0  0  0  0  0  0  0
    1.2760    0.0000    0.0000 C   0  0  0  0  0  0  0  0  0  0  0  0
    0.3943    1.2135    0.0000 C   0  0  0  0  0  0  0  0  0  0  0  0
   -1.0323    0.7500    0.0000 C   0  0  0  0  0  0  0  0  0  0  0  0
   -1.0323   -0.7500    0.0000 C   0  0  0  0  0  0  0  0  0  0  0  0
    0.3943   -1.2135    0.0000 C   0  0  0  0  0  0  0  0  0  0  0  0
  1  2  3  0
  2  3  1  0
  3  4  2  0
  3  5  1  0
  5  6  3  0
  6  7  1  0
  7  8  2  0
  8  9  1  0
  9 10  2  0
 10 11  1  0
 11  7  1  0
M  END
>  <Title>  (483) 
idAAQUgen7

$$$$

     RDKit          2D

102102  0  0  0  0  0  0  0  0999 V2000
   25.6159   -0.0000    0.0000 C   0  0  0  0  0  0  0  0  0  0  0  0
   24.1159    0.0000    0.0000 C   0  0  0  0  0  0  0  0  0  0  0  0
   24.0692    1.4993    0.0000 C   0  0  0  0  0  0  0  0  0  0  0  0
   23.9294    2.9927    0.0000 C   0  0  0  0  0  0  0  0  0  0  0  0
   23.6971    4.4746    0.0000 C   0  0  0  0  0  0  0  0  0  0  0  0
   23.3731    5.9392    0.0000 C   0  0  0  0  0  0  0  0  0  0  0  0
   22.9586    7.3808    0.0000 C   0  0  0  0  0  0  0  0  0  0  0  0
   22.4553    8.7939    0.0000 C   0  0  0  0  0  0  0  0  0  0  0  0
   21.8652   10.1729    0.0000 C   0  0  0  0  0  0  0  0  0  0  0  0
   21.1904   11.5126    0.0000 C   0  0  0  0  0  0  0  0  0  0  0  0
   20.4337   12.8077    0.0000 C   0  0  0  0  0  0  0  0  0  0  0  0
   19.5979   14.0533    0.0000 C   0  0  0  0  0  0  0  0  0  0  0  0
   18.6863   15.2445    0.0000 C   0  0  0  0  0  0  0  0  0  0  0  0
   17.7025   16.3767    0.0000 C   0  0  0  0  0  0  0  0  0  0  0  0
   16.6501   17.4456    0.0000 C   0  0  0  0  0  0  0  0  0  0  0  0
   15.5333   18.4470    0.0000 C   0  0  0  0  0  0  0  0  0  0  0  0
   14.3564   19.3770    0.0000 C   0  0  0  0  0  0  0  0  0  0  0  0
   13.1240   20.2321    0.0000 C   0  0  0  0  0  0  0  0  0  0  0  0
   11.8407   21.0088    0.0000 C   0  0  0  0  0  0  0  0  0  0  0  0
   10.5117   21.7043    0.0000 C   0  0  0  0  0  0  0  0  0  0  0  0
    9.1420   22.3159    0.0000 C   0  0  0  0  0  0  0  0  0  0  0  0
    7.7370   22.8411    0.0000 C   0  0  0  0  0  0  0  0  0  0  0  0
    6.3020   23.2779    0.0000 C   0  0  0  0  0  0  0  0  0  0  0  0
    4.8426   23.6246    0.0000 C   0  0  0  0  0  0  0  0  0  0  0  0
    3.3645   23.8800    0.0000 C   0  0  0  0  0  0  0  0  0  0  0  0
    1.8734   24.0430    0.0000 C   0  0  0  0  0  0  0  0  0  0  0  0
    0.3750   24.1129    0.0000 C   0  0  0  0  0  0  0  0  0  0  0  0
   -1.1248   24.0896    0.0000 C   0  0  0  0  0  0  0  0  0  0  0  0
   -2.6202   23.9731    0.0000 C   0  0  0  0  0  0  0  0  0  0  0  0
   -4.1056   23.7638    0.0000 C   0  0  0  0  0  0  0  0  0  0  0  0
   -5.5750   23.4626    0.0000 C   0  0  0  0  0  0  0  0  0  0  0  0
   -7.0229   23.0706    0.0000 C   0  0  0  0  0  0  0  0  0  0  0  0
   -8.4436   22.5894    0.0000 C   0  0  0  0  0  0  0  0  0  0  0  0
   -9.8316   22.0208    0.0000 C   0  0  0  0  0  0  0  0  0  0  0  0
  -11.1816   21.3669    0.0000 C   0  0  0  0  0  0  0  0  0  0  0  0
  -12.4884   20.6304    0.0000 C   0  0  0  0  0  0  0  0  0  0  0  0
  -13.7468   19.8141    0.0000 C   0  0  0  0  0  0  0  0  0  0  0  0
  -14.9521   18.9212    0.0000 C   0  0  0  0  0  0  0  0  0  0  0  0
  -16.0995   17.9550    0.0000 C   0  0  0  0  0  0  0  0  0  0  0  0
  -17.1846   16.9194    0.0000 C   0  0  0  0  0  0  0  0  0  0  0  0
  -18.2032   15.8183    0.0000 C   0  0  0  0  0  0  0  0  0  0  0  0
  -19.1514   14.6560    0.0000 C   0  0  0  0  0  0  0  0  0  0  0  0
  -20.0255   13.4370    0.0000 C   0  0  0  0  0  0  0  0  0  0  0  0
  -20.8222   12.1660    0.0000 C   0  0  0  0  0  0  0  0  0  0  0  0
  -21.5382   10.8480    0.0000 C   0  0  0  0  0  0  0  0  0  0  0  0
  -22.1710    9.4880    0.0000 C   0  0  0  0  0  0  0  0  0  0  0  0
  -22.7180    8.0913    0.0000 C   0  0  0  0  0  0  0  0  0  0  0  0
  -23.1771    6.6633    0.0000 C   0  0  0  0  0  0  0  0  0  0  0  0
  -23.5465    5.2095    0.0000 C   0  0  0  0  0  0  0  0  0  0  0  0
  -23.8248    3.7355    0.0000 C   0  0  0  0  0  0  0  0  0  0  0  0
  -24.0109    2.2471    0.0000 C   0  0  0  0  0  0  0  0  0  0  0  0
  -24.1042    0.7500    0.0000 C   0  0  0  0  0  0  0  0  0  0  0  0
  -24.1042   -0.7500    0.0000 C   0  0  0  0  0  0  0  0  0  0  0  0
  -24.0109   -2.2471    0.0000 C   0  0  0  0  0  0  0  0  0  0  0  0
  -23.8248   -3.7355    0.0000 C   0  0  0  0  0  0  0  0  0  0  0  0
  -23.5465   -5.2095    0.0000 C   0  0  0  0  0  0  0  0  0  0  0  0
  -23.1771   -6.6633    0.0000 C   0  0  0  0  0  0  0  0  0  0  0  0
  -22.7180   -8.0913    0.0000 C   0  0  0  0  0  0  0  0  0  0  0  0
  -22.1710   -9.4880    0.0000 C   0  0  0  0  0  0  0  0  0  0  0  0
  -21.5382  -10.8480    0.0000 C   0  0  0  0  0  0  0  0  0  0  0  0
  -20.8222  -12.1660    0.0000 C   0  0  0  0  0  0  0  0  0  0  0  0
  -20.0255  -13.4370    0.0000 C   0  0  0  0  0  0  0  0  0  0  0  0
  -19.1514  -14.6560    0.0000 C   0  0  0  0  0  0  0  0  0  0  0  0
  -18.2032  -15.8183    0.0000 C   0  0  0  0  0  0  0  0  0  0  0  0
  -17.1846  -16.9194    0.0000 C   0  0  0  0  0  0  0  0  0  0  0  0
  -16.0995  -17.9550    0.0000 C   0  0  0  0  0  0  0  0  0  0  0  0
  -14.9521  -18.9212    0.0000 C   0  0  0  0  0  0  0  0  0  0  0  0
  -13.7468  -19.8141    0.0000 C   0  0  0  0  0  0  0  0  0  0  0  0
  -12.4884  -20.6304    0.0000 C   0  0  0  0  0  0  0  0  0  0  0  0
  -11.1816  -21.3669    0.0000 C   0  0  0  0  0  0  0  0  0  0  0  0
   -9.8316  -22.0208    0.0000 C   0  0  0  0  0  0  0  0  0  0  0  0
   -8.4436  -22.5894    0.0000 C   0  0  0  0  0  0  0  0  0  0  0  0
   -7.0229  -23.0706    0.0000 C   0  0  0  0  0  0  0  0  0  0  0  0
   -5.5750  -23.4626    0.0000 C   0  0  0  0  0  0  0  0  0  0  0  0
   -4.1056  -23.7638    0.0000 C   0  0  0  0  0  0  0  0  0  0  0  0
   -2.6202  -23.9731    0.0000 C   0  0  0  0  0  0  0  0  0  0  0  0
   -1.1248  -24.0896    0.0000 C   0  0  0  0  0  0  0  0  0  0  0  0
    0.3750  -24.1129    0.0000 C   0  0  0  0  0  0  0  0  0  0  0  0
    1.8734  -24.0430    0.0000 C   0  0  0  0  0  0  0  0  0  0  0  0
    3.3645  -23.8800    0.0000 C   0  0  0  0  0  0  0  0  0  0  0  0
    4.8426  -23.6246    0.0000 C   0  0  0  0  0  0  0  0  0  0  0  0
    6.3020  -23.2779    0.0000 C   0  0  0  0  0  0  0  0  0  0  0  0
    7.7370  -22.8411    0.0000 C   0  0  0  0  0  0  0  0  0  0  0  0
    9.1420  -22.3159    0.0000 C   0  0  0  0  0  0  0  0  0  0  0  0
   10.5117  -21.7043    0.0000 C   0  0  0  0  0  0  0  0  0  0  0  0
   11.8407  -21.0088    0.0000 C   0  0  0  0  0  0  0  0  0  0  0  0
   13.1240  -20.2321    0.0000 C   0  0  0  0  0  0  0  0  0  0  0  0
   14.3564  -19.3770    0.0000 C   0  0  0  0  0  0  0  0  0  0  0  0
   15.5333  -18.4470    0.0000 C   0  0  0  0  0  0  0  0  0  0  0  0
   16.6501  -17.4456    0.0000 C   0  0  0  0  0  0  0  0  0  0  0  0
   17.7025  -16.3767    0.0000 C   0  0  0  0  0  0  0  0  0  0  0  0
   18.6863  -15.2445    0.0000 C   0  0  0  0  0  0  0  0  0  0  0  0
   19.5979  -14.0533    0.0000 C   0  0  0  0  0  0  0  0  0  0  0  0
   20.4337  -12.8077    0.0000 C   0  0  0  0  0  0  0  0  0  0  0  0
   21.1904  -11.5126    0.0000 C   0  0  0  0  0  0  0  0  0  0  0  0
   21.8652  -10.1729    0.0000 C   0  0  0  0  0  0  0  0  0  0  0  0
   22.4553   -8.7939    0.0000 C   0  0  0  0  0  0  0  0  0  0  0  0
   22.9586   -7.3808    0.0000 C   0  0  0  0  0  0  0  0  0  0  0  0
   23.3731   -5.9392    0.0000 C   0  0  0  0  0  0  0  0  0  0  0  0
   23.6971   -4.4746    0.0000 C   0  0  0  0  0  0  0  0  0  0  0  0
   23.9294   -2.9927    0.0000 C   0  0  0  0  0  0  0  0  0  0  0  0
   24.0692   -1.4993    0.0000 C   0  0  0  0  0  0  0  0  0  0  0  0
  1  2  1  0
  2  3  1  0
  3  4  1  0
  4  5  1  0
  5  6  1  0
  6  7  1  0
  7  8  1  0
  8  9  1  0
  9 10  1  0
 10 11  1  0
 11 12  1  0
 12 13  1  0
 13 14  1  0
 14 15  1  0
 15 16  1  0
 16 17  1  0
 17 18  1  0
 18 19  1  0
 19 20  1  0
 20 21  1  0
 21 22  1  0
 22 23  1  0
 23 24  1  0
 24 25  1  0
 25 26  1  0
 26 27  1  0
 27 28  1  0
 28 29  1  0
 29 30  1  0
 30 31  1  0
 31 32  1  0
 32 33  1  0
 33 34  1  0
 34 35  1  0
 35 36  1  0
 36 37  1  0
 37 38  1  0
 38 39  1  0
 39 40  1  0
 40 41  1  0
 41 42  1  0
 42 43  1  0
 43 44  1  0
 44 45  1  0
 45 46  1  0
 46 47  1  0
 47 48  1  0
 48 49  1  0
 49 50  1  0
 50 51  1  0
 51 52  1  0
 52 53  1  0
 53 54  1  0
 54 55  1  0
 55 56  1  0
 56 57  1  0
 57 58  1  0
 58 59  1  0
 59 60  1  0
 60 61  1  0
 61 62  1  0
 62 63  1  0
 63 64  1  0
 64 65  1  0
 65 66  1  0
 66 67  1  0
 67 68  1  0
 68 69  1  0
 69 70  1  0
 70 71  1  0
 71 72  1  0
 72 73  1  0
 73 74  1  0
 74 75  1  0
 75 76  1  0
 76 77  1  0
 77 78  1  0
 78 79  1  0
 79 80  1  0
 80 81  1  0
 81 82  1  0
 82 83  1  0
 83 84  1  0
 84 85  1  0
 85 86  1  0
 86 87  1  0
 87 88  1  0
 88 89  1  0
 89 90  1  0
 90 91  1  0
 91 92  1  0
 92 93  1  0
 93 94  1  0
 94 95  1  0
 95 96  1  0
 96 97  1  0
 97 98  1  0
 98 99  1  0
 99100  1  0
100101  1  0
101102  1  0
102  2  1  0
M  END
>  <Title>  (484) 
idAAQVgen7

$$$$

     RDKit          2D

 24 26  0  0  0  0  0  0  0  0999 V2000
    3.4598   -0.0000    0.0000 C   0  0  0  0  0  0  0  0  0  0  0  0
    1.9598    0.0000    0.0000 C   0  0  0  0  0  0  0  0  0  0  0  0
    1.3858   -1.3858    0.0000 C   0  0  0  0  0  0  0  0  0  0  0  0
   -0.0000   -1.9598    0.0000 C   0  0  0  0  0  0  0  0  0  0  0  0
   -1.3858   -1.3858    0.0000 C   0  0  0  0  0  0  0  0  0  0  0  0
   -1.9598    0.0000    0.0000 C   0  0  0  0  0  0  0  0  0  0  0  0
   -1.3858    1.3858    0.0000 C   0  0  0  0  0  0  0  0  0  0  0  0
   -2.4465    2.4465    0.0000 C   0  0  0  0  0  0  0  0  0  0  0  0
   -3.8954    2.0583    0.0000 O   0  0  0  0  0  0  0  0  0  0  0  0
   -2.0583    3.8954    0.0000 N   0  0  0  0  0  0  0  0  0  0  0  0
   -3.1189    4.9560    0.0000 C   0  0  0  0  0  0  0  0  0  0  0  0
   -4.6004    4.7214    0.0000 N   0  0  0  0  0  0  0  0  0  0  0  0
   -5.2814    6.0579    0.0000 N   0  0  0  0  0  0  0  0  0  0  0  0
   -4.2208    7.1185    0.0000 N   0  0  0  0  0  0  0  0  0  0  0  0
   -2.8843    6.4376    0.0000 N   0  0  0  0  0  0  0  0  0  0  0  0
   -1.5477    7.1185    0.0000 N   0  0  0  0  0  0  0  0  0  0  0  0
   -0.2897    6.3016    0.0000 C   0  0  0  0  0  0  0  0  0  0  0  0
    1.0468    6.9826    0.0000 C   0  0  0  0  0  0  0  0  0  0  0  0
    1.1253    8.4805    0.0000 C   0  0  0  0  0  0  0  0  0  0  0  0
    2.4618    9.1615    0.0000 O   0  0  0  0  0  0  0  0  0  0  0  0
   -0.1327    9.2975    0.0000 C   0  0  0  0  0  0  0  0  0  0  0  0
   -1.4692    8.6165    0.0000 C   0  0  0  0  0  0  0  0  0  0  0  0
    0.0000    1.9598    0.0000 C   0  0  0  0  0  0  0  0  0  0  0  0
    1.3858    1.3858    0.0000 C   0  0  0  0  0  0  0  0  0  0  0  0
  1  2  1  0
  2  3  1  0
  3  4  2  0
  4  5  1  0
  5  6  2  0
  6  7  1  0
  7  8  1  0
  8  9  2  0
  8 10  1  0
 10 11  1  0
 11 12  2  0
 12 13  1  0
 13 14  2  0
 14 15  1  0
 15 16  1  0
 16 17  1  0
 17 18  1  0
 18 19  1  0
 19 20  2  0
 19 21  1  0
 21 22  1  0
  7 23  1  0
 23 24  1  0
 24  2  1  0
 15 11  1  0
 22 16  1  0
M  END
>  <Title>  (485) 
idAAQWgen7

$$$$

     RDKit          2D

  6  5  0  0  0  0  0  0  0  0999 V2000
    0.0000    0.0000    0.0000 C   0  0  0  0  0  0  0  0  0  0  0  0
    1.2990    0.7500    0.0000 C   0  0  0  0  0  0  0  0  0  0  0  0
    2.5981   -0.0000    0.0000 C   0  0  0  0  0  0  0  0  0  0  0  0
    3.8971   -0.7500    0.0000 C   0  0  0  0  0  0  0  0  0  0  0  0
    5.1962   -1.5000    0.0000 C   0  0  0  0  0  0  0  0  0  0  0  0
    6.4952   -2.2500    0.0000 N   0  0  0  0  0  0  0  0  0  0  0  0
  1  2  2  0
  2  3  1  0
  3  4  3  0
  4  5  1  0
  5  6  3  0
M  END
>  <Title>  (486) 
idAAQXgen7

$$$$

     RDKit          2D

  9  9  0  0  0  0  0  0  0  0999 V2000
    7.2760   -0.0000    0.0000 N   0  0  0  0  0  0  0  0  0  0  0  0
    5.7760   -0.0000    0.0000 C   0  0  0  0  0  0  0  0  0  0  0  0
    4.2760   -0.0000    0.0000 C   0  0  0  0  0  0  0  0  0  0  0  0
    2.7760    0.0000    0.0000 C   0  0  0  0  0  0  0  0  0  0  0  0
    1.2760    0.0000    0.0000 C   0  0  0  0  0  0  0  0  0  0  0  0
    0.3943    1.2135    0.0000 C   0  0  0  0  0  0  0  0  0  0  0  0
   -1.0323    0.7500    0.0000 C   0  0  0  0  0  0  0  0  0  0  0  0
   -1.0323   -0.7500    0.0000 C   0  0  0  0  0  0  0  0  0  0  0  0
    0.3943   -1.2135    0.0000 C   0  0  0  0  0  0  0  0  0  0  0  0
  1  2  3  0
  2  3  1  0
  3  4  3  0
  4  5  1  0
  5  6  1  0
  6  7  1  0
  7  8  2  0
  8  9  1  0
  9  5  1  0
M  END
>  <Title>  (487) 
idAAQYgen7

$$$$

     RDKit          2D

 28 31  0  0  0  0  0  0  0  0999 V2000
   -3.1455   -1.1277    0.0000 C   0  0  0  0  0  0  0  0  0  0  0  0
   -2.0119   -2.1100    0.0000 C   0  0  0  0  0  0  0  0  0  0  0  0
   -2.6350   -3.4744    0.0000 C   0  0  0  0  0  0  0  0  0  0  0  0
   -2.4215   -4.9592    0.0000 C   0  0  0  0  0  0  0  0  0  0  0  0
   -1.4392   -6.0928    0.0000 C   0  0  0  0  0  0  0  0  0  0  0  0
   -2.2502   -7.3547    0.0000 C   0  0  0  0  0  0  0  0  0  0  0  0
   -1.5629   -8.6879    0.0000 O   0  0  0  0  0  0  0  0  0  0  0  0
   -3.7485   -7.2833    0.0000 N   0  0  0  0  0  0  0  0  0  0  0  0
   -4.5595   -8.5452    0.0000 C   0  0  0  0  0  0  0  0  0  0  0  0
   -6.0578   -8.4738    0.0000 N   0  0  0  0  0  0  0  0  0  0  0  0
   -6.8687   -9.7357    0.0000 N   0  0  0  0  0  0  0  0  0  0  0  0
   -6.1814  -11.0690    0.0000 N   0  0  0  0  0  0  0  0  0  0  0  0
   -4.6831  -11.1403    0.0000 N   0  0  0  0  0  0  0  0  0  0  0  0
   -3.8721   -9.8784    0.0000 N   0  0  0  0  0  0  0  0  0  0  0  0
   -0.0000   -6.5154    0.0000 C   0  0  0  0  0  0  0  0  0  0  0  0
    1.4392   -6.0928    0.0000 C   0  0  0  0  0  0  0  0  0  0  0  0
    2.4215   -4.9592    0.0000 C   0  0  0  0  0  0  0  0  0  0  0  0
    2.6350   -3.4744    0.0000 C   0  0  0  0  0  0  0  0  0  0  0  0
    4.1252   -3.3035    0.0000 C   0  0  0  0  0  0  0  0  0  0  0  0
    4.4231   -1.8333    0.0000 C   0  0  0  0  0  0  0  0  0  0  0  0
    3.1170   -1.0957    0.0000 C   0  0  0  0  0  0  0  0  0  0  0  0
    2.0119   -2.1100    0.0000 C   0  0  0  0  0  0  0  0  0  0  0  0
    0.7500   -1.2990    0.0000 C   0  0  0  0  0  0  0  0  0  0  0  0
    1.5000    0.0000    0.0000 C   0  0  0  0  0  0  0  0  0  0  0  0
    0.7500    1.2990    0.0000 C   0  0  0  0  0  0  0  0  0  0  0  0
   -0.7500    1.2990    0.0000 C   0  0  0  0  0  0  0  0  0  0  0  0
   -1.5000    0.0000    0.0000 C   0  0  0  0  0  0  0  0  0  0  0  0
   -0.7500   -1.2990    0.0000 C   0  0  0  0  0  0  0  0  0  0  0  0
  1  2  1  0
  2  3  1  0
  3  4  1  0
  4  5  1  0
  5  6  1  0
  6  7  2  0
  6  8  1  0
  8  9  1  0
  9 10  2  0
 10 11  1  0
 11 12  2  0
 12 13  1  0
 13 14  2  0
  5 15  1  0
 15 16  2  0
 16 17  1  0
 17 18  2  0
 18 19  1  0
 19 20  2  0
 20 21  1  0
 21 22  2  0
 22 23  1  0
 23 24  2  0
 24 25  1  0
 25 26  2  0
 26 27  1  0
 27 28  2  0
 28  2  1  0
 14  9  1  0
 22 18  1  0
 28 23  1  0
M  END
>  <Title>  (488) 
idAAQZgen7

$$$$

     RDKit          2D

  8  8  0  0  0  0  0  0  0  0999 V2000
    3.0000    0.0000    0.0000 C   0  0  0  0  0  0  0  0  0  0  0  0
    1.5000    0.0000    0.0000 C   0  0  0  0  0  0  0  0  0  0  0  0
    0.7500   -1.2990    0.0000 C   0  0  0  0  0  0  0  0  0  0  0  0
   -0.7500   -1.2990    0.0000 C   0  0  0  0  0  0  0  0  0  0  0  0
   -1.5000    0.0000    0.0000 C   0  0  0  0  0  0  0  0  0  0  0  0
   -0.7500    1.2990    0.0000 C   0  0  0  0  0  0  0  0  0  0  0  0
   -1.5000    2.5981    0.0000 N   0  0  0  0  0  0  0  0  0  0  0  0
    0.7500    1.2990    0.0000 C   0  0  0  0  0  0  0  0  0  0  0  0
  1  2  1  0
  2  3  2  0
  3  4  1  0
  4  5  1  0
  5  6  1  0
  6  7  1  0
  6  8  2  0
  8  2  1  0
M  END
>  <Title>  (489) 
idAARAgen7

$$$$

     RDKit          2D

 37 37  0  0  0  0  0  0  0  0999 V2000
    9.8669    0.0000    0.0000 C   0  0  0  0  0  0  0  0  0  0  0  0
    8.3669    0.0000    0.0000 C   0  0  0  0  0  0  0  0  0  0  0  0
    8.2324    1.4940    0.0000 C   0  0  0  0  0  0  0  0  0  0  0  0
    7.8334    2.9399    0.0000 C   0  0  0  0  0  0  0  0  0  0  0  0
    7.1825    4.2914    0.0000 C   0  0  0  0  0  0  0  0  0  0  0  0
    6.3008    5.5049    0.0000 C   0  0  0  0  0  0  0  0  0  0  0  0
    5.2167    6.5415    0.0000 C   0  0  0  0  0  0  0  0  0  0  0  0
    3.9648    7.3678    0.0000 C   0  0  0  0  0  0  0  0  0  0  0  0
    2.5855    7.9574    0.0000 C   0  0  0  0  0  0  0  0  0  0  0  0
    1.1231    8.2911    0.0000 C   0  0  0  0  0  0  0  0  0  0  0  0
    1.3245    9.7776    0.0000 C   0  0  0  0  0  0  0  0  0  0  0  0
   -0.3754    8.3584    0.0000 C   0  0  0  0  0  0  0  0  0  0  0  0
   -1.8618    8.1571    0.0000 C   0  0  0  0  0  0  0  0  0  0  0  0
   -3.2884    7.6936    0.0000 C   0  0  0  0  0  0  0  0  0  0  0  0
   -4.6093    6.9828    0.0000 C   0  0  0  0  0  0  0  0  0  0  0  0
   -5.7820    6.0475    0.0000 C   0  0  0  0  0  0  0  0  0  0  0  0
   -6.7689    4.9179    0.0000 C   0  0  0  0  0  0  0  0  0  0  0  0
   -7.5383    3.6302    0.0000 C   0  0  0  0  0  0  0  0  0  0  0  0
   -8.0653    2.2259    0.0000 C   0  0  0  0  0  0  0  0  0  0  0  0
   -8.3332    0.7500    0.0000 C   0  0  0  0  0  0  0  0  0  0  0  0
   -8.3332   -0.7500    0.0000 C   0  0  0  0  0  0  0  0  0  0  0  0
   -8.0653   -2.2259    0.0000 C   0  0  0  0  0  0  0  0  0  0  0  0
   -7.5383   -3.6302    0.0000 C   0  0  0  0  0  0  0  0  0  0  0  0
   -6.7689   -4.9179    0.0000 C   0  0  0  0  0  0  0  0  0  0  0  0
   -5.7820   -6.0475    0.0000 C   0  0  0  0  0  0  0  0  0  0  0  0
   -4.6093   -6.9828    0.0000 C   0  0  0  0  0  0  0  0  0  0  0  0
   -3.2884   -7.6936    0.0000 C   0  0  0  0  0  0  0  0  0  0  0  0
   -1.8618   -8.1571    0.0000 C   0  0  0  0  0  0  0  0  0  0  0  0
   -0.3754   -8.3584    0.0000 C   0  0  0  0  0  0  0  0  0  0  0  0
    1.1231   -8.2911    0.0000 C   0  0  0  0  0  0  0  0  0  0  0  0
    2.5855   -7.9574    0.0000 C   0  0  0  0  0  0  0  0  0  0  0  0
    3.9648   -7.3678    0.0000 C   0  0  0  0  0  0  0  0  0  0  0  0
    5.2167   -6.5415    0.0000 C   0  0  0  0  0  0  0  0  0  0  0  0
    6.3008   -5.5049    0.0000 C   0  0  0  0  0  0  0  0  0  0  0  0
    7.1825   -4.2914    0.0000 C   0  0  0  0  0  0  0  0  0  0  0  0
    7.8334   -2.9399    0.0000 C   0  0  0  0  0  0  0  0  0  0  0  0
    8.2324   -1.4940    0.0000 C   0  0  0  0  0  0  0  0  0  0  0  0
  1  2  1  0
  2  3  1  0
  3  4  2  0
  4  5  1  0
  5  6  2  0
  6  7  1  0
  7  8  2  0
  8  9  1  0
  9 10  1  0
 10 11  1  0
 10 12  1  0
 12 13  1  0
 13 14  1  0
 14 15  1  0
 15 16  1  0
 16 17  1  0
 17 18  1  0
 18 19  1  0
 19 20  1  0
 20 21  1  0
 21 22  1  0
 22 23  1  0
 23 24  1  0
 24 25  1  0
 25 26  1  0
 26 27  1  0
 27 28  1  0
 28 29  1  0
 29 30  1  0
 30 31  1  0
 31 32  1  0
 32 33  1  0
 33 34  1  0
 34 35  1  0
 35 36  1  0
 36 37  1  0
 37  2  1  0
M  END
>  <Title>  (490) 
idAARBgen7

$$$$

     RDKit          2D

 53 53  0  0  0  0  0  0  0  0999 V2000
   13.9216    0.0000    0.0000 C   0  0  0  0  0  0  0  0  0  0  0  0
   12.4216    0.0000    0.0000 C   0  0  0  0  0  0  0  0  0  0  0  0
   12.3311   -1.4973    0.0000 C   0  0  0  0  0  0  0  0  0  0  0  0
   12.0607   -2.9727    0.0000 C   0  0  0  0  0  0  0  0  0  0  0  0
   11.6144   -4.4048    0.0000 C   0  0  0  0  0  0  0  0  0  0  0  0
   10.9988   -5.7726    0.0000 C   0  0  0  0  0  0  0  0  0  0  0  0
   10.2228   -7.0563    0.0000 C   0  0  0  0  0  0  0  0  0  0  0  0
    9.2977   -8.2371    0.0000 C   0  0  0  0  0  0  0  0  0  0  0  0
    8.2371   -9.2977    0.0000 C   0  0  0  0  0  0  0  0  0  0  0  0
    7.0563  -10.2228    0.0000 C   0  0  0  0  0  0  0  0  0  0  0  0
    5.7726  -10.9988    0.0000 C   0  0  0  0  0  0  0  0  0  0  0  0
    4.4048  -11.6144    0.0000 C   0  0  0  0  0  0  0  0  0  0  0  0
    2.9727  -12.0607    0.0000 C   0  0  0  0  0  0  0  0  0  0  0  0
    1.4973  -12.3311    0.0000 C   0  0  0  0  0  0  0  0  0  0  0  0
   -0.0000  -12.4216    0.0000 C   0  0  0  0  0  0  0  0  0  0  0  0
   -1.4973  -12.3311    0.0000 C   0  0  0  0  0  0  0  0  0  0  0  0
   -2.9727  -12.0607    0.0000 C   0  0  0  0  0  0  0  0  0  0  0  0
   -4.4048  -11.6144    0.0000 C   0  0  0  0  0  0  0  0  0  0  0  0
   -5.7726  -10.9988    0.0000 C   0  0  0  0  0  0  0  0  0  0  0  0
   -7.0563  -10.2228    0.0000 C   0  0  0  0  0  0  0  0  0  0  0  0
   -8.2371   -9.2977    0.0000 C   0  0  0  0  0  0  0  0  0  0  0  0
   -9.2977   -8.2371    0.0000 C   0  0  0  0  0  0  0  0  0  0  0  0
  -10.2228   -7.0563    0.0000 C   0  0  0  0  0  0  0  0  0  0  0  0
  -10.9988   -5.7726    0.0000 C   0  0  0  0  0  0  0  0  0  0  0  0
  -11.6144   -4.4048    0.0000 C   0  0  0  0  0  0  0  0  0  0  0  0
  -12.0607   -2.9727    0.0000 C   0  0  0  0  0  0  0  0  0  0  0  0
  -12.3311   -1.4973    0.0000 C   0  0  0  0  0  0  0  0  0  0  0  0
  -12.4216    0.0000    0.0000 C   0  0  0  0  0  0  0  0  0  0  0  0
  -12.3311    1.4973    0.0000 C   0  0  0  0  0  0  0  0  0  0  0  0
  -12.0607    2.9727    0.0000 C   0  0  0  0  0  0  0  0  0  0  0  0
  -11.6144    4.4048    0.0000 C   0  0  0  0  0  0  0  0  0  0  0  0
  -10.9988    5.7726    0.0000 C   0  0  0  0  0  0  0  0  0  0  0  0
  -10.2228    7.0563    0.0000 C   0  0  0  0  0  0  0  0  0  0  0  0
   -9.2977    8.2371    0.0000 C   0  0  0  0  0  0  0  0  0  0  0  0
   -8.2371    9.2977    0.0000 C   0  0  0  0  0  0  0  0  0  0  0  0
   -7.0563   10.2228    0.0000 C   0  0  0  0  0  0  0  0  0  0  0  0
   -5.7726   10.9988    0.0000 C   0  0  0  0  0  0  0  0  0  0  0  0
   -4.4048   11.6144    0.0000 C   0  0  0  0  0  0  0  0  0  0  0  0
   -2.9727   12.0607    0.0000 C   0  0  0  0  0  0  0  0  0  0  0  0
   -1.4973   12.3311    0.0000 C   0  0  0  0  0  0  0  0  0  0  0  0
    0.0000   12.4216    0.0000 C   0  0  0  0  0  0  0  0  0  0  0  0
    1.4973   12.3311    0.0000 C   0  0  0  0  0  0  0  0  0  0  0  0
    2.9727   12.0607    0.0000 C   0  0  0  0  0  0  0  0  0  0  0  0
    4.4048   11.6144    0.0000 C   0  0  0  0  0  0  0  0  0  0  0  0
    5.7726   10.9988    0.0000 C   0  0  0  0  0  0  0  0  0  0  0  0
    7.0563   10.2228    0.0000 C   0  0  0  0  0  0  0  0  0  0  0  0
    8.2371    9.2977    0.0000 C   0  0  0  0  0  0  0  0  0  0  0  0
    9.2977    8.2371    0.0000 C   0  0  0  0  0  0  0  0  0  0  0  0
   10.2228    7.0563    0.0000 C   0  0  0  0  0  0  0  0  0  0  0  0
   10.9988    5.7726    0.0000 C   0  0  0  0  0  0  0  0  0  0  0  0
   11.6144    4.4048    0.0000 C   0  0  0  0  0  0  0  0  0  0  0  0
   12.0607    2.9727    0.0000 C   0  0  0  0  0  0  0  0  0  0  0  0
   12.3311    1.4973    0.0000 C   0  0  0  0  0  0  0  0  0  0  0  0
  1  2  1  0
  2  3  1  0
  3  4  1  0
  4  5  1  0
  5  6  1  0
  6  7  1  0
  7  8  1  0
  8  9  1  0
  9 10  1  0
 10 11  1  0
 11 12  1  0
 12 13  1  0
 13 14  1  0
 14 15  1  0
 15 16  1  0
 16 17  1  0
 17 18  1  0
 18 19  1  0
 19 20  1  0
 20 21  1  0
 21 22  1  0
 22 23  1  0
 23 24  1  0
 24 25  1  0
 25 26  1  0
 26 27  1  0
 27 28  1  0
 28 29  1  0
 29 30  1  0
 30 31  1  0
 31 32  1  0
 32 33  1  0
 33 34  1  0
 34 35  1  0
 35 36  1  0
 36 37  1  0
 37 38  1  0
 38 39  1  0
 39 40  1  0
 40 41  1  0
 41 42  1  0
 42 43  1  0
 43 44  1  0
 44 45  1  0
 45 46  1  0
 46 47  1  0
 47 48  1  0
 48 49  1  0
 49 50  1  0
 50 51  1  0
 51 52  1  0
 52 53  1  0
 53  2  1  0
M  END
>  <Title>  (491) 
idAARCgen7

$$$$

     RDKit          2D

 68 68  0  0  0  0  0  0  0  0999 V2000
   17.5009   -0.0000    0.0000 C   0  0  0  0  0  0  0  0  0  0  0  0
   16.0009    0.0000    0.0000 C   0  0  0  0  0  0  0  0  0  0  0  0
   15.9306    1.4984    0.0000 C   0  0  0  0  0  0  0  0  0  0  0  0
   15.7203    2.9835    0.0000 C   0  0  0  0  0  0  0  0  0  0  0  0
   15.3719    4.4425    0.0000 C   0  0  0  0  0  0  0  0  0  0  0  0
   14.8883    5.8624    0.0000 C   0  0  0  0  0  0  0  0  0  0  0  0
   14.2739    7.2308    0.0000 C   0  0  0  0  0  0  0  0  0  0  0  0
   13.5341    8.5357    0.0000 C   0  0  0  0  0  0  0  0  0  0  0  0
   12.6753    9.7655    0.0000 C   0  0  0  0  0  0  0  0  0  0  0  0
   11.7052   10.9096    0.0000 C   0  0  0  0  0  0  0  0  0  0  0  0
   10.6322   11.9577    0.0000 C   0  0  0  0  0  0  0  0  0  0  0  0
    9.4657   12.9008    0.0000 C   0  0  0  0  0  0  0  0  0  0  0  0
    8.2161   13.7305    0.0000 C   0  0  0  0  0  0  0  0  0  0  0  0
    6.8942   14.4395    0.0000 C   0  0  0  0  0  0  0  0  0  0  0  0
    5.5118   15.0217    0.0000 C   0  0  0  0  0  0  0  0  0  0  0  0
    4.0809   15.4718    0.0000 C   0  0  0  0  0  0  0  0  0  0  0  0
    2.6142   15.7859    0.0000 C   0  0  0  0  0  0  0  0  0  0  0  0
    1.1245   15.9614    0.0000 C   0  0  0  0  0  0  0  0  0  0  0  0
   -0.3751   15.9965    0.0000 C   0  0  0  0  0  0  0  0  0  0  0  0
   -1.8714   15.8911    0.0000 C   0  0  0  0  0  0  0  0  0  0  0  0
   -3.3512   15.6461    0.0000 C   0  0  0  0  0  0  0  0  0  0  0  0
   -4.8016   15.2635    0.0000 C   0  0  0  0  0  0  0  0  0  0  0  0
   -6.2098   14.7468    0.0000 C   0  0  0  0  0  0  0  0  0  0  0  0
   -7.5635   14.1005    0.0000 C   0  0  0  0  0  0  0  0  0  0  0  0
   -8.8506   13.3303    0.0000 C   0  0  0  0  0  0  0  0  0  0  0  0
  -10.0600   12.4429    0.0000 C   0  0  0  0  0  0  0  0  0  0  0  0
  -11.1810   11.4462    0.0000 C   0  0  0  0  0  0  0  0  0  0  0  0
  -12.2037   10.3489    0.0000 C   0  0  0  0  0  0  0  0  0  0  0  0
  -13.1191    9.1607    0.0000 C   0  0  0  0  0  0  0  0  0  0  0  0
  -13.9193    7.8919    0.0000 C   0  0  0  0  0  0  0  0  0  0  0  0
  -14.5972    6.5538    0.0000 C   0  0  0  0  0  0  0  0  0  0  0  0
  -15.1467    5.1581    0.0000 C   0  0  0  0  0  0  0  0  0  0  0  0
  -15.5632    3.7171    0.0000 C   0  0  0  0  0  0  0  0  0  0  0  0
  -15.8429    2.2434    0.0000 C   0  0  0  0  0  0  0  0  0  0  0  0
  -15.9833    0.7500    0.0000 C   0  0  0  0  0  0  0  0  0  0  0  0
  -15.9833   -0.7500    0.0000 C   0  0  0  0  0  0  0  0  0  0  0  0
  -15.8429   -2.2434    0.0000 C   0  0  0  0  0  0  0  0  0  0  0  0
  -15.5632   -3.7171    0.0000 C   0  0  0  0  0  0  0  0  0  0  0  0
  -15.1467   -5.1581    0.0000 C   0  0  0  0  0  0  0  0  0  0  0  0
  -14.5972   -6.5538    0.0000 C   0  0  0  0  0  0  0  0  0  0  0  0
  -13.9193   -7.8919    0.0000 C   0  0  0  0  0  0  0  0  0  0  0  0
  -13.1191   -9.1607    0.0000 C   0  0  0  0  0  0  0  0  0  0  0  0
  -12.2037  -10.3489    0.0000 C   0  0  0  0  0  0  0  0  0  0  0  0
  -11.1810  -11.4462    0.0000 C   0  0  0  0  0  0  0  0  0  0  0  0
  -10.0600  -12.4429    0.0000 C   0  0  0  0  0  0  0  0  0  0  0  0
   -8.8506  -13.3303    0.0000 C   0  0  0  0  0  0  0  0  0  0  0  0
   -7.5635  -14.1005    0.0000 C   0  0  0  0  0  0  0  0  0  0  0  0
   -6.2098  -14.7468    0.0000 C   0  0  0  0  0  0  0  0  0  0  0  0
   -4.8016  -15.2635    0.0000 C   0  0  0  0  0  0  0  0  0  0  0  0
   -3.3512  -15.6461    0.0000 C   0  0  0  0  0  0  0  0  0  0  0  0
   -1.8714  -15.8911    0.0000 C   0  0  0  0  0  0  0  0  0  0  0  0
   -0.3751  -15.9965    0.0000 C   0  0  0  0  0  0  0  0  0  0  0  0
    1.1245  -15.9614    0.0000 C   0  0  0  0  0  0  0  0  0  0  0  0
    2.6142  -15.7859    0.0000 C   0  0  0  0  0  0  0  0  0  0  0  0
    4.0809  -15.4718    0.0000 C   0  0  0  0  0  0  0  0  0  0  0  0
    5.5118  -15.0217    0.0000 C   0  0  0  0  0  0  0  0  0  0  0  0
    6.8942  -14.4395    0.0000 C   0  0  0  0  0  0  0  0  0  0  0  0
    8.2161  -13.7305    0.0000 C   0  0  0  0  0  0  0  0  0  0  0  0
    9.4657  -12.9008    0.0000 C   0  0  0  0  0  0  0  0  0  0  0  0
   10.6322  -11.9577    0.0000 C   0  0  0  0  0  0  0  0  0  0  0  0
   11.7052  -10.9096    0.0000 C   0  0  0  0  0  0  0  0  0  0  0  0
   12.6753   -9.7655    0.0000 C   0  0  0  0  0  0  0  0  0  0  0  0
   13.5341   -8.5357    0.0000 C   0  0  0  0  0  0  0  0  0  0  0  0
   14.2739   -7.2308    0.0000 C   0  0  0  0  0  0  0  0  0  0  0  0
   14.8883   -5.8624    0.0000 C   0  0  0  0  0  0  0  0  0  0  0  0
   15.3719   -4.4425    0.0000 C   0  0  0  0  0  0  0  0  0  0  0  0
   15.7203   -2.9835    0.0000 C   0  0  0  0  0  0  0  0  0  0  0  0
   15.9306   -1.4984    0.0000 C   0  0  0  0  0  0  0  0  0  0  0  0
  1  2  1  0
  2  3  1  0
  3  4  1  0
  4  5  1  0
  5  6  1  0
  6  7  1  0
  7  8  1  0
  8  9  1  0
  9 10  1  0
 10 11  1  0
 11 12  1  0
 12 13  1  0
 13 14  1  0
 14 15  1  0
 15 16  1  0
 16 17  1  0
 17 18  1  0
 18 19  1  0
 19 20  1  0
 20 21  1  0
 21 22  1  0
 22 23  1  0
 23 24  1  0
 24 25  1  0
 25 26  1  0
 26 27  1  0
 27 28  1  0
 28 29  1  0
 29 30  1  0
 30 31  1  0
 31 32  1  0
 32 33  1  0
 33 34  1  0
 34 35  1  0
 35 36  1  0
 36 37  1  0
 37 38  1  0
 38 39  1  0
 39 40  1  0
 40 41  1  0
 41 42  1  0
 42 43  1  0
 43 44  1  0
 44 45  1  0
 45 46  1  0
 46 47  1  0
 47 48  1  0
 48 49  1  0
 49 50  1  0
 50 51  1  0
 51 52  1  0
 52 53  1  0
 53 54  1  0
 54 55  1  0
 55 56  1  0
 56 57  1  0
 57 58  1  0
 58 59  1  0
 59 60  1  0
 60 61  1  0
 61 62  1  0
 62 63  1  0
 63 64  1  0
 64 65  1  0
 65 66  1  0
 66 67  1  0
 67 68  1  0
 68  2  1  0
M  END
>  <Title>  (492) 
idAARDgen7

$$$$

     RDKit          2D

 60 62  0  0  0  0  0  0  0  0999 V2000
   -2.5473   -0.0406    0.0000 C   0  0  0  0  0  0  0  0  0  0  0  0
   -2.2354   -1.5078    0.0000 C   0  0  0  0  0  0  0  0  0  0  0  0
   -3.6773   -1.9213    0.0000 C   0  0  0  0  0  0  0  0  0  0  0  0
   -5.0476   -2.5314    0.0000 C   0  0  0  0  0  0  0  0  0  0  0  0
   -6.3197   -3.3262    0.0000 C   0  0  0  0  0  0  0  0  0  0  0  0
   -7.4688   -4.2904    0.0000 C   0  0  0  0  0  0  0  0  0  0  0  0
   -8.4724   -5.4051    0.0000 C   0  0  0  0  0  0  0  0  0  0  0  0
   -9.3112   -6.6487    0.0000 C   0  0  0  0  0  0  0  0  0  0  0  0
   -9.9688   -7.9969    0.0000 C   0  0  0  0  0  0  0  0  0  0  0  0
  -10.4323   -9.4235    0.0000 C   0  0  0  0  0  0  0  0  0  0  0  0
  -10.6928  -10.9007    0.0000 C   0  0  0  0  0  0  0  0  0  0  0  0
  -10.7451  -12.3998    0.0000 C   0  0  0  0  0  0  0  0  0  0  0  0
  -10.5883  -13.8915    0.0000 C   0  0  0  0  0  0  0  0  0  0  0  0
  -10.2255  -15.3470    0.0000 C   0  0  0  0  0  0  0  0  0  0  0  0
   -9.6636  -16.7378    0.0000 C   0  0  0  0  0  0  0  0  0  0  0  0
   -8.9136  -18.0368    0.0000 C   0  0  0  0  0  0  0  0  0  0  0  0
   -7.9901  -19.2188    0.0000 C   0  0  0  0  0  0  0  0  0  0  0  0
   -6.9111  -20.2608    0.0000 C   0  0  0  0  0  0  0  0  0  0  0  0
   -5.6975  -21.1425    0.0000 C   0  0  0  0  0  0  0  0  0  0  0  0
   -4.3731  -21.8467    0.0000 C   0  0  0  0  0  0  0  0  0  0  0  0
   -2.9636  -22.3597    0.0000 C   0  0  0  0  0  0  0  0  0  0  0  0
   -1.4963  -22.6716    0.0000 C   0  0  0  0  0  0  0  0  0  0  0  0
    0.0000  -22.7762    0.0000 C   0  0  0  0  0  0  0  0  0  0  0  0
    1.4963  -22.6716    0.0000 C   0  0  0  0  0  0  0  0  0  0  0  0
    2.9636  -22.3597    0.0000 C   0  0  0  0  0  0  0  0  0  0  0  0
    4.3731  -21.8467    0.0000 C   0  0  0  0  0  0  0  0  0  0  0  0
    5.6975  -21.1425    0.0000 C   0  0  0  0  0  0  0  0  0  0  0  0
    6.9111  -20.2608    0.0000 C   0  0  0  0  0  0  0  0  0  0  0  0
    7.9901  -19.2188    0.0000 C   0  0  0  0  0  0  0  0  0  0  0  0
    8.9136  -18.0368    0.0000 C   0  0  0  0  0  0  0  0  0  0  0  0
    9.6636  -16.7378    0.0000 C   0  0  0  0  0  0  0  0  0  0  0  0
   10.2255  -15.3470    0.0000 C   0  0  0  0  0  0  0  0  0  0  0  0
   10.5883  -13.8915    0.0000 C   0  0  0  0  0  0  0  0  0  0  0  0
   10.7451  -12.3998    0.0000 C   0  0  0  0  0  0  0  0  0  0  0  0
   10.6928  -10.9007    0.0000 C   0  0  0  0  0  0  0  0  0  0  0  0
   10.4323   -9.4235    0.0000 C   0  0  0  0  0  0  0  0  0  0  0  0
    9.9688   -7.9969    0.0000 C   0  0  0  0  0  0  0  0  0  0  0  0
    9.3112   -6.6487    0.0000 C   0  0  0  0  0  0  0  0  0  0  0  0
    8.4724   -5.4051    0.0000 C   0  0  0  0  0  0  0  0  0  0  0  0
    7.4688   -4.2904    0.0000 C   0  0  0  0  0  0  0  0  0  0  0  0
    6.3197   -3.3262    0.0000 C   0  0  0  0  0  0  0  0  0  0  0  0
    5.0476   -2.5314    0.0000 C   0  0  0  0  0  0  0  0  0  0  0  0
    5.7518   -1.2069    0.0000 C   0  0  0  0  0  0  0  0  0  0  0  0
    4.9569    0.0651    0.0000 O   0  0  0  0  0  0  0  0  0  0  0  0
    7.2509   -1.1546    0.0000 N   0  0  0  0  0  0  0  0  0  0  0  0
    7.9551    0.1698    0.0000 C   0  0  0  0  0  0  0  0  0  0  0  0
    9.4542    0.2222    0.0000 N   0  0  0  0  0  0  0  0  0  0  0  0
   10.1584    1.5466    0.0000 N   0  0  0  0  0  0  0  0  0  0  0  0
    9.3635    2.8187    0.0000 N   0  0  0  0  0  0  0  0  0  0  0  0
    7.8644    2.7663    0.0000 N   0  0  0  0  0  0  0  0  0  0  0  0
    7.1602    1.4419    0.0000 N   0  0  0  0  0  0  0  0  0  0  0  0
    3.6773   -1.9213    0.0000 C   0  0  0  0  0  0  0  0  0  0  0  0
    4.1903   -0.5117    0.0000 O   0  0  0  0  0  0  0  0  0  0  0  0
    2.2354   -1.5078    0.0000 O   0  0  0  0  0  0  0  0  0  0  0  0
    0.7500   -1.2990    0.0000 C   0  0  0  0  0  0  0  0  0  0  0  0
    1.5000    0.0000    0.0000 C   0  0  0  0  0  0  0  0  0  0  0  0
    0.7500    1.2990    0.0000 C   0  0  0  0  0  0  0  0  0  0  0  0
   -0.7500    1.2990    0.0000 C   0  0  0  0  0  0  0  0  0  0  0  0
   -1.5000    0.0000    0.0000 C   0  0  0  0  0  0  0  0  0  0  0  0
   -0.7500   -1.2990    0.0000 C   0  0  0  0  0  0  0  0  0  0  0  0
  1  2  1  0
  2  3  1  0
  3  4  1  0
  4  5  1  0
  5  6  1  0
  6  7  1  0
  7  8  1  0
  8  9  1  0
  9 10  1  0
 10 11  1  0
 11 12  1  0
 12 13  1  0
 13 14  1  0
 14 15  1  0
 15 16  1  0
 16 17  1  0
 17 18  1  0
 18 19  1  0
 19 20  1  0
 20 21  1  0
 21 22  1  0
 22 23  1  0
 23 24  1  0
 24 25  1  0
 25 26  1  0
 26 27  1  0
 27 28  1  0
 28 29  1  0
 29 30  1  0
 30 31  1  0
 31 32  1  0
 32 33  1  0
 33 34  2  0
 34 35  1  0
 35 36  2  0
 36 37  1  0
 37 38  2  0
 38 39  1  0
 39 40  2  0
 40 41  1  0
 41 42  2  0
 42 43  1  0
 43 44  2  0
 43 45  1  0
 45 46  1  0
 46 47  2  0
 47 48  1  0
 48 49  2  0
 49 50  1  0
 50 51  2  0
 42 52  1  0
 52 53  2  0
 52 54  1  0
 54 55  1  0
 55 56  2  0
 56 57  1  0
 57 58  2  0
 58 59  1  0
 59 60  2  0
 60  2  1  0
 51 46  1  0
 60 55  1  0
M  END
>  <Title>  (493) 
idAAREgen7

$$$$

     RDKit          2D

  7  6  0  0  0  0  0  0  0  0999 V2000
    0.0000    0.0000    0.0000 C   0  0  0  0  0  0  0  0  0  0  0  0
    1.2990    0.7500    0.0000 C   0  0  0  0  0  0  0  0  0  0  0  0
    2.5981    1.5000    0.0000 C   0  0  0  0  0  0  0  0  0  0  0  0
    3.8971    2.2500    0.0000 C   0  0  0  0  0  0  0  0  0  0  0  0
    4.6471    0.9510    0.0000 C   0  0  0  0  0  0  0  0  0  0  0  0
    3.1471    3.5490    0.0000 C   0  0  0  0  0  0  0  0  0  0  0  0
    5.1962    3.0000    0.0000 C   0  0  0  0  0  0  0  0  0  0  0  0
  1  2  1  0
  2  3  3  0
  3  4  1  0
  4  5  1  0
  4  6  1  0
  4  7  1  0
M  END
>  <Title>  (494) 
idAARFgen7

$$$$

     RDKit          2D

 77 77  0  0  0  0  0  0  0  0999 V2000
   20.1602   -1.2990    0.0000 C   0  0  0  0  0  0  0  0  0  0  0  0
   19.4102    0.0000    0.0000 O   0  0  0  0  0  0  0  0  0  0  0  0
   17.9102    0.0000    0.0000 C   0  0  0  0  0  0  0  0  0  0  0  0
   17.8474    1.4987    0.0000 C   0  0  0  0  0  0  0  0  0  0  0  0
   17.6594    2.9869    0.0000 C   0  0  0  0  0  0  0  0  0  0  0  0
   17.3475    4.4541    0.0000 C   0  0  0  0  0  0  0  0  0  0  0  0
   16.9139    5.8901    0.0000 C   0  0  0  0  0  0  0  0  0  0  0  0
   16.3618    7.2847    0.0000 C   0  0  0  0  0  0  0  0  0  0  0  0
   15.6948    8.6283    0.0000 C   0  0  0  0  0  0  0  0  0  0  0  0
   14.9178    9.9113    0.0000 C   0  0  0  0  0  0  0  0  0  0  0  0
   14.0361   11.1249    0.0000 C   0  0  0  0  0  0  0  0  0  0  0  0
   13.0560   12.2604    0.0000 C   0  0  0  0  0  0  0  0  0  0  0  0
   11.9842   13.3098    0.0000 C   0  0  0  0  0  0  0  0  0  0  0  0
   10.8285   14.2660    0.0000 C   0  0  0  0  0  0  0  0  0  0  0  0
    9.5967   15.1221    0.0000 C   0  0  0  0  0  0  0  0  0  0  0  0
    8.2977   15.8721    0.0000 C   0  0  0  0  0  0  0  0  0  0  0  0
    6.9405   16.5107    0.0000 C   0  0  0  0  0  0  0  0  0  0  0  0
    5.5345   17.0336    0.0000 C   0  0  0  0  0  0  0  0  0  0  0  0
    4.0898   17.4370    0.0000 C   0  0  0  0  0  0  0  0  0  0  0  0
    2.6164   17.7180    0.0000 C   0  0  0  0  0  0  0  0  0  0  0  0
    1.1246   17.8748    0.0000 C   0  0  0  0  0  0  0  0  0  0  0  0
   -0.3751   17.9062    0.0000 C   0  0  0  0  0  0  0  0  0  0  0  0
   -1.8721   17.8121    0.0000 C   0  0  0  0  0  0  0  0  0  0  0  0
   -3.3560   17.5929    0.0000 C   0  0  0  0  0  0  0  0  0  0  0  0
   -4.8164   17.2504    0.0000 C   0  0  0  0  0  0  0  0  0  0  0  0
   -6.2430   16.7869    0.0000 C   0  0  0  0  0  0  0  0  0  0  0  0
   -7.6258   16.2056    0.0000 C   0  0  0  0  0  0  0  0  0  0  0  0
   -8.9551   15.5107    0.0000 C   0  0  0  0  0  0  0  0  0  0  0  0
  -10.2216   14.7069    0.0000 C   0  0  0  0  0  0  0  0  0  0  0  0
  -11.4164   13.8000    0.0000 C   0  0  0  0  0  0  0  0  0  0  0  0
  -12.5311   12.7963    0.0000 C   0  0  0  0  0  0  0  0  0  0  0  0
  -13.5579   11.7029    0.0000 C   0  0  0  0  0  0  0  0  0  0  0  0
  -14.4896   10.5273    0.0000 C   0  0  0  0  0  0  0  0  0  0  0  0
  -15.3197    9.2780    0.0000 C   0  0  0  0  0  0  0  0  0  0  0  0
  -16.0423    7.9635    0.0000 C   0  0  0  0  0  0  0  0  0  0  0  0
  -16.6525    6.5932    0.0000 C   0  0  0  0  0  0  0  0  0  0  0  0
  -17.1458    5.1766    0.0000 C   0  0  0  0  0  0  0  0  0  0  0  0
  -17.5188    3.7237    0.0000 C   0  0  0  0  0  0  0  0  0  0  0  0
  -17.7689    2.2447    0.0000 C   0  0  0  0  0  0  0  0  0  0  0  0
  -17.8945    0.7500    0.0000 C   0  0  0  0  0  0  0  0  0  0  0  0
  -17.8945   -0.7500    0.0000 C   0  0  0  0  0  0  0  0  0  0  0  0
  -17.7689   -2.2447    0.0000 C   0  0  0  0  0  0  0  0  0  0  0  0
  -17.5188   -3.7237    0.0000 C   0  0  0  0  0  0  0  0  0  0  0  0
  -17.1458   -5.1766    0.0000 C   0  0  0  0  0  0  0  0  0  0  0  0
  -16.6525   -6.5932    0.0000 C   0  0  0  0  0  0  0  0  0  0  0  0
  -16.0423   -7.9635    0.0000 C   0  0  0  0  0  0  0  0  0  0  0  0
  -15.3197   -9.2780    0.0000 C   0  0  0  0  0  0  0  0  0  0  0  0
  -14.4896  -10.5273    0.0000 C   0  0  0  0  0  0  0  0  0  0  0  0
  -13.5579  -11.7029    0.0000 C   0  0  0  0  0  0  0  0  0  0  0  0
  -12.5311  -12.7963    0.0000 C   0  0  0  0  0  0  0  0  0  0  0  0
  -11.4164  -13.8000    0.0000 C   0  0  0  0  0  0  0  0  0  0  0  0
  -10.2216  -14.7069    0.0000 C   0  0  0  0  0  0  0  0  0  0  0  0
   -8.9551  -15.5107    0.0000 C   0  0  0  0  0  0  0  0  0  0  0  0
   -7.6258  -16.2056    0.0000 C   0  0  0  0  0  0  0  0  0  0  0  0
   -6.2430  -16.7869    0.0000 C   0  0  0  0  0  0  0  0  0  0  0  0
   -4.8164  -17.2504    0.0000 C   0  0  0  0  0  0  0  0  0  0  0  0
   -3.3560  -17.5929    0.0000 C   0  0  0  0  0  0  0  0  0  0  0  0
   -1.8721  -17.8121    0.0000 C   0  0  0  0  0  0  0  0  0  0  0  0
   -0.3751  -17.9062    0.0000 C   0  0  0  0  0  0  0  0  0  0  0  0
    1.1246  -17.8748    0.0000 C   0  0  0  0  0  0  0  0  0  0  0  0
    2.6164  -17.7180    0.0000 C   0  0  0  0  0  0  0  0  0  0  0  0
    4.0898  -17.4370    0.0000 C   0  0  0  0  0  0  0  0  0  0  0  0
    5.5345  -17.0336    0.0000 C   0  0  0  0  0  0  0  0  0  0  0  0
    6.9405  -16.5107    0.0000 C   0  0  0  0  0  0  0  0  0  0  0  0
    8.2977  -15.8721    0.0000 C   0  0  0  0  0  0  0  0  0  0  0  0
    9.5967  -15.1221    0.0000 C   0  0  0  0  0  0  0  0  0  0  0  0
   10.8285  -14.2660    0.0000 C   0  0  0  0  0  0  0  0  0  0  0  0
   11.9842  -13.3098    0.0000 C   0  0  0  0  0  0  0  0  0  0  0  0
   13.0560  -12.2604    0.0000 C   0  0  0  0  0  0  0  0  0  0  0  0
   14.0361  -11.1249    0.0000 C   0  0  0  0  0  0  0  0  0  0  0  0
   14.9178   -9.9113    0.0000 C   0  0  0  0  0  0  0  0  0  0  0  0
   15.6948   -8.6283    0.0000 C   0  0  0  0  0  0  0  0  0  0  0  0
   16.3618   -7.2847    0.0000 C   0  0  0  0  0  0  0  0  0  0  0  0
   16.9139   -5.8901    0.0000 C   0  0  0  0  0  0  0  0  0  0  0  0
   17.3475   -4.4541    0.0000 C   0  0  0  0  0  0  0  0  0  0  0  0
   17.6594   -2.9869    0.0000 C   0  0  0  0  0  0  0  0  0  0  0  0
   17.8474   -1.4987    0.0000 C   0  0  0  0  0  0  0  0  0  0  0  0
  1  2  1  0
  2  3  1  0
  3  4  1  0
  4  5  2  0
  5  6  1  0
  6  7  1  0
  7  8  1  0
  8  9  1  0
  9 10  1  0
 10 11  1  0
 11 12  1  0
 12 13  1  0
 13 14  1  0
 14 15  1  0
 15 16  1  0
 16 17  1  0
 17 18  1  0
 18 19  1  0
 19 20  1  0
 20 21  1  0
 21 22  1  0
 22 23  1  0
 23 24  1  0
 24 25  1  0
 25 26  1  0
 26 27  1  0
 27 28  1  0
 28 29  1  0
 29 30  1  0
 30 31  1  0
 31 32  1  0
 32 33  1  0
 33 34  1  0
 34 35  1  0
 35 36  1  0
 36 37  1  0
 37 38  1  0
 38 39  1  0
 39 40  1  0
 40 41  1  0
 41 42  1  0
 42 43  1  0
 43 44  1  0
 44 45  1  0
 45 46  1  0
 46 47  1  0
 47 48  1  0
 48 49  1  0
 49 50  1  0
 50 51  1  0
 51 52  1  0
 52 53  1  0
 53 54  1  0
 54 55  1  0
 55 56  1  0
 56 57  1  0
 57 58  1  0
 58 59  1  0
 59 60  1  0
 60 61  1  0
 61 62  1  0
 62 63  1  0
 63 64  1  0
 64 65  1  0
 65 66  1  0
 66 67  1  0
 67 68  1  0
 68 69  1  0
 69 70  1  0
 70 71  1  0
 71 72  1  0
 72 73  1  0
 73 74  1  0
 74 75  1  0
 75 76  1  0
 76 77  1  0
 77  3  1  0
M  END
>  <Title>  (495) 
idAARGgen7

$$$$

     RDKit          2D

 17 18  0  0  0  0  0  0  0  0999 V2000
    3.5260    1.2990    0.0000 O   0  0  0  0  0  0  0  0  0  0  0  0
    2.7760    0.0000    0.0000 C   0  0  0  0  0  0  0  0  0  0  0  0
    3.5260   -1.2990    0.0000 O   0  0  0  0  0  0  0  0  0  0  0  0
    1.2760    0.0000    0.0000 C   0  0  0  0  0  0  0  0  0  0  0  0
    0.3943    1.2135    0.0000 C   0  0  0  0  0  0  0  0  0  0  0  0
   -1.0323    0.7500    0.0000 C   0  0  0  0  0  0  0  0  0  0  0  0
   -1.0323   -0.7500    0.0000 N   0  0  0  0  0  0  0  0  0  0  0  0
   -2.2458   -1.6317    0.0000 C   0  0  0  0  0  0  0  0  0  0  0  0
   -2.0890   -3.1235    0.0000 O   0  0  0  0  0  0  0  0  0  0  0  0
   -3.6161   -1.0216    0.0000 C   0  0  0  0  0  0  0  0  0  0  0  0
   -4.8297   -1.9033    0.0000 C   0  0  0  0  0  0  0  0  0  0  0  0
   -4.8297   -3.4033    0.0000 C   0  0  0  0  0  0  0  0  0  0  0  0
   -6.2562   -3.8668    0.0000 C   0  0  0  0  0  0  0  0  0  0  0  0
   -7.1379   -2.6533    0.0000 C   0  0  0  0  0  0  0  0  0  0  0  0
   -6.2562   -1.4397    0.0000 C   0  0  0  0  0  0  0  0  0  0  0  0
    0.3943   -1.2135    0.0000 C   0  0  0  0  0  0  0  0  0  0  0  0
    0.8578   -2.6401    0.0000 O   0  0  0  0  0  0  0  0  0  0  0  0
  1  2  2  0
  2  3  1  0
  2  4  1  0
  4  5  1  0
  5  6  1  0
  6  7  1  0
  7  8  1  0
  8  9  2  0
  8 10  1  0
 10 11  1  0
 11 12  2  0
 12 13  1  0
 13 14  1  0
 14 15  1  0
  7 16  1  0
 16 17  2  0
 16  4  1  0
 15 11  1  0
M  END
>  <Title>  (496) 
idAARHgen7

$$$$

     RDKit          2D

 19 21  0  0  0  0  0  0  0  0999 V2000
    5.8875   -3.9505    0.0000 O   0  0  0  0  0  0  0  0  0  0  0  0
    4.6740   -4.8322    0.0000 C   0  0  0  0  0  0  0  0  0  0  0  0
    4.8308   -6.3240    0.0000 C   0  0  0  0  0  0  0  0  0  0  0  0
    6.2011   -6.9341    0.0000 C   0  0  0  0  0  0  0  0  0  0  0  0
    7.5001   -6.1841    0.0000 C   0  0  0  0  0  0  0  0  0  0  0  0
    8.6148   -7.1878    0.0000 C   0  0  0  0  0  0  0  0  0  0  0  0
    8.0047   -8.5581    0.0000 C   0  0  0  0  0  0  0  0  0  0  0  0
    6.5129   -8.4013    0.0000 C   0  0  0  0  0  0  0  0  0  0  0  0
    3.3037   -4.2221    0.0000 N   0  0  0  0  0  0  0  0  0  0  0  0
    2.0046   -4.9721    0.0000 C   0  0  0  0  0  0  0  0  0  0  0  0
    0.8899   -3.9684    0.0000 C   0  0  0  0  0  0  0  0  0  0  0  0
    1.5000   -2.5981    0.0000 C   0  0  0  0  0  0  0  0  0  0  0  0
    0.7500   -1.2990    0.0000 C   0  0  0  0  0  0  0  0  0  0  0  0
    1.5000    0.0000    0.0000 C   0  0  0  0  0  0  0  0  0  0  0  0
    0.7500    1.2990    0.0000 C   0  0  0  0  0  0  0  0  0  0  0  0
   -0.7500    1.2990    0.0000 C   0  0  0  0  0  0  0  0  0  0  0  0
   -1.5000    0.0000    0.0000 C   0  0  0  0  0  0  0  0  0  0  0  0
   -0.7500   -1.2990    0.0000 C   0  0  0  0  0  0  0  0  0  0  0  0
    2.9918   -2.7549    0.0000 C   0  0  0  0  0  0  0  0  0  0  0  0
  1  2  2  0
  2  3  1  0
  3  4  1  0
  4  5  2  0
  5  6  1  0
  6  7  1  0
  7  8  2  0
  2  9  1  0
  9 10  1  0
 10 11  1  0
 11 12  1  0
 12 13  1  0
 13 14  2  0
 14 15  1  0
 15 16  2  0
 16 17  1  0
 17 18  2  0
 12 19  1  0
  8  4  1  0
 19  9  1  0
 18 13  1  0
M  END
>  <Title>  (497) 
idAARIgen7

$$$$

     RDKit          2D

  9  9  0  0  0  0  0  0  0  0999 V2000
    6.5260   -1.2990    0.0000 O   0  0  0  0  0  0  0  0  0  0  0  0
    5.7760   -0.0000    0.0000 C   0  0  0  0  0  0  0  0  0  0  0  0
    4.2760   -0.0000    0.0000 C   0  0  0  0  0  0  0  0  0  0  0  0
    2.7760    0.0000    0.0000 C   0  0  0  0  0  0  0  0  0  0  0  0
    1.2760    0.0000    0.0000 C   0  0  0  0  0  0  0  0  0  0  0  0
    0.3943    1.2135    0.0000 C   0  0  0  0  0  0  0  0  0  0  0  0
   -1.0323    0.7500    0.0000 C   0  0  0  0  0  0  0  0  0  0  0  0
   -1.0323   -0.7500    0.0000 C   0  0  0  0  0  0  0  0  0  0  0  0
    0.3943   -1.2135    0.0000 C   0  0  0  0  0  0  0  0  0  0  0  0
  1  2  1  0
  2  3  1  0
  3  4  3  0
  4  5  1  0
  5  6  2  0
  6  7  1  0
  7  8  1  0
  8  9  1  0
  9  5  1  0
M  END
>  <Title>  (498) 
idAARJgen7

$$$$

     RDKit          2D

 34 34  0  0  0  0  0  0  0  0999 V2000
    8.1285    0.0000    0.0000 C   0  0  0  0  0  0  0  0  0  0  0  0
    7.9901   -1.4936    0.0000 C   0  0  0  0  0  0  0  0  0  0  0  0
    7.5796   -2.9363    0.0000 C   0  0  0  0  0  0  0  0  0  0  0  0
    6.9110   -4.2791    0.0000 C   0  0  0  0  0  0  0  0  0  0  0  0
    6.0070   -5.4761    0.0000 C   0  0  0  0  0  0  0  0  0  0  0  0
    4.8985   -6.4867    0.0000 C   0  0  0  0  0  0  0  0  0  0  0  0
    3.6232   -7.2763    0.0000 C   0  0  0  0  0  0  0  0  0  0  0  0
    2.2245   -7.8182    0.0000 C   0  0  0  0  0  0  0  0  0  0  0  0
    0.7500   -8.0938    0.0000 C   0  0  0  0  0  0  0  0  0  0  0  0
   -0.7500   -8.0938    0.0000 C   0  0  0  0  0  0  0  0  0  0  0  0
   -2.2245   -7.8182    0.0000 C   0  0  0  0  0  0  0  0  0  0  0  0
   -3.6232   -7.2763    0.0000 C   0  0  0  0  0  0  0  0  0  0  0  0
   -4.8985   -6.4867    0.0000 C   0  0  0  0  0  0  0  0  0  0  0  0
   -6.0070   -5.4761    0.0000 C   0  0  0  0  0  0  0  0  0  0  0  0
   -6.9110   -4.2791    0.0000 C   0  0  0  0  0  0  0  0  0  0  0  0
   -7.5796   -2.9363    0.0000 C   0  0  0  0  0  0  0  0  0  0  0  0
   -7.9901   -1.4936    0.0000 C   0  0  0  0  0  0  0  0  0  0  0  0
   -8.1285    0.0000    0.0000 C   0  0  0  0  0  0  0  0  0  0  0  0
   -7.9901    1.4936    0.0000 C   0  0  0  0  0  0  0  0  0  0  0  0
   -7.5796    2.9363    0.0000 C   0  0  0  0  0  0  0  0  0  0  0  0
   -6.9110    4.2791    0.0000 C   0  0  0  0  0  0  0  0  0  0  0  0
   -6.0070    5.4761    0.0000 C   0  0  0  0  0  0  0  0  0  0  0  0
   -4.8985    6.4867    0.0000 C   0  0  0  0  0  0  0  0  0  0  0  0
   -3.6232    7.2763    0.0000 C   0  0  0  0  0  0  0  0  0  0  0  0
   -2.2245    7.8182    0.0000 C   0  0  0  0  0  0  0  0  0  0  0  0
   -0.7500    8.0938    0.0000 C   0  0  0  0  0  0  0  0  0  0  0  0
    0.7500    8.0938    0.0000 C   0  0  0  0  0  0  0  0  0  0  0  0
    2.2245    7.8182    0.0000 C   0  0  0  0  0  0  0  0  0  0  0  0
    3.6232    7.2763    0.0000 C   0  0  0  0  0  0  0  0  0  0  0  0
    4.8985    6.4867    0.0000 C   0  0  0  0  0  0  0  0  0  0  0  0
    6.0070    5.4761    0.0000 C   0  0  0  0  0  0  0  0  0  0  0  0
    6.9110    4.2791    0.0000 C   0  0  0  0  0  0  0  0  0  0  0  0
    7.5796    2.9363    0.0000 C   0  0  0  0  0  0  0  0  0  0  0  0
    7.9901    1.4936    0.0000 C   0  0  0  0  0  0  0  0  0  0  0  0
  1  2  1  0
  2  3  1  0
  3  4  1  0
  4  5  1  0
  5  6  1  0
  6  7  1  0
  7  8  1  0
  8  9  1  0
  9 10  1  0
 10 11  1  0
 11 12  1  0
 12 13  1  0
 13 14  1  0
 14 15  1  0
 15 16  1  0
 16 17  1  0
 17 18  1  0
 18 19  1  0
 19 20  1  0
 20 21  1  0
 21 22  1  0
 22 23  1  0
 23 24  1  0
 24 25  1  0
 25 26  1  0
 26 27  1  0
 27 28  1  0
 28 29  1  0
 29 30  1  0
 30 31  1  0
 31 32  1  0
 32 33  1  0
 33 34  1  0
 34  1  1  0
M  END
>  <Title>  (499) 
idAARKgen7

$$$$

     RDKit          2D

  9  9  0  0  0  0  0  0  0  0999 V2000
    5.0260   -1.2990    0.0000 C   0  0  0  0  0  0  0  0  0  0  0  0
    3.5260   -1.2990    0.0000 C   0  0  0  0  0  0  0  0  0  0  0  0
    2.7760   -2.5981    0.0000 O   0  0  0  0  0  0  0  0  0  0  0  0
    2.7760    0.0000    0.0000 C   0  0  0  0  0  0  0  0  0  0  0  0
    1.2760    0.0000    0.0000 C   0  0  0  0  0  0  0  0  0  0  0  0
    0.3943    1.2135    0.0000 C   0  0  0  0  0  0  0  0  0  0  0  0
   -1.0323    0.7500    0.0000 C   0  0  0  0  0  0  0  0  0  0  0  0
   -1.0323   -0.7500    0.0000 C   0  0  0  0  0  0  0  0  0  0  0  0
    0.3943   -1.2135    0.0000 C   0  0  0  0  0  0  0  0  0  0  0  0
  1  2  2  0
  2  3  1  0
  2  4  1  0
  4  5  1  0
  5  6  2  0
  6  7  1  0
  7  8  1  0
  8  9  2  0
  9  5  1  0
M  END
>  <Title>  (500) 
idAARLgen7

$$$$

     RDKit          2D

 87 87  0  0  0  0  0  0  0  0999 V2000
   22.0356    0.0000    0.0000 C   0  0  0  0  0  0  0  0  0  0  0  0
   20.5356    0.0000    0.0000 C   0  0  0  0  0  0  0  0  0  0  0  0
   20.4808   -1.4990    0.0000 C   0  0  0  0  0  0  0  0  0  0  0  0
   20.3167   -2.9900    0.0000 C   0  0  0  0  0  0  0  0  0  0  0  0
   20.0443   -4.4650    0.0000 C   0  0  0  0  0  0  0  0  0  0  0  0
   19.6649   -5.9163    0.0000 C   0  0  0  0  0  0  0  0  0  0  0  0
   19.1805   -7.3359    0.0000 C   0  0  0  0  0  0  0  0  0  0  0  0
   18.5939   -8.7165    0.0000 C   0  0  0  0  0  0  0  0  0  0  0  0
   17.9080  -10.0505    0.0000 C   0  0  0  0  0  0  0  0  0  0  0  0
   17.1266  -11.3309    0.0000 C   0  0  0  0  0  0  0  0  0  0  0  0
   16.2538  -12.5508    0.0000 C   0  0  0  0  0  0  0  0  0  0  0  0
   15.2943  -13.7038    0.0000 C   0  0  0  0  0  0  0  0  0  0  0  0
   14.2532  -14.7836    0.0000 C   0  0  0  0  0  0  0  0  0  0  0  0
   13.1360  -15.7846    0.0000 C   0  0  0  0  0  0  0  0  0  0  0  0
   11.9488  -16.7014    0.0000 C   0  0  0  0  0  0  0  0  0  0  0  0
   10.6978  -17.5290    0.0000 C   0  0  0  0  0  0  0  0  0  0  0  0
    9.3897  -18.2631    0.0000 C   0  0  0  0  0  0  0  0  0  0  0  0
    8.0316  -18.8998    0.0000 C   0  0  0  0  0  0  0  0  0  0  0  0
    6.6305  -19.4357    0.0000 C   0  0  0  0  0  0  0  0  0  0  0  0
    5.1941  -19.8678    0.0000 C   0  0  0  0  0  0  0  0  0  0  0  0
    3.7300  -20.1940    0.0000 C   0  0  0  0  0  0  0  0  0  0  0  0
    2.2460  -20.4124    0.0000 C   0  0  0  0  0  0  0  0  0  0  0  0
    0.7500  -20.5219    0.0000 C   0  0  0  0  0  0  0  0  0  0  0  0
   -0.7500  -20.5219    0.0000 C   0  0  0  0  0  0  0  0  0  0  0  0
   -2.2460  -20.4124    0.0000 C   0  0  0  0  0  0  0  0  0  0  0  0
   -3.7300  -20.1940    0.0000 C   0  0  0  0  0  0  0  0  0  0  0  0
   -5.1941  -19.8678    0.0000 C   0  0  0  0  0  0  0  0  0  0  0  0
   -6.6305  -19.4357    0.0000 C   0  0  0  0  0  0  0  0  0  0  0  0
   -8.0316  -18.8998    0.0000 C   0  0  0  0  0  0  0  0  0  0  0  0
   -9.3897  -18.2631    0.0000 C   0  0  0  0  0  0  0  0  0  0  0  0
  -10.6978  -17.5290    0.0000 C   0  0  0  0  0  0  0  0  0  0  0  0
  -11.9488  -16.7014    0.0000 C   0  0  0  0  0  0  0  0  0  0  0  0
  -13.1360  -15.7846    0.0000 C   0  0  0  0  0  0  0  0  0  0  0  0
  -14.2532  -14.7836    0.0000 C   0  0  0  0  0  0  0  0  0  0  0  0
  -15.2943  -13.7038    0.0000 C   0  0  0  0  0  0  0  0  0  0  0  0
  -16.2538  -12.5508    0.0000 C   0  0  0  0  0  0  0  0  0  0  0  0
  -17.1266  -11.3309    0.0000 C   0  0  0  0  0  0  0  0  0  0  0  0
  -17.9080  -10.0505    0.0000 C   0  0  0  0  0  0  0  0  0  0  0  0
  -18.5939   -8.7165    0.0000 C   0  0  0  0  0  0  0  0  0  0  0  0
  -19.1805   -7.3359    0.0000 C   0  0  0  0  0  0  0  0  0  0  0  0
  -19.6649   -5.9163    0.0000 C   0  0  0  0  0  0  0  0  0  0  0  0
  -20.0443   -4.4650    0.0000 C   0  0  0  0  0  0  0  0  0  0  0  0
  -20.3167   -2.9900    0.0000 C   0  0  0  0  0  0  0  0  0  0  0  0
  -20.4808   -1.4990    0.0000 C   0  0  0  0  0  0  0  0  0  0  0  0
  -20.5356    0.0000    0.0000 C   0  0  0  0  0  0  0  0  0  0  0  0
  -20.4808    1.4990    0.0000 C   0  0  0  0  0  0  0  0  0  0  0  0
  -20.3167    2.9900    0.0000 C   0  0  0  0  0  0  0  0  0  0  0  0
  -20.0443    4.4650    0.0000 C   0  0  0  0  0  0  0  0  0  0  0  0
  -19.6649    5.9163    0.0000 C   0  0  0  0  0  0  0  0  0  0  0  0
  -19.1805    7.3359    0.0000 C   0  0  0  0  0  0  0  0  0  0  0  0
  -18.5939    8.7165    0.0000 C   0  0  0  0  0  0  0  0  0  0  0  0
  -17.9080   10.0505    0.0000 C   0  0  0  0  0  0  0  0  0  0  0  0
  -17.1266   11.3309    0.0000 C   0  0  0  0  0  0  0  0  0  0  0  0
  -16.2538   12.5508    0.0000 C   0  0  0  0  0  0  0  0  0  0  0  0
  -15.2943   13.7038    0.0000 C   0  0  0  0  0  0  0  0  0  0  0  0
  -14.2532   14.7836    0.0000 C   0  0  0  0  0  0  0  0  0  0  0  0
  -13.1360   15.7846    0.0000 C   0  0  0  0  0  0  0  0  0  0  0  0
  -11.9488   16.7014    0.0000 C   0  0  0  0  0  0  0  0  0  0  0  0
  -10.6978   17.5290    0.0000 C   0  0  0  0  0  0  0  0  0  0  0  0
   -9.3897   18.2631    0.0000 C   0  0  0  0  0  0  0  0  0  0  0  0
   -8.0316   18.8998    0.0000 C   0  0  0  0  0  0  0  0  0  0  0  0
   -6.6305   19.4357    0.0000 C   0  0  0  0  0  0  0  0  0  0  0  0
   -5.1941   19.8678    0.0000 C   0  0  0  0  0  0  0  0  0  0  0  0
   -3.7300   20.1940    0.0000 C   0  0  0  0  0  0  0  0  0  0  0  0
   -2.2460   20.4124    0.0000 C   0  0  0  0  0  0  0  0  0  0  0  0
   -0.7500   20.5219    0.0000 C   0  0  0  0  0  0  0  0  0  0  0  0
    0.7500   20.5219    0.0000 C   0  0  0  0  0  0  0  0  0  0  0  0
    2.2460   20.4124    0.0000 C   0  0  0  0  0  0  0  0  0  0  0  0
    3.7300   20.1940    0.0000 C   0  0  0  0  0  0  0  0  0  0  0  0
    5.1941   19.8678    0.0000 C   0  0  0  0  0  0  0  0  0  0  0  0
    6.6305   19.4357    0.0000 C   0  0  0  0  0  0  0  0  0  0  0  0
    8.0316   18.8998    0.0000 C   0  0  0  0  0  0  0  0  0  0  0  0
    9.3897   18.2631    0.0000 C   0  0  0  0  0  0  0  0  0  0  0  0
   10.6978   17.5290    0.0000 C   0  0  0  0  0  0  0  0  0  0  0  0
   11.9488   16.7014    0.0000 C   0  0  0  0  0  0  0  0  0  0  0  0
   13.1360   15.7846    0.0000 C   0  0  0  0  0  0  0  0  0  0  0  0
   14.2532   14.7836    0.0000 C   0  0  0  0  0  0  0  0  0  0  0  0
   15.2943   13.7038    0.0000 C   0  0  0  0  0  0  0  0  0  0  0  0
   16.2538   12.5508    0.0000 C   0  0  0  0  0  0  0  0  0  0  0  0
   17.1266   11.3309    0.0000 C   0  0  0  0  0  0  0  0  0  0  0  0
   17.9080   10.0505    0.0000 C   0  0  0  0  0  0  0  0  0  0  0  0
   18.5939    8.7165    0.0000 C   0  0  0  0  0  0  0  0  0  0  0  0
   19.1805    7.3359    0.0000 C   0  0  0  0  0  0  0  0  0  0  0  0
   19.6649    5.9163    0.0000 C   0  0  0  0  0  0  0  0  0  0  0  0
   20.0443    4.4650    0.0000 C   0  0  0  0  0  0  0  0  0  0  0  0
   20.3167    2.9900    0.0000 C   0  0  0  0  0  0  0  0  0  0  0  0
   20.4808    1.4990    0.0000 C   0  0  0  0  0  0  0  0  0  0  0  0
  1  2  1  0
  2  3  1  0
  3  4  2  0
  4  5  1  0
  5  6  2  0
  6  7  1  0
  7  8  1  0
  8  9  1  0
  9 10  1  0
 10 11  1  0
 11 12  1  0
 12 13  1  0
 13 14  1  0
 14 15  1  0
 15 16  1  0
 16 17  1  0
 17 18  1  0
 18 19  1  0
 19 20  1  0
 20 21  1  0
 21 22  1  0
 22 23  1  0
 23 24  1  0
 24 25  1  0
 25 26  1  0
 26 27  1  0
 27 28  1  0
 28 29  1  0
 29 30  1  0
 30 31  1  0
 31 32  1  0
 32 33  1  0
 33 34  1  0
 34 35  1  0
 35 36  1  0
 36 37  1  0
 37 38  1  0
 38 39  1  0
 39 40  1  0
 40 41  1  0
 41 42  1  0
 42 43  1  0
 43 44  1  0
 44 45  1  0
 45 46  1  0
 46 47  1  0
 47 48  1  0
 48 49  1  0
 49 50  1  0
 50 51  1  0
 51 52  1  0
 52 53  1  0
 53 54  1  0
 54 55  1  0
 55 56  1  0
 56 57  1  0
 57 58  1  0
 58 59  1  0
 59 60  1  0
 60 61  1  0
 61 62  1  0
 62 63  1  0
 63 64  1  0
 64 65  1  0
 65 66  1  0
 66 67  1  0
 67 68  1  0
 68 69  1  0
 69 70  1  0
 70 71  1  0
 71 72  1  0
 72 73  1  0
 73 74  1  0
 74 75  1  0
 75 76  1  0
 76 77  1  0
 77 78  1  0
 78 79  1  0
 79 80  1  0
 80 81  1  0
 81 82  1  0
 82 83  1  0
 83 84  1  0
 84 85  1  0
 85 86  1  0
 86 87  1  0
 87  2  1  0
M  END
>  <Title>  (501) 
idAARMgen7

$$$$

     RDKit          2D

 17 18  0  0  0  0  0  0  0  0999 V2000
    5.2500   -1.2990    0.0000 C   0  0  0  0  0  0  0  0  0  0  0  0
    3.7500   -1.2990    0.0000 C   0  0  0  0  0  0  0  0  0  0  0  0
    3.0000   -2.5981    0.0000 O   0  0  0  0  0  0  0  0  0  0  0  0
    3.0000    0.0000    0.0000 C   0  0  0  0  0  0  0  0  0  0  0  0
    3.7500    1.2990    0.0000 O   0  0  0  0  0  0  0  0  0  0  0  0
    1.5000    0.0000    0.0000 N   0  0  0  0  0  0  0  0  0  0  0  0
    0.7500   -1.2990    0.0000 C   0  0  0  0  0  0  0  0  0  0  0  0
   -0.7500   -1.2990    0.0000 C   0  0  0  0  0  0  0  0  0  0  0  0
   -1.5000    0.0000    0.0000 C   0  0  0  0  0  0  0  0  0  0  0  0
   -3.0000    0.0000    0.0000 C   0  0  0  0  0  0  0  0  0  0  0  0
   -3.7500    1.2990    0.0000 C   0  0  0  0  0  0  0  0  0  0  0  0
   -5.2500    1.2990    0.0000 C   0  0  0  0  0  0  0  0  0  0  0  0
   -6.0000    0.0000    0.0000 C   0  0  0  0  0  0  0  0  0  0  0  0
   -5.2500   -1.2990    0.0000 C   0  0  0  0  0  0  0  0  0  0  0  0
   -3.7500   -1.2990    0.0000 C   0  0  0  0  0  0  0  0  0  0  0  0
   -0.7500    1.2990    0.0000 C   0  0  0  0  0  0  0  0  0  0  0  0
    0.7500    1.2990    0.0000 C   0  0  0  0  0  0  0  0  0  0  0  0
  1  2  1  0
  2  3  2  0
  2  4  1  0
  4  5  2  0
  4  6  1  0
  6  7  1  0
  7  8  1  0
  8  9  1  0
  9 10  1  0
 10 11  2  0
 11 12  1  0
 12 13  2  0
 13 14  1  0
 14 15  2  0
  9 16  1  0
 16 17  1  0
 17  6  1  0
 15 10  1  0
M  END
>  <Title>  (502) 
idAARNgen7

$$$$

     RDKit          2D

 14 14  0  0  0  0  0  0  0  0999 V2000
    4.6339    0.0000    0.0000 C   0  0  0  0  0  0  0  0  0  0  0  0
    3.1339    0.0000    0.0000 C   0  0  0  0  0  0  0  0  0  0  0  0
    2.7750    1.4564    0.0000 C   0  0  0  0  0  0  0  0  0  0  0  0
    1.7803    2.5792    0.0000 C   0  0  0  0  0  0  0  0  0  0  0  0
    0.3778    3.1111    0.0000 C   0  0  0  0  0  0  0  0  0  0  0  0
   -1.1113    2.9303    0.0000 C   0  0  0  0  0  0  0  0  0  0  0  0
   -2.3458    2.0782    0.0000 C   0  0  0  0  0  0  0  0  0  0  0  0
   -3.0429    0.7500    0.0000 C   0  0  0  0  0  0  0  0  0  0  0  0
   -3.0429   -0.7500    0.0000 C   0  0  0  0  0  0  0  0  0  0  0  0
   -2.3458   -2.0782    0.0000 C   0  0  0  0  0  0  0  0  0  0  0  0
   -1.1113   -2.9303    0.0000 C   0  0  0  0  0  0  0  0  0  0  0  0
    0.3778   -3.1111    0.0000 C   0  0  0  0  0  0  0  0  0  0  0  0
    1.7803   -2.5792    0.0000 C   0  0  0  0  0  0  0  0  0  0  0  0
    2.7750   -1.4564    0.0000 C   0  0  0  0  0  0  0  0  0  0  0  0
  1  2  1  0
  2  3  1  0
  3  4  1  0
  4  5  2  0
  5  6  1  0
  6  7  1  0
  7  8  1  0
  8  9  1  0
  9 10  1  0
 10 11  1  0
 11 12  1  0
 12 13  1  0
 13 14  1  0
 14  2  1  0
M  END
>  <Title>  (503) 
idAAROgen7

$$$$

     RDKit          2D

  9  9  0  0  0  0  0  0  0  0999 V2000
    3.4598   -0.0000    0.0000 C   0  0  0  0  0  0  0  0  0  0  0  0
    1.9598    0.0000    0.0000 C   0  0  0  0  0  0  0  0  0  0  0  0
    1.3858   -1.3858    0.0000 C   0  0  0  0  0  0  0  0  0  0  0  0
   -0.0000   -1.9598    0.0000 C   0  0  0  0  0  0  0  0  0  0  0  0
   -1.3858   -1.3858    0.0000 C   0  0  0  0  0  0  0  0  0  0  0  0
   -1.9598    0.0000    0.0000 C   0  0  0  0  0  0  0  0  0  0  0  0
   -1.3858    1.3858    0.0000 C   0  0  0  0  0  0  0  0  0  0  0  0
    0.0000    1.9598    0.0000 C   0  0  0  0  0  0  0  0  0  0  0  0
    1.3858    1.3858    0.0000 C   0  0  0  0  0  0  0  0  0  0  0  0
  1  2  1  0
  2  3  1  0
  3  4  1  0
  4  5  2  0
  5  6  1  0
  6  7  1  0
  7  8  1  0
  8  9  1  0
  9  2  1  0
M  END
>  <Title>  (504) 
idAARPgen7

$$$$

     RDKit          2D

 56 56  0  0  0  0  0  0  0  0999 V2000
   14.6374    0.0000    0.0000 C   0  0  0  0  0  0  0  0  0  0  0  0
   13.1374    0.0000    0.0000 C   0  0  0  0  0  0  0  0  0  0  0  0
   13.0518    1.4976    0.0000 C   0  0  0  0  0  0  0  0  0  0  0  0
   12.7960    2.9756    0.0000 C   0  0  0  0  0  0  0  0  0  0  0  0
   12.3734    4.4148    0.0000 C   0  0  0  0  0  0  0  0  0  0  0  0
   11.7895    5.7965    0.0000 C   0  0  0  0  0  0  0  0  0  0  0  0
   11.0519    7.1026    0.0000 C   0  0  0  0  0  0  0  0  0  0  0  0
   10.1702    8.3162    0.0000 C   0  0  0  0  0  0  0  0  0  0  0  0
    9.1560    9.4213    0.0000 C   0  0  0  0  0  0  0  0  0  0  0  0
    8.0223   10.4036    0.0000 C   0  0  0  0  0  0  0  0  0  0  0  0
    6.7841   11.2502    0.0000 C   0  0  0  0  0  0  0  0  0  0  0  0
    5.4575   11.9502    0.0000 C   0  0  0  0  0  0  0  0  0  0  0  0
    4.0597   12.4944    0.0000 C   0  0  0  0  0  0  0  0  0  0  0  0
    2.6090   12.8758    0.0000 C   0  0  0  0  0  0  0  0  0  0  0  0
    1.1242   13.0892    0.0000 C   0  0  0  0  0  0  0  0  0  0  0  0
   -0.3752   13.1321    0.0000 C   0  0  0  0  0  0  0  0  0  0  0  0
   -1.8697   13.0037    0.0000 C   0  0  0  0  0  0  0  0  0  0  0  0
   -3.3398   12.7058    0.0000 C   0  0  0  0  0  0  0  0  0  0  0  0
   -4.7664   12.2423    0.0000 C   0  0  0  0  0  0  0  0  0  0  0  0
   -6.1308   11.6192    0.0000 C   0  0  0  0  0  0  0  0  0  0  0  0
   -7.4153   10.8446    0.0000 C   0  0  0  0  0  0  0  0  0  0  0  0
   -8.6032    9.9286    0.0000 C   0  0  0  0  0  0  0  0  0  0  0  0
   -9.6789    8.8832    0.0000 C   0  0  0  0  0  0  0  0  0  0  0  0
  -10.6284    7.7220    0.0000 C   0  0  0  0  0  0  0  0  0  0  0  0
  -11.4394    6.4601    0.0000 C   0  0  0  0  0  0  0  0  0  0  0  0
  -12.1012    5.1140    0.0000 C   0  0  0  0  0  0  0  0  0  0  0  0
  -12.6053    3.7012    0.0000 C   0  0  0  0  0  0  0  0  0  0  0  0
  -12.9450    2.2402    0.0000 C   0  0  0  0  0  0  0  0  0  0  0  0
  -13.1160    0.7500    0.0000 C   0  0  0  0  0  0  0  0  0  0  0  0
  -13.1160   -0.7500    0.0000 C   0  0  0  0  0  0  0  0  0  0  0  0
  -12.9450   -2.2402    0.0000 C   0  0  0  0  0  0  0  0  0  0  0  0
  -12.6053   -3.7012    0.0000 C   0  0  0  0  0  0  0  0  0  0  0  0
  -12.1012   -5.1140    0.0000 C   0  0  0  0  0  0  0  0  0  0  0  0
  -11.4394   -6.4601    0.0000 C   0  0  0  0  0  0  0  0  0  0  0  0
  -10.6284   -7.7220    0.0000 C   0  0  0  0  0  0  0  0  0  0  0  0
   -9.6789   -8.8832    0.0000 C   0  0  0  0  0  0  0  0  0  0  0  0
   -8.6032   -9.9286    0.0000 C   0  0  0  0  0  0  0  0  0  0  0  0
   -7.4153  -10.8446    0.0000 C   0  0  0  0  0  0  0  0  0  0  0  0
   -6.1308  -11.6192    0.0000 C   0  0  0  0  0  0  0  0  0  0  0  0
   -4.7664  -12.2423    0.0000 C   0  0  0  0  0  0  0  0  0  0  0  0
   -3.3398  -12.7058    0.0000 C   0  0  0  0  0  0  0  0  0  0  0  0
   -1.8697  -13.0037    0.0000 C   0  0  0  0  0  0  0  0  0  0  0  0
   -0.3752  -13.1321    0.0000 C   0  0  0  0  0  0  0  0  0  0  0  0
    1.1242  -13.0892    0.0000 C   0  0  0  0  0  0  0  0  0  0  0  0
    2.6090  -12.8758    0.0000 C   0  0  0  0  0  0  0  0  0  0  0  0
    4.0597  -12.4944    0.0000 C   0  0  0  0  0  0  0  0  0  0  0  0
    5.4575  -11.9502    0.0000 C   0  0  0  0  0  0  0  0  0  0  0  0
    6.7841  -11.2502    0.0000 C   0  0  0  0  0  0  0  0  0  0  0  0
    8.0223  -10.4036    0.0000 C   0  0  0  0  0  0  0  0  0  0  0  0
    9.1560   -9.4213    0.0000 C   0  0  0  0  0  0  0  0  0  0  0  0
   10.1702   -8.3162    0.0000 C   0  0  0  0  0  0  0  0  0  0  0  0
   11.0519   -7.1026    0.0000 C   0  0  0  0  0  0  0  0  0  0  0  0
   11.7895   -5.7965    0.0000 C   0  0  0  0  0  0  0  0  0  0  0  0
   12.3734   -4.4148    0.0000 C   0  0  0  0  0  0  0  0  0  0  0  0
   12.7960   -2.9756    0.0000 C   0  0  0  0  0  0  0  0  0  0  0  0
   13.0518   -1.4976    0.0000 C   0  0  0  0  0  0  0  0  0  0  0  0
  1  2  1  0
  2  3  2  0
  3  4  1  0
  4  5  1  0
  5  6  1  0
  6  7  1  0
  7  8  1  0
  8  9  1  0
  9 10  1  0
 10 11  1  0
 11 12  1  0
 12 13  1  0
 13 14  1  0
 14 15  1  0
 15 16  1  0
 16 17  1  0
 17 18  1  0
 18 19  1  0
 19 20  1  0
 20 21  1  0
 21 22  1  0
 22 23  1  0
 23 24  1  0
 24 25  1  0
 25 26  1  0
 26 27  1  0
 27 28  1  0
 28 29  1  0
 29 30  1  0
 30 31  1  0
 31 32  1  0
 32 33  1  0
 33 34  1  0
 34 35  1  0
 35 36  1  0
 36 37  1  0
 37 38  1  0
 38 39  1  0
 39 40  1  0
 40 41  1  0
 41 42  1  0
 42 43  1  0
 43 44  1  0
 44 45  1  0
 45 46  1  0
 46 47  2  0
 47 48  1  0
 48 49  2  0
 49 50  1  0
 50 51  2  0
 51 52  1  0
 52 53  2  0
 53 54  1  0
 54 55  2  0
 55 56  1  0
 56  2  1  0
M  END
>  <Title>  (505) 
idAARQgen7

$$$$

     RDKit          2D

  9  9  0  0  0  0  0  0  0  0999 V2000
    2.7760   -1.5000    0.0000 C   0  0  0  0  0  0  0  0  0  0  0  0
    2.7760    0.0000    0.0000 C   0  0  0  0  0  0  0  0  0  0  0  0
    2.7760    1.5000    0.0000 C   0  0  0  0  0  0  0  0  0  0  0  0
    4.2760    0.0000    0.0000 C   0  0  0  0  0  0  0  0  0  0  0  0
    1.2760    0.0000    0.0000 C   0  0  0  0  0  0  0  0  0  0  0  0
    0.3943    1.2135    0.0000 C   0  0  0  0  0  0  0  0  0  0  0  0
   -1.0323    0.7500    0.0000 C   0  0  0  0  0  0  0  0  0  0  0  0
   -1.0323   -0.7500    0.0000 C   0  0  0  0  0  0  0  0  0  0  0  0
    0.3943   -1.2135    0.0000 C   0  0  0  0  0  0  0  0  0  0  0  0
  1  2  1  0
  2  3  1  0
  2  4  1  0
  2  5  1  0
  5  6  2  0
  6  7  1  0
  7  8  1  0
  8  9  2  0
  9  5  1  0
M  END
>  <Title>  (506) 
idAARRgen7

$$$$

     RDKit          2D

  4  3  0  0  0  0  0  0  0  0999 V2000
    0.0000    0.0000    0.0000 C   0  0  0  0  0  0  0  0  0  0  0  0
    1.2990    0.7500    0.0000 C   0  0  0  0  0  0  0  0  0  0  0  0
    2.5981   -0.0000    0.0000 C   0  0  0  0  0  0  0  0  0  0  0  0
    3.8971   -0.7500    0.0000 N   0  0  0  0  0  0  0  0  0  0  0  0
  1  2  1  0
  2  3  1  0
  3  4  3  0
M  END
>  <Title>  (507) 
idAARSgen7

$$$$

     RDKit          2D

  8  8  0  0  0  0  0  0  0  0999 V2000
    3.5260   -1.2990    0.0000 C   0  0  0  0  0  0  0  0  0  0  0  0
    2.7760    0.0000    0.0000 C   0  0  0  0  0  0  0  0  0  0  0  0
    3.5260    1.2990    0.0000 O   0  0  0  0  0  0  0  0  0  0  0  0
    1.2760    0.0000    0.0000 C   0  0  0  0  0  0  0  0  0  0  0  0
    0.3943    1.2135    0.0000 C   0  0  0  0  0  0  0  0  0  0  0  0
   -1.0323    0.7500    0.0000 C   0  0  0  0  0  0  0  0  0  0  0  0
   -1.0323   -0.7500    0.0000 C   0  0  0  0  0  0  0  0  0  0  0  0
    0.3943   -1.2135    0.0000 C   0  0  0  0  0  0  0  0  0  0  0  0
  1  2  2  0
  2  3  1  0
  2  4  1  0
  4  5  2  0
  5  6  1  0
  6  7  1  0
  7  8  1  0
  8  4  1  0
M  END
>  <Title>  (508) 
idAARTgen7

$$$$

     RDKit          2D

 10 10  0  0  0  0  0  0  0  0999 V2000
    5.0260    1.2990    0.0000 C   0  0  0  0  0  0  0  0  0  0  0  0
    3.5260    1.2990    0.0000 C   0  0  0  0  0  0  0  0  0  0  0  0
    2.7760    2.5981    0.0000 O   0  0  0  0  0  0  0  0  0  0  0  0
    2.7760    0.0000    0.0000 C   0  0  0  0  0  0  0  0  0  0  0  0
    3.5260   -1.2990    0.0000 C   0  0  0  0  0  0  0  0  0  0  0  0
    1.2760    0.0000    0.0000 C   0  0  0  0  0  0  0  0  0  0  0  0
    0.3943    1.2135    0.0000 C   0  0  0  0  0  0  0  0  0  0  0  0
   -1.0323    0.7500    0.0000 C   0  0  0  0  0  0  0  0  0  0  0  0
   -1.0323   -0.7500    0.0000 C   0  0  0  0  0  0  0  0  0  0  0  0
    0.3943   -1.2135    0.0000 C   0  0  0  0  0  0  0  0  0  0  0  0
  1  2  1  0
  2  3  2  0
  2  4  1  0
  4  5  1  0
  4  6  1  0
  6  7  2  0
  7  8  1  0
  8  9  1  0
  9 10  1  0
 10  6  1  0
M  END
>  <Title>  (509) 
idAARUgen7

$$$$

     RDKit          2D

114115  0  0  0  0  0  0  0  0999 V2000
   -3.9547   -0.0762    0.0000 C   0  0  0  0  0  0  0  0  0  0  0  0
   -3.7373   -1.5604    0.0000 C   0  0  0  0  0  0  0  0  0  0  0  0
   -5.2145   -1.8209    0.0000 C   0  0  0  0  0  0  0  0  0  0  0  0
   -6.6741   -2.1668    0.0000 C   0  0  0  0  0  0  0  0  0  0  0  0
   -8.1111   -2.5970    0.0000 C   0  0  0  0  0  0  0  0  0  0  0  0
   -9.5206   -3.1100    0.0000 C   0  0  0  0  0  0  0  0  0  0  0  0
  -10.8979   -3.7041    0.0000 C   0  0  0  0  0  0  0  0  0  0  0  0
  -12.2384   -4.3773    0.0000 C   0  0  0  0  0  0  0  0  0  0  0  0
  -13.5374   -5.1273    0.0000 C   0  0  0  0  0  0  0  0  0  0  0  0
  -14.7907   -5.9516    0.0000 C   0  0  0  0  0  0  0  0  0  0  0  0
  -15.9938   -6.8473    0.0000 C   0  0  0  0  0  0  0  0  0  0  0  0
  -17.1429   -7.8115    0.0000 C   0  0  0  0  0  0  0  0  0  0  0  0
  -18.2340   -8.8409    0.0000 C   0  0  0  0  0  0  0  0  0  0  0  0
  -19.2633   -9.9319    0.0000 C   0  0  0  0  0  0  0  0  0  0  0  0
  -20.2275  -11.0810    0.0000 C   0  0  0  0  0  0  0  0  0  0  0  0
  -21.1233  -12.2842    0.0000 C   0  0  0  0  0  0  0  0  0  0  0  0
  -21.9475  -13.5374    0.0000 C   0  0  0  0  0  0  0  0  0  0  0  0
  -22.6975  -14.8365    0.0000 C   0  0  0  0  0  0  0  0  0  0  0  0
  -23.3707  -16.1769    0.0000 C   0  0  0  0  0  0  0  0  0  0  0  0
  -23.9648  -17.5542    0.0000 C   0  0  0  0  0  0  0  0  0  0  0  0
  -24.4779  -18.9638    0.0000 C   0  0  0  0  0  0  0  0  0  0  0  0
  -24.9081  -20.4008    0.0000 C   0  0  0  0  0  0  0  0  0  0  0  0
  -25.2540  -21.8603    0.0000 C   0  0  0  0  0  0  0  0  0  0  0  0
  -25.5145  -23.3375    0.0000 C   0  0  0  0  0  0  0  0  0  0  0  0
  -25.6886  -24.8274    0.0000 C   0  0  0  0  0  0  0  0  0  0  0  0
  -25.7758  -26.3249    0.0000 C   0  0  0  0  0  0  0  0  0  0  0  0
  -25.7758  -27.8249    0.0000 C   0  0  0  0  0  0  0  0  0  0  0  0
  -25.6886  -29.3223    0.0000 C   0  0  0  0  0  0  0  0  0  0  0  0
  -25.5145  -30.8122    0.0000 C   0  0  0  0  0  0  0  0  0  0  0  0
  -25.2540  -32.2894    0.0000 C   0  0  0  0  0  0  0  0  0  0  0  0
  -24.9081  -33.7490    0.0000 C   0  0  0  0  0  0  0  0  0  0  0  0
  -24.4779  -35.1859    0.0000 C   0  0  0  0  0  0  0  0  0  0  0  0
  -23.9648  -36.5955    0.0000 C   0  0  0  0  0  0  0  0  0  0  0  0
  -23.3707  -37.9728    0.0000 C   0  0  0  0  0  0  0  0  0  0  0  0
  -22.6975  -39.3133    0.0000 C   0  0  0  0  0  0  0  0  0  0  0  0
  -21.9475  -40.6123    0.0000 C   0  0  0  0  0  0  0  0  0  0  0  0
  -21.1233  -41.8655    0.0000 C   0  0  0  0  0  0  0  0  0  0  0  0
  -20.2275  -43.0687    0.0000 C   0  0  0  0  0  0  0  0  0  0  0  0
  -19.2633  -44.2178    0.0000 C   0  0  0  0  0  0  0  0  0  0  0  0
  -18.2340  -45.3088    0.0000 C   0  0  0  0  0  0  0  0  0  0  0  0
  -17.1429  -46.3382    0.0000 C   0  0  0  0  0  0  0  0  0  0  0  0
  -15.9938  -47.3024    0.0000 C   0  0  0  0  0  0  0  0  0  0  0  0
  -14.7907  -48.1981    0.0000 C   0  0  0  0  0  0  0  0  0  0  0  0
  -13.5374  -49.0224    0.0000 C   0  0  0  0  0  0  0  0  0  0  0  0
  -12.2384  -49.7724    0.0000 C   0  0  0  0  0  0  0  0  0  0  0  0
  -10.8979  -50.4456    0.0000 C   0  0  0  0  0  0  0  0  0  0  0  0
   -9.5206  -51.0397    0.0000 C   0  0  0  0  0  0  0  0  0  0  0  0
   -8.1111  -51.5527    0.0000 C   0  0  0  0  0  0  0  0  0  0  0  0
   -6.6741  -51.9829    0.0000 C   0  0  0  0  0  0  0  0  0  0  0  0
   -5.2145  -52.3289    0.0000 C   0  0  0  0  0  0  0  0  0  0  0  0
   -3.7373  -52.5893    0.0000 C   0  0  0  0  0  0  0  0  0  0  0  0
   -2.2475  -52.7635    0.0000 C   0  0  0  0  0  0  0  0  0  0  0  0
   -0.7500  -52.8507    0.0000 C   0  0  0  0  0  0  0  0  0  0  0  0
    0.7500  -52.8507    0.0000 C   0  0  0  0  0  0  0  0  0  0  0  0
    2.2475  -52.7635    0.0000 C   0  0  0  0  0  0  0  0  0  0  0  0
    3.7373  -52.5893    0.0000 C   0  0  0  0  0  0  0  0  0  0  0  0
    5.2145  -52.3289    0.0000 C   0  0  0  0  0  0  0  0  0  0  0  0
    6.6741  -51.9829    0.0000 C   0  0  0  0  0  0  0  0  0  0  0  0
    8.1111  -51.5527    0.0000 C   0  0  0  0  0  0  0  0  0  0  0  0
    9.5206  -51.0397    0.0000 C   0  0  0  0  0  0  0  0  0  0  0  0
   10.8979  -50.4456    0.0000 C   0  0  0  0  0  0  0  0  0  0  0  0
   12.2384  -49.7724    0.0000 C   0  0  0  0  0  0  0  0  0  0  0  0
   13.5374  -49.0224    0.0000 C   0  0  0  0  0  0  0  0  0  0  0  0
   14.7907  -48.1981    0.0000 C   0  0  0  0  0  0  0  0  0  0  0  0
   15.9938  -47.3024    0.0000 C   0  0  0  0  0  0  0  0  0  0  0  0
   17.1429  -46.3382    0.0000 C   0  0  0  0  0  0  0  0  0  0  0  0
   18.2340  -45.3088    0.0000 C   0  0  0  0  0  0  0  0  0  0  0  0
   19.2633  -44.2178    0.0000 C   0  0  0  0  0  0  0  0  0  0  0  0
   20.2275  -43.0687    0.0000 C   0  0  0  0  0  0  0  0  0  0  0  0
   21.1233  -41.8655    0.0000 C   0  0  0  0  0  0  0  0  0  0  0  0
   21.9475  -40.6123    0.0000 C   0  0  0  0  0  0  0  0  0  0  0  0
   22.6975  -39.3133    0.0000 C   0  0  0  0  0  0  0  0  0  0  0  0
   23.3707  -37.9728    0.0000 C   0  0  0  0  0  0  0  0  0  0  0  0
   23.9648  -36.5955    0.0000 C   0  0  0  0  0  0  0  0  0  0  0  0
   24.4779  -35.1859    0.0000 C   0  0  0  0  0  0  0  0  0  0  0  0
   24.9081  -33.7490    0.0000 C   0  0  0  0  0  0  0  0  0  0  0  0
   25.2540  -32.2894    0.0000 C   0  0  0  0  0  0  0  0  0  0  0  0
   25.5145  -30.8122    0.0000 C   0  0  0  0  0  0  0  0  0  0  0  0
   25.6886  -29.3223    0.0000 C   0  0  0  0  0  0  0  0  0  0  0  0
   25.7758  -27.8249    0.0000 C   0  0  0  0  0  0  0  0  0  0  0  0
   25.7758  -26.3249    0.0000 C   0  0  0  0  0  0  0  0  0  0  0  0
   25.6886  -24.8274    0.0000 C   0  0  0  0  0  0  0  0  0  0  0  0
   25.5145  -23.3375    0.0000 C   0  0  0  0  0  0  0  0  0  0  0  0
   25.2540  -21.8603    0.0000 C   0  0  0  0  0  0  0  0  0  0  0  0
   24.9081  -20.4008    0.0000 C   0  0  0  0  0  0  0  0  0  0  0  0
   24.4779  -18.9638    0.0000 C   0  0  0  0  0  0  0  0  0  0  0  0
   23.9648  -17.5542    0.0000 C   0  0  0  0  0  0  0  0  0  0  0  0
   23.3707  -16.1769    0.0000 C   0  0  0  0  0  0  0  0  0  0  0  0
   22.6975  -14.8365    0.0000 C   0  0  0  0  0  0  0  0  0  0  0  0
   21.9475  -13.5374    0.0000 C   0  0  0  0  0  0  0  0  0  0  0  0
   21.1233  -12.2842    0.0000 C   0  0  0  0  0  0  0  0  0  0  0  0
   20.2275  -11.0810    0.0000 C   0  0  0  0  0  0  0  0  0  0  0  0
   19.2633   -9.9319    0.0000 C   0  0  0  0  0  0  0  0  0  0  0  0
   18.2340   -8.8409    0.0000 C   0  0  0  0  0  0  0  0  0  0  0  0
   17.1429   -7.8115    0.0000 C   0  0  0  0  0  0  0  0  0  0  0  0
   15.9938   -6.8473    0.0000 C   0  0  0  0  0  0  0  0  0  0  0  0
   14.7907   -5.9516    0.0000 C   0  0  0  0  0  0  0  0  0  0  0  0
   13.5374   -5.1273    0.0000 C   0  0  0  0  0  0  0  0  0  0  0  0
   12.2384   -4.3773    0.0000 C   0  0  0  0  0  0  0  0  0  0  0  0
   10.8979   -3.7041    0.0000 C   0  0  0  0  0  0  0  0  0  0  0  0
    9.5206   -3.1100    0.0000 C   0  0  0  0  0  0  0  0  0  0  0  0
    8.1111   -2.5970    0.0000 C   0  0  0  0  0  0  0  0  0  0  0  0
    6.6741   -2.1668    0.0000 C   0  0  0  0  0  0  0  0  0  0  0  0
    5.2145   -1.8209    0.0000 C   0  0  0  0  0  0  0  0  0  0  0  0
    3.7373   -1.5604    0.0000 C   0  0  0  0  0  0  0  0  0  0  0  0
    2.2475   -1.3863    0.0000 C   0  0  0  0  0  0  0  0  0  0  0  0
    2.3782    0.1080    0.0000 C   0  0  0  0  0  0  0  0  0  0  0  0
    0.7500   -1.2990    0.0000 C   0  0  0  0  0  0  0  0  0  0  0  0
    1.5000    0.0000    0.0000 C   0  0  0  0  0  0  0  0  0  0  0  0
    0.7500    1.2990    0.0000 C   0  0  0  0  0  0  0  0  0  0  0  0
   -0.7500    1.2990    0.0000 C   0  0  0  0  0  0  0  0  0  0  0  0
   -1.5000    0.0000    0.0000 C   0  0  0  0  0  0  0  0  0  0  0  0
   -0.7500   -1.2990    0.0000 C   0  0  0  0  0  0  0  0  0  0  0  0
   -2.2475   -1.3863    0.0000 C   0  0  0  0  0  0  0  0  0  0  0  0
  1  2  1  0
  2  3  1  0
  3  4  1  0
  4  5  1  0
  5  6  1  0
  6  7  1  0
  7  8  1  0
  8  9  1  0
  9 10  1  0
 10 11  1  0
 11 12  1  0
 12 13  1  0
 13 14  1  0
 14 15  1  0
 15 16  1  0
 16 17  1  0
 17 18  1  0
 18 19  1  0
 19 20  1  0
 20 21  1  0
 21 22  1  0
 22 23  1  0
 23 24  1  0
 24 25  1  0
 25 26  1  0
 26 27  1  0
 27 28  1  0
 28 29  1  0
 29 30  1  0
 30 31  1  0
 31 32  1  0
 32 33  1  0
 33 34  1  0
 34 35  1  0
 35 36  1  0
 36 37  1  0
 37 38  1  0
 38 39  1  0
 39 40  1  0
 40 41  1  0
 41 42  1  0
 42 43  1  0
 43 44  1  0
 44 45  1  0
 45 46  1  0
 46 47  1  0
 47 48  1  0
 48 49  1  0
 49 50  1  0
 50 51  1  0
 51 52  1  0
 52 53  1  0
 53 54  1  0
 54 55  1  0
 55 56  1  0
 56 57  1  0
 57 58  1  0
 58 59  1  0
 59 60  1  0
 60 61  1  0
 61 62  1  0
 62 63  1  0
 63 64  1  0
 64 65  1  0
 65 66  1  0
 66 67  1  0
 67 68  1  0
 68 69  1  0
 69 70  1  0
 70 71  1  0
 71 72  1  0
 72 73  1  0
 73 74  1  0
 74 75  1  0
 75 76  1  0
 76 77  1  0
 77 78  1  0
 78 79  1  0
 79 80  1  0
 80 81  1  0
 81 82  1  0
 82 83  1  0
 83 84  1  0
 84 85  1  0
 85 86  1  0
 86 87  1  0
 87 88  1  0
 88 89  1  0
 89 90  1  0
 90 91  1  0
 91 92  1  0
 92 93  1  0
 93 94  1  0
 94 95  1  0
 95 96  1  0
 96 97  1  0
 97 98  1  0
 98 99  1  0
 99100  1  0
100101  1  0
101102  1  0
102103  1  0
103104  1  0
104105  1  0
105106  1  0
106107  1  0
106108  1  0
108109  2  0
109110  1  0
110111  2  0
111112  1  0
112113  2  0
113114  1  0
114  2  1  0
113108  1  0
M  END
>  <Title>  (510) 
idAARVgen7

$$$$

     RDKit          2D

 21 23  0  0  0  0  0  0  0  0999 V2000
   -3.1476   -2.1380    0.0000 C   0  0  0  0  0  0  0  0  0  0  0  0
   -1.6852   -2.4718    0.0000 C   0  0  0  0  0  0  0  0  0  0  0  0
   -1.3515   -3.9342    0.0000 C   0  0  0  0  0  0  0  0  0  0  0  0
   -0.0000   -4.5850    0.0000 C   0  0  0  0  0  0  0  0  0  0  0  0
    1.3515   -3.9342    0.0000 C   0  0  0  0  0  0  0  0  0  0  0  0
    1.6852   -2.4718    0.0000 C   0  0  0  0  0  0  0  0  0  0  0  0
    3.1476   -2.1380    0.0000 C   0  0  0  0  0  0  0  0  0  0  0  0
    3.5898   -0.7046    0.0000 O   0  0  0  0  0  0  0  0  0  0  0  0
    4.1679   -3.2376    0.0000 N   0  0  0  0  0  0  0  0  0  0  0  0
    5.6303   -2.9038    0.0000 C   0  0  0  0  0  0  0  0  0  0  0  0
    6.6505   -4.0034    0.0000 N   0  0  0  0  0  0  0  0  0  0  0  0
    8.1129   -3.6696    0.0000 N   0  0  0  0  0  0  0  0  0  0  0  0
    8.5551   -2.2362    0.0000 N   0  0  0  0  0  0  0  0  0  0  0  0
    7.5348   -1.1367    0.0000 N   0  0  0  0  0  0  0  0  0  0  0  0
    6.0724   -1.4704    0.0000 N   0  0  0  0  0  0  0  0  0  0  0  0
    0.7500   -1.2990    0.0000 C   0  0  0  0  0  0  0  0  0  0  0  0
    1.5000    0.0000    0.0000 C   0  0  0  0  0  0  0  0  0  0  0  0
    0.7500    1.2990    0.0000 C   0  0  0  0  0  0  0  0  0  0  0  0
   -0.7500    1.2990    0.0000 C   0  0  0  0  0  0  0  0  0  0  0  0
   -1.5000    0.0000    0.0000 C   0  0  0  0  0  0  0  0  0  0  0  0
   -0.7500   -1.2990    0.0000 C   0  0  0  0  0  0  0  0  0  0  0  0
  1  2  1  0
  2  3  1  0
  3  4  1  0
  4  5  1  0
  5  6  1  0
  6  7  1  0
  7  8  2  0
  7  9  1  0
  9 10  1  0
 10 11  2  0
 11 12  1  0
 12 13  2  0
 13 14  1  0
 14 15  2  0
  6 16  1  0
 16 17  2  0
 17 18  1  0
 18 19  2  0
 19 20  1  0
 20 21  2  0
 21  2  1  0
 15 10  1  0
 21 16  1  0
M  END
>  <Title>  (511) 
idAARWgen7

$$$$

     RDKit          2D

 32 36  0  0  0  0  0  0  0  0999 V2000
    1.2135   -7.3421    0.0000 C   0  0  0  0  0  0  0  0  0  0  0  0
    0.7500   -5.9156    0.0000 C   0  0  0  0  0  0  0  0  0  0  0  0
    1.9635   -5.0339    0.0000 C   0  0  0  0  0  0  0  0  0  0  0  0
    2.4271   -3.6073    0.0000 C   0  0  0  0  0  0  0  0  0  0  0  0
    1.9635   -2.1807    0.0000 C   0  0  0  0  0  0  0  0  0  0  0  0
    3.1771   -1.2990    0.0000 C   0  0  0  0  0  0  0  0  0  0  0  0
    3.0203    0.1927    0.0000 O   0  0  0  0  0  0  0  0  0  0  0  0
    4.5474   -1.9091    0.0000 N   0  0  0  0  0  0  0  0  0  0  0  0
    5.7609   -1.0275    0.0000 C   0  0  0  0  0  0  0  0  0  0  0  0
    7.1312   -1.6376    0.0000 N   0  0  0  0  0  0  0  0  0  0  0  0
    8.3447   -0.7559    0.0000 N   0  0  0  0  0  0  0  0  0  0  0  0
    8.1879    0.7359    0.0000 N   0  0  0  0  0  0  0  0  0  0  0  0
    6.8176    1.3460    0.0000 N   0  0  0  0  0  0  0  0  0  0  0  0
    5.6041    0.4643    0.0000 N   0  0  0  0  0  0  0  0  0  0  0  0
    0.7500   -1.2990    0.0000 C   0  0  0  0  0  0  0  0  0  0  0  0
    1.5000    0.0000    0.0000 C   0  0  0  0  0  0  0  0  0  0  0  0
    0.7500    1.2990    0.0000 C   0  0  0  0  0  0  0  0  0  0  0  0
   -0.7500    1.2990    0.0000 C   0  0  0  0  0  0  0  0  0  0  0  0
   -1.5000    0.0000    0.0000 C   0  0  0  0  0  0  0  0  0  0  0  0
   -0.7500   -1.2990    0.0000 C   0  0  0  0  0  0  0  0  0  0  0  0
   -1.9635   -2.1807    0.0000 C   0  0  0  0  0  0  0  0  0  0  0  0
   -2.9672   -1.0660    0.0000 C   0  0  0  0  0  0  0  0  0  0  0  0
   -4.4344   -1.3779    0.0000 C   0  0  0  0  0  0  0  0  0  0  0  0
   -4.8980   -2.8045    0.0000 C   0  0  0  0  0  0  0  0  0  0  0  0
   -3.8943   -3.9192    0.0000 C   0  0  0  0  0  0  0  0  0  0  0  0
   -2.4271   -3.6073    0.0000 C   0  0  0  0  0  0  0  0  0  0  0  0
   -1.9635   -5.0339    0.0000 C   0  0  0  0  0  0  0  0  0  0  0  0
   -3.3338   -5.6440    0.0000 C   0  0  0  0  0  0  0  0  0  0  0  0
   -3.4906   -7.1358    0.0000 C   0  0  0  0  0  0  0  0  0  0  0  0
   -2.2771   -8.0175    0.0000 C   0  0  0  0  0  0  0  0  0  0  0  0
   -0.9068   -7.4073    0.0000 C   0  0  0  0  0  0  0  0  0  0  0  0
   -0.7500   -5.9156    0.0000 C   0  0  0  0  0  0  0  0  0  0  0  0
  1  2  1  0
  2  3  2  0
  3  4  1  0
  4  5  2  0
  5  6  1  0
  6  7  2  0
  6  8  1  0
  8  9  1  0
  9 10  2  0
 10 11  1  0
 11 12  2  0
 12 13  1  0
 13 14  2  0
  5 15  1  0
 15 16  2  0
 16 17  1  0
 17 18  2  0
 18 19  1  0
 19 20  2  0
 20 21  1  0
 21 22  2  0
 22 23  1  0
 23 24  2  0
 24 25  1  0
 25 26  2  0
 26 27  1  0
 27 28  2  0
 28 29  1  0
 29 30  2  0
 30 31  1  0
 31 32  2  0
 32  2  1  0
 14  9  1  0
 20 15  1  0
 26 21  1  0
 32 27  1  0
M  END
>  <Title>  (512) 
idAARXgen7

$$$$

     RDKit          2D

 79 79  0  0  0  0  0  0  0  0999 V2000
    3.0000    0.0000    0.0000 C   0  0  0  0  0  0  0  0  0  0  0  0
    1.5000    0.0000    0.0000 C   0  0  0  0  0  0  0  0  0  0  0  0
    0.7500   -1.2990    0.0000 C   0  0  0  0  0  0  0  0  0  0  0  0
   -0.7500   -1.2990    0.0000 C   0  0  0  0  0  0  0  0  0  0  0  0
   -1.5000    0.0000    0.0000 C   0  0  0  0  0  0  0  0  0  0  0  0
   -3.0000    0.0000    0.0000 O   0  0  0  0  0  0  0  0  0  0  0  0
   -0.7500    1.2990    0.0000 C   0  0  0  0  0  0  0  0  0  0  0  0
    0.7500    1.2990    0.0000 C   0  0  0  0  0  0  0  0  0  0  0  0
    0.4895    2.7762    0.0000 C   0  0  0  0  0  0  0  0  0  0  0  0
    2.1595    1.8121    0.0000 C   0  0  0  0  0  0  0  0  0  0  0  0
    2.4200    3.2893    0.0000 C   0  0  0  0  0  0  0  0  0  0  0  0
    3.8296    3.8023    0.0000 N   0  0  0  0  0  0  0  0  0  0  0  0
    4.0900    5.2795    0.0000 C   0  0  0  0  0  0  0  0  0  0  0  0
    5.4996    5.7926    0.0000 C   0  0  0  0  0  0  0  0  0  0  0  0
    5.7600    7.2698    0.0000 C   0  0  0  0  0  0  0  0  0  0  0  0
    7.1696    7.7828    0.0000 C   0  0  0  0  0  0  0  0  0  0  0  0
    7.4300    9.2600    0.0000 C   0  0  0  0  0  0  0  0  0  0  0  0
    8.8396    9.7730    0.0000 C   0  0  0  0  0  0  0  0  0  0  0  0
    9.1001   11.2502    0.0000 C   0  0  0  0  0  0  0  0  0  0  0  0
   10.5096   11.7633    0.0000 C   0  0  0  0  0  0  0  0  0  0  0  0
   10.7701   13.2405    0.0000 C   0  0  0  0  0  0  0  0  0  0  0  0
   12.1796   13.7535    0.0000 C   0  0  0  0  0  0  0  0  0  0  0  0
   12.4401   15.2307    0.0000 C   0  0  0  0  0  0  0  0  0  0  0  0
   13.8496   15.7438    0.0000 C   0  0  0  0  0  0  0  0  0  0  0  0
   14.1101   17.2210    0.0000 C   0  0  0  0  0  0  0  0  0  0  0  0
   15.5196   17.7340    0.0000 C   0  0  0  0  0  0  0  0  0  0  0  0
   15.7801   19.2112    0.0000 C   0  0  0  0  0  0  0  0  0  0  0  0
   17.1896   19.7242    0.0000 C   0  0  0  0  0  0  0  0  0  0  0  0
   17.4501   21.2015    0.0000 C   0  0  0  0  0  0  0  0  0  0  0  0
   18.8597   21.7145    0.0000 C   0  0  0  0  0  0  0  0  0  0  0  0
   19.1201   23.1917    0.0000 C   0  0  0  0  0  0  0  0  0  0  0  0
   20.5297   23.7047    0.0000 C   0  0  0  0  0  0  0  0  0  0  0  0
   20.7901   25.1819    0.0000 C   0  0  0  0  0  0  0  0  0  0  0  0
   22.1997   25.6950    0.0000 C   0  0  0  0  0  0  0  0  0  0  0  0
   22.4601   27.1722    0.0000 C   0  0  0  0  0  0  0  0  0  0  0  0
   23.8697   27.6852    0.0000 C   0  0  0  0  0  0  0  0  0  0  0  0
   24.1302   29.1624    0.0000 C   0  0  0  0  0  0  0  0  0  0  0  0
   25.5397   29.6755    0.0000 C   0  0  0  0  0  0  0  0  0  0  0  0
   25.8002   31.1527    0.0000 C   0  0  0  0  0  0  0  0  0  0  0  0
   27.2097   31.6657    0.0000 C   0  0  0  0  0  0  0  0  0  0  0  0
   27.4702   33.1429    0.0000 C   0  0  0  0  0  0  0  0  0  0  0  0
   28.8797   33.6559    0.0000 C   0  0  0  0  0  0  0  0  0  0  0  0
   29.1402   35.1331    0.0000 C   0  0  0  0  0  0  0  0  0  0  0  0
   30.5497   35.6462    0.0000 C   0  0  0  0  0  0  0  0  0  0  0  0
   30.8102   37.1234    0.0000 C   0  0  0  0  0  0  0  0  0  0  0  0
   32.2197   37.6364    0.0000 C   0  0  0  0  0  0  0  0  0  0  0  0
   32.4802   39.1136    0.0000 C   0  0  0  0  0  0  0  0  0  0  0  0
   33.8898   39.6267    0.0000 C   0  0  0  0  0  0  0  0  0  0  0  0
   34.1502   41.1039    0.0000 C   0  0  0  0  0  0  0  0  0  0  0  0
   35.5598   41.6169    0.0000 C   0  0  0  0  0  0  0  0  0  0  0  0
   35.8202   43.0941    0.0000 C   0  0  0  0  0  0  0  0  0  0  0  0
   37.2298   43.6071    0.0000 C   0  0  0  0  0  0  0  0  0  0  0  0
   37.4902   45.0844    0.0000 C   0  0  0  0  0  0  0  0  0  0  0  0
   38.8998   45.5974    0.0000 C   0  0  0  0  0  0  0  0  0  0  0  0
   39.1603   47.0746    0.0000 C   0  0  0  0  0  0  0  0  0  0  0  0
   40.5698   47.5876    0.0000 C   0  0  0  0  0  0  0  0  0  0  0  0
   40.8303   49.0648    0.0000 C   0  0  0  0  0  0  0  0  0  0  0  0
   42.2398   49.5779    0.0000 C   0  0  0  0  0  0  0  0  0  0  0  0
   42.5003   51.0551    0.0000 C   0  0  0  0  0  0  0  0  0  0  0  0
   43.9098   51.5681    0.0000 C   0  0  0  0  0  0  0  0  0  0  0  0
   44.1703   53.0453    0.0000 C   0  0  0  0  0  0  0  0  0  0  0  0
   45.5798   53.5584    0.0000 C   0  0  0  0  0  0  0  0  0  0  0  0
   45.8403   55.0356    0.0000 C   0  0  0  0  0  0  0  0  0  0  0  0
   47.2498   55.5486    0.0000 C   0  0  0  0  0  0  0  0  0  0  0  0
   47.5103   57.0258    0.0000 C   0  0  0  0  0  0  0  0  0  0  0  0
   48.9199   57.5388    0.0000 C   0  0  0  0  0  0  0  0  0  0  0  0
   49.1803   59.0161    0.0000 C   0  0  0  0  0  0  0  0  0  0  0  0
   50.5899   59.5291    0.0000 C   0  0  0  0  0  0  0  0  0  0  0  0
   50.8503   61.0063    0.0000 C   0  0  0  0  0  0  0  0  0  0  0  0
   52.2599   61.5193    0.0000 C   0  0  0  0  0  0  0  0  0  0  0  0
   52.5203   62.9965    0.0000 C   0  0  0  0  0  0  0  0  0  0  0  0
   53.9299   63.5096    0.0000 C   0  0  0  0  0  0  0  0  0  0  0  0
   54.1904   64.9868    0.0000 C   0  0  0  0  0  0  0  0  0  0  0  0
   55.5999   65.4998    0.0000 C   0  0  0  0  0  0  0  0  0  0  0  0
   55.8604   66.9770    0.0000 C   0  0  0  0  0  0  0  0  0  0  0  0
   57.2699   67.4900    0.0000 C   0  0  0  0  0  0  0  0  0  0  0  0
   57.5304   68.9673    0.0000 C   0  0  0  0  0  0  0  0  0  0  0  0
   58.9399   69.4803    0.0000 C   0  0  0  0  0  0  0  0  0  0  0  0
   59.2004   70.9575    0.0000 O   0  0  0  0  0  0  0  0  0  0  0  0
  1  2  1  0
  2  3  1  0
  3  4  1  0
  4  5  1  0
  5  6  1  0
  5  7  1  0
  7  8  1  0
  8  9  1  0
  8 10  1  0
 10 11  1  0
 11 12  1  0
 12 13  1  0
 13 14  1  0
 14 15  1  0
 15 16  1  0
 16 17  1  0
 17 18  1  0
 18 19  1  0
 19 20  1  0
 20 21  1  0
 21 22  1  0
 22 23  1  0
 23 24  1  0
 24 25  1  0
 25 26  1  0
 26 27  1  0
 27 28  1  0
 28 29  1  0
 29 30  1  0
 30 31  1  0
 31 32  1  0
 32 33  1  0
 33 34  1  0
 34 35  1  0
 35 36  1  0
 36 37  1  0
 37 38  1  0
 38 39  1  0
 39 40  1  0
 40 41  1  0
 41 42  1  0
 42 43  1  0
 43 44  1  0
 44 45  1  0
 45 46  1  0
 46 47  1  0
 47 48  1  0
 48 49  1  0
 49 50  1  0
 50 51  1  0
 51 52  1  0
 52 53  1  0
 53 54  1  0
 54 55  1  0
 55 56  1  0
 56 57  1  0
 57 58  1  0
 58 59  1  0
 59 60  1  0
 60 61  1  0
 61 62  1  0
 62 63  1  0
 63 64  1  0
 64 65  1  0
 65 66  1  0
 66 67  1  0
 67 68  1  0
 68 69  1  0
 69 70  1  0
 70 71  1  0
 71 72  1  0
 72 73  1  0
 73 74  1  0
 74 75  1  0
 75 76  1  0
 76 77  1  0
 77 78  1  0
 78 79  1  0
  8  2  1  0
M  END
>  <Title>  (513) 
idAARYgen7

$$$$

     RDKit          2D

 10  9  0  0  0  0  0  0  0  0999 V2000
    0.0000    0.0000    0.0000 C   0  0  0  0  0  0  0  0  0  0  0  0
    1.2990    0.7500    0.0000 C   0  0  0  0  0  0  0  0  0  0  0  0
    2.5981   -0.0000    0.0000 C   0  0  0  0  0  0  0  0  0  0  0  0
    3.8971   -0.7500    0.0000 C   0  0  0  0  0  0  0  0  0  0  0  0
    5.1962   -1.5000    0.0000 C   0  0  0  0  0  0  0  0  0  0  0  0
    6.4952   -0.7500    0.0000 C   0  0  0  0  0  0  0  0  0  0  0  0
    7.7942   -1.5000    0.0000 C   0  0  0  0  0  0  0  0  0  0  0  0
    9.0933   -0.7500    0.0000 C   0  0  0  0  0  0  0  0  0  0  0  0
   10.3923   -1.5000    0.0000 C   0  0  0  0  0  0  0  0  0  0  0  0
   11.6913   -0.7500    0.0000 C   0  0  0  0  0  0  0  0  0  0  0  0
  1  2  1  0
  2  3  1  0
  3  4  3  0
  4  5  1  0
  5  6  2  3
  6  7  1  0
  7  8  1  0
  8  9  1  0
  9 10  1  0
M  END
>  <Title>  (514) 
idAARZgen7

$$$$

     RDKit          2D

 11 11  0  0  0  0  0  0  0  0999 V2000
    5.7760   -2.5981    0.0000 C   0  0  0  0  0  0  0  0  0  0  0  0
    5.0260   -1.2990    0.0000 C   0  0  0  0  0  0  0  0  0  0  0  0
    5.7760    0.0000    0.0000 C   0  0  0  0  0  0  0  0  0  0  0  0
    3.5260   -1.2990    0.0000 C   0  0  0  0  0  0  0  0  0  0  0  0
    2.7760   -2.5981    0.0000 O   0  0  0  0  0  0  0  0  0  0  0  0
    2.7760    0.0000    0.0000 N   0  0  0  0  0  0  0  0  0  0  0  0
    1.2760    0.0000    0.0000 C   0  0  0  0  0  0  0  0  0  0  0  0
    0.3943    1.2135    0.0000 C   0  0  0  0  0  0  0  0  0  0  0  0
   -1.0323    0.7500    0.0000 C   0  0  0  0  0  0  0  0  0  0  0  0
   -1.0323   -0.7500    0.0000 C   0  0  0  0  0  0  0  0  0  0  0  0
    0.3943   -1.2135    0.0000 C   0  0  0  0  0  0  0  0  0  0  0  0
  1  2  1  0
  2  3  1  0
  2  4  1  0
  4  5  2  0
  4  6  1  0
  6  7  1  0
  7  8  2  0
  8  9  1  0
  9 10  1  0
 10 11  2  0
 11  7  1  0
M  END
>  <Title>  (515) 
idAASAgen7

$$$$

     RDKit          2D

 23 25  0  0  0  0  0  0  0  0999 V2000
   -3.1965   -1.7857    0.0000 C   0  0  0  0  0  0  0  0  0  0  0  0
   -1.8107   -2.3597    0.0000 C   0  0  0  0  0  0  0  0  0  0  0  0
   -1.8107   -3.8597    0.0000 C   0  0  0  0  0  0  0  0  0  0  0  0
   -0.7500   -4.9204    0.0000 C   0  0  0  0  0  0  0  0  0  0  0  0
    0.7500   -4.9204    0.0000 C   0  0  0  0  0  0  0  0  0  0  0  0
    1.3240   -6.3062    0.0000 C   0  0  0  0  0  0  0  0  0  0  0  0
    2.8112   -6.5020    0.0000 O   0  0  0  0  0  0  0  0  0  0  0  0
    0.4109   -7.4962    0.0000 N   0  0  0  0  0  0  0  0  0  0  0  0
    0.9849   -8.8820    0.0000 C   0  0  0  0  0  0  0  0  0  0  0  0
    0.0718  -10.0721    0.0000 N   0  0  0  0  0  0  0  0  0  0  0  0
    0.6458  -11.4579    0.0000 N   0  0  0  0  0  0  0  0  0  0  0  0
    2.1330  -11.6537    0.0000 N   0  0  0  0  0  0  0  0  0  0  0  0
    3.0461  -10.4636    0.0000 N   0  0  0  0  0  0  0  0  0  0  0  0
    2.4721   -9.0778    0.0000 N   0  0  0  0  0  0  0  0  0  0  0  0
    1.8107   -3.8597    0.0000 C   0  0  0  0  0  0  0  0  0  0  0  0
    3.1965   -4.4337    0.0000 O   0  0  0  0  0  0  0  0  0  0  0  0
    1.8107   -2.3597    0.0000 O   0  0  0  0  0  0  0  0  0  0  0  0
    0.7500   -1.2990    0.0000 C   0  0  0  0  0  0  0  0  0  0  0  0
    1.5000    0.0000    0.0000 C   0  0  0  0  0  0  0  0  0  0  0  0
    0.7500    1.2990    0.0000 C   0  0  0  0  0  0  0  0  0  0  0  0
   -0.7500    1.2990    0.0000 C   0  0  0  0  0  0  0  0  0  0  0  0
   -1.5000    0.0000    0.0000 C   0  0  0  0  0  0  0  0  0  0  0  0
   -0.7500   -1.2990    0.0000 C   0  0  0  0  0  0  0  0  0  0  0  0
  1  2  1  0
  2  3  1  0
  3  4  1  0
  4  5  1  0
  5  6  1  0
  6  7  2  0
  6  8  1  0
  8  9  1  0
  9 10  2  0
 10 11  1  0
 11 12  2  0
 12 13  1  0
 13 14  2  0
  5 15  1  0
 15 16  2  0
 15 17  1  0
 17 18  1  0
 18 19  2  0
 19 20  1  0
 20 21  2  0
 21 22  1  0
 22 23  2  0
 23  2  1  0
 14  9  1  0
 23 18  1  0
M  END
>  <Title>  (516) 
idAASBgen7

$$$$

     RDKit          2D

 26 29  0  0  0  0  0  0  0  0999 V2000
   -1.3240   -6.3062    0.0000 C   0  0  0  0  0  0  0  0  0  0  0  0
   -0.7500   -4.9204    0.0000 C   0  0  0  0  0  0  0  0  0  0  0  0
    0.7500   -4.9204    0.0000 C   0  0  0  0  0  0  0  0  0  0  0  0
    1.8107   -3.8597    0.0000 C   0  0  0  0  0  0  0  0  0  0  0  0
    1.8107   -2.3597    0.0000 C   0  0  0  0  0  0  0  0  0  0  0  0
    3.1965   -1.7857    0.0000 C   0  0  0  0  0  0  0  0  0  0  0  0
    3.3923   -0.2985    0.0000 O   0  0  0  0  0  0  0  0  0  0  0  0
    4.3865   -2.6988    0.0000 N   0  0  0  0  0  0  0  0  0  0  0  0
    5.7723   -2.1248    0.0000 C   0  0  0  0  0  0  0  0  0  0  0  0
    6.9624   -3.0379    0.0000 N   0  0  0  0  0  0  0  0  0  0  0  0
    8.3482   -2.4639    0.0000 N   0  0  0  0  0  0  0  0  0  0  0  0
    8.5440   -0.9767    0.0000 N   0  0  0  0  0  0  0  0  0  0  0  0
    7.3539   -0.0636    0.0000 N   0  0  0  0  0  0  0  0  0  0  0  0
    5.9681   -0.6376    0.0000 N   0  0  0  0  0  0  0  0  0  0  0  0
    0.7500   -1.2990    0.0000 C   0  0  0  0  0  0  0  0  0  0  0  0
    1.5000    0.0000    0.0000 C   0  0  0  0  0  0  0  0  0  0  0  0
    0.7500    1.2990    0.0000 C   0  0  0  0  0  0  0  0  0  0  0  0
   -0.7500    1.2990    0.0000 C   0  0  0  0  0  0  0  0  0  0  0  0
   -1.5000    0.0000    0.0000 C   0  0  0  0  0  0  0  0  0  0  0  0
   -0.7500   -1.2990    0.0000 C   0  0  0  0  0  0  0  0  0  0  0  0
   -1.8107   -2.3597    0.0000 C   0  0  0  0  0  0  0  0  0  0  0  0
   -3.1097   -1.6097    0.0000 C   0  0  0  0  0  0  0  0  0  0  0  0
   -4.4087   -2.3597    0.0000 C   0  0  0  0  0  0  0  0  0  0  0  0
   -4.4087   -3.8597    0.0000 C   0  0  0  0  0  0  0  0  0  0  0  0
   -3.1097   -4.6097    0.0000 C   0  0  0  0  0  0  0  0  0  0  0  0
   -1.8107   -3.8597    0.0000 C   0  0  0  0  0  0  0  0  0  0  0  0
  1  2  1  0
  2  3  2  0
  3  4  1  0
  4  5  2  0
  5  6  1  0
  6  7  2  0
  6  8  1  0
  8  9  1  0
  9 10  2  0
 10 11  1  0
 11 12  2  0
 12 13  1  0
 13 14  2  0
  5 15  1  0
 15 16  2  0
 16 17  1  0
 17 18  2  0
 18 19  1  0
 19 20  2  0
 20 21  1  0
 21 22  2  0
 22 23  1  0
 23 24  2  0
 24 25  1  0
 25 26  2  0
 26  2  1  0
 14  9  1  0
 20 15  1  0
 26 21  1  0
M  END
>  <Title>  (517) 
idAASCgen7

$$$$

     RDKit          2D

 37 37  0  0  0  0  0  0  0  0999 V2000
   10.1053    0.0000    0.0000 C   0  0  0  0  0  0  0  0  0  0  0  0
    8.6053    0.0000    0.0000 C   0  0  0  0  0  0  0  0  0  0  0  0
    8.4746   -1.4943    0.0000 C   0  0  0  0  0  0  0  0  0  0  0  0
    8.0863   -2.9432    0.0000 C   0  0  0  0  0  0  0  0  0  0  0  0
    7.4524   -4.3026    0.0000 C   0  0  0  0  0  0  0  0  0  0  0  0
    6.5920   -5.5314    0.0000 C   0  0  0  0  0  0  0  0  0  0  0  0
    5.5314   -6.5920    0.0000 C   0  0  0  0  0  0  0  0  0  0  0  0
    4.3026   -7.4524    0.0000 C   0  0  0  0  0  0  0  0  0  0  0  0
    2.9432   -8.0863    0.0000 C   0  0  0  0  0  0  0  0  0  0  0  0
    1.4943   -8.4746    0.0000 C   0  0  0  0  0  0  0  0  0  0  0  0
   -0.0000   -8.6053    0.0000 C   0  0  0  0  0  0  0  0  0  0  0  0
   -1.4943   -8.4746    0.0000 C   0  0  0  0  0  0  0  0  0  0  0  0
   -2.9432   -8.0863    0.0000 C   0  0  0  0  0  0  0  0  0  0  0  0
   -4.3026   -7.4524    0.0000 C   0  0  0  0  0  0  0  0  0  0  0  0
   -5.5314   -6.5920    0.0000 C   0  0  0  0  0  0  0  0  0  0  0  0
   -6.5920   -5.5314    0.0000 C   0  0  0  0  0  0  0  0  0  0  0  0
   -7.4524   -4.3026    0.0000 C   0  0  0  0  0  0  0  0  0  0  0  0
   -8.0863   -2.9432    0.0000 C   0  0  0  0  0  0  0  0  0  0  0  0
   -8.4746   -1.4943    0.0000 C   0  0  0  0  0  0  0  0  0  0  0  0
   -8.6053    0.0000    0.0000 C   0  0  0  0  0  0  0  0  0  0  0  0
   -8.4746    1.4943    0.0000 C   0  0  0  0  0  0  0  0  0  0  0  0
   -8.0863    2.9432    0.0000 C   0  0  0  0  0  0  0  0  0  0  0  0
   -7.4524    4.3026    0.0000 C   0  0  0  0  0  0  0  0  0  0  0  0
   -6.5920    5.5314    0.0000 C   0  0  0  0  0  0  0  0  0  0  0  0
   -5.5314    6.5920    0.0000 C   0  0  0  0  0  0  0  0  0  0  0  0
   -4.3026    7.4524    0.0000 C   0  0  0  0  0  0  0  0  0  0  0  0
   -2.9432    8.0863    0.0000 C   0  0  0  0  0  0  0  0  0  0  0  0
   -1.4943    8.4746    0.0000 C   0  0  0  0  0  0  0  0  0  0  0  0
    0.0000    8.6053    0.0000 C   0  0  0  0  0  0  0  0  0  0  0  0
    1.4943    8.4746    0.0000 C   0  0  0  0  0  0  0  0  0  0  0  0
    2.9432    8.0863    0.0000 C   0  0  0  0  0  0  0  0  0  0  0  0
    4.3026    7.4524    0.0000 C   0  0  0  0  0  0  0  0  0  0  0  0
    5.5314    6.5920    0.0000 C   0  0  0  0  0  0  0  0  0  0  0  0
    6.5920    5.5314    0.0000 C   0  0  0  0  0  0  0  0  0  0  0  0
    7.4524    4.3026    0.0000 C   0  0  0  0  0  0  0  0  0  0  0  0
    8.0863    2.9432    0.0000 C   0  0  0  0  0  0  0  0  0  0  0  0
    8.4746    1.4943    0.0000 C   0  0  0  0  0  0  0  0  0  0  0  0
  1  2  1  0
  2  3  1  0
  3  4  1  0
  4  5  1  0
  5  6  1  0
  6  7  1  0
  7  8  1  0
  8  9  1  0
  9 10  1  0
 10 11  1  0
 11 12  1  0
 12 13  1  0
 13 14  1  0
 14 15  1  0
 15 16  1  0
 16 17  1  0
 17 18  1  0
 18 19  1  0
 19 20  1  0
 20 21  1  0
 21 22  1  0
 22 23  1  0
 23 24  1  0
 24 25  1  0
 25 26  1  0
 26 27  1  0
 27 28  1  0
 28 29  1  0
 29 30  1  0
 30 31  1  0
 31 32  1  0
 32 33  1  0
 33 34  1  0
 34 35  1  0
 35 36  1  0
 36 37  1  0
 37  2  1  0
M  END
>  <Title>  (518) 
idAASDgen7

$$$$

     RDKit          2D

  7  7  0  0  0  0  0  0  0  0999 V2000
    3.0000    0.0000    0.0000 O   0  0  0  0  0  0  0  0  0  0  0  0
    1.5000    0.0000    0.0000 C   0  0  0  0  0  0  0  0  0  0  0  0
    0.7500   -1.2990    0.0000 C   0  0  0  0  0  0  0  0  0  0  0  0
   -0.7500   -1.2990    0.0000 C   0  0  0  0  0  0  0  0  0  0  0  0
   -1.5000    0.0000    0.0000 C   0  0  0  0  0  0  0  0  0  0  0  0
   -0.7500    1.2990    0.0000 C   0  0  0  0  0  0  0  0  0  0  0  0
    0.7500    1.2990    0.0000 N   0  0  0  0  0  0  0  0  0  0  0  0
  1  2  1  0
  2  3  2  0
  3  4  1  0
  4  5  2  0
  5  6  1  0
  6  7  2  0
  7  2  1  0
M  END
>  <Title>  (519) 
idAASEgen7

$$$$

     RDKit          2D

 52 59  0  0  0  0  0  0  0  0999 V2000
    5.2417   -6.1122    0.0000 C   0  0  0  0  0  0  0  0  0  0  0  0
    3.7705   -5.8195    0.0000 C   0  0  0  0  0  0  0  0  0  0  0  0
    3.7705   -4.3195    0.0000 C   0  0  0  0  0  0  0  0  0  0  0  0
    3.1965   -2.9337    0.0000 C   0  0  0  0  0  0  0  0  0  0  0  0
    2.1358   -1.8731    0.0000 C   0  0  0  0  0  0  0  0  0  0  0  0
    2.9692   -0.6259    0.0000 C   0  0  0  0  0  0  0  0  0  0  0  0
    2.3057    0.7195    0.0000 O   0  0  0  0  0  0  0  0  0  0  0  0
    4.4660   -0.7240    0.0000 N   0  0  0  0  0  0  0  0  0  0  0  0
    5.2993    0.5232    0.0000 C   0  0  0  0  0  0  0  0  0  0  0  0
    6.7961    0.4251    0.0000 N   0  0  0  0  0  0  0  0  0  0  0  0
    7.6295    1.6723    0.0000 N   0  0  0  0  0  0  0  0  0  0  0  0
    6.9660    3.0176    0.0000 N   0  0  0  0  0  0  0  0  0  0  0  0
    5.4692    3.1158    0.0000 N   0  0  0  0  0  0  0  0  0  0  0  0
    4.6359    1.8686    0.0000 N   0  0  0  0  0  0  0  0  0  0  0  0
    0.7500   -1.2990    0.0000 C   0  0  0  0  0  0  0  0  0  0  0  0
    1.5000    0.0000    0.0000 C   0  0  0  0  0  0  0  0  0  0  0  0
    0.7500    1.2990    0.0000 C   0  0  0  0  0  0  0  0  0  0  0  0
   -0.7500    1.2990    0.0000 C   0  0  0  0  0  0  0  0  0  0  0  0
   -1.5000    0.0000    0.0000 C   0  0  0  0  0  0  0  0  0  0  0  0
   -0.7500   -1.2990    0.0000 C   0  0  0  0  0  0  0  0  0  0  0  0
   -2.1358   -1.8731    0.0000 C   0  0  0  0  0  0  0  0  0  0  0  0
   -2.5240   -0.4242    0.0000 C   0  0  0  0  0  0  0  0  0  0  0  0
   -3.9729   -0.0359    0.0000 C   0  0  0  0  0  0  0  0  0  0  0  0
   -5.0336   -1.0966    0.0000 C   0  0  0  0  0  0  0  0  0  0  0  0
   -4.6454   -2.5455    0.0000 C   0  0  0  0  0  0  0  0  0  0  0  0
   -3.1965   -2.9337    0.0000 C   0  0  0  0  0  0  0  0  0  0  0  0
   -3.7705   -4.3195    0.0000 C   0  0  0  0  0  0  0  0  0  0  0  0
   -5.0695   -3.5695    0.0000 C   0  0  0  0  0  0  0  0  0  0  0  0
   -6.3686   -4.3195    0.0000 C   0  0  0  0  0  0  0  0  0  0  0  0
   -6.3686   -5.8195    0.0000 C   0  0  0  0  0  0  0  0  0  0  0  0
   -5.0695   -6.5695    0.0000 C   0  0  0  0  0  0  0  0  0  0  0  0
   -3.7705   -5.8195    0.0000 C   0  0  0  0  0  0  0  0  0  0  0  0
   -3.1965   -7.2054    0.0000 C   0  0  0  0  0  0  0  0  0  0  0  0
   -4.6454   -7.5936    0.0000 C   0  0  0  0  0  0  0  0  0  0  0  0
   -5.0336   -9.0425    0.0000 C   0  0  0  0  0  0  0  0  0  0  0  0
   -3.9729  -10.1031    0.0000 C   0  0  0  0  0  0  0  0  0  0  0  0
   -2.5240   -9.7149    0.0000 C   0  0  0  0  0  0  0  0  0  0  0  0
   -2.1358   -8.2660    0.0000 C   0  0  0  0  0  0  0  0  0  0  0  0
   -0.7500   -8.8400    0.0000 C   0  0  0  0  0  0  0  0  0  0  0  0
   -1.5000  -10.1391    0.0000 C   0  0  0  0  0  0  0  0  0  0  0  0
   -0.7500  -11.4381    0.0000 C   0  0  0  0  0  0  0  0  0  0  0  0
    0.7500  -11.4381    0.0000 C   0  0  0  0  0  0  0  0  0  0  0  0
    1.5000  -12.7372    0.0000 C   0  0  0  0  0  0  0  0  0  0  0  0
    2.2500  -14.0362    0.0000 N   0  0  0  0  0  0  0  0  0  0  0  0
    1.5000  -10.1391    0.0000 C   0  0  0  0  0  0  0  0  0  0  0  0
    0.7500   -8.8400    0.0000 C   0  0  0  0  0  0  0  0  0  0  0  0
    2.1358   -8.2660    0.0000 C   0  0  0  0  0  0  0  0  0  0  0  0
    2.5240   -9.7149    0.0000 C   0  0  0  0  0  0  0  0  0  0  0  0
    3.9729  -10.1031    0.0000 C   0  0  0  0  0  0  0  0  0  0  0  0
    5.0336   -9.0425    0.0000 C   0  0  0  0  0  0  0  0  0  0  0  0
    4.6454   -7.5936    0.0000 C   0  0  0  0  0  0  0  0  0  0  0  0
    3.1965   -7.2054    0.0000 C   0  0  0  0  0  0  0  0  0  0  0  0
  1  2  1  0
  2  3  1  0
  3  4  1  0
  4  5  1  0
  5  6  1  0
  6  7  2  0
  6  8  1  0
  8  9  1  0
  9 10  2  0
 10 11  1  0
 11 12  2  0
 12 13  1  0
 13 14  2  0
  5 15  1  0
 15 16  2  0
 16 17  1  0
 17 18  2  0
 18 19  1  0
 19 20  2  0
 20 21  1  0
 21 22  2  0
 22 23  1  0
 23 24  2  0
 24 25  1  0
 25 26  2  0
 26 27  1  0
 27 28  2  0
 28 29  1  0
 29 30  2  0
 30 31  1  0
 31 32  2  0
 32 33  1  0
 33 34  2  0
 34 35  1  0
 35 36  2  0
 36 37  1  0
 37 38  2  0
 38 39  1  0
 39 40  2  0
 40 41  1  0
 41 42  2  0
 42 43  1  0
 43 44  3  0
 42 45  1  0
 45 46  2  0
 46 47  1  0
 47 48  2  0
 48 49  1  0
 49 50  2  0
 50 51  1  0
 51 52  2  0
 52  2  1  0
 14  9  1  0
 20 15  1  0
 26 21  1  0
 32 27  1  0
 38 33  1  0
 46 39  1  0
 52 47  1  0
M  END
>  <Title>  (520) 
idAASFgen7

$$$$

     RDKit          2D

 15 15  0  0  0  0  0  0  0  0999 V2000
    5.0260    1.2990    0.0000 C   0  0  0  0  0  0  0  0  0  0  0  0
    3.5260    1.2990    0.0000 C   0  0  0  0  0  0  0  0  0  0  0  0
    2.7760    2.5981    0.0000 C   0  0  0  0  0  0  0  0  0  0  0  0
    3.5260    3.8971    0.0000 O   0  0  0  0  0  0  0  0  0  0  0  0
    2.7760    0.0000    0.0000 C   0  0  0  0  0  0  0  0  0  0  0  0
    3.5260   -1.2990    0.0000 O   0  0  0  0  0  0  0  0  0  0  0  0
    1.2760    0.0000    0.0000 N   0  0  0  0  0  0  0  0  0  0  0  0
    0.3943    1.2135    0.0000 C   0  0  0  0  0  0  0  0  0  0  0  0
   -1.0323    0.7500    0.0000 C   0  0  0  0  0  0  0  0  0  0  0  0
   -1.0323   -0.7500    0.0000 C   0  0  0  0  0  0  0  0  0  0  0  0
   -2.2458   -1.6317    0.0000 C   0  0  0  0  0  0  0  0  0  0  0  0
   -2.0890   -3.1235    0.0000 O   0  0  0  0  0  0  0  0  0  0  0  0
   -3.6161   -1.0216    0.0000 O   0  0  0  0  0  0  0  0  0  0  0  0
    0.3943   -1.2135    0.0000 C   0  0  0  0  0  0  0  0  0  0  0  0
    0.8578   -2.6401    0.0000 O   0  0  0  0  0  0  0  0  0  0  0  0
  1  2  1  0
  2  3  1  0
  3  4  1  0
  2  5  1  0
  5  6  2  0
  5  7  1  0
  7  8  1  0
  8  9  1  0
  9 10  1  0
 10 11  1  0
 11 12  2  0
 11 13  1  0
 10 14  1  0
 14 15  2  0
 14  7  1  0
M  END
>  <Title>  (521) 
idAASGgen7

$$$$

     RDKit          2D

 24 26  0  0  0  0  0  0  0  0999 V2000
   -3.1771   -1.2990    0.0000 C   0  0  0  0  0  0  0  0  0  0  0  0
   -1.9635   -2.1807    0.0000 C   0  0  0  0  0  0  0  0  0  0  0  0
   -2.4271   -3.6073    0.0000 C   0  0  0  0  0  0  0  0  0  0  0  0
   -1.9635   -5.0339    0.0000 C   0  0  0  0  0  0  0  0  0  0  0  0
   -0.7500   -5.9156    0.0000 C   0  0  0  0  0  0  0  0  0  0  0  0
    0.7500   -5.9156    0.0000 C   0  0  0  0  0  0  0  0  0  0  0  0
    1.9635   -5.0339    0.0000 C   0  0  0  0  0  0  0  0  0  0  0  0
    2.4271   -3.6073    0.0000 C   0  0  0  0  0  0  0  0  0  0  0  0
    1.9635   -2.1807    0.0000 C   0  0  0  0  0  0  0  0  0  0  0  0
    3.1771   -1.2990    0.0000 C   0  0  0  0  0  0  0  0  0  0  0  0
    3.0203    0.1927    0.0000 O   0  0  0  0  0  0  0  0  0  0  0  0
    4.5474   -1.9091    0.0000 N   0  0  0  0  0  0  0  0  0  0  0  0
    5.7609   -1.0275    0.0000 C   0  0  0  0  0  0  0  0  0  0  0  0
    7.1312   -1.6376    0.0000 N   0  0  0  0  0  0  0  0  0  0  0  0
    8.3447   -0.7559    0.0000 N   0  0  0  0  0  0  0  0  0  0  0  0
    8.1879    0.7359    0.0000 N   0  0  0  0  0  0  0  0  0  0  0  0
    6.8176    1.3460    0.0000 N   0  0  0  0  0  0  0  0  0  0  0  0
    5.6041    0.4643    0.0000 N   0  0  0  0  0  0  0  0  0  0  0  0
    0.7500   -1.2990    0.0000 C   0  0  0  0  0  0  0  0  0  0  0  0
    1.5000    0.0000    0.0000 C   0  0  0  0  0  0  0  0  0  0  0  0
    0.7500    1.2990    0.0000 C   0  0  0  0  0  0  0  0  0  0  0  0
   -0.7500    1.2990    0.0000 C   0  0  0  0  0  0  0  0  0  0  0  0
   -1.5000    0.0000    0.0000 C   0  0  0  0  0  0  0  0  0  0  0  0
   -0.7500   -1.2990    0.0000 C   0  0  0  0  0  0  0  0  0  0  0  0
  1  2  1  0
  2  3  1  0
  3  4  1  0
  4  5  1  0
  5  6  1  0
  6  7  1  0
  7  8  1  0
  8  9  1  0
  9 10  1  0
 10 11  2  0
 10 12  1  0
 12 13  1  0
 13 14  2  0
 14 15  1  0
 15 16  2  0
 16 17  1  0
 17 18  2  0
  9 19  1  0
 19 20  2  0
 20 21  1  0
 21 22  2  0
 22 23  1  0
 23 24  2  0
 24  2  1  0
 18 13  1  0
 24 19  1  0
M  END
>  <Title>  (522) 
idAASHgen7

$$$$

     RDKit          2D

 20 22  0  0  0  0  0  0  0  0999 V2000
   -3.0000   -2.5981    0.0000 C   0  0  0  0  0  0  0  0  0  0  0  0
   -1.5000   -2.5981    0.0000 C   0  0  0  0  0  0  0  0  0  0  0  0
   -0.7500   -3.8971    0.0000 C   0  0  0  0  0  0  0  0  0  0  0  0
    0.7500   -3.8971    0.0000 C   0  0  0  0  0  0  0  0  0  0  0  0
    1.5000   -2.5981    0.0000 C   0  0  0  0  0  0  0  0  0  0  0  0
    3.0000   -2.5981    0.0000 C   0  0  0  0  0  0  0  0  0  0  0  0
    3.7500   -1.2990    0.0000 O   0  0  0  0  0  0  0  0  0  0  0  0
    3.7500   -3.8971    0.0000 O   0  0  0  0  0  0  0  0  0  0  0  0
    5.2500   -3.8971    0.0000 C   0  0  0  0  0  0  0  0  0  0  0  0
    6.0000   -5.1962    0.0000 N   0  0  0  0  0  0  0  0  0  0  0  0
    7.5000   -5.1962    0.0000 N   0  0  0  0  0  0  0  0  0  0  0  0
    8.2500   -3.8971    0.0000 N   0  0  0  0  0  0  0  0  0  0  0  0
    7.5000   -2.5981    0.0000 N   0  0  0  0  0  0  0  0  0  0  0  0
    6.0000   -2.5981    0.0000 N   0  0  0  0  0  0  0  0  0  0  0  0
    0.7500   -1.2990    0.0000 C   0  0  0  0  0  0  0  0  0  0  0  0
    1.5000    0.0000    0.0000 C   0  0  0  0  0  0  0  0  0  0  0  0
    0.7500    1.2990    0.0000 C   0  0  0  0  0  0  0  0  0  0  0  0
   -0.7500    1.2990    0.0000 C   0  0  0  0  0  0  0  0  0  0  0  0
   -1.5000    0.0000    0.0000 C   0  0  0  0  0  0  0  0  0  0  0  0
   -0.7500   -1.2990    0.0000 C   0  0  0  0  0  0  0  0  0  0  0  0
  1  2  1  0
  2  3  1  0
  3  4  1  0
  4  5  1  0
  5  6  1  0
  6  7  2  0
  6  8  1  0
  8  9  1  0
  9 10  2  0
 10 11  1  0
 11 12  2  0
 12 13  1  0
 13 14  2  0
  5 15  1  0
 15 16  2  0
 16 17  1  0
 17 18  2  0
 18 19  1  0
 19 20  2  0
 20  2  1  0
 14  9  1  0
 20 15  1  0
M  END
>  <Title>  (523) 
idAASIgen7

$$$$

     RDKit          2D

 30 30  0  0  0  0  0  0  0  0999 V2000
    8.4368    0.0000    0.0000 C   0  0  0  0  0  0  0  0  0  0  0  0
    6.9368    0.0000    0.0000 C   0  0  0  0  0  0  0  0  0  0  0  0
    6.7746    1.4912    0.0000 C   0  0  0  0  0  0  0  0  0  0  0  0
    6.2957    2.9127    0.0000 C   0  0  0  0  0  0  0  0  0  0  0  0
    5.5223    4.1980    0.0000 C   0  0  0  0  0  0  0  0  0  0  0  0
    4.4908    5.2870    0.0000 C   0  0  0  0  0  0  0  0  0  0  0  0
    3.2493    6.1287    0.0000 C   0  0  0  0  0  0  0  0  0  0  0  0
    1.8558    6.6840    0.0000 C   0  0  0  0  0  0  0  0  0  0  0  0
    0.3756    6.9266    0.0000 C   0  0  0  0  0  0  0  0  0  0  0  0
   -1.1222    6.8454    0.0000 C   0  0  0  0  0  0  0  0  0  0  0  0
   -2.5676    6.4441    0.0000 C   0  0  0  0  0  0  0  0  0  0  0  0
   -3.8928    5.7415    0.0000 C   0  0  0  0  0  0  0  0  0  0  0  0
   -5.0361    4.7704    0.0000 C   0  0  0  0  0  0  0  0  0  0  0  0
   -5.9438    3.5763    0.0000 C   0  0  0  0  0  0  0  0  0  0  0  0
   -6.5737    2.2149    0.0000 C   0  0  0  0  0  0  0  0  0  0  0  0
   -6.8961    0.7500    0.0000 C   0  0  0  0  0  0  0  0  0  0  0  0
   -6.8961   -0.7500    0.0000 C   0  0  0  0  0  0  0  0  0  0  0  0
   -6.5737   -2.2149    0.0000 C   0  0  0  0  0  0  0  0  0  0  0  0
   -5.9438   -3.5763    0.0000 C   0  0  0  0  0  0  0  0  0  0  0  0
   -5.0361   -4.7704    0.0000 C   0  0  0  0  0  0  0  0  0  0  0  0
   -3.8928   -5.7415    0.0000 C   0  0  0  0  0  0  0  0  0  0  0  0
   -2.5676   -6.4441    0.0000 C   0  0  0  0  0  0  0  0  0  0  0  0
   -1.1222   -6.8454    0.0000 C   0  0  0  0  0  0  0  0  0  0  0  0
    0.3756   -6.9266    0.0000 C   0  0  0  0  0  0  0  0  0  0  0  0
    1.8558   -6.6840    0.0000 C   0  0  0  0  0  0  0  0  0  0  0  0
    3.2493   -6.1287    0.0000 C   0  0  0  0  0  0  0  0  0  0  0  0
    4.4908   -5.2870    0.0000 C   0  0  0  0  0  0  0  0  0  0  0  0
    5.5223   -4.1980    0.0000 C   0  0  0  0  0  0  0  0  0  0  0  0
    6.2957   -2.9127    0.0000 C   0  0  0  0  0  0  0  0  0  0  0  0
    6.7746   -1.4912    0.0000 C   0  0  0  0  0  0  0  0  0  0  0  0
  1  2  1  0
  2  3  1  0
  3  4  2  0
  4  5  1  0
  5  6  2  0
  6  7  1  0
  7  8  2  0
  8  9  1  0
  9 10  2  0
 10 11  1  0
 11 12  2  0
 12 13  1  0
 13 14  1  0
 14 15  1  0
 15 16  1  0
 16 17  1  0
 17 18  1  0
 18 19  1  0
 19 20  1  0
 20 21  1  0
 21 22  1  0
 22 23  1  0
 23 24  1  0
 24 25  1  0
 25 26  1  0
 26 27  1  0
 27 28  1  0
 28 29  1  0
 29 30  1  0
 30  2  1  0
M  END
>  <Title>  (524) 
idAASJgen7

$$$$

     RDKit          2D

 28 31  0  0  0  0  0  0  0  0999 V2000
   -1.3240   -6.3062    0.0000 C   0  0  0  0  0  0  0  0  0  0  0  0
   -0.7500   -4.9204    0.0000 C   0  0  0  0  0  0  0  0  0  0  0  0
    0.7500   -4.9204    0.0000 C   0  0  0  0  0  0  0  0  0  0  0  0
    1.8107   -3.8597    0.0000 C   0  0  0  0  0  0  0  0  0  0  0  0
    1.8107   -2.3597    0.0000 C   0  0  0  0  0  0  0  0  0  0  0  0
    3.1965   -1.7857    0.0000 C   0  0  0  0  0  0  0  0  0  0  0  0
    3.3923   -0.2985    0.0000 O   0  0  0  0  0  0  0  0  0  0  0  0
    4.3865   -2.6988    0.0000 N   0  0  0  0  0  0  0  0  0  0  0  0
    5.7723   -2.1248    0.0000 C   0  0  0  0  0  0  0  0  0  0  0  0
    6.9624   -3.0379    0.0000 N   0  0  0  0  0  0  0  0  0  0  0  0
    8.3482   -2.4639    0.0000 N   0  0  0  0  0  0  0  0  0  0  0  0
    8.5440   -0.9767    0.0000 N   0  0  0  0  0  0  0  0  0  0  0  0
    7.3539   -0.0636    0.0000 N   0  0  0  0  0  0  0  0  0  0  0  0
    5.9681   -0.6376    0.0000 N   0  0  0  0  0  0  0  0  0  0  0  0
    0.7500   -1.2990    0.0000 C   0  0  0  0  0  0  0  0  0  0  0  0
    1.5000    0.0000    0.0000 C   0  0  0  0  0  0  0  0  0  0  0  0
    0.7500    1.2990    0.0000 C   0  0  0  0  0  0  0  0  0  0  0  0
   -0.7500    1.2990    0.0000 C   0  0  0  0  0  0  0  0  0  0  0  0
   -1.5000    0.0000    0.0000 C   0  0  0  0  0  0  0  0  0  0  0  0
   -0.7500   -1.2990    0.0000 C   0  0  0  0  0  0  0  0  0  0  0  0
   -1.8107   -2.3597    0.0000 C   0  0  0  0  0  0  0  0  0  0  0  0
   -3.1097   -1.6097    0.0000 C   0  0  0  0  0  0  0  0  0  0  0  0
   -4.4087   -2.3597    0.0000 C   0  0  0  0  0  0  0  0  0  0  0  0
   -4.4087   -3.8597    0.0000 C   0  0  0  0  0  0  0  0  0  0  0  0
   -5.7078   -4.6097    0.0000 C   0  0  0  0  0  0  0  0  0  0  0  0
   -7.0068   -5.3597    0.0000 N   0  0  0  0  0  0  0  0  0  0  0  0
   -3.1097   -4.6097    0.0000 C   0  0  0  0  0  0  0  0  0  0  0  0
   -1.8107   -3.8597    0.0000 C   0  0  0  0  0  0  0  0  0  0  0  0
  1  2  1  0
  2  3  1  0
  3  4  1  0
  4  5  1  0
  5  6  1  0
  6  7  2  0
  6  8  1  0
  8  9  1  0
  9 10  2  0
 10 11  1  0
 11 12  2  0
 12 13  1  0
 13 14  2  0
  5 15  1  0
 15 16  2  0
 16 17  1  0
 17 18  2  0
 18 19  1  0
 19 20  2  0
 20 21  1  0
 21 22  2  0
 22 23  1  0
 23 24  2  0
 24 25  1  0
 25 26  3  0
 24 27  1  0
 27 28  2  0
 28  2  1  0
 14  9  1  0
 20 15  1  0
 28 21  1  0
M  END
>  <Title>  (525) 
idAASKgen7

$$$$

     RDKit          2D

  8  8  0  0  0  0  0  0  0  0999 V2000
    3.0000    0.0000    0.0000 C   0  0  0  0  0  0  0  0  0  0  0  0
    1.5000    0.0000    0.0000 C   0  0  0  0  0  0  0  0  0  0  0  0
    0.7500   -1.2990    0.0000 C   0  0  0  0  0  0  0  0  0  0  0  0
   -0.7500   -1.2990    0.0000 C   0  0  0  0  0  0  0  0  0  0  0  0
   -1.5000    0.0000    0.0000 C   0  0  0  0  0  0  0  0  0  0  0  0
   -0.7500    1.2990    0.0000 C   0  0  0  0  0  0  0  0  0  0  0  0
   -1.5000    2.5981    0.0000 C   0  0  0  0  0  0  0  0  0  0  0  0
    0.7500    1.2990    0.0000 C   0  0  0  0  0  0  0  0  0  0  0  0
  1  2  1  0
  2  3  2  0
  3  4  1  0
  4  5  1  0
  5  6  1  0
  6  7  1  0
  6  8  1  0
  8  2  1  0
M  END
>  <Title>  (526) 
idAASLgen7

$$$$

     RDKit          2D

107107  0  0  0  0  0  0  0  0999 V2000
   26.8093    0.0000    0.0000 C   0  0  0  0  0  0  0  0  0  0  0  0
   25.3093    0.0000    0.0000 C   0  0  0  0  0  0  0  0  0  0  0  0
   25.2649   -1.4993    0.0000 C   0  0  0  0  0  0  0  0  0  0  0  0
   25.1317   -2.9934    0.0000 C   0  0  0  0  0  0  0  0  0  0  0  0
   24.9102   -4.4770    0.0000 C   0  0  0  0  0  0  0  0  0  0  0  0
   24.6013   -5.9448    0.0000 C   0  0  0  0  0  0  0  0  0  0  0  0
   24.2059   -7.3918    0.0000 C   0  0  0  0  0  0  0  0  0  0  0  0
   23.7255   -8.8128    0.0000 C   0  0  0  0  0  0  0  0  0  0  0  0
   23.1617  -10.2028    0.0000 C   0  0  0  0  0  0  0  0  0  0  0  0
   22.5166  -11.5570    0.0000 C   0  0  0  0  0  0  0  0  0  0  0  0
   21.7924  -12.8706    0.0000 C   0  0  0  0  0  0  0  0  0  0  0  0
   20.9917  -14.1390    0.0000 C   0  0  0  0  0  0  0  0  0  0  0  0
   20.1172  -15.3577    0.0000 C   0  0  0  0  0  0  0  0  0  0  0  0
   19.1721  -16.5225    0.0000 C   0  0  0  0  0  0  0  0  0  0  0  0
   18.1596  -17.6292    0.0000 C   0  0  0  0  0  0  0  0  0  0  0  0
   17.0834  -18.6741    0.0000 C   0  0  0  0  0  0  0  0  0  0  0  0
   15.9471  -19.6533    0.0000 C   0  0  0  0  0  0  0  0  0  0  0  0
   14.7548  -20.5635    0.0000 C   0  0  0  0  0  0  0  0  0  0  0  0
   13.5107  -21.4015    0.0000 C   0  0  0  0  0  0  0  0  0  0  0  0
   12.2192  -22.1643    0.0000 C   0  0  0  0  0  0  0  0  0  0  0  0
   10.8847  -22.8492    0.0000 C   0  0  0  0  0  0  0  0  0  0  0  0
    9.5119  -23.4539    0.0000 C   0  0  0  0  0  0  0  0  0  0  0  0
    8.1058  -23.9762    0.0000 C   0  0  0  0  0  0  0  0  0  0  0  0
    6.6712  -24.4143    0.0000 C   0  0  0  0  0  0  0  0  0  0  0  0
    5.2132  -24.7666    0.0000 C   0  0  0  0  0  0  0  0  0  0  0  0
    3.7368  -25.0320    0.0000 C   0  0  0  0  0  0  0  0  0  0  0  0
    2.2474  -25.2094    0.0000 C   0  0  0  0  0  0  0  0  0  0  0  0
    0.7500  -25.2982    0.0000 C   0  0  0  0  0  0  0  0  0  0  0  0
   -0.7500  -25.2982    0.0000 C   0  0  0  0  0  0  0  0  0  0  0  0
   -2.2474  -25.2094    0.0000 C   0  0  0  0  0  0  0  0  0  0  0  0
   -3.7368  -25.0320    0.0000 C   0  0  0  0  0  0  0  0  0  0  0  0
   -5.2132  -24.7666    0.0000 C   0  0  0  0  0  0  0  0  0  0  0  0
   -6.6712  -24.4143    0.0000 C   0  0  0  0  0  0  0  0  0  0  0  0
   -8.1058  -23.9762    0.0000 C   0  0  0  0  0  0  0  0  0  0  0  0
   -9.5119  -23.4539    0.0000 C   0  0  0  0  0  0  0  0  0  0  0  0
  -10.8847  -22.8492    0.0000 C   0  0  0  0  0  0  0  0  0  0  0  0
  -12.2192  -22.1643    0.0000 C   0  0  0  0  0  0  0  0  0  0  0  0
  -13.5107  -21.4015    0.0000 C   0  0  0  0  0  0  0  0  0  0  0  0
  -14.7548  -20.5635    0.0000 C   0  0  0  0  0  0  0  0  0  0  0  0
  -15.9471  -19.6533    0.0000 C   0  0  0  0  0  0  0  0  0  0  0  0
  -17.0834  -18.6741    0.0000 C   0  0  0  0  0  0  0  0  0  0  0  0
  -18.1596  -17.6292    0.0000 C   0  0  0  0  0  0  0  0  0  0  0  0
  -19.1721  -16.5225    0.0000 C   0  0  0  0  0  0  0  0  0  0  0  0
  -20.1172  -15.3577    0.0000 C   0  0  0  0  0  0  0  0  0  0  0  0
  -20.9917  -14.1390    0.0000 C   0  0  0  0  0  0  0  0  0  0  0  0
  -21.7924  -12.8706    0.0000 C   0  0  0  0  0  0  0  0  0  0  0  0
  -22.5166  -11.5570    0.0000 C   0  0  0  0  0  0  0  0  0  0  0  0
  -23.1617  -10.2028    0.0000 C   0  0  0  0  0  0  0  0  0  0  0  0
  -23.7255   -8.8128    0.0000 C   0  0  0  0  0  0  0  0  0  0  0  0
  -24.2059   -7.3918    0.0000 C   0  0  0  0  0  0  0  0  0  0  0  0
  -24.6013   -5.9448    0.0000 C   0  0  0  0  0  0  0  0  0  0  0  0
  -24.9102   -4.4770    0.0000 C   0  0  0  0  0  0  0  0  0  0  0  0
  -25.1317   -2.9934    0.0000 C   0  0  0  0  0  0  0  0  0  0  0  0
  -25.2649   -1.4993    0.0000 C   0  0  0  0  0  0  0  0  0  0  0  0
  -25.3093    0.0000    0.0000 C   0  0  0  0  0  0  0  0  0  0  0  0
  -25.2649    1.4993    0.0000 C   0  0  0  0  0  0  0  0  0  0  0  0
  -25.1317    2.9934    0.0000 C   0  0  0  0  0  0  0  0  0  0  0  0
  -24.9102    4.4770    0.0000 C   0  0  0  0  0  0  0  0  0  0  0  0
  -24.6013    5.9448    0.0000 C   0  0  0  0  0  0  0  0  0  0  0  0
  -24.2059    7.3918    0.0000 C   0  0  0  0  0  0  0  0  0  0  0  0
  -23.7255    8.8128    0.0000 C   0  0  0  0  0  0  0  0  0  0  0  0
  -23.1617   10.2028    0.0000 C   0  0  0  0  0  0  0  0  0  0  0  0
  -22.5166   11.5570    0.0000 C   0  0  0  0  0  0  0  0  0  0  0  0
  -21.7924   12.8706    0.0000 C   0  0  0  0  0  0  0  0  0  0  0  0
  -20.9917   14.1390    0.0000 C   0  0  0  0  0  0  0  0  0  0  0  0
  -20.1172   15.3577    0.0000 C   0  0  0  0  0  0  0  0  0  0  0  0
  -19.1721   16.5225    0.0000 C   0  0  0  0  0  0  0  0  0  0  0  0
  -18.1596   17.6292    0.0000 C   0  0  0  0  0  0  0  0  0  0  0  0
  -17.0834   18.6741    0.0000 C   0  0  0  0  0  0  0  0  0  0  0  0
  -15.9471   19.6533    0.0000 C   0  0  0  0  0  0  0  0  0  0  0  0
  -14.7548   20.5635    0.0000 C   0  0  0  0  0  0  0  0  0  0  0  0
  -13.5107   21.4015    0.0000 C   0  0  0  0  0  0  0  0  0  0  0  0
  -12.2192   22.1643    0.0000 C   0  0  0  0  0  0  0  0  0  0  0  0
  -10.8847   22.8492    0.0000 C   0  0  0  0  0  0  0  0  0  0  0  0
   -9.5119   23.4539    0.0000 C   0  0  0  0  0  0  0  0  0  0  0  0
   -8.1058   23.9762    0.0000 C   0  0  0  0  0  0  0  0  0  0  0  0
   -6.6712   24.4143    0.0000 C   0  0  0  0  0  0  0  0  0  0  0  0
   -5.2132   24.7666    0.0000 C   0  0  0  0  0  0  0  0  0  0  0  0
   -3.7368   25.0320    0.0000 C   0  0  0  0  0  0  0  0  0  0  0  0
   -2.2474   25.2094    0.0000 C   0  0  0  0  0  0  0  0  0  0  0  0
   -0.7500   25.2982    0.0000 C   0  0  0  0  0  0  0  0  0  0  0  0
    0.7500   25.2982    0.0000 C   0  0  0  0  0  0  0  0  0  0  0  0
    2.2474   25.2094    0.0000 C   0  0  0  0  0  0  0  0  0  0  0  0
    3.7368   25.0320    0.0000 C   0  0  0  0  0  0  0  0  0  0  0  0
    5.2132   24.7666    0.0000 C   0  0  0  0  0  0  0  0  0  0  0  0
    6.6712   24.4143    0.0000 C   0  0  0  0  0  0  0  0  0  0  0  0
    8.1058   23.9762    0.0000 C   0  0  0  0  0  0  0  0  0  0  0  0
    9.5119   23.4539    0.0000 C   0  0  0  0  0  0  0  0  0  0  0  0
   10.8847   22.8492    0.0000 C   0  0  0  0  0  0  0  0  0  0  0  0
   12.2192   22.1643    0.0000 C   0  0  0  0  0  0  0  0  0  0  0  0
   13.5107   21.4015    0.0000 C   0  0  0  0  0  0  0  0  0  0  0  0
   14.7548   20.5635    0.0000 C   0  0  0  0  0  0  0  0  0  0  0  0
   15.9471   19.6533    0.0000 C   0  0  0  0  0  0  0  0  0  0  0  0
   17.0834   18.6741    0.0000 C   0  0  0  0  0  0  0  0  0  0  0  0
   18.1596   17.6292    0.0000 C   0  0  0  0  0  0  0  0  0  0  0  0
   19.1721   16.5225    0.0000 C   0  0  0  0  0  0  0  0  0  0  0  0
   20.1172   15.3577    0.0000 C   0  0  0  0  0  0  0  0  0  0  0  0
   20.9917   14.1390    0.0000 C   0  0  0  0  0  0  0  0  0  0  0  0
   21.7924   12.8706    0.0000 C   0  0  0  0  0  0  0  0  0  0  0  0
   22.5166   11.5570    0.0000 C   0  0  0  0  0  0  0  0  0  0  0  0
   23.1617   10.2028    0.0000 C   0  0  0  0  0  0  0  0  0  0  0  0
   23.7255    8.8128    0.0000 C   0  0  0  0  0  0  0  0  0  0  0  0
   24.2059    7.3918    0.0000 C   0  0  0  0  0  0  0  0  0  0  0  0
   24.6013    5.9448    0.0000 C   0  0  0  0  0  0  0  0  0  0  0  0
   24.9102    4.4770    0.0000 C   0  0  0  0  0  0  0  0  0  0  0  0
   25.1317    2.9934    0.0000 C   0  0  0  0  0  0  0  0  0  0  0  0
   25.2649    1.4993    0.0000 C   0  0  0  0  0  0  0  0  0  0  0  0
  1  2  1  0
  2  3  2  0
  3  4  1  0
  4  5  1  0
  5  6  1  0
  6  7  1  0
  7  8  1  0
  8  9  1  0
  9 10  1  0
 10 11  1  0
 11 12  1  0
 12 13  1  0
 13 14  1  0
 14 15  1  0
 15 16  1  0
 16 17  1  0
 17 18  1  0
 18 19  1  0
 19 20  1  0
 20 21  1  0
 21 22  1  0
 22 23  1  0
 23 24  1  0
 24 25  1  0
 25 26  1  0
 26 27  1  0
 27 28  1  0
 28 29  1  0
 29 30  1  0
 30 31  1  0
 31 32  1  0
 32 33  1  0
 33 34  1  0
 34 35  1  0
 35 36  1  0
 36 37  1  0
 37 38  1  0
 38 39  1  0
 39 40  1  0
 40 41  1  0
 41 42  1  0
 42 43  1  0
 43 44  1  0
 44 45  1  0
 45 46  1  0
 46 47  1  0
 47 48  1  0
 48 49  1  0
 49 50  1  0
 50 51  1  0
 51 52  1  0
 52 53  1  0
 53 54  1  0
 54 55  1  0
 55 56  1  0
 56 57  1  0
 57 58  1  0
 58 59  1  0
 59 60  1  0
 60 61  1  0
 61 62  1  0
 62 63  1  0
 63 64  1  0
 64 65  1  0
 65 66  1  0
 66 67  1  0
 67 68  1  0
 68 69  1  0
 69 70  1  0
 70 71  1  0
 71 72  1  0
 72 73  1  0
 73 74  1  0
 74 75  1  0
 75 76  1  0
 76 77  1  0
 77 78  1  0
 78 79  1  0
 79 80  1  0
 80 81  1  0
 81 82  1  0
 82 83  1  0
 83 84  1  0
 84 85  1  0
 85 86  1  0
 86 87  1  0
 87 88  1  0
 88 89  2  0
 89 90  1  0
 90 91  2  0
 91 92  1  0
 92 93  2  0
 93 94  1  0
 94 95  2  0
 95 96  1  0
 96 97  2  0
 97 98  1  0
 98 99  2  0
 99100  1  0
100101  2  0
101102  1  0
102103  2  0
103104  1  0
104105  2  0
105106  1  0
106107  2  0
107  2  1  0
M  END
>  <Title>  (527) 
idAASMgen7

$$$$

     RDKit          2D

 52 55  0  0  0  0  0  0  0  0999 V2000
   -2.6455   -0.1437    0.0000 C   0  0  0  0  0  0  0  0  0  0  0  0
   -2.2229   -1.5829    0.0000 C   0  0  0  0  0  0  0  0  0  0  0  0
   -3.6154   -2.1404    0.0000 C   0  0  0  0  0  0  0  0  0  0  0  0
   -4.8773   -2.9514    0.0000 C   0  0  0  0  0  0  0  0  0  0  0  0
   -5.9629   -3.9865    0.0000 C   0  0  0  0  0  0  0  0  0  0  0  0
   -6.8330   -5.2084    0.0000 C   0  0  0  0  0  0  0  0  0  0  0  0
   -7.4561   -6.5728    0.0000 C   0  0  0  0  0  0  0  0  0  0  0  0
   -7.8098   -8.0305    0.0000 C   0  0  0  0  0  0  0  0  0  0  0  0
   -7.8811   -9.5288    0.0000 C   0  0  0  0  0  0  0  0  0  0  0  0
   -7.6677  -11.0136    0.0000 C   0  0  0  0  0  0  0  0  0  0  0  0
   -7.1771  -12.4311    0.0000 C   0  0  0  0  0  0  0  0  0  0  0  0
   -6.4271  -13.7301    0.0000 C   0  0  0  0  0  0  0  0  0  0  0  0
   -5.4448  -14.8637    0.0000 C   0  0  0  0  0  0  0  0  0  0  0  0
   -4.2657  -15.7910    0.0000 C   0  0  0  0  0  0  0  0  0  0  0  0
   -2.9324  -16.4783    0.0000 C   0  0  0  0  0  0  0  0  0  0  0  0
   -1.4932  -16.9009    0.0000 C   0  0  0  0  0  0  0  0  0  0  0  0
   -0.0000  -17.0435    0.0000 C   0  0  0  0  0  0  0  0  0  0  0  0
    1.4932  -16.9009    0.0000 C   0  0  0  0  0  0  0  0  0  0  0  0
    2.9324  -16.4783    0.0000 C   0  0  0  0  0  0  0  0  0  0  0  0
    4.2657  -15.7910    0.0000 C   0  0  0  0  0  0  0  0  0  0  0  0
    5.4448  -14.8637    0.0000 C   0  0  0  0  0  0  0  0  0  0  0  0
    6.4271  -13.7301    0.0000 C   0  0  0  0  0  0  0  0  0  0  0  0
    7.1771  -12.4311    0.0000 C   0  0  0  0  0  0  0  0  0  0  0  0
    7.6677  -11.0136    0.0000 C   0  0  0  0  0  0  0  0  0  0  0  0
    7.8811   -9.5288    0.0000 C   0  0  0  0  0  0  0  0  0  0  0  0
    7.8098   -8.0305    0.0000 C   0  0  0  0  0  0  0  0  0  0  0  0
    7.4561   -6.5728    0.0000 C   0  0  0  0  0  0  0  0  0  0  0  0
    6.8330   -5.2084    0.0000 C   0  0  0  0  0  0  0  0  0  0  0  0
    5.9629   -3.9865    0.0000 C   0  0  0  0  0  0  0  0  0  0  0  0
    4.8773   -2.9514    0.0000 C   0  0  0  0  0  0  0  0  0  0  0  0
    3.6154   -2.1404    0.0000 C   0  0  0  0  0  0  0  0  0  0  0  0
    2.2229   -1.5829    0.0000 C   0  0  0  0  0  0  0  0  0  0  0  0
    2.6455   -0.1437    0.0000 C   0  0  0  0  0  0  0  0  0  0  0  0
    1.6104    0.9419    0.0000 C   0  0  0  0  0  0  0  0  0  0  0  0
    2.0330    2.3812    0.0000 C   0  0  0  0  0  0  0  0  0  0  0  0
    0.9979    3.4668    0.0000 C   0  0  0  0  0  0  0  0  0  0  0  0
    1.4205    4.9060    0.0000 C   0  0  0  0  0  0  0  0  0  0  0  0
    2.8782    5.2596    0.0000 C   0  0  0  0  0  0  0  0  0  0  0  0
    3.9133    4.1740    0.0000 C   0  0  0  0  0  0  0  0  0  0  0  0
    3.4907    2.7348    0.0000 C   0  0  0  0  0  0  0  0  0  0  0  0
    4.5258    1.6492    0.0000 C   0  0  0  0  0  0  0  0  0  0  0  0
    5.9835    2.0028    0.0000 C   0  0  0  0  0  0  0  0  0  0  0  0
    7.0186    0.9172    0.0000 C   0  0  0  0  0  0  0  0  0  0  0  0
    6.5960   -0.5220    0.0000 C   0  0  0  0  0  0  0  0  0  0  0  0
    5.1383   -0.8756    0.0000 C   0  0  0  0  0  0  0  0  0  0  0  0
    4.1032    0.2100    0.0000 C   0  0  0  0  0  0  0  0  0  0  0  0
    0.7500   -1.2990    0.0000 C   0  0  0  0  0  0  0  0  0  0  0  0
    1.5000    0.0000    0.0000 C   0  0  0  0  0  0  0  0  0  0  0  0
    0.7500    1.2990    0.0000 C   0  0  0  0  0  0  0  0  0  0  0  0
   -0.7500    1.2990    0.0000 C   0  0  0  0  0  0  0  0  0  0  0  0
   -1.5000    0.0000    0.0000 C   0  0  0  0  0  0  0  0  0  0  0  0
   -0.7500   -1.2990    0.0000 C   0  0  0  0  0  0  0  0  0  0  0  0
  1  2  1  0
  2  3  1  0
  3  4  1  0
  4  5  1  0
  5  6  1  0
  6  7  1  0
  7  8  1  0
  8  9  1  0
  9 10  1  0
 10 11  1  0
 11 12  1  0
 12 13  1  0
 13 14  1  0
 14 15  1  0
 15 16  1  0
 16 17  1  0
 17 18  1  0
 18 19  1  0
 19 20  1  0
 20 21  1  0
 21 22  1  0
 22 23  1  0
 23 24  1  0
 24 25  1  0
 25 26  1  0
 26 27  1  0
 27 28  1  0
 28 29  1  0
 29 30  1  0
 30 31  1  0
 31 32  1  0
 32 33  1  0
 33 34  1  0
 34 35  1  0
 35 36  2  0
 36 37  1  0
 37 38  2  0
 38 39  1  0
 39 40  2  0
 40 41  1  0
 41 42  2  0
 42 43  1  0
 43 44  2  0
 44 45  1  0
 45 46  2  0
 32 47  1  0
 47 48  2  0
 48 49  1  0
 49 50  2  0
 50 51  1  0
 51 52  2  0
 52  2  1  0
 40 35  1  0
 46 41  1  0
 52 47  1  0
M  END
>  <Title>  (528) 
idAASNgen7

$$$$

     RDKit          2D

 10 10  0  0  0  0  0  0  0  0999 V2000
    3.2286   -0.0000    0.0000 C   0  0  0  0  0  0  0  0  0  0  0  0
    1.7286    0.0000    0.0000 C   0  0  0  0  0  0  0  0  0  0  0  0
    1.0777    1.3515    0.0000 C   0  0  0  0  0  0  0  0  0  0  0  0
   -0.3846    1.6852    0.0000 C   0  0  0  0  0  0  0  0  0  0  0  0
   -1.5574    0.7500    0.0000 C   0  0  0  0  0  0  0  0  0  0  0  0
   -1.5574   -0.7500    0.0000 C   0  0  0  0  0  0  0  0  0  0  0  0
   -0.3846   -1.6852    0.0000 N   0  0  0  0  0  0  0  0  0  0  0  0
   -0.7184   -3.1476    0.0000 C   0  0  0  0  0  0  0  0  0  0  0  0
    1.0777   -1.3515    0.0000 C   0  0  0  0  0  0  0  0  0  0  0  0
    2.0130   -2.5242    0.0000 O   0  0  0  0  0  0  0  0  0  0  0  0
  1  2  1  0
  2  3  1  0
  3  4  1  0
  4  5  1  0
  5  6  1  0
  6  7  1  0
  7  8  1  0
  7  9  1  0
  9 10  2  0
  9  2  1  0
M  END
>  <Title>  (529) 
idAASOgen7

$$$$

     RDKit          2D

  8  8  0  0  0  0  0  0  0  0999 V2000
    3.7500   -1.2990    0.0000 O   0  0  0  0  0  0  0  0  0  0  0  0
    3.0000    0.0000    0.0000 N   0  0  0  0  0  0  0  0  0  0  0  0
    1.5000    0.0000    0.0000 C   0  0  0  0  0  0  0  0  0  0  0  0
    0.7500   -1.2990    0.0000 C   0  0  0  0  0  0  0  0  0  0  0  0
   -0.7500   -1.2990    0.0000 C   0  0  0  0  0  0  0  0  0  0  0  0
   -1.5000    0.0000    0.0000 C   0  0  0  0  0  0  0  0  0  0  0  0
   -0.7500    1.2990    0.0000 C   0  0  0  0  0  0  0  0  0  0  0  0
    0.7500    1.2990    0.0000 C   0  0  0  0  0  0  0  0  0  0  0  0
  1  2  1  0
  2  3  1  0
  3  4  2  0
  4  5  1  0
  5  6  2  0
  6  7  1  0
  7  8  2  0
  8  3  1  0
M  END
>  <Title>  (530) 
idAASPgen7

$$$$

     RDKit          2D

 27 29  0  0  0  0  0  0  0  0999 V2000
   -5.2500    3.8971    0.0000 C   0  0  0  0  0  0  0  0  0  0  0  0
   -3.7500    3.8971    0.0000 C   0  0  0  0  0  0  0  0  0  0  0  0
   -3.0000    5.1962    0.0000 C   0  0  0  0  0  0  0  0  0  0  0  0
   -3.0000    2.5981    0.0000 C   0  0  0  0  0  0  0  0  0  0  0  0
   -1.5000    2.5981    0.0000 C   0  0  0  0  0  0  0  0  0  0  0  0
   -0.7500    3.8971    0.0000 O   0  0  0  0  0  0  0  0  0  0  0  0
   -0.7500    1.2990    0.0000 C   0  0  0  0  0  0  0  0  0  0  0  0
   -1.5000    0.0000    0.0000 C   0  0  0  0  0  0  0  0  0  0  0  0
   -0.7500   -1.2990    0.0000 C   0  0  0  0  0  0  0  0  0  0  0  0
    0.7500   -1.2990    0.0000 C   0  0  0  0  0  0  0  0  0  0  0  0
    1.5000   -0.0000    0.0000 C   0  0  0  0  0  0  0  0  0  0  0  0
    0.7500    1.2990    0.0000 C   0  0  0  0  0  0  0  0  0  0  0  0
    1.5000    2.5981    0.0000 N   0  0  0  0  0  0  0  0  0  0  0  0
    0.8899    3.9684    0.0000 N   0  0  0  0  0  0  0  0  0  0  0  0
    2.0046    4.9721    0.0000 N   0  0  0  0  0  0  0  0  0  0  0  0
    3.3037    4.2221    0.0000 N   0  0  0  0  0  0  0  0  0  0  0  0
    2.9918    2.7549    0.0000 C   0  0  0  0  0  0  0  0  0  0  0  0
    3.9955    1.6402    0.0000 N   0  0  0  0  0  0  0  0  0  0  0  0
    5.4627    1.9520    0.0000 C   0  0  0  0  0  0  0  0  0  0  0  0
    5.9262    3.3786    0.0000 O   0  0  0  0  0  0  0  0  0  0  0  0
    6.4664    0.8373    0.0000 C   0  0  0  0  0  0  0  0  0  0  0  0
    7.9582    0.9941    0.0000 C   0  0  0  0  0  0  0  0  0  0  0  0
    8.5683   -0.3762    0.0000 C   0  0  0  0  0  0  0  0  0  0  0  0
    7.4536   -1.3799    0.0000 C   0  0  0  0  0  0  0  0  0  0  0  0
    7.6104   -2.8717    0.0000 C   0  0  0  0  0  0  0  0  0  0  0  0
    6.1545   -0.6299    0.0000 C   0  0  0  0  0  0  0  0  0  0  0  0
    4.7842   -1.2400    0.0000 O   0  0  0  0  0  0  0  0  0  0  0  0
  1  2  1  0
  2  3  1  0
  2  4  1  0
  4  5  1  0
  5  6  2  0
  5  7  1  0
  7  8  2  0
  8  9  1  0
  9 10  2  0
 10 11  1  0
 11 12  2  0
 12 13  1  0
 13 14  1  0
 14 15  2  0
 15 16  1  0
 16 17  2  0
 17 18  1  0
 18 19  1  0
 19 20  2  0
 19 21  1  0
 21 22  1  0
 22 23  1  0
 23 24  1  0
 24 25  1  0
 24 26  1  0
 26 27  2  0
 12  7  1  0
 17 13  1  0
 26 21  1  0
M  END
>  <Title>  (531) 
idAASQgen7

$$$$

     RDKit          2D

126126  0  0  0  0  0  0  0  0999 V2000
   30.0834    0.0000    0.0000 C   0  0  0  0  0  0  0  0  0  0  0  0
   30.0460   -1.4995    0.0000 C   0  0  0  0  0  0  0  0  0  0  0  0
   29.9339   -2.9953    0.0000 C   0  0  0  0  0  0  0  0  0  0  0  0
   29.7474   -4.4837    0.0000 C   0  0  0  0  0  0  0  0  0  0  0  0
   29.4869   -5.9609    0.0000 C   0  0  0  0  0  0  0  0  0  0  0  0
   29.1531   -7.4233    0.0000 C   0  0  0  0  0  0  0  0  0  0  0  0
   28.7469   -8.8672    0.0000 C   0  0  0  0  0  0  0  0  0  0  0  0
   28.2692  -10.2891    0.0000 C   0  0  0  0  0  0  0  0  0  0  0  0
   27.7211  -11.6854    0.0000 C   0  0  0  0  0  0  0  0  0  0  0  0
   27.1042  -13.0527    0.0000 C   0  0  0  0  0  0  0  0  0  0  0  0
   26.4199  -14.3875    0.0000 C   0  0  0  0  0  0  0  0  0  0  0  0
   25.6699  -15.6865    0.0000 C   0  0  0  0  0  0  0  0  0  0  0  0
   24.8561  -16.9466    0.0000 C   0  0  0  0  0  0  0  0  0  0  0  0
   23.9805  -18.1645    0.0000 C   0  0  0  0  0  0  0  0  0  0  0  0
   23.0452  -19.3372    0.0000 C   0  0  0  0  0  0  0  0  0  0  0  0
   22.0527  -20.4619    0.0000 C   0  0  0  0  0  0  0  0  0  0  0  0
   21.0053  -21.5357    0.0000 C   0  0  0  0  0  0  0  0  0  0  0  0
   19.9058  -22.5560    0.0000 C   0  0  0  0  0  0  0  0  0  0  0  0
   18.7567  -23.5202    0.0000 C   0  0  0  0  0  0  0  0  0  0  0  0
   17.5610  -24.4259    0.0000 C   0  0  0  0  0  0  0  0  0  0  0  0
   16.3216  -25.2708    0.0000 C   0  0  0  0  0  0  0  0  0  0  0  0
   15.0417  -26.0530    0.0000 C   0  0  0  0  0  0  0  0  0  0  0  0
   13.7244  -26.7704    0.0000 C   0  0  0  0  0  0  0  0  0  0  0  0
   12.3729  -27.4212    0.0000 C   0  0  0  0  0  0  0  0  0  0  0  0
   10.9907  -28.0038    0.0000 C   0  0  0  0  0  0  0  0  0  0  0  0
    9.5812  -28.5169    0.0000 C   0  0  0  0  0  0  0  0  0  0  0  0
    8.1478  -28.9590    0.0000 C   0  0  0  0  0  0  0  0  0  0  0  0
    6.6942  -29.3291    0.0000 C   0  0  0  0  0  0  0  0  0  0  0  0
    5.2239  -29.6264    0.0000 C   0  0  0  0  0  0  0  0  0  0  0  0
    3.7407  -29.8499    0.0000 C   0  0  0  0  0  0  0  0  0  0  0  0
    2.2481  -29.9993    0.0000 C   0  0  0  0  0  0  0  0  0  0  0  0
    0.7500  -30.0741    0.0000 C   0  0  0  0  0  0  0  0  0  0  0  0
   -0.7500  -30.0741    0.0000 C   0  0  0  0  0  0  0  0  0  0  0  0
   -2.2481  -29.9993    0.0000 C   0  0  0  0  0  0  0  0  0  0  0  0
   -3.7407  -29.8499    0.0000 C   0  0  0  0  0  0  0  0  0  0  0  0
   -5.2239  -29.6264    0.0000 C   0  0  0  0  0  0  0  0  0  0  0  0
   -6.6942  -29.3291    0.0000 C   0  0  0  0  0  0  0  0  0  0  0  0
   -8.1478  -28.9590    0.0000 C   0  0  0  0  0  0  0  0  0  0  0  0
   -9.5812  -28.5169    0.0000 C   0  0  0  0  0  0  0  0  0  0  0  0
  -10.9907  -28.0038    0.0000 C   0  0  0  0  0  0  0  0  0  0  0  0
  -12.3729  -27.4212    0.0000 C   0  0  0  0  0  0  0  0  0  0  0  0
  -13.7244  -26.7704    0.0000 C   0  0  0  0  0  0  0  0  0  0  0  0
  -15.0417  -26.0530    0.0000 C   0  0  0  0  0  0  0  0  0  0  0  0
  -16.3216  -25.2708    0.0000 C   0  0  0  0  0  0  0  0  0  0  0  0
  -17.5610  -24.4259    0.0000 C   0  0  0  0  0  0  0  0  0  0  0  0
  -18.7567  -23.5202    0.0000 C   0  0  0  0  0  0  0  0  0  0  0  0
  -19.9058  -22.5560    0.0000 C   0  0  0  0  0  0  0  0  0  0  0  0
  -21.0053  -21.5357    0.0000 C   0  0  0  0  0  0  0  0  0  0  0  0
  -22.0527  -20.4619    0.0000 C   0  0  0  0  0  0  0  0  0  0  0  0
  -23.0452  -19.3372    0.0000 C   0  0  0  0  0  0  0  0  0  0  0  0
  -23.9805  -18.1645    0.0000 C   0  0  0  0  0  0  0  0  0  0  0  0
  -24.8561  -16.9466    0.0000 C   0  0  0  0  0  0  0  0  0  0  0  0
  -25.6699  -15.6865    0.0000 C   0  0  0  0  0  0  0  0  0  0  0  0
  -26.4199  -14.3875    0.0000 C   0  0  0  0  0  0  0  0  0  0  0  0
  -27.1042  -13.0527    0.0000 C   0  0  0  0  0  0  0  0  0  0  0  0
  -27.7211  -11.6854    0.0000 C   0  0  0  0  0  0  0  0  0  0  0  0
  -28.2692  -10.2891    0.0000 C   0  0  0  0  0  0  0  0  0  0  0  0
  -28.7469   -8.8672    0.0000 C   0  0  0  0  0  0  0  0  0  0  0  0
  -29.1531   -7.4233    0.0000 C   0  0  0  0  0  0  0  0  0  0  0  0
  -29.4869   -5.9609    0.0000 C   0  0  0  0  0  0  0  0  0  0  0  0
  -29.7474   -4.4837    0.0000 C   0  0  0  0  0  0  0  0  0  0  0  0
  -29.9339   -2.9953    0.0000 C   0  0  0  0  0  0  0  0  0  0  0  0
  -30.0460   -1.4995    0.0000 C   0  0  0  0  0  0  0  0  0  0  0  0
  -30.0834    0.0000    0.0000 C   0  0  0  0  0  0  0  0  0  0  0  0
  -30.0460    1.4995    0.0000 C   0  0  0  0  0  0  0  0  0  0  0  0
  -29.9339    2.9953    0.0000 C   0  0  0  0  0  0  0  0  0  0  0  0
  -29.7474    4.4837    0.0000 C   0  0  0  0  0  0  0  0  0  0  0  0
  -29.4869    5.9609    0.0000 C   0  0  0  0  0  0  0  0  0  0  0  0
  -29.1531    7.4233    0.0000 C   0  0  0  0  0  0  0  0  0  0  0  0
  -28.7469    8.8672    0.0000 C   0  0  0  0  0  0  0  0  0  0  0  0
  -28.2692   10.2891    0.0000 C   0  0  0  0  0  0  0  0  0  0  0  0
  -27.7211   11.6854    0.0000 C   0  0  0  0  0  0  0  0  0  0  0  0
  -27.1042   13.0527    0.0000 C   0  0  0  0  0  0  0  0  0  0  0  0
  -26.4199   14.3875    0.0000 C   0  0  0  0  0  0  0  0  0  0  0  0
  -25.6699   15.6865    0.0000 C   0  0  0  0  0  0  0  0  0  0  0  0
  -24.8561   16.9466    0.0000 C   0  0  0  0  0  0  0  0  0  0  0  0
  -23.9805   18.1645    0.0000 C   0  0  0  0  0  0  0  0  0  0  0  0
  -23.0452   19.3372    0.0000 C   0  0  0  0  0  0  0  0  0  0  0  0
  -22.0527   20.4619    0.0000 C   0  0  0  0  0  0  0  0  0  0  0  0
  -21.0053   21.5357    0.0000 C   0  0  0  0  0  0  0  0  0  0  0  0
  -19.9058   22.5560    0.0000 C   0  0  0  0  0  0  0  0  0  0  0  0
  -18.7567   23.5202    0.0000 C   0  0  0  0  0  0  0  0  0  0  0  0
  -17.5610   24.4259    0.0000 C   0  0  0  0  0  0  0  0  0  0  0  0
  -16.3216   25.2708    0.0000 C   0  0  0  0  0  0  0  0  0  0  0  0
  -15.0417   26.0530    0.0000 C   0  0  0  0  0  0  0  0  0  0  0  0
  -13.7244   26.7704    0.0000 C   0  0  0  0  0  0  0  0  0  0  0  0
  -12.3729   27.4212    0.0000 C   0  0  0  0  0  0  0  0  0  0  0  0
  -10.9907   28.0038    0.0000 C   0  0  0  0  0  0  0  0  0  0  0  0
   -9.5812   28.5169    0.0000 C   0  0  0  0  0  0  0  0  0  0  0  0
   -8.1478   28.9590    0.0000 C   0  0  0  0  0  0  0  0  0  0  0  0
   -6.6942   29.3291    0.0000 C   0  0  0  0  0  0  0  0  0  0  0  0
   -5.2239   29.6264    0.0000 C   0  0  0  0  0  0  0  0  0  0  0  0
   -3.7407   29.8499    0.0000 C   0  0  0  0  0  0  0  0  0  0  0  0
   -2.2481   29.9993    0.0000 C   0  0  0  0  0  0  0  0  0  0  0  0
   -0.7500   30.0741    0.0000 C   0  0  0  0  0  0  0  0  0  0  0  0
    0.7500   30.0741    0.0000 C   0  0  0  0  0  0  0  0  0  0  0  0
    2.2481   29.9993    0.0000 C   0  0  0  0  0  0  0  0  0  0  0  0
    3.7407   29.8499    0.0000 C   0  0  0  0  0  0  0  0  0  0  0  0
    5.2239   29.6264    0.0000 C   0  0  0  0  0  0  0  0  0  0  0  0
    6.6942   29.3291    0.0000 C   0  0  0  0  0  0  0  0  0  0  0  0
    8.1478   28.9590    0.0000 C   0  0  0  0  0  0  0  0  0  0  0  0
    9.5812   28.5169    0.0000 C   0  0  0  0  0  0  0  0  0  0  0  0
   10.9907   28.0038    0.0000 C   0  0  0  0  0  0  0  0  0  0  0  0
   12.3729   27.4212    0.0000 C   0  0  0  0  0  0  0  0  0  0  0  0
   13.7244   26.7704    0.0000 C   0  0  0  0  0  0  0  0  0  0  0  0
   15.0417   26.0530    0.0000 C   0  0  0  0  0  0  0  0  0  0  0  0
   16.3216   25.2708    0.0000 C   0  0  0  0  0  0  0  0  0  0  0  0
   17.5610   24.4259    0.0000 C   0  0  0  0  0  0  0  0  0  0  0  0
   18.7567   23.5202    0.0000 C   0  0  0  0  0  0  0  0  0  0  0  0
   19.9058   22.5560    0.0000 C   0  0  0  0  0  0  0  0  0  0  0  0
   21.0053   21.5357    0.0000 C   0  0  0  0  0  0  0  0  0  0  0  0
   22.0527   20.4619    0.0000 C   0  0  0  0  0  0  0  0  0  0  0  0
   23.0452   19.3372    0.0000 C   0  0  0  0  0  0  0  0  0  0  0  0
   23.9805   18.1645    0.0000 C   0  0  0  0  0  0  0  0  0  0  0  0
   24.8561   16.9466    0.0000 C   0  0  0  0  0  0  0  0  0  0  0  0
   25.6699   15.6865    0.0000 C   0  0  0  0  0  0  0  0  0  0  0  0
   26.4199   14.3875    0.0000 C   0  0  0  0  0  0  0  0  0  0  0  0
   27.1042   13.0527    0.0000 C   0  0  0  0  0  0  0  0  0  0  0  0
   27.7211   11.6854    0.0000 C   0  0  0  0  0  0  0  0  0  0  0  0
   28.2692   10.2891    0.0000 C   0  0  0  0  0  0  0  0  0  0  0  0
   28.7469    8.8672    0.0000 C   0  0  0  0  0  0  0  0  0  0  0  0
   29.1531    7.4233    0.0000 C   0  0  0  0  0  0  0  0  0  0  0  0
   29.4869    5.9609    0.0000 C   0  0  0  0  0  0  0  0  0  0  0  0
   29.7474    4.4837    0.0000 C   0  0  0  0  0  0  0  0  0  0  0  0
   29.9339    2.9953    0.0000 C   0  0  0  0  0  0  0  0  0  0  0  0
   30.0460    1.4995    0.0000 C   0  0  0  0  0  0  0  0  0  0  0  0
  1  2  1  0
  2  3  1  0
  3  4  1  0
  4  5  1  0
  5  6  1  0
  6  7  1  0
  7  8  1  0
  8  9  1  0
  9 10  1  0
 10 11  1  0
 11 12  1  0
 12 13  1  0
 13 14  1  0
 14 15  1  0
 15 16  1  0
 16 17  1  0
 17 18  1  0
 18 19  1  0
 19 20  1  0
 20 21  1  0
 21 22  1  0
 22 23  1  0
 23 24  1  0
 24 25  1  0
 25 26  1  0
 26 27  1  0
 27 28  1  0
 28 29  1  0
 29 30  1  0
 30 31  1  0
 31 32  1  0
 32 33  1  0
 33 34  1  0
 34 35  1  0
 35 36  1  0
 36 37  1  0
 37 38  1  0
 38 39  1  0
 39 40  1  0
 40 41  1  0
 41 42  1  0
 42 43  1  0
 43 44  1  0
 44 45  1  0
 45 46  1  0
 46 47  1  0
 47 48  1  0
 48 49  1  0
 49 50  1  0
 50 51  1  0
 51 52  1  0
 52 53  1  0
 53 54  1  0
 54 55  1  0
 55 56  1  0
 56 57  1  0
 57 58  1  0
 58 59  1  0
 59 60  1  0
 60 61  1  0
 61 62  1  0
 62 63  1  0
 63 64  1  0
 64 65  1  0
 65 66  1  0
 66 67  1  0
 67 68  1  0
 68 69  1  0
 69 70  1  0
 70 71  1  0
 71 72  1  0
 72 73  1  0
 73 74  1  0
 74 75  1  0
 75 76  1  0
 76 77  1  0
 77 78  1  0
 78 79  1  0
 79 80  1  0
 80 81  1  0
 81 82  1  0
 82 83  1  0
 83 84  1  0
 84 85  1  0
 85 86  1  0
 86 87  1  0
 87 88  1  0
 88 89  1  0
 89 90  1  0
 90 91  1  0
 91 92  1  0
 92 93  1  0
 93 94  1  0
 94 95  1  0
 95 96  1  0
 96 97  1  0
 97 98  1  0
 98 99  1  0
 99100  1  0
100101  1  0
101102  1  0
102103  1  0
103104  1  0
104105  1  0
105106  1  0
106107  1  0
107108  1  0
108109  1  0
109110  1  0
110111  1  0
111112  1  0
112113  1  0
113114  1  0
114115  1  0
115116  1  0
116117  1  0
117118  1  0
118119  1  0
119120  1  0
120121  1  0
121122  1  0
122123  1  0
123124  1  0
124125  1  0
125126  1  0
126  1  1  0
M  END
>  <Title>  (532) 
idAASRgen7

$$$$

     RDKit          2D

 18 19  0  0  0  0  0  0  0  0999 V2000
   -0.7500   -3.8971    0.0000 O   0  0  0  0  0  0  0  0  0  0  0  0
    0.7500   -3.8971    0.0000 C   0  0  0  0  0  0  0  0  0  0  0  0
    1.5000   -2.5981    0.0000 N   0  0  0  0  0  0  0  0  0  0  0  0
    0.7500   -1.2990    0.0000 C   0  0  0  0  0  0  0  0  0  0  0  0
    1.5000    0.0000    0.0000 N   0  0  0  0  0  0  0  0  0  0  0  0
    0.7500    1.2990    0.0000 N   0  0  0  0  0  0  0  0  0  0  0  0
   -0.7500    1.2990    0.0000 N   0  0  0  0  0  0  0  0  0  0  0  0
   -1.5000    0.0000    0.0000 N   0  0  0  0  0  0  0  0  0  0  0  0
   -0.7500   -1.2990    0.0000 N   0  0  0  0  0  0  0  0  0  0  0  0
    1.5000   -5.1962    0.0000 C   0  0  0  0  0  0  0  0  0  0  0  0
    2.9918   -5.3529    0.0000 C   0  0  0  0  0  0  0  0  0  0  0  0
    3.3037   -6.8202    0.0000 C   0  0  0  0  0  0  0  0  0  0  0  0
    2.0046   -7.5702    0.0000 N   0  0  0  0  0  0  0  0  0  0  0  0
    1.8478   -9.0619    0.0000 C   0  0  0  0  0  0  0  0  0  0  0  0
    3.0613   -9.9436    0.0000 O   0  0  0  0  0  0  0  0  0  0  0  0
    0.4775   -9.6721    0.0000 O   0  0  0  0  0  0  0  0  0  0  0  0
    0.8899   -6.5665    0.0000 C   0  0  0  0  0  0  0  0  0  0  0  0
   -0.5773   -6.8783    0.0000 O   0  0  0  0  0  0  0  0  0  0  0  0
  1  2  2  0
  2  3  1  0
  3  4  1  0
  4  5  2  0
  5  6  1  0
  6  7  2  0
  7  8  1  0
  8  9  2  0
  2 10  1  0
 10 11  1  0
 11 12  1  0
 12 13  1  0
 13 14  1  0
 14 15  2  0
 14 16  1  0
 13 17  1  0
 17 18  2  0
  9  4  1  0
 17 10  1  0
M  END
>  <Title>  (533) 
idAASSgen7

$$$$

     RDKit          2D

 71 71  0  0  0  0  0  0  0  0999 V2000
   18.2169    0.0000    0.0000 C   0  0  0  0  0  0  0  0  0  0  0  0
   16.7169    0.0000    0.0000 C   0  0  0  0  0  0  0  0  0  0  0  0
   16.6496   -1.4985    0.0000 C   0  0  0  0  0  0  0  0  0  0  0  0
   16.4482   -2.9849    0.0000 C   0  0  0  0  0  0  0  0  0  0  0  0
   16.1145   -4.4473    0.0000 C   0  0  0  0  0  0  0  0  0  0  0  0
   15.6509   -5.8739    0.0000 C   0  0  0  0  0  0  0  0  0  0  0  0
   15.0614   -7.2532    0.0000 C   0  0  0  0  0  0  0  0  0  0  0  0
   14.3506   -8.5741    0.0000 C   0  0  0  0  0  0  0  0  0  0  0  0
   13.5242   -9.8259    0.0000 C   0  0  0  0  0  0  0  0  0  0  0  0
   12.5890  -10.9987    0.0000 C   0  0  0  0  0  0  0  0  0  0  0  0
   11.5524  -12.0829    0.0000 C   0  0  0  0  0  0  0  0  0  0  0  0
   10.4228  -13.0698    0.0000 C   0  0  0  0  0  0  0  0  0  0  0  0
    9.2093  -13.9515    0.0000 C   0  0  0  0  0  0  0  0  0  0  0  0
    7.9216  -14.7208    0.0000 C   0  0  0  0  0  0  0  0  0  0  0  0
    6.5702  -15.3716    0.0000 C   0  0  0  0  0  0  0  0  0  0  0  0
    5.1658  -15.8987    0.0000 C   0  0  0  0  0  0  0  0  0  0  0  0
    3.7199  -16.2978    0.0000 C   0  0  0  0  0  0  0  0  0  0  0  0
    2.2440  -16.5656    0.0000 C   0  0  0  0  0  0  0  0  0  0  0  0
    0.7500  -16.7000    0.0000 C   0  0  0  0  0  0  0  0  0  0  0  0
   -0.7500  -16.7000    0.0000 C   0  0  0  0  0  0  0  0  0  0  0  0
   -2.2440  -16.5656    0.0000 C   0  0  0  0  0  0  0  0  0  0  0  0
   -3.7199  -16.2978    0.0000 C   0  0  0  0  0  0  0  0  0  0  0  0
   -5.1658  -15.8987    0.0000 C   0  0  0  0  0  0  0  0  0  0  0  0
   -6.5702  -15.3716    0.0000 C   0  0  0  0  0  0  0  0  0  0  0  0
   -7.9216  -14.7208    0.0000 C   0  0  0  0  0  0  0  0  0  0  0  0
   -9.2093  -13.9515    0.0000 C   0  0  0  0  0  0  0  0  0  0  0  0
  -10.4228  -13.0698    0.0000 C   0  0  0  0  0  0  0  0  0  0  0  0
  -11.5524  -12.0829    0.0000 C   0  0  0  0  0  0  0  0  0  0  0  0
  -12.5890  -10.9987    0.0000 C   0  0  0  0  0  0  0  0  0  0  0  0
  -13.5242   -9.8259    0.0000 C   0  0  0  0  0  0  0  0  0  0  0  0
  -14.3506   -8.5741    0.0000 C   0  0  0  0  0  0  0  0  0  0  0  0
  -15.0614   -7.2532    0.0000 C   0  0  0  0  0  0  0  0  0  0  0  0
  -15.6509   -5.8739    0.0000 C   0  0  0  0  0  0  0  0  0  0  0  0
  -16.1145   -4.4473    0.0000 C   0  0  0  0  0  0  0  0  0  0  0  0
  -16.4482   -2.9849    0.0000 C   0  0  0  0  0  0  0  0  0  0  0  0
  -16.6496   -1.4985    0.0000 C   0  0  0  0  0  0  0  0  0  0  0  0
  -16.7169    0.0000    0.0000 C   0  0  0  0  0  0  0  0  0  0  0  0
  -16.6496    1.4985    0.0000 C   0  0  0  0  0  0  0  0  0  0  0  0
  -16.4482    2.9849    0.0000 C   0  0  0  0  0  0  0  0  0  0  0  0
  -16.1145    4.4473    0.0000 C   0  0  0  0  0  0  0  0  0  0  0  0
  -15.6509    5.8739    0.0000 C   0  0  0  0  0  0  0  0  0  0  0  0
  -15.0614    7.2532    0.0000 C   0  0  0  0  0  0  0  0  0  0  0  0
  -14.3506    8.5741    0.0000 C   0  0  0  0  0  0  0  0  0  0  0  0
  -13.5242    9.8259    0.0000 C   0  0  0  0  0  0  0  0  0  0  0  0
  -12.5890   10.9987    0.0000 C   0  0  0  0  0  0  0  0  0  0  0  0
  -11.5524   12.0829    0.0000 C   0  0  0  0  0  0  0  0  0  0  0  0
  -10.4228   13.0698    0.0000 C   0  0  0  0  0  0  0  0  0  0  0  0
   -9.2093   13.9515    0.0000 C   0  0  0  0  0  0  0  0  0  0  0  0
   -7.9216   14.7208    0.0000 C   0  0  0  0  0  0  0  0  0  0  0  0
   -6.5702   15.3716    0.0000 C   0  0  0  0  0  0  0  0  0  0  0  0
   -5.1658   15.8987    0.0000 C   0  0  0  0  0  0  0  0  0  0  0  0
   -3.7199   16.2978    0.0000 C   0  0  0  0  0  0  0  0  0  0  0  0
   -2.2440   16.5656    0.0000 C   0  0  0  0  0  0  0  0  0  0  0  0
   -0.7500   16.7000    0.0000 C   0  0  0  0  0  0  0  0  0  0  0  0
    0.7500   16.7000    0.0000 C   0  0  0  0  0  0  0  0  0  0  0  0
    2.2440   16.5656    0.0000 C   0  0  0  0  0  0  0  0  0  0  0  0
    3.7199   16.2978    0.0000 C   0  0  0  0  0  0  0  0  0  0  0  0
    5.1658   15.8987    0.0000 C   0  0  0  0  0  0  0  0  0  0  0  0
    6.5702   15.3716    0.0000 C   0  0  0  0  0  0  0  0  0  0  0  0
    7.9216   14.7208    0.0000 C   0  0  0  0  0  0  0  0  0  0  0  0
    9.2093   13.9515    0.0000 C   0  0  0  0  0  0  0  0  0  0  0  0
   10.4228   13.0698    0.0000 C   0  0  0  0  0  0  0  0  0  0  0  0
   11.5524   12.0829    0.0000 C   0  0  0  0  0  0  0  0  0  0  0  0
   12.5890   10.9987    0.0000 C   0  0  0  0  0  0  0  0  0  0  0  0
   13.5242    9.8259    0.0000 C   0  0  0  0  0  0  0  0  0  0  0  0
   14.3506    8.5741    0.0000 C   0  0  0  0  0  0  0  0  0  0  0  0
   15.0614    7.2532    0.0000 C   0  0  0  0  0  0  0  0  0  0  0  0
   15.6509    5.8739    0.0000 C   0  0  0  0  0  0  0  0  0  0  0  0
   16.1145    4.4473    0.0000 C   0  0  0  0  0  0  0  0  0  0  0  0
   16.4482    2.9849    0.0000 C   0  0  0  0  0  0  0  0  0  0  0  0
   16.6496    1.4985    0.0000 C   0  0  0  0  0  0  0  0  0  0  0  0
  1  2  1  0
  2  3  1  0
  3  4  2  0
  4  5  1  0
  5  6  2  0
  6  7  1  0
  7  8  2  0
  8  9  1  0
  9 10  2  0
 10 11  1  0
 11 12  2  0
 12 13  1  0
 13 14  2  0
 14 15  1  0
 15 16  2  0
 16 17  1  0
 17 18  2  0
 18 19  1  0
 19 20  2  0
 20 21  1  0
 21 22  2  0
 22 23  1  0
 23 24  2  0
 24 25  1  0
 25 26  2  0
 26 27  1  0
 27 28  2  0
 28 29  1  0
 29 30  2  0
 30 31  1  0
 31 32  2  0
 32 33  1  0
 33 34  2  0
 34 35  1  0
 35 36  1  0
 36 37  1  0
 37 38  1  0
 38 39  1  0
 39 40  1  0
 40 41  1  0
 41 42  1  0
 42 43  1  0
 43 44  1  0
 44 45  1  0
 45 46  1  0
 46 47  1  0
 47 48  1  0
 48 49  1  0
 49 50  1  0
 50 51  1  0
 51 52  1  0
 52 53  1  0
 53 54  1  0
 54 55  1  0
 55 56  1  0
 56 57  1  0
 57 58  1  0
 58 59  1  0
 59 60  1  0
 60 61  1  0
 61 62  1  0
 62 63  1  0
 63 64  1  0
 64 65  1  0
 65 66  1  0
 66 67  1  0
 67 68  1  0
 68 69  1  0
 69 70  1  0
 70 71  1  0
 71  2  1  0
M  END
>  <Title>  (534) 
idAASTgen7

$$$$

     RDKit          2D

 96 96  0  0  0  0  0  0  0  0999 V2000
   24.1837    0.0000    0.0000 C   0  0  0  0  0  0  0  0  0  0  0  0
   22.6837    0.0000    0.0000 C   0  0  0  0  0  0  0  0  0  0  0  0
   22.6341    1.4992    0.0000 C   0  0  0  0  0  0  0  0  0  0  0  0
   22.4856    2.9918    0.0000 C   0  0  0  0  0  0  0  0  0  0  0  0
   22.2387    4.4713    0.0000 C   0  0  0  0  0  0  0  0  0  0  0  0
   21.8945    5.9313    0.0000 C   0  0  0  0  0  0  0  0  0  0  0  0
   21.4546    7.3654    0.0000 C   0  0  0  0  0  0  0  0  0  0  0  0
   20.9210    8.7672    0.0000 C   0  0  0  0  0  0  0  0  0  0  0  0
   20.2958   10.1307    0.0000 C   0  0  0  0  0  0  0  0  0  0  0  0
   19.5819   11.4500    0.0000 C   0  0  0  0  0  0  0  0  0  0  0  0
   18.7823   12.7191    0.0000 C   0  0  0  0  0  0  0  0  0  0  0  0
   17.9006   13.9326    0.0000 C   0  0  0  0  0  0  0  0  0  0  0  0
   16.9407   15.0852    0.0000 C   0  0  0  0  0  0  0  0  0  0  0  0
   15.9067   16.1719    0.0000 C   0  0  0  0  0  0  0  0  0  0  0  0
   14.8031   17.1878    0.0000 C   0  0  0  0  0  0  0  0  0  0  0  0
   13.6348   18.1286    0.0000 C   0  0  0  0  0  0  0  0  0  0  0  0
   12.4068   18.9900    0.0000 C   0  0  0  0  0  0  0  0  0  0  0  0
   11.1246   19.7685    0.0000 C   0  0  0  0  0  0  0  0  0  0  0  0
    9.7938   20.4605    0.0000 C   0  0  0  0  0  0  0  0  0  0  0  0
    8.4201   21.0631    0.0000 C   0  0  0  0  0  0  0  0  0  0  0  0
    7.0097   21.5735    0.0000 C   0  0  0  0  0  0  0  0  0  0  0  0
    5.5685   21.9896    0.0000 C   0  0  0  0  0  0  0  0  0  0  0  0
    4.1030   22.3095    0.0000 C   0  0  0  0  0  0  0  0  0  0  0  0
    2.6196   22.5319    0.0000 C   0  0  0  0  0  0  0  0  0  0  0  0
    1.1247   22.6558    0.0000 C   0  0  0  0  0  0  0  0  0  0  0  0
   -0.3751   22.6806    0.0000 C   0  0  0  0  0  0  0  0  0  0  0  0
   -1.8732   22.6062    0.0000 C   0  0  0  0  0  0  0  0  0  0  0  0
   -3.3632   22.4330    0.0000 C   0  0  0  0  0  0  0  0  0  0  0  0
   -4.8384   22.1617    0.0000 C   0  0  0  0  0  0  0  0  0  0  0  0
   -6.2925   21.7935    0.0000 C   0  0  0  0  0  0  0  0  0  0  0  0
   -7.7191   21.3299    0.0000 C   0  0  0  0  0  0  0  0  0  0  0  0
   -9.1119   20.7731    0.0000 C   0  0  0  0  0  0  0  0  0  0  0  0
  -10.4649   20.1255    0.0000 C   0  0  0  0  0  0  0  0  0  0  0  0
  -11.7722   19.3899    0.0000 C   0  0  0  0  0  0  0  0  0  0  0  0
  -13.0279   18.5695    0.0000 C   0  0  0  0  0  0  0  0  0  0  0  0
  -14.2267   17.6678    0.0000 C   0  0  0  0  0  0  0  0  0  0  0  0
  -15.3633   16.6890    0.0000 C   0  0  0  0  0  0  0  0  0  0  0  0
  -16.4327   15.6371    0.0000 C   0  0  0  0  0  0  0  0  0  0  0  0
  -17.4302   14.5169    0.0000 C   0  0  0  0  0  0  0  0  0  0  0  0
  -18.3515   13.3332    0.0000 C   0  0  0  0  0  0  0  0  0  0  0  0
  -19.1926   12.0911    0.0000 C   0  0  0  0  0  0  0  0  0  0  0  0
  -19.9497   10.7963    0.0000 C   0  0  0  0  0  0  0  0  0  0  0  0
  -20.6196    9.4542    0.0000 C   0  0  0  0  0  0  0  0  0  0  0  0
  -21.1994    8.0707    0.0000 C   0  0  0  0  0  0  0  0  0  0  0  0
  -21.6864    6.6520    0.0000 C   0  0  0  0  0  0  0  0  0  0  0  0
  -22.0787    5.2042    0.0000 C   0  0  0  0  0  0  0  0  0  0  0  0
  -22.3743    3.7336    0.0000 C   0  0  0  0  0  0  0  0  0  0  0  0
  -22.5722    2.2467    0.0000 C   0  0  0  0  0  0  0  0  0  0  0  0
  -22.6713    0.7500    0.0000 C   0  0  0  0  0  0  0  0  0  0  0  0
  -22.6713   -0.7500    0.0000 C   0  0  0  0  0  0  0  0  0  0  0  0
  -22.5722   -2.2467    0.0000 C   0  0  0  0  0  0  0  0  0  0  0  0
  -22.3743   -3.7336    0.0000 C   0  0  0  0  0  0  0  0  0  0  0  0
  -22.0787   -5.2042    0.0000 C   0  0  0  0  0  0  0  0  0  0  0  0
  -21.6864   -6.6520    0.0000 C   0  0  0  0  0  0  0  0  0  0  0  0
  -21.1994   -8.0707    0.0000 C   0  0  0  0  0  0  0  0  0  0  0  0
  -20.6196   -9.4542    0.0000 C   0  0  0  0  0  0  0  0  0  0  0  0
  -19.9497  -10.7963    0.0000 C   0  0  0  0  0  0  0  0  0  0  0  0
  -19.1926  -12.0911    0.0000 C   0  0  0  0  0  0  0  0  0  0  0  0
  -18.3515  -13.3332    0.0000 C   0  0  0  0  0  0  0  0  0  0  0  0
  -17.4302  -14.5169    0.0000 C   0  0  0  0  0  0  0  0  0  0  0  0
  -16.4327  -15.6371    0.0000 C   0  0  0  0  0  0  0  0  0  0  0  0
  -15.3633  -16.6890    0.0000 C   0  0  0  0  0  0  0  0  0  0  0  0
  -14.2267  -17.6678    0.0000 C   0  0  0  0  0  0  0  0  0  0  0  0
  -13.0279  -18.5695    0.0000 C   0  0  0  0  0  0  0  0  0  0  0  0
  -11.7722  -19.3899    0.0000 C   0  0  0  0  0  0  0  0  0  0  0  0
  -10.4649  -20.1255    0.0000 C   0  0  0  0  0  0  0  0  0  0  0  0
   -9.1119  -20.7731    0.0000 C   0  0  0  0  0  0  0  0  0  0  0  0
   -7.7191  -21.3299    0.0000 C   0  0  0  0  0  0  0  0  0  0  0  0
   -6.2925  -21.7935    0.0000 C   0  0  0  0  0  0  0  0  0  0  0  0
   -4.8384  -22.1617    0.0000 C   0  0  0  0  0  0  0  0  0  0  0  0
   -3.3632  -22.4330    0.0000 C   0  0  0  0  0  0  0  0  0  0  0  0
   -1.8732  -22.6062    0.0000 C   0  0  0  0  0  0  0  0  0  0  0  0
   -0.3751  -22.6806    0.0000 C   0  0  0  0  0  0  0  0  0  0  0  0
    1.1247  -22.6558    0.0000 C   0  0  0  0  0  0  0  0  0  0  0  0
    2.6196  -22.5319    0.0000 C   0  0  0  0  0  0  0  0  0  0  0  0
    4.1030  -22.3095    0.0000 C   0  0  0  0  0  0  0  0  0  0  0  0
    5.5685  -21.9896    0.0000 C   0  0  0  0  0  0  0  0  0  0  0  0
    7.0097  -21.5735    0.0000 C   0  0  0  0  0  0  0  0  0  0  0  0
    8.4201  -21.0631    0.0000 C   0  0  0  0  0  0  0  0  0  0  0  0
    9.7938  -20.4605    0.0000 C   0  0  0  0  0  0  0  0  0  0  0  0
   11.1246  -19.7685    0.0000 C   0  0  0  0  0  0  0  0  0  0  0  0
   12.4068  -18.9900    0.0000 C   0  0  0  0  0  0  0  0  0  0  0  0
   13.6348  -18.1286    0.0000 C   0  0  0  0  0  0  0  0  0  0  0  0
   14.8031  -17.1878    0.0000 C   0  0  0  0  0  0  0  0  0  0  0  0
   15.9067  -16.1719    0.0000 C   0  0  0  0  0  0  0  0  0  0  0  0
   16.9407  -15.0852    0.0000 C   0  0  0  0  0  0  0  0  0  0  0  0
   17.9006  -13.9326    0.0000 C   0  0  0  0  0  0  0  0  0  0  0  0
   18.7823  -12.7191    0.0000 C   0  0  0  0  0  0  0  0  0  0  0  0
   19.5819  -11.4500    0.0000 C   0  0  0  0  0  0  0  0  0  0  0  0
   20.2958  -10.1307    0.0000 N   0  0  0  0  0  0  0  0  0  0  0  0
   20.9210   -8.7672    0.0000 C   0  0  0  0  0  0  0  0  0  0  0  0
   21.4546   -7.3654    0.0000 C   0  0  0  0  0  0  0  0  0  0  0  0
   21.8945   -5.9313    0.0000 C   0  0  0  0  0  0  0  0  0  0  0  0
   22.2387   -4.4713    0.0000 C   0  0  0  0  0  0  0  0  0  0  0  0
   22.4856   -2.9918    0.0000 C   0  0  0  0  0  0  0  0  0  0  0  0
   22.6341   -1.4992    0.0000 C   0  0  0  0  0  0  0  0  0  0  0  0
  1  2  1  0
  2  3  1  0
  3  4  1  0
  4  5  1  0
  5  6  1  0
  6  7  1  0
  7  8  1  0
  8  9  1  0
  9 10  1  0
 10 11  1  0
 11 12  1  0
 12 13  1  0
 13 14  1  0
 14 15  1  0
 15 16  1  0
 16 17  1  0
 17 18  1  0
 18 19  1  0
 19 20  1  0
 20 21  1  0
 21 22  1  0
 22 23  1  0
 23 24  1  0
 24 25  1  0
 25 26  1  0
 26 27  1  0
 27 28  1  0
 28 29  1  0
 29 30  1  0
 30 31  1  0
 31 32  1  0
 32 33  1  0
 33 34  1  0
 34 35  1  0
 35 36  1  0
 36 37  1  0
 37 38  1  0
 38 39  1  0
 39 40  1  0
 40 41  1  0
 41 42  1  0
 42 43  1  0
 43 44  1  0
 44 45  1  0
 45 46  1  0
 46 47  1  0
 47 48  1  0
 48 49  1  0
 49 50  1  0
 50 51  1  0
 51 52  1  0
 52 53  1  0
 53 54  2  0
 54 55  1  0
 55 56  1  0
 56 57  1  0
 57 58  1  0
 58 59  1  0
 59 60  1  0
 60 61  1  0
 61 62  1  0
 62 63  1  0
 63 64  1  0
 64 65  1  0
 65 66  1  0
 66 67  1  0
 67 68  1  0
 68 69  1  0
 69 70  1  0
 70 71  1  0
 71 72  1  0
 72 73  1  0
 73 74  1  0
 74 75  1  0
 75 76  1  0
 76 77  1  0
 77 78  1  0
 78 79  1  0
 79 80  1  0
 80 81  1  0
 81 82  1  0
 82 83  1  0
 83 84  1  0
 84 85  1  0
 85 86  1  0
 86 87  1  0
 87 88  1  0
 88 89  1  0
 89 90  1  0
 90 91  1  0
 91 92  1  0
 92 93  1  0
 93 94  1  0
 94 95  1  0
 95 96  1  0
 96  2  1  0
M  END
>  <Title>  (535) 
idAASUgen7

$$$$

     RDKit          2D

 64 64  0  0  0  0  0  0  0  0999 V2000
   16.8191   -1.2990    0.0000 C   0  0  0  0  0  0  0  0  0  0  0  0
   16.0691    0.0000    0.0000 O   0  0  0  0  0  0  0  0  0  0  0  0
   14.5691    0.0000    0.0000 C   0  0  0  0  0  0  0  0  0  0  0  0
   14.4919    1.4980    0.0000 C   0  0  0  0  0  0  0  0  0  0  0  0
   14.2611    2.9801    0.0000 C   0  0  0  0  0  0  0  0  0  0  0  0
   13.8791    4.4307    0.0000 C   0  0  0  0  0  0  0  0  0  0  0  0
   13.3499    5.8343    0.0000 C   0  0  0  0  0  0  0  0  0  0  0  0
   12.6793    7.1760    0.0000 C   0  0  0  0  0  0  0  0  0  0  0  0
   11.8742    8.4417    0.0000 C   0  0  0  0  0  0  0  0  0  0  0  0
   10.9433    9.6178    0.0000 C   0  0  0  0  0  0  0  0  0  0  0  0
    9.8964   10.6921    0.0000 C   0  0  0  0  0  0  0  0  0  0  0  0
    8.7446   11.6530    0.0000 C   0  0  0  0  0  0  0  0  0  0  0  0
    7.5001   12.4903    0.0000 C   0  0  0  0  0  0  0  0  0  0  0  0
    6.1761   13.1953    0.0000 C   0  0  0  0  0  0  0  0  0  0  0  0
    4.7866   13.7604    0.0000 C   0  0  0  0  0  0  0  0  0  0  0  0
    3.3463   14.1796    0.0000 C   0  0  0  0  0  0  0  0  0  0  0  0
    1.8707   14.4485    0.0000 C   0  0  0  0  0  0  0  0  0  0  0  0
    0.3751   14.5643    0.0000 C   0  0  0  0  0  0  0  0  0  0  0  0
   -1.1244   14.5257    0.0000 C   0  0  0  0  0  0  0  0  0  0  0  0
   -2.6120   14.3331    0.0000 C   0  0  0  0  0  0  0  0  0  0  0  0
   -4.0719   13.9885    0.0000 C   0  0  0  0  0  0  0  0  0  0  0  0
   -5.4886   13.4957    0.0000 C   0  0  0  0  0  0  0  0  0  0  0  0
   -6.8471   12.8599    0.0000 C   0  0  0  0  0  0  0  0  0  0  0  0
   -8.1331   12.0877    0.0000 C   0  0  0  0  0  0  0  0  0  0  0  0
   -9.3329   11.1873    0.0000 C   0  0  0  0  0  0  0  0  0  0  0  0
  -10.4337   10.1684    0.0000 C   0  0  0  0  0  0  0  0  0  0  0  0
  -11.4239    9.0417    0.0000 C   0  0  0  0  0  0  0  0  0  0  0  0
  -12.2931    7.8192    0.0000 C   0  0  0  0  0  0  0  0  0  0  0  0
  -13.0319    6.5138    0.0000 C   0  0  0  0  0  0  0  0  0  0  0  0
  -13.6326    5.1393    0.0000 C   0  0  0  0  0  0  0  0  0  0  0  0
  -14.0887    3.7103    0.0000 C   0  0  0  0  0  0  0  0  0  0  0  0
  -14.3956    2.2420    0.0000 C   0  0  0  0  0  0  0  0  0  0  0  0
  -14.5498    0.7500    0.0000 C   0  0  0  0  0  0  0  0  0  0  0  0
  -14.5498   -0.7500    0.0000 C   0  0  0  0  0  0  0  0  0  0  0  0
  -14.3956   -2.2420    0.0000 C   0  0  0  0  0  0  0  0  0  0  0  0
  -14.0887   -3.7103    0.0000 C   0  0  0  0  0  0  0  0  0  0  0  0
  -13.6326   -5.1393    0.0000 C   0  0  0  0  0  0  0  0  0  0  0  0
  -13.0319   -6.5138    0.0000 C   0  0  0  0  0  0  0  0  0  0  0  0
  -12.2931   -7.8192    0.0000 C   0  0  0  0  0  0  0  0  0  0  0  0
  -11.4239   -9.0417    0.0000 C   0  0  0  0  0  0  0  0  0  0  0  0
  -10.4337  -10.1684    0.0000 C   0  0  0  0  0  0  0  0  0  0  0  0
   -9.3329  -11.1873    0.0000 C   0  0  0  0  0  0  0  0  0  0  0  0
   -8.1331  -12.0877    0.0000 C   0  0  0  0  0  0  0  0  0  0  0  0
   -6.8471  -12.8599    0.0000 C   0  0  0  0  0  0  0  0  0  0  0  0
   -5.4886  -13.4957    0.0000 C   0  0  0  0  0  0  0  0  0  0  0  0
   -4.0719  -13.9885    0.0000 C   0  0  0  0  0  0  0  0  0  0  0  0
   -2.6120  -14.3331    0.0000 C   0  0  0  0  0  0  0  0  0  0  0  0
   -1.1244  -14.5257    0.0000 C   0  0  0  0  0  0  0  0  0  0  0  0
    0.3751  -14.5643    0.0000 C   0  0  0  0  0  0  0  0  0  0  0  0
    1.8707  -14.4485    0.0000 C   0  0  0  0  0  0  0  0  0  0  0  0
    3.3463  -14.1796    0.0000 C   0  0  0  0  0  0  0  0  0  0  0  0
    4.7866  -13.7604    0.0000 C   0  0  0  0  0  0  0  0  0  0  0  0
    6.1761  -13.1953    0.0000 C   0  0  0  0  0  0  0  0  0  0  0  0
    7.5001  -12.4903    0.0000 C   0  0  0  0  0  0  0  0  0  0  0  0
    8.7446  -11.6530    0.0000 C   0  0  0  0  0  0  0  0  0  0  0  0
    9.8964  -10.6921    0.0000 C   0  0  0  0  0  0  0  0  0  0  0  0
   10.9433   -9.6178    0.0000 C   0  0  0  0  0  0  0  0  0  0  0  0
   11.8742   -8.4417    0.0000 C   0  0  0  0  0  0  0  0  0  0  0  0
   12.6793   -7.1760    0.0000 C   0  0  0  0  0  0  0  0  0  0  0  0
   13.3499   -5.8343    0.0000 C   0  0  0  0  0  0  0  0  0  0  0  0
   13.8791   -4.4307    0.0000 C   0  0  0  0  0  0  0  0  0  0  0  0
   15.3080   -4.8869    0.0000 C   0  0  0  0  0  0  0  0  0  0  0  0
   14.2611   -2.9801    0.0000 C   0  0  0  0  0  0  0  0  0  0  0  0
   14.4919   -1.4980    0.0000 C   0  0  0  0  0  0  0  0  0  0  0  0
  1  2  1  0
  2  3  1  0
  3  4  2  0
  4  5  1  0
  5  6  1  0
  6  7  1  0
  7  8  1  0
  8  9  1  0
  9 10  1  0
 10 11  1  0
 11 12  1  0
 12 13  1  0
 13 14  1  0
 14 15  1  0
 15 16  1  0
 16 17  1  0
 17 18  1  0
 18 19  1  0
 19 20  1  0
 20 21  1  0
 21 22  1  0
 22 23  1  0
 23 24  1  0
 24 25  1  0
 25 26  1  0
 26 27  1  0
 27 28  1  0
 28 29  1  0
 29 30  1  0
 30 31  1  0
 31 32  1  0
 32 33  1  0
 33 34  1  0
 34 35  1  0
 35 36  1  0
 36 37  1  0
 37 38  1  0
 38 39  1  0
 39 40  1  0
 40 41  1  0
 41 42  1  0
 42 43  1  0
 43 44  1  0
 44 45  1  0
 45 46  1  0
 46 47  1  0
 47 48  1  0
 48 49  1  0
 49 50  1  0
 50 51  1  0
 51 52  1  0
 52 53  1  0
 53 54  1  0
 54 55  1  0
 55 56  1  0
 56 57  1  0
 57 58  1  0
 58 59  1  0
 59 60  1  0
 60 61  1  0
 61 62  1  0
 61 63  1  0
 63 64  1  0
 64  3  1  0
M  END
>  <Title>  (536) 
idAASVgen7

$$$$

     RDKit          2D

 48 48  0  0  0  0  0  0  0  0999 V2000
   11.4673    0.0000    0.0000 C   0  0  0  0  0  0  0  0  0  0  0  0
   11.3692   -1.4968    0.0000 C   0  0  0  0  0  0  0  0  0  0  0  0
   11.0766   -2.9680    0.0000 C   0  0  0  0  0  0  0  0  0  0  0  0
   10.5944   -4.3884    0.0000 C   0  0  0  0  0  0  0  0  0  0  0  0
    9.9310   -5.7337    0.0000 C   0  0  0  0  0  0  0  0  0  0  0  0
    9.0977   -6.9809    0.0000 C   0  0  0  0  0  0  0  0  0  0  0  0
    8.1086   -8.1086    0.0000 C   0  0  0  0  0  0  0  0  0  0  0  0
    6.9809   -9.0977    0.0000 C   0  0  0  0  0  0  0  0  0  0  0  0
    5.7337   -9.9310    0.0000 C   0  0  0  0  0  0  0  0  0  0  0  0
    4.3884  -10.5944    0.0000 C   0  0  0  0  0  0  0  0  0  0  0  0
    2.9680  -11.0766    0.0000 C   0  0  0  0  0  0  0  0  0  0  0  0
    1.4968  -11.3692    0.0000 C   0  0  0  0  0  0  0  0  0  0  0  0
   -0.0000  -11.4673    0.0000 C   0  0  0  0  0  0  0  0  0  0  0  0
   -1.4968  -11.3692    0.0000 C   0  0  0  0  0  0  0  0  0  0  0  0
   -2.9680  -11.0766    0.0000 C   0  0  0  0  0  0  0  0  0  0  0  0
   -4.3884  -10.5944    0.0000 C   0  0  0  0  0  0  0  0  0  0  0  0
   -5.7337   -9.9310    0.0000 C   0  0  0  0  0  0  0  0  0  0  0  0
   -6.9809   -9.0977    0.0000 C   0  0  0  0  0  0  0  0  0  0  0  0
   -8.1086   -8.1086    0.0000 C   0  0  0  0  0  0  0  0  0  0  0  0
   -9.0977   -6.9809    0.0000 C   0  0  0  0  0  0  0  0  0  0  0  0
   -9.9310   -5.7337    0.0000 C   0  0  0  0  0  0  0  0  0  0  0  0
  -10.5944   -4.3884    0.0000 C   0  0  0  0  0  0  0  0  0  0  0  0
  -11.0766   -2.9680    0.0000 C   0  0  0  0  0  0  0  0  0  0  0  0
  -11.3692   -1.4968    0.0000 C   0  0  0  0  0  0  0  0  0  0  0  0
  -11.4673    0.0000    0.0000 C   0  0  0  0  0  0  0  0  0  0  0  0
  -11.3692    1.4968    0.0000 C   0  0  0  0  0  0  0  0  0  0  0  0
  -11.0766    2.9680    0.0000 C   0  0  0  0  0  0  0  0  0  0  0  0
  -10.5944    4.3884    0.0000 C   0  0  0  0  0  0  0  0  0  0  0  0
   -9.9310    5.7337    0.0000 C   0  0  0  0  0  0  0  0  0  0  0  0
   -9.0977    6.9809    0.0000 C   0  0  0  0  0  0  0  0  0  0  0  0
   -8.1086    8.1086    0.0000 C   0  0  0  0  0  0  0  0  0  0  0  0
   -6.9809    9.0977    0.0000 C   0  0  0  0  0  0  0  0  0  0  0  0
   -5.7337    9.9310    0.0000 C   0  0  0  0  0  0  0  0  0  0  0  0
   -4.3884   10.5944    0.0000 C   0  0  0  0  0  0  0  0  0  0  0  0
   -2.9680   11.0766    0.0000 C   0  0  0  0  0  0  0  0  0  0  0  0
   -1.4968   11.3692    0.0000 C   0  0  0  0  0  0  0  0  0  0  0  0
    0.0000   11.4673    0.0000 C   0  0  0  0  0  0  0  0  0  0  0  0
    1.4968   11.3692    0.0000 C   0  0  0  0  0  0  0  0  0  0  0  0
    2.9680   11.0766    0.0000 C   0  0  0  0  0  0  0  0  0  0  0  0
    4.3884   10.5944    0.0000 C   0  0  0  0  0  0  0  0  0  0  0  0
    5.7337    9.9310    0.0000 C   0  0  0  0  0  0  0  0  0  0  0  0
    6.9809    9.0977    0.0000 C   0  0  0  0  0  0  0  0  0  0  0  0
    8.1086    8.1086    0.0000 C   0  0  0  0  0  0  0  0  0  0  0  0
    9.0977    6.9809    0.0000 C   0  0  0  0  0  0  0  0  0  0  0  0
    9.9310    5.7337    0.0000 C   0  0  0  0  0  0  0  0  0  0  0  0
   10.5944    4.3884    0.0000 C   0  0  0  0  0  0  0  0  0  0  0  0
   11.0766    2.9680    0.0000 C   0  0  0  0  0  0  0  0  0  0  0  0
   11.3692    1.4968    0.0000 C   0  0  0  0  0  0  0  0  0  0  0  0
  1  2  1  0
  2  3  1  0
  3  4  1  0
  4  5  1  0
  5  6  1  0
  6  7  1  0
  7  8  1  0
  8  9  1  0
  9 10  1  0
 10 11  1  0
 11 12  1  0
 12 13  1  0
 13 14  1  0
 14 15  1  0
 15 16  1  0
 16 17  1  0
 17 18  1  0
 18 19  1  0
 19 20  1  0
 20 21  1  0
 21 22  1  0
 22 23  1  0
 23 24  1  0
 24 25  1  0
 25 26  1  0
 26 27  1  0
 27 28  1  0
 28 29  1  0
 29 30  1  0
 30 31  1  0
 31 32  1  0
 32 33  1  0
 33 34  1  0
 34 35  1  0
 35 36  1  0
 36 37  1  0
 37 38  1  0
 38 39  1  0
 39 40  1  0
 40 41  1  0
 41 42  1  0
 42 43  1  0
 43 44  1  0
 44 45  1  0
 45 46  1  0
 46 47  1  0
 47 48  1  0
 48  1  1  0
M  END
>  <Title>  (537) 
idAASWgen7

$$$$

     RDKit          2D

 47 47  0  0  0  0  0  0  0  0999 V2000
   12.4902    0.0000    0.0000 O   0  0  0  0  0  0  0  0  0  0  0  0
   10.9902    0.0000    0.0000 C   0  0  0  0  0  0  0  0  0  0  0  0
   10.8879   -1.4965    0.0000 C   0  0  0  0  0  0  0  0  0  0  0  0
   10.5827   -2.9651    0.0000 C   0  0  0  0  0  0  0  0  0  0  0  0
   10.0804   -4.3785    0.0000 C   0  0  0  0  0  0  0  0  0  0  0  0
    9.3903   -5.7103    0.0000 C   0  0  0  0  0  0  0  0  0  0  0  0
    8.5252   -6.9358    0.0000 C   0  0  0  0  0  0  0  0  0  0  0  0
    7.5014   -8.0321    0.0000 C   0  0  0  0  0  0  0  0  0  0  0  0
    6.3379   -8.9787    0.0000 C   0  0  0  0  0  0  0  0  0  0  0  0
    5.0562   -9.7581    0.0000 C   0  0  0  0  0  0  0  0  0  0  0  0
    3.6804  -10.3557    0.0000 C   0  0  0  0  0  0  0  0  0  0  0  0
    2.2360  -10.7604    0.0000 C   0  0  0  0  0  0  0  0  0  0  0  0
    0.7500  -10.9646    0.0000 C   0  0  0  0  0  0  0  0  0  0  0  0
   -0.7500  -10.9646    0.0000 C   0  0  0  0  0  0  0  0  0  0  0  0
   -2.2360  -10.7604    0.0000 C   0  0  0  0  0  0  0  0  0  0  0  0
   -3.6804  -10.3557    0.0000 C   0  0  0  0  0  0  0  0  0  0  0  0
   -5.0562   -9.7581    0.0000 C   0  0  0  0  0  0  0  0  0  0  0  0
   -6.3379   -8.9787    0.0000 C   0  0  0  0  0  0  0  0  0  0  0  0
   -7.5014   -8.0321    0.0000 C   0  0  0  0  0  0  0  0  0  0  0  0
   -8.5252   -6.9358    0.0000 C   0  0  0  0  0  0  0  0  0  0  0  0
   -9.3903   -5.7103    0.0000 C   0  0  0  0  0  0  0  0  0  0  0  0
  -10.0804   -4.3785    0.0000 C   0  0  0  0  0  0  0  0  0  0  0  0
  -10.5827   -2.9651    0.0000 C   0  0  0  0  0  0  0  0  0  0  0  0
  -10.8879   -1.4965    0.0000 C   0  0  0  0  0  0  0  0  0  0  0  0
  -10.9902    0.0000    0.0000 C   0  0  0  0  0  0  0  0  0  0  0  0
  -10.8879    1.4965    0.0000 C   0  0  0  0  0  0  0  0  0  0  0  0
  -10.5827    2.9651    0.0000 C   0  0  0  0  0  0  0  0  0  0  0  0
  -10.0804    4.3785    0.0000 C   0  0  0  0  0  0  0  0  0  0  0  0
   -9.3903    5.7103    0.0000 C   0  0  0  0  0  0  0  0  0  0  0  0
   -8.5252    6.9358    0.0000 C   0  0  0  0  0  0  0  0  0  0  0  0
   -7.5014    8.0321    0.0000 C   0  0  0  0  0  0  0  0  0  0  0  0
   -6.3379    8.9787    0.0000 C   0  0  0  0  0  0  0  0  0  0  0  0
   -5.0562    9.7581    0.0000 C   0  0  0  0  0  0  0  0  0  0  0  0
   -3.6804   10.3557    0.0000 C   0  0  0  0  0  0  0  0  0  0  0  0
   -2.2360   10.7604    0.0000 C   0  0  0  0  0  0  0  0  0  0  0  0
   -0.7500   10.9646    0.0000 C   0  0  0  0  0  0  0  0  0  0  0  0
    0.7500   10.9646    0.0000 C   0  0  0  0  0  0  0  0  0  0  0  0
    2.2360   10.7604    0.0000 C   0  0  0  0  0  0  0  0  0  0  0  0
    3.6804   10.3557    0.0000 C   0  0  0  0  0  0  0  0  0  0  0  0
    5.0562    9.7581    0.0000 C   0  0  0  0  0  0  0  0  0  0  0  0
    6.3379    8.9787    0.0000 C   0  0  0  0  0  0  0  0  0  0  0  0
    7.5014    8.0321    0.0000 C   0  0  0  0  0  0  0  0  0  0  0  0
    8.5252    6.9358    0.0000 C   0  0  0  0  0  0  0  0  0  0  0  0
    9.3903    5.7103    0.0000 C   0  0  0  0  0  0  0  0  0  0  0  0
   10.0804    4.3785    0.0000 C   0  0  0  0  0  0  0  0  0  0  0  0
   10.5827    2.9651    0.0000 C   0  0  0  0  0  0  0  0  0  0  0  0
   10.8879    1.4965    0.0000 C   0  0  0  0  0  0  0  0  0  0  0  0
  1  2  1  0
  2  3  1  0
  3  4  1  0
  4  5  1  0
  5  6  1  0
  6  7  1  0
  7  8  1  0
  8  9  1  0
  9 10  1  0
 10 11  1  0
 11 12  1  0
 12 13  1  0
 13 14  1  0
 14 15  1  0
 15 16  1  0
 16 17  1  0
 17 18  1  0
 18 19  1  0
 19 20  1  0
 20 21  1  0
 21 22  1  0
 22 23  1  0
 23 24  1  0
 24 25  1  0
 25 26  1  0
 26 27  1  0
 27 28  1  0
 28 29  1  0
 29 30  1  0
 30 31  1  0
 31 32  1  0
 32 33  1  0
 33 34  1  0
 34 35  1  0
 35 36  1  0
 36 37  1  0
 37 38  1  0
 38 39  1  0
 39 40  1  0
 40 41  1  0
 41 42  1  0
 42 43  1  0
 43 44  1  0
 44 45  1  0
 45 46  1  0
 46 47  1  0
 47  2  1  0
M  END
>  <Title>  (538) 
idAASXgen7

$$$$

     RDKit          2D

  9  9  0  0  0  0  0  0  0  0999 V2000
    4.2760   -2.5981    0.0000 N   0  0  0  0  0  0  0  0  0  0  0  0
    3.5260   -1.2990    0.0000 C   0  0  0  0  0  0  0  0  0  0  0  0
    2.7760    0.0000    0.0000 C   0  0  0  0  0  0  0  0  0  0  0  0
    3.5260    1.2990    0.0000 O   0  0  0  0  0  0  0  0  0  0  0  0
    1.2760    0.0000    0.0000 C   0  0  0  0  0  0  0  0  0  0  0  0
    0.3943    1.2135    0.0000 C   0  0  0  0  0  0  0  0  0  0  0  0
   -1.0323    0.7500    0.0000 C   0  0  0  0  0  0  0  0  0  0  0  0
   -1.0323   -0.7500    0.0000 C   0  0  0  0  0  0  0  0  0  0  0  0
    0.3943   -1.2135    0.0000 C   0  0  0  0  0  0  0  0  0  0  0  0
  1  2  3  0
  2  3  1  0
  3  4  2  0
  3  5  1  0
  5  6  2  0
  6  7  1  0
  7  8  1  0
  8  9  2  0
  9  5  1  0
M  END
>  <Title>  (539) 
idAASYgen7

$$$$

     RDKit          2D

 61 61  0  0  0  0  0  0  0  0999 V2000
   15.8305    0.0000    0.0000 C   0  0  0  0  0  0  0  0  0  0  0  0
   14.3305    0.0000    0.0000 C   0  0  0  0  0  0  0  0  0  0  0  0
   14.2520   -1.4979    0.0000 C   0  0  0  0  0  0  0  0  0  0  0  0
   14.0173   -2.9795    0.0000 C   0  0  0  0  0  0  0  0  0  0  0  0
   13.6291   -4.4284    0.0000 C   0  0  0  0  0  0  0  0  0  0  0  0
   13.0916   -5.8287    0.0000 C   0  0  0  0  0  0  0  0  0  0  0  0
   12.4106   -7.1652    0.0000 C   0  0  0  0  0  0  0  0  0  0  0  0
   11.5936   -8.4233    0.0000 C   0  0  0  0  0  0  0  0  0  0  0  0
   10.6496   -9.5890    0.0000 C   0  0  0  0  0  0  0  0  0  0  0  0
    9.5890  -10.6496    0.0000 C   0  0  0  0  0  0  0  0  0  0  0  0
    8.4233  -11.5936    0.0000 C   0  0  0  0  0  0  0  0  0  0  0  0
    7.1652  -12.4106    0.0000 C   0  0  0  0  0  0  0  0  0  0  0  0
    5.8287  -13.0916    0.0000 C   0  0  0  0  0  0  0  0  0  0  0  0
    4.4284  -13.6291    0.0000 C   0  0  0  0  0  0  0  0  0  0  0  0
    2.9795  -14.0173    0.0000 C   0  0  0  0  0  0  0  0  0  0  0  0
    1.4979  -14.2520    0.0000 C   0  0  0  0  0  0  0  0  0  0  0  0
   -0.0000  -14.3305    0.0000 C   0  0  0  0  0  0  0  0  0  0  0  0
   -1.4979  -14.2520    0.0000 C   0  0  0  0  0  0  0  0  0  0  0  0
   -2.9795  -14.0173    0.0000 C   0  0  0  0  0  0  0  0  0  0  0  0
   -4.4284  -13.6291    0.0000 C   0  0  0  0  0  0  0  0  0  0  0  0
   -5.8287  -13.0916    0.0000 C   0  0  0  0  0  0  0  0  0  0  0  0
   -7.1652  -12.4106    0.0000 C   0  0  0  0  0  0  0  0  0  0  0  0
   -8.4233  -11.5936    0.0000 C   0  0  0  0  0  0  0  0  0  0  0  0
   -9.5890  -10.6496    0.0000 C   0  0  0  0  0  0  0  0  0  0  0  0
  -10.6496   -9.5890    0.0000 C   0  0  0  0  0  0  0  0  0  0  0  0
  -11.5936   -8.4233    0.0000 C   0  0  0  0  0  0  0  0  0  0  0  0
  -12.4106   -7.1652    0.0000 C   0  0  0  0  0  0  0  0  0  0  0  0
  -13.0916   -5.8287    0.0000 C   0  0  0  0  0  0  0  0  0  0  0  0
  -13.6291   -4.4284    0.0000 C   0  0  0  0  0  0  0  0  0  0  0  0
  -14.0173   -2.9795    0.0000 C   0  0  0  0  0  0  0  0  0  0  0  0
  -14.2520   -1.4979    0.0000 C   0  0  0  0  0  0  0  0  0  0  0  0
  -14.3305    0.0000    0.0000 C   0  0  0  0  0  0  0  0  0  0  0  0
  -14.2520    1.4979    0.0000 C   0  0  0  0  0  0  0  0  0  0  0  0
  -14.0173    2.9795    0.0000 C   0  0  0  0  0  0  0  0  0  0  0  0
  -13.6291    4.4284    0.0000 C   0  0  0  0  0  0  0  0  0  0  0  0
  -13.0916    5.8287    0.0000 C   0  0  0  0  0  0  0  0  0  0  0  0
  -12.4106    7.1652    0.0000 C   0  0  0  0  0  0  0  0  0  0  0  0
  -11.5936    8.4233    0.0000 C   0  0  0  0  0  0  0  0  0  0  0  0
  -10.6496    9.5890    0.0000 C   0  0  0  0  0  0  0  0  0  0  0  0
   -9.5890   10.6496    0.0000 C   0  0  0  0  0  0  0  0  0  0  0  0
   -8.4233   11.5936    0.0000 C   0  0  0  0  0  0  0  0  0  0  0  0
   -7.1652   12.4106    0.0000 C   0  0  0  0  0  0  0  0  0  0  0  0
   -5.8287   13.0916    0.0000 C   0  0  0  0  0  0  0  0  0  0  0  0
   -4.4284   13.6291    0.0000 C   0  0  0  0  0  0  0  0  0  0  0  0
   -2.9795   14.0173    0.0000 C   0  0  0  0  0  0  0  0  0  0  0  0
   -1.4979   14.2520    0.0000 C   0  0  0  0  0  0  0  0  0  0  0  0
    0.0000   14.3305    0.0000 C   0  0  0  0  0  0  0  0  0  0  0  0
    1.4979   14.2520    0.0000 C   0  0  0  0  0  0  0  0  0  0  0  0
    2.9795   14.0173    0.0000 C   0  0  0  0  0  0  0  0  0  0  0  0
    4.4284   13.6291    0.0000 C   0  0  0  0  0  0  0  0  0  0  0  0
    5.8287   13.0916    0.0000 C   0  0  0  0  0  0  0  0  0  0  0  0
    7.1652   12.4106    0.0000 C   0  0  0  0  0  0  0  0  0  0  0  0
    8.4233   11.5936    0.0000 C   0  0  0  0  0  0  0  0  0  0  0  0
    9.5890   10.6496    0.0000 C   0  0  0  0  0  0  0  0  0  0  0  0
   10.6496    9.5890    0.0000 C   0  0  0  0  0  0  0  0  0  0  0  0
   11.5936    8.4233    0.0000 C   0  0  0  0  0  0  0  0  0  0  0  0
   12.4106    7.1652    0.0000 C   0  0  0  0  0  0  0  0  0  0  0  0
   13.0916    5.8287    0.0000 C   0  0  0  0  0  0  0  0  0  0  0  0
   13.6291    4.4284    0.0000 C   0  0  0  0  0  0  0  0  0  0  0  0
   14.0173    2.9795    0.0000 C   0  0  0  0  0  0  0  0  0  0  0  0
   14.2520    1.4979    0.0000 C   0  0  0  0  0  0  0  0  0  0  0  0
  1  2  1  0
  2  3  1  0
  3  4  2  0
  4  5  1  0
  5  6  2  0
  6  7  1  0
  7  8  1  0
  8  9  1  0
  9 10  1  0
 10 11  1  0
 11 12  1  0
 12 13  1  0
 13 14  1  0
 14 15  1  0
 15 16  1  0
 16 17  1  0
 17 18  1  0
 18 19  1  0
 19 20  1  0
 20 21  1  0
 21 22  1  0
 22 23  1  0
 23 24  1  0
 24 25  1  0
 25 26  1  0
 26 27  1  0
 27 28  1  0
 28 29  1  0
 29 30  1  0
 30 31  1  0
 31 32  1  0
 32 33  1  0
 33 34  1  0
 34 35  1  0
 35 36  1  0
 36 37  1  0
 37 38  1  0
 38 39  1  0
 39 40  1  0
 40 41  1  0
 41 42  1  0
 42 43  1  0
 43 44  2  0
 44 45  1  0
 45 46  2  0
 46 47  1  0
 47 48  1  0
 48 49  1  0
 49 50  1  0
 50 51  1  0
 51 52  1  0
 52 53  1  0
 53 54  1  0
 54 55  1  0
 55 56  1  0
 56 57  1  0
 57 58  1  0
 58 59  2  0
 59 60  1  0
 60 61  1  0
 61  2  1  0
M  END
>  <Title>  (540) 
idAASZgen7

$$$$

     RDKit          2D

 61 61  0  0  0  0  0  0  0  0999 V2000
   15.8305    0.0000    0.0000 C   0  0  0  0  0  0  0  0  0  0  0  0
   14.3305    0.0000    0.0000 C   0  0  0  0  0  0  0  0  0  0  0  0
   14.2520   -1.4979    0.0000 C   0  0  0  0  0  0  0  0  0  0  0  0
   14.0173   -2.9795    0.0000 C   0  0  0  0  0  0  0  0  0  0  0  0
   13.6291   -4.4284    0.0000 C   0  0  0  0  0  0  0  0  0  0  0  0
   13.0916   -5.8287    0.0000 C   0  0  0  0  0  0  0  0  0  0  0  0
   12.4106   -7.1652    0.0000 C   0  0  0  0  0  0  0  0  0  0  0  0
   11.5936   -8.4233    0.0000 C   0  0  0  0  0  0  0  0  0  0  0  0
   10.6496   -9.5890    0.0000 C   0  0  0  0  0  0  0  0  0  0  0  0
    9.5890  -10.6496    0.0000 C   0  0  0  0  0  0  0  0  0  0  0  0
    8.4233  -11.5936    0.0000 C   0  0  0  0  0  0  0  0  0  0  0  0
    7.1652  -12.4106    0.0000 C   0  0  0  0  0  0  0  0  0  0  0  0
    5.8287  -13.0916    0.0000 C   0  0  0  0  0  0  0  0  0  0  0  0
    4.4284  -13.6291    0.0000 C   0  0  0  0  0  0  0  0  0  0  0  0
    2.9795  -14.0173    0.0000 C   0  0  0  0  0  0  0  0  0  0  0  0
    1.4979  -14.2520    0.0000 C   0  0  0  0  0  0  0  0  0  0  0  0
   -0.0000  -14.3305    0.0000 C   0  0  0  0  0  0  0  0  0  0  0  0
   -1.4979  -14.2520    0.0000 C   0  0  0  0  0  0  0  0  0  0  0  0
   -2.9795  -14.0173    0.0000 C   0  0  0  0  0  0  0  0  0  0  0  0
   -4.4284  -13.6291    0.0000 C   0  0  0  0  0  0  0  0  0  0  0  0
   -5.8287  -13.0916    0.0000 C   0  0  0  0  0  0  0  0  0  0  0  0
   -7.1652  -12.4106    0.0000 C   0  0  0  0  0  0  0  0  0  0  0  0
   -8.4233  -11.5936    0.0000 C   0  0  0  0  0  0  0  0  0  0  0  0
   -9.5890  -10.6496    0.0000 C   0  0  0  0  0  0  0  0  0  0  0  0
  -10.6496   -9.5890    0.0000 C   0  0  0  0  0  0  0  0  0  0  0  0
  -11.5936   -8.4233    0.0000 C   0  0  0  0  0  0  0  0  0  0  0  0
  -12.4106   -7.1652    0.0000 C   0  0  0  0  0  0  0  0  0  0  0  0
  -13.0916   -5.8287    0.0000 C   0  0  0  0  0  0  0  0  0  0  0  0
  -13.6291   -4.4284    0.0000 C   0  0  0  0  0  0  0  0  0  0  0  0
  -14.0173   -2.9795    0.0000 C   0  0  0  0  0  0  0  0  0  0  0  0
  -14.2520   -1.4979    0.0000 C   0  0  0  0  0  0  0  0  0  0  0  0
  -14.3305    0.0000    0.0000 C   0  0  0  0  0  0  0  0  0  0  0  0
  -14.2520    1.4979    0.0000 C   0  0  0  0  0  0  0  0  0  0  0  0
  -14.0173    2.9795    0.0000 C   0  0  0  0  0  0  0  0  0  0  0  0
  -13.6291    4.4284    0.0000 C   0  0  0  0  0  0  0  0  0  0  0  0
  -13.0916    5.8287    0.0000 C   0  0  0  0  0  0  0  0  0  0  0  0
  -12.4106    7.1652    0.0000 C   0  0  0  0  0  0  0  0  0  0  0  0
  -11.5936    8.4233    0.0000 C   0  0  0  0  0  0  0  0  0  0  0  0
  -10.6496    9.5890    0.0000 C   0  0  0  0  0  0  0  0  0  0  0  0
   -9.5890   10.6496    0.0000 C   0  0  0  0  0  0  0  0  0  0  0  0
   -8.4233   11.5936    0.0000 C   0  0  0  0  0  0  0  0  0  0  0  0
   -7.1652   12.4106    0.0000 C   0  0  0  0  0  0  0  0  0  0  0  0
   -5.8287   13.0916    0.0000 C   0  0  0  0  0  0  0  0  0  0  0  0
   -4.4284   13.6291    0.0000 C   0  0  0  0  0  0  0  0  0  0  0  0
   -2.9795   14.0173    0.0000 C   0  0  0  0  0  0  0  0  0  0  0  0
   -1.4979   14.2520    0.0000 C   0  0  0  0  0  0  0  0  0  0  0  0
    0.0000   14.3305    0.0000 C   0  0  0  0  0  0  0  0  0  0  0  0
    1.4979   14.2520    0.0000 C   0  0  0  0  0  0  0  0  0  0  0  0
    2.9795   14.0173    0.0000 C   0  0  0  0  0  0  0  0  0  0  0  0
    4.4284   13.6291    0.0000 C   0  0  0  0  0  0  0  0  0  0  0  0
    5.8287   13.0916    0.0000 C   0  0  0  0  0  0  0  0  0  0  0  0
    7.1652   12.4106    0.0000 C   0  0  0  0  0  0  0  0  0  0  0  0
    8.4233   11.5936    0.0000 C   0  0  0  0  0  0  0  0  0  0  0  0
    9.5890   10.6496    0.0000 C   0  0  0  0  0  0  0  0  0  0  0  0
   10.6496    9.5890    0.0000 C   0  0  0  0  0  0  0  0  0  0  0  0
   11.5936    8.4233    0.0000 C   0  0  0  0  0  0  0  0  0  0  0  0
   12.4106    7.1652    0.0000 C   0  0  0  0  0  0  0  0  0  0  0  0
   13.0916    5.8287    0.0000 C   0  0  0  0  0  0  0  0  0  0  0  0
   13.6291    4.4284    0.0000 C   0  0  0  0  0  0  0  0  0  0  0  0
   14.0173    2.9795    0.0000 C   0  0  0  0  0  0  0  0  0  0  0  0
   14.2520    1.4979    0.0000 C   0  0  0  0  0  0  0  0  0  0  0  0
  1  2  1  0
  2  3  1  0
  3  4  1  0
  4  5  1  0
  5  6  1  0
  6  7  1  0
  7  8  1  0
  8  9  1  0
  9 10  1  0
 10 11  1  0
 11 12  1  0
 12 13  1  0
 13 14  1  0
 14 15  1  0
 15 16  1  0
 16 17  1  0
 17 18  1  0
 18 19  1  0
 19 20  1  0
 20 21  1  0
 21 22  1  0
 22 23  1  0
 23 24  2  0
 24 25  1  0
 25 26  2  0
 26 27  1  0
 27 28  1  0
 28 29  1  0
 29 30  1  0
 30 31  1  0
 31 32  1  0
 32 33  1  0
 33 34  1  0
 34 35  1  0
 35 36  1  0
 36 37  1  0
 37 38  1  0
 38 39  1  0
 39 40  1  0
 40 41  1  0
 41 42  1  0
 42 43  1  0
 43 44  1  0
 44 45  1  0
 45 46  1  0
 46 47  1  0
 47 48  1  0
 48 49  1  0
 49 50  1  0
 50 51  1  0
 51 52  1  0
 52 53  1  0
 53 54  1  0
 54 55  1  0
 55 56  1  0
 56 57  1  0
 57 58  1  0
 58 59  1  0
 59 60  1  0
 60 61  1  0
 61  2  1  0
M  END
>  <Title>  (541) 
idAATAgen7

$$$$

     RDKit          2D

 27 27  0  0  0  0  0  0  0  0999 V2000
    7.7222    0.0000    0.0000 C   0  0  0  0  0  0  0  0  0  0  0  0
    6.2222    0.0000    0.0000 C   0  0  0  0  0  0  0  0  0  0  0  0
    6.0414   -1.4891    0.0000 C   0  0  0  0  0  0  0  0  0  0  0  0
    5.5095   -2.8916    0.0000 C   0  0  0  0  0  0  0  0  0  0  0  0
    4.6574   -4.1261    0.0000 C   0  0  0  0  0  0  0  0  0  0  0  0
    3.5346   -5.1207    0.0000 C   0  0  0  0  0  0  0  0  0  0  0  0
    2.2064   -5.8178    0.0000 C   0  0  0  0  0  0  0  0  0  0  0  0
    0.7500   -6.1768    0.0000 C   0  0  0  0  0  0  0  0  0  0  0  0
   -0.7500   -6.1768    0.0000 C   0  0  0  0  0  0  0  0  0  0  0  0
   -2.2064   -5.8178    0.0000 C   0  0  0  0  0  0  0  0  0  0  0  0
   -3.5346   -5.1207    0.0000 C   0  0  0  0  0  0  0  0  0  0  0  0
   -4.6574   -4.1261    0.0000 C   0  0  0  0  0  0  0  0  0  0  0  0
   -5.5095   -2.8916    0.0000 C   0  0  0  0  0  0  0  0  0  0  0  0
   -6.0414   -1.4891    0.0000 C   0  0  0  0  0  0  0  0  0  0  0  0
   -6.2222    0.0000    0.0000 C   0  0  0  0  0  0  0  0  0  0  0  0
   -6.0414    1.4891    0.0000 C   0  0  0  0  0  0  0  0  0  0  0  0
   -5.5095    2.8916    0.0000 C   0  0  0  0  0  0  0  0  0  0  0  0
   -4.6574    4.1261    0.0000 C   0  0  0  0  0  0  0  0  0  0  0  0
   -3.5346    5.1207    0.0000 C   0  0  0  0  0  0  0  0  0  0  0  0
   -2.2064    5.8178    0.0000 C   0  0  0  0  0  0  0  0  0  0  0  0
   -0.7500    6.1768    0.0000 C   0  0  0  0  0  0  0  0  0  0  0  0
    0.7500    6.1768    0.0000 C   0  0  0  0  0  0  0  0  0  0  0  0
    2.2064    5.8178    0.0000 C   0  0  0  0  0  0  0  0  0  0  0  0
    3.5346    5.1207    0.0000 C   0  0  0  0  0  0  0  0  0  0  0  0
    4.6574    4.1261    0.0000 C   0  0  0  0  0  0  0  0  0  0  0  0
    5.5095    2.8916    0.0000 C   0  0  0  0  0  0  0  0  0  0  0  0
    6.0414    1.4891    0.0000 C   0  0  0  0  0  0  0  0  0  0  0  0
  1  2  1  0
  2  3  1  0
  3  4  1  0
  4  5  1  0
  5  6  1  0
  6  7  1  0
  7  8  1  0
  8  9  1  0
  9 10  1  0
 10 11  1  0
 11 12  1  0
 12 13  1  0
 13 14  1  0
 14 15  1  0
 15 16  1  0
 16 17  1  0
 17 18  1  0
 18 19  1  0
 19 20  1  0
 20 21  1  0
 21 22  1  0
 22 23  1  0
 23 24  1  0
 24 25  1  0
 25 26  1  0
 26 27  1  0
 27  2  1  0
M  END
>  <Title>  (542) 
idAATBgen7

$$$$

     RDKit          2D

 22 24  0  0  0  0  0  0  0  0999 V2000
   -3.0000   -2.5981    0.0000 C   0  0  0  0  0  0  0  0  0  0  0  0
   -1.5000   -2.5981    0.0000 C   0  0  0  0  0  0  0  0  0  0  0  0
   -0.7500   -3.8971    0.0000 C   0  0  0  0  0  0  0  0  0  0  0  0
    0.7500   -3.8971    0.0000 C   0  0  0  0  0  0  0  0  0  0  0  0
    1.5000   -2.5981    0.0000 C   0  0  0  0  0  0  0  0  0  0  0  0
    3.0000   -2.5981    0.0000 N   0  0  0  0  0  0  0  0  0  0  0  0
    3.7500   -3.8971    0.0000 C   0  0  0  0  0  0  0  0  0  0  0  0
    3.7500   -1.2990    0.0000 C   0  0  0  0  0  0  0  0  0  0  0  0
    3.0000   -0.0000    0.0000 O   0  0  0  0  0  0  0  0  0  0  0  0
    5.2500   -1.2990    0.0000 N   0  0  0  0  0  0  0  0  0  0  0  0
    6.0000    0.0000    0.0000 C   0  0  0  0  0  0  0  0  0  0  0  0
    7.5000    0.0000    0.0000 N   0  0  0  0  0  0  0  0  0  0  0  0
    8.2500    1.2990    0.0000 N   0  0  0  0  0  0  0  0  0  0  0  0
    7.5000    2.5981    0.0000 N   0  0  0  0  0  0  0  0  0  0  0  0
    6.0000    2.5981    0.0000 N   0  0  0  0  0  0  0  0  0  0  0  0
    5.2500    1.2990    0.0000 N   0  0  0  0  0  0  0  0  0  0  0  0
    0.7500   -1.2990    0.0000 C   0  0  0  0  0  0  0  0  0  0  0  0
    1.5000    0.0000    0.0000 C   0  0  0  0  0  0  0  0  0  0  0  0
    0.7500    1.2990    0.0000 C   0  0  0  0  0  0  0  0  0  0  0  0
   -0.7500    1.2990    0.0000 C   0  0  0  0  0  0  0  0  0  0  0  0
   -1.5000    0.0000    0.0000 C   0  0  0  0  0  0  0  0  0  0  0  0
   -0.7500   -1.2990    0.0000 C   0  0  0  0  0  0  0  0  0  0  0  0
  1  2  1  0
  2  3  2  0
  3  4  1  0
  4  5  2  0
  5  6  1  0
  6  7  1  0
  6  8  1  0
  8  9  2  0
  8 10  1  0
 10 11  1  0
 11 12  2  0
 12 13  1  0
 13 14  2  0
 14 15  1  0
 15 16  2  0
  5 17  1  0
 17 18  2  0
 18 19  1  0
 19 20  2  0
 20 21  1  0
 21 22  2  0
 22  2  1  0
 16 11  1  0
 22 17  1  0
M  END
>  <Title>  (543) 
idAATCgen7

$$$$

     RDKit          2D

 21 23  0  0  0  0  0  0  0  0999 V2000
   -3.0000   -2.5981    0.0000 C   0  0  0  0  0  0  0  0  0  0  0  0
   -1.5000   -2.5981    0.0000 C   0  0  0  0  0  0  0  0  0  0  0  0
   -0.7500   -3.8971    0.0000 C   0  0  0  0  0  0  0  0  0  0  0  0
    0.7500   -3.8971    0.0000 C   0  0  0  0  0  0  0  0  0  0  0  0
    1.5000   -2.5981    0.0000 C   0  0  0  0  0  0  0  0  0  0  0  0
    3.0000   -2.5981    0.0000 N   0  0  0  0  0  0  0  0  0  0  0  0
    3.7500   -3.8971    0.0000 C   0  0  0  0  0  0  0  0  0  0  0  0
    3.0000   -5.1962    0.0000 O   0  0  0  0  0  0  0  0  0  0  0  0
    5.2500   -3.8971    0.0000 N   0  0  0  0  0  0  0  0  0  0  0  0
    6.0000   -5.1962    0.0000 C   0  0  0  0  0  0  0  0  0  0  0  0
    5.2500   -6.4952    0.0000 N   0  0  0  0  0  0  0  0  0  0  0  0
    6.0000   -7.7942    0.0000 N   0  0  0  0  0  0  0  0  0  0  0  0
    7.5000   -7.7942    0.0000 N   0  0  0  0  0  0  0  0  0  0  0  0
    8.2500   -6.4952    0.0000 N   0  0  0  0  0  0  0  0  0  0  0  0
    7.5000   -5.1962    0.0000 N   0  0  0  0  0  0  0  0  0  0  0  0
    0.7500   -1.2990    0.0000 C   0  0  0  0  0  0  0  0  0  0  0  0
    1.5000    0.0000    0.0000 C   0  0  0  0  0  0  0  0  0  0  0  0
    0.7500    1.2990    0.0000 C   0  0  0  0  0  0  0  0  0  0  0  0
   -0.7500    1.2990    0.0000 C   0  0  0  0  0  0  0  0  0  0  0  0
   -1.5000    0.0000    0.0000 C   0  0  0  0  0  0  0  0  0  0  0  0
   -0.7500   -1.2990    0.0000 C   0  0  0  0  0  0  0  0  0  0  0  0
  1  2  1  0
  2  3  2  0
  3  4  1  0
  4  5  2  0
  5  6  1  0
  6  7  1  0
  7  8  2  0
  7  9  1  0
  9 10  1  0
 10 11  2  0
 11 12  1  0
 12 13  2  0
 13 14  1  0
 14 15  2  0
  5 16  1  0
 16 17  2  0
 17 18  1  0
 18 19  2  0
 19 20  1  0
 20 21  2  0
 21  2  1  0
 15 10  1  0
 21 16  1  0
M  END
>  <Title>  (544) 
idAATDgen7

$$$$

     RDKit          2D

 44 50  0  0  0  0  0  0  0  0999 V2000
    4.3881   -6.6982    0.0000 C   0  0  0  0  0  0  0  0  0  0  0  0
    3.0367   -6.0474    0.0000 C   0  0  0  0  0  0  0  0  0  0  0  0
    3.3705   -4.5850    0.0000 C   0  0  0  0  0  0  0  0  0  0  0  0
    3.0367   -3.1226    0.0000 C   0  0  0  0  0  0  0  0  0  0  0  0
    2.1015   -1.9499    0.0000 C   0  0  0  0  0  0  0  0  0  0  0  0
    3.0367   -0.7771    0.0000 C   0  0  0  0  0  0  0  0  0  0  0  0
    2.4887    0.6192    0.0000 O   0  0  0  0  0  0  0  0  0  0  0  0
    4.5199   -1.0007    0.0000 N   0  0  0  0  0  0  0  0  0  0  0  0
    5.4552    0.1721    0.0000 C   0  0  0  0  0  0  0  0  0  0  0  0
    6.9384   -0.0515    0.0000 N   0  0  0  0  0  0  0  0  0  0  0  0
    7.8736    1.1213    0.0000 N   0  0  0  0  0  0  0  0  0  0  0  0
    7.3256    2.5176    0.0000 N   0  0  0  0  0  0  0  0  0  0  0  0
    5.8424    2.7411    0.0000 N   0  0  0  0  0  0  0  0  0  0  0  0
    4.9072    1.5684    0.0000 N   0  0  0  0  0  0  0  0  0  0  0  0
    0.7500   -1.2990    0.0000 C   0  0  0  0  0  0  0  0  0  0  0  0
    1.5000    0.0000    0.0000 C   0  0  0  0  0  0  0  0  0  0  0  0
    0.7500    1.2990    0.0000 C   0  0  0  0  0  0  0  0  0  0  0  0
   -0.7500    1.2990    0.0000 C   0  0  0  0  0  0  0  0  0  0  0  0
   -1.5000    0.0000    0.0000 C   0  0  0  0  0  0  0  0  0  0  0  0
   -0.7500   -1.2990    0.0000 C   0  0  0  0  0  0  0  0  0  0  0  0
   -2.1015   -1.9499    0.0000 C   0  0  0  0  0  0  0  0  0  0  0  0
   -2.6495   -0.5536    0.0000 C   0  0  0  0  0  0  0  0  0  0  0  0
   -4.1327   -0.3300    0.0000 C   0  0  0  0  0  0  0  0  0  0  0  0
   -5.0679   -1.5027    0.0000 C   0  0  0  0  0  0  0  0  0  0  0  0
   -4.5199   -2.8990    0.0000 C   0  0  0  0  0  0  0  0  0  0  0  0
   -3.0367   -3.1226    0.0000 C   0  0  0  0  0  0  0  0  0  0  0  0
   -3.3705   -4.5850    0.0000 C   0  0  0  0  0  0  0  0  0  0  0  0
   -4.8038   -4.1429    0.0000 C   0  0  0  0  0  0  0  0  0  0  0  0
   -5.9034   -5.1631    0.0000 C   0  0  0  0  0  0  0  0  0  0  0  0
   -5.5696   -6.6255    0.0000 C   0  0  0  0  0  0  0  0  0  0  0  0
   -4.1363   -7.0677    0.0000 C   0  0  0  0  0  0  0  0  0  0  0  0
   -3.0367   -6.0474    0.0000 C   0  0  0  0  0  0  0  0  0  0  0  0
   -2.1015   -7.2201    0.0000 C   0  0  0  0  0  0  0  0  0  0  0  0
   -3.3408   -8.0651    0.0000 C   0  0  0  0  0  0  0  0  0  0  0  0
   -3.2287   -9.5609    0.0000 C   0  0  0  0  0  0  0  0  0  0  0  0
   -1.8773  -10.2118    0.0000 C   0  0  0  0  0  0  0  0  0  0  0  0
   -0.6379   -9.3668    0.0000 C   0  0  0  0  0  0  0  0  0  0  0  0
   -0.7500   -7.8710    0.0000 C   0  0  0  0  0  0  0  0  0  0  0  0
    0.7500   -7.8710    0.0000 C   0  0  0  0  0  0  0  0  0  0  0  0
    0.6379   -9.3668    0.0000 C   0  0  0  0  0  0  0  0  0  0  0  0
    1.8773  -10.2118    0.0000 C   0  0  0  0  0  0  0  0  0  0  0  0
    3.2287   -9.5609    0.0000 C   0  0  0  0  0  0  0  0  0  0  0  0
    3.3408   -8.0651    0.0000 C   0  0  0  0  0  0  0  0  0  0  0  0
    2.1015   -7.2201    0.0000 C   0  0  0  0  0  0  0  0  0  0  0  0
  1  2  1  0
  2  3  2  0
  3  4  1  0
  4  5  2  0
  5  6  1  0
  6  7  2  0
  6  8  1  0
  8  9  1  0
  9 10  2  0
 10 11  1  0
 11 12  2  0
 12 13  1  0
 13 14  2  0
  5 15  1  0
 15 16  2  0
 16 17  1  0
 17 18  2  0
 18 19  1  0
 19 20  2  0
 20 21  1  0
 21 22  2  0
 22 23  1  0
 23 24  2  0
 24 25  1  0
 25 26  2  0
 26 27  1  0
 27 28  2  0
 28 29  1  0
 29 30  2  0
 30 31  1  0
 31 32  2  0
 32 33  1  0
 33 34  2  0
 34 35  1  0
 35 36  2  0
 36 37  1  0
 37 38  2  0
 38 39  1  0
 39 40  2  0
 40 41  1  0
 41 42  2  0
 42 43  1  0
 43 44  2  0
 44  2  1  0
 14  9  1  0
 20 15  1  0
 26 21  1  0
 32 27  1  0
 38 33  1  0
 44 39  1  0
M  END
>  <Title>  (545) 
idAATEgen7

$$$$

     RDKit          2D

 15 15  0  0  0  0  0  0  0  0999 V2000
    4.8705    0.0000    0.0000 C   0  0  0  0  0  0  0  0  0  0  0  0
    3.3705    0.0000    0.0000 C   0  0  0  0  0  0  0  0  0  0  0  0
    3.0367   -1.4624    0.0000 C   0  0  0  0  0  0  0  0  0  0  0  0
    2.1015   -2.6351    0.0000 C   0  0  0  0  0  0  0  0  0  0  0  0
    0.7500   -3.2860    0.0000 C   0  0  0  0  0  0  0  0  0  0  0  0
   -0.7500   -3.2860    0.0000 C   0  0  0  0  0  0  0  0  0  0  0  0
   -2.1015   -2.6351    0.0000 C   0  0  0  0  0  0  0  0  0  0  0  0
   -3.0367   -1.4624    0.0000 C   0  0  0  0  0  0  0  0  0  0  0  0
   -3.3705    0.0000    0.0000 C   0  0  0  0  0  0  0  0  0  0  0  0
   -3.0367    1.4624    0.0000 C   0  0  0  0  0  0  0  0  0  0  0  0
   -2.1015    2.6351    0.0000 C   0  0  0  0  0  0  0  0  0  0  0  0
   -0.7500    3.2860    0.0000 C   0  0  0  0  0  0  0  0  0  0  0  0
    0.7500    3.2860    0.0000 C   0  0  0  0  0  0  0  0  0  0  0  0
    2.1015    2.6351    0.0000 C   0  0  0  0  0  0  0  0  0  0  0  0
    3.0367    1.4624    0.0000 C   0  0  0  0  0  0  0  0  0  0  0  0
  1  2  1  0
  2  3  1  0
  3  4  1  0
  4  5  2  0
  5  6  1  0
  6  7  2  0
  7  8  1  0
  8  9  1  0
  9 10  1  0
 10 11  1  0
 11 12  1  0
 12 13  1  0
 13 14  1  0
 14 15  1  0
 15  2  1  0
M  END
>  <Title>  (546) 
idAATFgen7

$$$$

     RDKit          2D

 32 32  0  0  0  0  0  0  0  0999 V2000
    8.9134    0.0000    0.0000 C   0  0  0  0  0  0  0  0  0  0  0  0
    7.4134    0.0000    0.0000 C   0  0  0  0  0  0  0  0  0  0  0  0
    7.2616    1.4923    0.0000 C   0  0  0  0  0  0  0  0  0  0  0  0
    6.8126    2.9235    0.0000 C   0  0  0  0  0  0  0  0  0  0  0  0
    6.0846    4.2350    0.0000 C   0  0  0  0  0  0  0  0  0  0  0  0
    5.1076    5.3732    0.0000 C   0  0  0  0  0  0  0  0  0  0  0  0
    3.9214    6.2913    0.0000 C   0  0  0  0  0  0  0  0  0  0  0  0
    2.5747    6.9519    0.0000 C   0  0  0  0  0  0  0  0  0  0  0  0
    1.1226    7.3279    0.0000 C   0  0  0  0  0  0  0  0  0  0  0  0
   -0.3755    7.4039    0.0000 C   0  0  0  0  0  0  0  0  0  0  0  0
   -1.8582    7.1767    0.0000 C   0  0  0  0  0  0  0  0  0  0  0  0
   -3.2648    6.6558    0.0000 C   0  0  0  0  0  0  0  0  0  0  0  0
   -4.5378    5.8623    0.0000 C   0  0  0  0  0  0  0  0  0  0  0  0
   -5.6250    4.8289    0.0000 C   0  0  0  0  0  0  0  0  0  0  0  0
   -6.4819    3.5977    0.0000 C   0  0  0  0  0  0  0  0  0  0  0  0
   -7.0734    2.2193    0.0000 C   0  0  0  0  0  0  0  0  0  0  0  0
   -7.3754    0.7500    0.0000 C   0  0  0  0  0  0  0  0  0  0  0  0
   -7.3754   -0.7500    0.0000 C   0  0  0  0  0  0  0  0  0  0  0  0
   -7.0734   -2.2193    0.0000 C   0  0  0  0  0  0  0  0  0  0  0  0
   -6.4819   -3.5977    0.0000 C   0  0  0  0  0  0  0  0  0  0  0  0
   -5.6250   -4.8289    0.0000 C   0  0  0  0  0  0  0  0  0  0  0  0
   -4.5378   -5.8623    0.0000 C   0  0  0  0  0  0  0  0  0  0  0  0
   -3.2648   -6.6558    0.0000 C   0  0  0  0  0  0  0  0  0  0  0  0
   -1.8582   -7.1767    0.0000 C   0  0  0  0  0  0  0  0  0  0  0  0
   -0.3755   -7.4039    0.0000 C   0  0  0  0  0  0  0  0  0  0  0  0
    1.1226   -7.3279    0.0000 C   0  0  0  0  0  0  0  0  0  0  0  0
    2.5747   -6.9519    0.0000 C   0  0  0  0  0  0  0  0  0  0  0  0
    3.9214   -6.2913    0.0000 C   0  0  0  0  0  0  0  0  0  0  0  0
    5.1076   -5.3732    0.0000 C   0  0  0  0  0  0  0  0  0  0  0  0
    6.0846   -4.2350    0.0000 C   0  0  0  0  0  0  0  0  0  0  0  0
    6.8126   -2.9235    0.0000 C   0  0  0  0  0  0  0  0  0  0  0  0
    7.2616   -1.4923    0.0000 C   0  0  0  0  0  0  0  0  0  0  0  0
  1  2  1  0
  2  3  1  0
  3  4  1  0
  4  5  2  0
  5  6  1  0
  6  7  1  0
  7  8  1  0
  8  9  1  0
  9 10  1  0
 10 11  1  0
 11 12  1  0
 12 13  1  0
 13 14  1  0
 14 15  1  0
 15 16  1  0
 16 17  1  0
 17 18  1  0
 18 19  1  0
 19 20  1  0
 20 21  1  0
 21 22  1  0
 22 23  1  0
 23 24  1  0
 24 25  1  0
 25 26  1  0
 26 27  1  0
 27 28  1  0
 28 29  1  0
 29 30  1  0
 30 31  1  0
 31 32  1  0
 32  2  1  0
M  END
>  <Title>  (547) 
idAATGgen7

$$$$

     RDKit          2D

 21 23  0  0  0  0  0  0  0  0999 V2000
   -3.0000   -2.5981    0.0000 C   0  0  0  0  0  0  0  0  0  0  0  0
   -1.5000   -2.5981    0.0000 C   0  0  0  0  0  0  0  0  0  0  0  0
   -0.7500   -3.8971    0.0000 C   0  0  0  0  0  0  0  0  0  0  0  0
    0.7500   -3.8971    0.0000 C   0  0  0  0  0  0  0  0  0  0  0  0
    1.5000   -2.5981    0.0000 C   0  0  0  0  0  0  0  0  0  0  0  0
    3.0000   -2.5981    0.0000 C   0  0  0  0  0  0  0  0  0  0  0  0
    3.7500   -3.8971    0.0000 C   0  0  0  0  0  0  0  0  0  0  0  0
    3.0000   -5.1962    0.0000 O   0  0  0  0  0  0  0  0  0  0  0  0
    5.2500   -3.8971    0.0000 N   0  0  0  0  0  0  0  0  0  0  0  0
    6.0000   -5.1962    0.0000 C   0  0  0  0  0  0  0  0  0  0  0  0
    5.2500   -6.4952    0.0000 N   0  0  0  0  0  0  0  0  0  0  0  0
    6.0000   -7.7942    0.0000 N   0  0  0  0  0  0  0  0  0  0  0  0
    7.5000   -7.7942    0.0000 N   0  0  0  0  0  0  0  0  0  0  0  0
    8.2500   -6.4952    0.0000 N   0  0  0  0  0  0  0  0  0  0  0  0
    7.5000   -5.1962    0.0000 N   0  0  0  0  0  0  0  0  0  0  0  0
    0.7500   -1.2990    0.0000 C   0  0  0  0  0  0  0  0  0  0  0  0
    1.5000    0.0000    0.0000 C   0  0  0  0  0  0  0  0  0  0  0  0
    0.7500    1.2990    0.0000 C   0  0  0  0  0  0  0  0  0  0  0  0
   -0.7500    1.2990    0.0000 C   0  0  0  0  0  0  0  0  0  0  0  0
   -1.5000    0.0000    0.0000 C   0  0  0  0  0  0  0  0  0  0  0  0
   -0.7500   -1.2990    0.0000 C   0  0  0  0  0  0  0  0  0  0  0  0
  1  2  1  0
  2  3  1  0
  3  4  1  0
  4  5  1  0
  5  6  1  0
  6  7  1  0
  7  8  2  0
  7  9  1  0
  9 10  1  0
 10 11  2  0
 11 12  1  0
 12 13  2  0
 13 14  1  0
 14 15  2  0
  5 16  1  0
 16 17  2  0
 17 18  1  0
 18 19  2  0
 19 20  1  0
 20 21  2  0
 21  2  1  0
 15 10  1  0
 21 16  1  0
M  END
>  <Title>  (548) 
idAATHgen7

$$$$

     RDKit          2D

 11 12  0  0  0  0  0  0  0  0999 V2000
    2.7760    0.0000    0.0000 O   0  0  0  0  0  0  0  0  0  0  0  0
    1.2760    0.0000    0.0000 C   0  0  0  0  0  0  0  0  0  0  0  0
    0.3943    1.2135    0.0000 C   0  0  0  0  0  0  0  0  0  0  0  0
   -1.0323    0.7500    0.0000 C   0  0  0  0  0  0  0  0  0  0  0  0
   -1.0323   -0.7500    0.0000 C   0  0  0  0  0  0  0  0  0  0  0  0
    0.3943   -1.2135    0.0000 C   0  0  0  0  0  0  0  0  0  0  0  0
    0.8578   -2.6401    0.0000 C   0  0  0  0  0  0  0  0  0  0  0  0
    2.2844   -3.1036    0.0000 C   0  0  0  0  0  0  0  0  0  0  0  0
    2.2844   -4.6036    0.0000 C   0  0  0  0  0  0  0  0  0  0  0  0
    0.8578   -5.0672    0.0000 C   0  0  0  0  0  0  0  0  0  0  0  0
   -0.0239   -3.8536    0.0000 C   0  0  0  0  0  0  0  0  0  0  0  0
  1  2  1  0
  2  3  2  0
  3  4  1  0
  4  5  1  0
  5  6  1  0
  6  7  1  0
  7  8  2  0
  8  9  1  0
  9 10  1  0
 10 11  1  0
  6  2  1  0
 11  7  1  0
M  END
>  <Title>  (549) 
idAATIgen7

$$$$

     RDKit          2D

  6  6  0  0  0  0  0  0  0  0999 V2000
    2.7760    0.0000    0.0000 O   0  0  0  0  0  0  0  0  0  0  0  0
    1.2760    0.0000    0.0000 C   0  0  0  0  0  0  0  0  0  0  0  0
    0.3943    1.2135    0.0000 C   0  0  0  0  0  0  0  0  0  0  0  0
   -1.0323    0.7500    0.0000 C   0  0  0  0  0  0  0  0  0  0  0  0
   -1.0323   -0.7500    0.0000 C   0  0  0  0  0  0  0  0  0  0  0  0
    0.3943   -1.2135    0.0000 C   0  0  0  0  0  0  0  0  0  0  0  0
  1  2  2  0
  2  3  1  0
  3  4  2  0
  4  5  1  0
  5  6  2  0
  6  2  1  0
M  END
>  <Title>  (550) 
idAATJgen7

$$$$

     RDKit          2D

  9  9  0  0  0  0  0  0  0  0999 V2000
    4.2760   -2.5981    0.0000 N   0  0  0  0  0  0  0  0  0  0  0  0
    3.5260   -1.2990    0.0000 C   0  0  0  0  0  0  0  0  0  0  0  0
    2.7760    0.0000    0.0000 C   0  0  0  0  0  0  0  0  0  0  0  0
    3.5260    1.2990    0.0000 O   0  0  0  0  0  0  0  0  0  0  0  0
    1.2760    0.0000    0.0000 C   0  0  0  0  0  0  0  0  0  0  0  0
    0.3943    1.2135    0.0000 C   0  0  0  0  0  0  0  0  0  0  0  0
   -1.0323    0.7500    0.0000 C   0  0  0  0  0  0  0  0  0  0  0  0
   -1.0323   -0.7500    0.0000 C   0  0  0  0  0  0  0  0  0  0  0  0
    0.3943   -1.2135    0.0000 C   0  0  0  0  0  0  0  0  0  0  0  0
  1  2  3  0
  2  3  1  0
  3  4  2  0
  3  5  1  0
  5  6  2  0
  6  7  1  0
  7  8  1  0
  8  9  1  0
  9  5  1  0
M  END
>  <Title>  (551) 
idAATKgen7

$$$$

     RDKit          2D

 19 21  0  0  0  0  0  0  0  0999 V2000
    3.0000   -2.5981    0.0000 O   0  0  0  0  0  0  0  0  0  0  0  0
    1.5000   -2.5981    0.0000 C   0  0  0  0  0  0  0  0  0  0  0  0
    0.7500   -3.8971    0.0000 C   0  0  0  0  0  0  0  0  0  0  0  0
    1.5000   -5.1962    0.0000 C   0  0  0  0  0  0  0  0  0  0  0  0
    2.9918   -5.3529    0.0000 C   0  0  0  0  0  0  0  0  0  0  0  0
    3.3037   -6.8202    0.0000 C   0  0  0  0  0  0  0  0  0  0  0  0
    2.0046   -7.5702    0.0000 C   0  0  0  0  0  0  0  0  0  0  0  0
    0.8899   -6.5665    0.0000 C   0  0  0  0  0  0  0  0  0  0  0  0
    0.7500   -1.2990    0.0000 N   0  0  0  0  0  0  0  0  0  0  0  0
    1.5000    0.0000    0.0000 C   0  0  0  0  0  0  0  0  0  0  0  0
    0.7500    1.2990    0.0000 C   0  0  0  0  0  0  0  0  0  0  0  0
   -0.7500    1.2990    0.0000 C   0  0  0  0  0  0  0  0  0  0  0  0
   -1.5000    2.5981    0.0000 N   0  0  0  0  0  0  0  0  0  0  0  0
   -2.9918    2.7549    0.0000 C   0  0  0  0  0  0  0  0  0  0  0  0
   -3.3037    4.2221    0.0000 C   0  0  0  0  0  0  0  0  0  0  0  0
   -2.0046    4.9721    0.0000 C   0  0  0  0  0  0  0  0  0  0  0  0
   -0.8899    3.9684    0.0000 C   0  0  0  0  0  0  0  0  0  0  0  0
   -1.5000    0.0000    0.0000 C   0  0  0  0  0  0  0  0  0  0  0  0
   -0.7500   -1.2990    0.0000 C   0  0  0  0  0  0  0  0  0  0  0  0
  1  2  2  0
  2  3  1  0
  3  4  1  0
  4  5  2  0
  5  6  1  0
  6  7  1  0
  7  8  1  0
  2  9  1  0
  9 10  1  0
 10 11  1  0
 11 12  1  0
 12 13  1  0
 13 14  1  0
 14 15  1  0
 15 16  1  0
 16 17  1  0
 12 18  1  0
 18 19  1  0
  8  4  1  0
 19  9  1  0
 17 13  1  0
M  END
>  <Title>  (552) 
idAATLgen7

$$$$

     RDKit          2D

 39 39  0  0  0  0  0  0  0  0999 V2000
    9.1868   -1.2990    0.0000 C   0  0  0  0  0  0  0  0  0  0  0  0
    8.4368    0.0000    0.0000 C   0  0  0  0  0  0  0  0  0  0  0  0
    6.9368    0.0000    0.0000 C   0  0  0  0  0  0  0  0  0  0  0  0
    6.7746    1.4912    0.0000 C   0  0  0  0  0  0  0  0  0  0  0  0
    6.2957    2.9127    0.0000 C   0  0  0  0  0  0  0  0  0  0  0  0
    5.5223    4.1980    0.0000 C   0  0  0  0  0  0  0  0  0  0  0  0
    4.4908    5.2870    0.0000 C   0  0  0  0  0  0  0  0  0  0  0  0
    3.2493    6.1287    0.0000 C   0  0  0  0  0  0  0  0  0  0  0  0
    1.8558    6.6840    0.0000 C   0  0  0  0  0  0  0  0  0  0  0  0
    0.3756    6.9266    0.0000 C   0  0  0  0  0  0  0  0  0  0  0  0
   -1.1222    6.8454    0.0000 C   0  0  0  0  0  0  0  0  0  0  0  0
   -2.5676    6.4441    0.0000 C   0  0  0  0  0  0  0  0  0  0  0  0
   -3.8928    5.7415    0.0000 C   0  0  0  0  0  0  0  0  0  0  0  0
   -5.0361    4.7704    0.0000 C   0  0  0  0  0  0  0  0  0  0  0  0
   -5.9438    3.5763    0.0000 C   0  0  0  0  0  0  0  0  0  0  0  0
   -6.5737    2.2149    0.0000 C   0  0  0  0  0  0  0  0  0  0  0  0
   -6.8961    0.7500    0.0000 C   0  0  0  0  0  0  0  0  0  0  0  0
   -6.8961   -0.7500    0.0000 C   0  0  0  0  0  0  0  0  0  0  0  0
   -6.5737   -2.2149    0.0000 C   0  0  0  0  0  0  0  0  0  0  0  0
   -5.9438   -3.5763    0.0000 C   0  0  0  0  0  0  0  0  0  0  0  0
   -5.0361   -4.7704    0.0000 C   0  0  0  0  0  0  0  0  0  0  0  0
   -3.8928   -5.7415    0.0000 C   0  0  0  0  0  0  0  0  0  0  0  0
   -2.5676   -6.4441    0.0000 C   0  0  0  0  0  0  0  0  0  0  0  0
   -1.1222   -6.8454    0.0000 C   0  0  0  0  0  0  0  0  0  0  0  0
    0.3756   -6.9266    0.0000 C   0  0  0  0  0  0  0  0  0  0  0  0
    1.8558   -6.6840    0.0000 C   0  0  0  0  0  0  0  0  0  0  0  0
    2.2571   -8.1293    0.0000 C   0  0  0  0  0  0  0  0  0  0  0  0
    3.2493   -6.1287    0.0000 C   0  0  0  0  0  0  0  0  0  0  0  0
    4.4908   -5.2870    0.0000 C   0  0  0  0  0  0  0  0  0  0  0  0
    5.5223   -4.1980    0.0000 C   0  0  0  0  0  0  0  0  0  0  0  0
    6.7165   -5.1057    0.0000 N   0  0  0  0  0  0  0  0  0  0  0  0
    6.5274   -6.5938    0.0000 C   0  0  0  0  0  0  0  0  0  0  0  0
    5.1442   -7.1740    0.0000 O   0  0  0  0  0  0  0  0  0  0  0  0
    7.7215   -7.5015    0.0000 C   0  0  0  0  0  0  0  0  0  0  0  0
    7.5325   -8.9896    0.0000 N   0  0  0  0  0  0  0  0  0  0  0  0
    8.7266   -9.8973    0.0000 C   0  0  0  0  0  0  0  0  0  0  0  0
    6.1493   -9.5698    0.0000 C   0  0  0  0  0  0  0  0  0  0  0  0
    6.2957   -2.9127    0.0000 C   0  0  0  0  0  0  0  0  0  0  0  0
    6.7746   -1.4912    0.0000 C   0  0  0  0  0  0  0  0  0  0  0  0
  1  2  1  0
  2  3  1  0
  3  4  1  0
  4  5  1  0
  5  6  1  0
  6  7  1  0
  7  8  1  0
  8  9  1  0
  9 10  1  0
 10 11  1  0
 11 12  1  0
 12 13  1  0
 13 14  1  0
 14 15  1  0
 15 16  1  0
 16 17  2  0
 17 18  1  0
 18 19  1  0
 19 20  1  0
 20 21  1  0
 21 22  1  0
 22 23  1  0
 23 24  1  0
 24 25  1  0
 25 26  1  0
 26 27  1  0
 26 28  1  0
 28 29  2  0
 29 30  1  0
 30 31  1  0
 31 32  1  0
 32 33  2  0
 32 34  1  0
 34 35  1  0
 35 36  1  0
 35 37  1  0
 30 38  1  0
 38 39  1  0
 39  3  1  0
M  END
>  <Title>  (553) 
idAATMgen7

$$$$

     RDKit          2D

 30 30  0  0  0  0  0  0  0  0999 V2000
    8.4368    0.0000    0.0000 C   0  0  0  0  0  0  0  0  0  0  0  0
    6.9368    0.0000    0.0000 C   0  0  0  0  0  0  0  0  0  0  0  0
    6.7746    1.4912    0.0000 C   0  0  0  0  0  0  0  0  0  0  0  0
    6.2957    2.9127    0.0000 C   0  0  0  0  0  0  0  0  0  0  0  0
    5.5223    4.1980    0.0000 C   0  0  0  0  0  0  0  0  0  0  0  0
    4.4908    5.2870    0.0000 C   0  0  0  0  0  0  0  0  0  0  0  0
    3.2493    6.1287    0.0000 C   0  0  0  0  0  0  0  0  0  0  0  0
    1.8558    6.6840    0.0000 C   0  0  0  0  0  0  0  0  0  0  0  0
    0.3756    6.9266    0.0000 C   0  0  0  0  0  0  0  0  0  0  0  0
   -1.1222    6.8454    0.0000 C   0  0  0  0  0  0  0  0  0  0  0  0
   -2.5676    6.4441    0.0000 C   0  0  0  0  0  0  0  0  0  0  0  0
   -3.8928    5.7415    0.0000 C   0  0  0  0  0  0  0  0  0  0  0  0
   -5.0361    4.7704    0.0000 C   0  0  0  0  0  0  0  0  0  0  0  0
   -5.9438    3.5763    0.0000 C   0  0  0  0  0  0  0  0  0  0  0  0
   -6.5737    2.2149    0.0000 C   0  0  0  0  0  0  0  0  0  0  0  0
   -6.8961    0.7500    0.0000 C   0  0  0  0  0  0  0  0  0  0  0  0
   -6.8961   -0.7500    0.0000 C   0  0  0  0  0  0  0  0  0  0  0  0
   -6.5737   -2.2149    0.0000 C   0  0  0  0  0  0  0  0  0  0  0  0
   -5.9438   -3.5763    0.0000 C   0  0  0  0  0  0  0  0  0  0  0  0
   -5.0361   -4.7704    0.0000 C   0  0  0  0  0  0  0  0  0  0  0  0
   -3.8928   -5.7415    0.0000 C   0  0  0  0  0  0  0  0  0  0  0  0
   -2.5676   -6.4441    0.0000 C   0  0  0  0  0  0  0  0  0  0  0  0
   -1.1222   -6.8454    0.0000 C   0  0  0  0  0  0  0  0  0  0  0  0
    0.3756   -6.9266    0.0000 C   0  0  0  0  0  0  0  0  0  0  0  0
    1.8558   -6.6840    0.0000 C   0  0  0  0  0  0  0  0  0  0  0  0
    3.2493   -6.1287    0.0000 C   0  0  0  0  0  0  0  0  0  0  0  0
    4.4908   -5.2870    0.0000 C   0  0  0  0  0  0  0  0  0  0  0  0
    5.5223   -4.1980    0.0000 C   0  0  0  0  0  0  0  0  0  0  0  0
    6.2957   -2.9127    0.0000 C   0  0  0  0  0  0  0  0  0  0  0  0
    6.7746   -1.4912    0.0000 C   0  0  0  0  0  0  0  0  0  0  0  0
  1  2  1  0
  2  3  1  0
  3  4  1  0
  4  5  2  0
  5  6  1  0
  6  7  2  0
  7  8  1  0
  8  9  1  0
  9 10  1  0
 10 11  1  0
 11 12  1  0
 12 13  1  0
 13 14  1  0
 14 15  1  0
 15 16  1  0
 16 17  1  0
 17 18  1  0
 18 19  1  0
 19 20  1  0
 20 21  1  0
 21 22  1  0
 22 23  1  0
 23 24  1  0
 24 25  1  0
 25 26  1  0
 26 27  1  0
 27 28  1  0
 28 29  1  0
 29 30  1  0
 30  2  1  0
M  END
>  <Title>  (554) 
idAATNgen7

$$$$

     RDKit          2D

 71 71  0  0  0  0  0  0  0  0999 V2000
   18.2169    0.0000    0.0000 C   0  0  0  0  0  0  0  0  0  0  0  0
   16.7169    0.0000    0.0000 C   0  0  0  0  0  0  0  0  0  0  0  0
   16.6496   -1.4985    0.0000 C   0  0  0  0  0  0  0  0  0  0  0  0
   16.4482   -2.9849    0.0000 C   0  0  0  0  0  0  0  0  0  0  0  0
   16.1145   -4.4473    0.0000 C   0  0  0  0  0  0  0  0  0  0  0  0
   15.6509   -5.8739    0.0000 C   0  0  0  0  0  0  0  0  0  0  0  0
   15.0614   -7.2532    0.0000 C   0  0  0  0  0  0  0  0  0  0  0  0
   14.3506   -8.5741    0.0000 C   0  0  0  0  0  0  0  0  0  0  0  0
   13.5242   -9.8259    0.0000 C   0  0  0  0  0  0  0  0  0  0  0  0
   12.5890  -10.9987    0.0000 C   0  0  0  0  0  0  0  0  0  0  0  0
   11.5524  -12.0829    0.0000 C   0  0  0  0  0  0  0  0  0  0  0  0
   10.4228  -13.0698    0.0000 C   0  0  0  0  0  0  0  0  0  0  0  0
    9.2093  -13.9515    0.0000 C   0  0  0  0  0  0  0  0  0  0  0  0
    7.9216  -14.7208    0.0000 C   0  0  0  0  0  0  0  0  0  0  0  0
    6.5702  -15.3716    0.0000 C   0  0  0  0  0  0  0  0  0  0  0  0
    5.1658  -15.8987    0.0000 C   0  0  0  0  0  0  0  0  0  0  0  0
    3.7199  -16.2978    0.0000 C   0  0  0  0  0  0  0  0  0  0  0  0
    2.2440  -16.5656    0.0000 C   0  0  0  0  0  0  0  0  0  0  0  0
    0.7500  -16.7000    0.0000 C   0  0  0  0  0  0  0  0  0  0  0  0
   -0.7500  -16.7000    0.0000 C   0  0  0  0  0  0  0  0  0  0  0  0
   -2.2440  -16.5656    0.0000 C   0  0  0  0  0  0  0  0  0  0  0  0
   -3.7199  -16.2978    0.0000 C   0  0  0  0  0  0  0  0  0  0  0  0
   -5.1658  -15.8987    0.0000 C   0  0  0  0  0  0  0  0  0  0  0  0
   -6.5702  -15.3716    0.0000 C   0  0  0  0  0  0  0  0  0  0  0  0
   -7.9216  -14.7208    0.0000 C   0  0  0  0  0  0  0  0  0  0  0  0
   -9.2093  -13.9515    0.0000 C   0  0  0  0  0  0  0  0  0  0  0  0
  -10.4228  -13.0698    0.0000 C   0  0  0  0  0  0  0  0  0  0  0  0
  -11.5524  -12.0829    0.0000 C   0  0  0  0  0  0  0  0  0  0  0  0
  -12.5890  -10.9987    0.0000 C   0  0  0  0  0  0  0  0  0  0  0  0
  -13.5242   -9.8259    0.0000 C   0  0  0  0  0  0  0  0  0  0  0  0
  -14.3506   -8.5741    0.0000 C   0  0  0  0  0  0  0  0  0  0  0  0
  -15.0614   -7.2532    0.0000 C   0  0  0  0  0  0  0  0  0  0  0  0
  -15.6509   -5.8739    0.0000 C   0  0  0  0  0  0  0  0  0  0  0  0
  -16.1145   -4.4473    0.0000 C   0  0  0  0  0  0  0  0  0  0  0  0
  -16.4482   -2.9849    0.0000 C   0  0  0  0  0  0  0  0  0  0  0  0
  -16.6496   -1.4985    0.0000 C   0  0  0  0  0  0  0  0  0  0  0  0
  -16.7169    0.0000    0.0000 C   0  0  0  0  0  0  0  0  0  0  0  0
  -16.6496    1.4985    0.0000 C   0  0  0  0  0  0  0  0  0  0  0  0
  -16.4482    2.9849    0.0000 C   0  0  0  0  0  0  0  0  0  0  0  0
  -16.1145    4.4473    0.0000 C   0  0  0  0  0  0  0  0  0  0  0  0
  -15.6509    5.8739    0.0000 C   0  0  0  0  0  0  0  0  0  0  0  0
  -15.0614    7.2532    0.0000 C   0  0  0  0  0  0  0  0  0  0  0  0
  -14.3506    8.5741    0.0000 C   0  0  0  0  0  0  0  0  0  0  0  0
  -13.5242    9.8259    0.0000 C   0  0  0  0  0  0  0  0  0  0  0  0
  -12.5890   10.9987    0.0000 C   0  0  0  0  0  0  0  0  0  0  0  0
  -11.5524   12.0829    0.0000 C   0  0  0  0  0  0  0  0  0  0  0  0
  -10.4228   13.0698    0.0000 C   0  0  0  0  0  0  0  0  0  0  0  0
   -9.2093   13.9515    0.0000 C   0  0  0  0  0  0  0  0  0  0  0  0
   -7.9216   14.7208    0.0000 C   0  0  0  0  0  0  0  0  0  0  0  0
   -6.5702   15.3716    0.0000 C   0  0  0  0  0  0  0  0  0  0  0  0
   -5.1658   15.8987    0.0000 C   0  0  0  0  0  0  0  0  0  0  0  0
   -3.7199   16.2978    0.0000 C   0  0  0  0  0  0  0  0  0  0  0  0
   -2.2440   16.5656    0.0000 C   0  0  0  0  0  0  0  0  0  0  0  0
   -0.7500   16.7000    0.0000 C   0  0  0  0  0  0  0  0  0  0  0  0
    0.7500   16.7000    0.0000 C   0  0  0  0  0  0  0  0  0  0  0  0
    2.2440   16.5656    0.0000 C   0  0  0  0  0  0  0  0  0  0  0  0
    3.7199   16.2978    0.0000 C   0  0  0  0  0  0  0  0  0  0  0  0
    5.1658   15.8987    0.0000 C   0  0  0  0  0  0  0  0  0  0  0  0
    6.5702   15.3716    0.0000 C   0  0  0  0  0  0  0  0  0  0  0  0
    7.9216   14.7208    0.0000 C   0  0  0  0  0  0  0  0  0  0  0  0
    9.2093   13.9515    0.0000 C   0  0  0  0  0  0  0  0  0  0  0  0
   10.4228   13.0698    0.0000 C   0  0  0  0  0  0  0  0  0  0  0  0
   11.5524   12.0829    0.0000 C   0  0  0  0  0  0  0  0  0  0  0  0
   12.5890   10.9987    0.0000 C   0  0  0  0  0  0  0  0  0  0  0  0
   13.5242    9.8259    0.0000 C   0  0  0  0  0  0  0  0  0  0  0  0
   14.3506    8.5741    0.0000 C   0  0  0  0  0  0  0  0  0  0  0  0
   15.0614    7.2532    0.0000 C   0  0  0  0  0  0  0  0  0  0  0  0
   15.6509    5.8739    0.0000 C   0  0  0  0  0  0  0  0  0  0  0  0
   16.1145    4.4473    0.0000 C   0  0  0  0  0  0  0  0  0  0  0  0
   16.4482    2.9849    0.0000 C   0  0  0  0  0  0  0  0  0  0  0  0
   16.6496    1.4985    0.0000 C   0  0  0  0  0  0  0  0  0  0  0  0
  1  2  1  0
  2  3  1  0
  3  4  1  0
  4  5  1  0
  5  6  1  0
  6  7  1  0
  7  8  1  0
  8  9  1  0
  9 10  1  0
 10 11  1  0
 11 12  1  0
 12 13  1  0
 13 14  1  0
 14 15  1  0
 15 16  1  0
 16 17  1  0
 17 18  1  0
 18 19  1  0
 19 20  1  0
 20 21  1  0
 21 22  1  0
 22 23  1  0
 23 24  1  0
 24 25  1  0
 25 26  1  0
 26 27  1  0
 27 28  1  0
 28 29  1  0
 29 30  1  0
 30 31  2  0
 31 32  1  0
 32 33  2  0
 33 34  1  0
 34 35  2  0
 35 36  1  0
 36 37  2  0
 37 38  1  0
 38 39  2  0
 39 40  1  0
 40 41  1  0
 41 42  1  0
 42 43  1  0
 43 44  1  0
 44 45  1  0
 45 46  1  0
 46 47  1  0
 47 48  1  0
 48 49  1  0
 49 50  1  0
 50 51  1  0
 51 52  1  0
 52 53  1  0
 53 54  1  0
 54 55  1  0
 55 56  1  0
 56 57  1  0
 57 58  1  0
 58 59  1  0
 59 60  1  0
 60 61  1  0
 61 62  1  0
 62 63  1  0
 63 64  1  0
 64 65  1  0
 65 66  1  0
 66 67  1  0
 67 68  1  0
 68 69  1  0
 69 70  1  0
 70 71  1  0
 71  2  1  0
M  END
>  <Title>  (555) 
idAATOgen7

$$$$

     RDKit          2D

115115  0  0  0  0  0  0  0  0999 V2000
   28.7189    0.0000    0.0000 C   0  0  0  0  0  0  0  0  0  0  0  0
   27.2189    0.0000    0.0000 C   0  0  0  0  0  0  0  0  0  0  0  0
   27.1776   -1.4994    0.0000 C   0  0  0  0  0  0  0  0  0  0  0  0
   27.0537   -2.9943    0.0000 C   0  0  0  0  0  0  0  0  0  0  0  0
   26.8477   -4.4801    0.0000 C   0  0  0  0  0  0  0  0  0  0  0  0
   26.5601   -5.9523    0.0000 C   0  0  0  0  0  0  0  0  0  0  0  0
   26.1919   -7.4064    0.0000 C   0  0  0  0  0  0  0  0  0  0  0  0
   25.7441   -8.8380    0.0000 C   0  0  0  0  0  0  0  0  0  0  0  0
   25.2182  -10.2427    0.0000 C   0  0  0  0  0  0  0  0  0  0  0  0
   24.6156  -11.6164    0.0000 C   0  0  0  0  0  0  0  0  0  0  0  0
   23.9383  -12.9548    0.0000 C   0  0  0  0  0  0  0  0  0  0  0  0
   23.1883  -14.2538    0.0000 C   0  0  0  0  0  0  0  0  0  0  0  0
   22.3679  -15.5096    0.0000 C   0  0  0  0  0  0  0  0  0  0  0  0
   21.4796  -16.7182    0.0000 C   0  0  0  0  0  0  0  0  0  0  0  0
   20.5260  -17.8761    0.0000 C   0  0  0  0  0  0  0  0  0  0  0  0
   19.5101  -18.9797    0.0000 C   0  0  0  0  0  0  0  0  0  0  0  0
   18.4349  -20.0256    0.0000 C   0  0  0  0  0  0  0  0  0  0  0  0
   17.3037  -21.0108    0.0000 C   0  0  0  0  0  0  0  0  0  0  0  0
   16.1200  -21.9321    0.0000 C   0  0  0  0  0  0  0  0  0  0  0  0
   14.8873  -22.7868    0.0000 C   0  0  0  0  0  0  0  0  0  0  0  0
   13.6095  -23.5723    0.0000 C   0  0  0  0  0  0  0  0  0  0  0  0
   12.2903  -24.2862    0.0000 C   0  0  0  0  0  0  0  0  0  0  0  0
   10.9337  -24.9264    0.0000 C   0  0  0  0  0  0  0  0  0  0  0  0
    9.5440  -25.4908    0.0000 C   0  0  0  0  0  0  0  0  0  0  0  0
    8.1253  -25.9779    0.0000 C   0  0  0  0  0  0  0  0  0  0  0  0
    6.6819  -26.3860    0.0000 C   0  0  0  0  0  0  0  0  0  0  0  0
    5.2182  -26.7141    0.0000 C   0  0  0  0  0  0  0  0  0  0  0  0
    3.7386  -26.9610    0.0000 C   0  0  0  0  0  0  0  0  0  0  0  0
    2.2477  -27.1260    0.0000 C   0  0  0  0  0  0  0  0  0  0  0  0
    0.7500  -27.2086    0.0000 C   0  0  0  0  0  0  0  0  0  0  0  0
   -0.7500  -27.2086    0.0000 C   0  0  0  0  0  0  0  0  0  0  0  0
   -2.2477  -27.1260    0.0000 C   0  0  0  0  0  0  0  0  0  0  0  0
   -3.7386  -26.9610    0.0000 C   0  0  0  0  0  0  0  0  0  0  0  0
   -5.2182  -26.7141    0.0000 C   0  0  0  0  0  0  0  0  0  0  0  0
   -6.6819  -26.3860    0.0000 C   0  0  0  0  0  0  0  0  0  0  0  0
   -8.1253  -25.9779    0.0000 C   0  0  0  0  0  0  0  0  0  0  0  0
   -9.5440  -25.4908    0.0000 C   0  0  0  0  0  0  0  0  0  0  0  0
  -10.9337  -24.9264    0.0000 C   0  0  0  0  0  0  0  0  0  0  0  0
  -12.2903  -24.2862    0.0000 C   0  0  0  0  0  0  0  0  0  0  0  0
  -13.6095  -23.5723    0.0000 C   0  0  0  0  0  0  0  0  0  0  0  0
  -14.8873  -22.7868    0.0000 C   0  0  0  0  0  0  0  0  0  0  0  0
  -16.1200  -21.9321    0.0000 C   0  0  0  0  0  0  0  0  0  0  0  0
  -17.3037  -21.0108    0.0000 C   0  0  0  0  0  0  0  0  0  0  0  0
  -18.4349  -20.0256    0.0000 C   0  0  0  0  0  0  0  0  0  0  0  0
  -19.5101  -18.9797    0.0000 C   0  0  0  0  0  0  0  0  0  0  0  0
  -20.5260  -17.8761    0.0000 C   0  0  0  0  0  0  0  0  0  0  0  0
  -21.4796  -16.7182    0.0000 C   0  0  0  0  0  0  0  0  0  0  0  0
  -22.3679  -15.5096    0.0000 C   0  0  0  0  0  0  0  0  0  0  0  0
  -23.1883  -14.2538    0.0000 C   0  0  0  0  0  0  0  0  0  0  0  0
  -23.9383  -12.9548    0.0000 C   0  0  0  0  0  0  0  0  0  0  0  0
  -24.6156  -11.6164    0.0000 C   0  0  0  0  0  0  0  0  0  0  0  0
  -25.2182  -10.2427    0.0000 C   0  0  0  0  0  0  0  0  0  0  0  0
  -25.7441   -8.8380    0.0000 C   0  0  0  0  0  0  0  0  0  0  0  0
  -26.1919   -7.4064    0.0000 C   0  0  0  0  0  0  0  0  0  0  0  0
  -26.5601   -5.9523    0.0000 C   0  0  0  0  0  0  0  0  0  0  0  0
  -26.8477   -4.4801    0.0000 C   0  0  0  0  0  0  0  0  0  0  0  0
  -27.0537   -2.9943    0.0000 C   0  0  0  0  0  0  0  0  0  0  0  0
  -27.1776   -1.4994    0.0000 C   0  0  0  0  0  0  0  0  0  0  0  0
  -27.2189    0.0000    0.0000 C   0  0  0  0  0  0  0  0  0  0  0  0
  -27.1776    1.4994    0.0000 C   0  0  0  0  0  0  0  0  0  0  0  0
  -27.0537    2.9943    0.0000 C   0  0  0  0  0  0  0  0  0  0  0  0
  -26.8477    4.4801    0.0000 C   0  0  0  0  0  0  0  0  0  0  0  0
  -26.5601    5.9523    0.0000 C   0  0  0  0  0  0  0  0  0  0  0  0
  -26.1919    7.4064    0.0000 C   0  0  0  0  0  0  0  0  0  0  0  0
  -25.7441    8.8380    0.0000 C   0  0  0  0  0  0  0  0  0  0  0  0
  -25.2182   10.2427    0.0000 C   0  0  0  0  0  0  0  0  0  0  0  0
  -24.6156   11.6164    0.0000 C   0  0  0  0  0  0  0  0  0  0  0  0
  -23.9383   12.9548    0.0000 C   0  0  0  0  0  0  0  0  0  0  0  0
  -23.1883   14.2538    0.0000 C   0  0  0  0  0  0  0  0  0  0  0  0
  -22.3679   15.5096    0.0000 C   0  0  0  0  0  0  0  0  0  0  0  0
  -21.4796   16.7182    0.0000 C   0  0  0  0  0  0  0  0  0  0  0  0
  -20.5260   17.8761    0.0000 C   0  0  0  0  0  0  0  0  0  0  0  0
  -19.5101   18.9797    0.0000 C   0  0  0  0  0  0  0  0  0  0  0  0
  -18.4349   20.0256    0.0000 C   0  0  0  0  0  0  0  0  0  0  0  0
  -17.3037   21.0108    0.0000 C   0  0  0  0  0  0  0  0  0  0  0  0
  -16.1200   21.9321    0.0000 C   0  0  0  0  0  0  0  0  0  0  0  0
  -14.8873   22.7868    0.0000 C   0  0  0  0  0  0  0  0  0  0  0  0
  -13.6095   23.5723    0.0000 C   0  0  0  0  0  0  0  0  0  0  0  0
  -12.2903   24.2862    0.0000 C   0  0  0  0  0  0  0  0  0  0  0  0
  -10.9337   24.9264    0.0000 C   0  0  0  0  0  0  0  0  0  0  0  0
   -9.5440   25.4908    0.0000 C   0  0  0  0  0  0  0  0  0  0  0  0
   -8.1253   25.9779    0.0000 C   0  0  0  0  0  0  0  0  0  0  0  0
   -6.6819   26.3860    0.0000 C   0  0  0  0  0  0  0  0  0  0  0  0
   -5.2182   26.7141    0.0000 C   0  0  0  0  0  0  0  0  0  0  0  0
   -3.7386   26.9610    0.0000 C   0  0  0  0  0  0  0  0  0  0  0  0
   -2.2477   27.1260    0.0000 C   0  0  0  0  0  0  0  0  0  0  0  0
   -0.7500   27.2086    0.0000 C   0  0  0  0  0  0  0  0  0  0  0  0
    0.7500   27.2086    0.0000 C   0  0  0  0  0  0  0  0  0  0  0  0
    2.2477   27.1260    0.0000 C   0  0  0  0  0  0  0  0  0  0  0  0
    3.7386   26.9610    0.0000 C   0  0  0  0  0  0  0  0  0  0  0  0
    5.2182   26.7141    0.0000 C   0  0  0  0  0  0  0  0  0  0  0  0
    6.6819   26.3860    0.0000 C   0  0  0  0  0  0  0  0  0  0  0  0
    8.1253   25.9779    0.0000 C   0  0  0  0  0  0  0  0  0  0  0  0
    9.5440   25.4908    0.0000 C   0  0  0  0  0  0  0  0  0  0  0  0
   10.9337   24.9264    0.0000 C   0  0  0  0  0  0  0  0  0  0  0  0
   12.2903   24.2862    0.0000 C   0  0  0  0  0  0  0  0  0  0  0  0
   13.6095   23.5723    0.0000 C   0  0  0  0  0  0  0  0  0  0  0  0
   14.8873   22.7868    0.0000 C   0  0  0  0  0  0  0  0  0  0  0  0
   16.1200   21.9321    0.0000 C   0  0  0  0  0  0  0  0  0  0  0  0
   17.3037   21.0108    0.0000 C   0  0  0  0  0  0  0  0  0  0  0  0
   18.4349   20.0256    0.0000 C   0  0  0  0  0  0  0  0  0  0  0  0
   19.5101   18.9797    0.0000 C   0  0  0  0  0  0  0  0  0  0  0  0
   20.5260   17.8761    0.0000 C   0  0  0  0  0  0  0  0  0  0  0  0
   21.4796   16.7182    0.0000 C   0  0  0  0  0  0  0  0  0  0  0  0
   22.3679   15.5096    0.0000 C   0  0  0  0  0  0  0  0  0  0  0  0
   23.1883   14.2538    0.0000 C   0  0  0  0  0  0  0  0  0  0  0  0
   23.9383   12.9548    0.0000 C   0  0  0  0  0  0  0  0  0  0  0  0
   24.6156   11.6164    0.0000 C   0  0  0  0  0  0  0  0  0  0  0  0
   25.2182   10.2427    0.0000 C   0  0  0  0  0  0  0  0  0  0  0  0
   25.7441    8.8380    0.0000 C   0  0  0  0  0  0  0  0  0  0  0  0
   26.1919    7.4064    0.0000 C   0  0  0  0  0  0  0  0  0  0  0  0
   26.5601    5.9523    0.0000 C   0  0  0  0  0  0  0  0  0  0  0  0
   26.8477    4.4801    0.0000 C   0  0  0  0  0  0  0  0  0  0  0  0
   27.0537    2.9943    0.0000 C   0  0  0  0  0  0  0  0  0  0  0  0
   27.1776    1.4994    0.0000 C   0  0  0  0  0  0  0  0  0  0  0  0
  1  2  1  0
  2  3  1  0
  3  4  2  0
  4  5  1  0
  5  6  2  0
  6  7  1  0
  7  8  2  0
  8  9  1  0
  9 10  1  0
 10 11  1  0
 11 12  1  0
 12 13  1  0
 13 14  1  0
 14 15  1  0
 15 16  1  0
 16 17  1  0
 17 18  1  0
 18 19  1  0
 19 20  1  0
 20 21  1  0
 21 22  1  0
 22 23  1  0
 23 24  1  0
 24 25  1  0
 25 26  1  0
 26 27  1  0
 27 28  1  0
 28 29  1  0
 29 30  1  0
 30 31  1  0
 31 32  1  0
 32 33  1  0
 33 34  1  0
 34 35  1  0
 35 36  1  0
 36 37  1  0
 37 38  1  0
 38 39  1  0
 39 40  1  0
 40 41  1  0
 41 42  1  0
 42 43  1  0
 43 44  1  0
 44 45  1  0
 45 46  1  0
 46 47  1  0
 47 48  1  0
 48 49  1  0
 49 50  1  0
 50 51  1  0
 51 52  1  0
 52 53  1  0
 53 54  1  0
 54 55  1  0
 55 56  1  0
 56 57  1  0
 57 58  1  0
 58 59  1  0
 59 60  1  0
 60 61  1  0
 61 62  1  0
 62 63  1  0
 63 64  1  0
 64 65  1  0
 65 66  1  0
 66 67  1  0
 67 68  1  0
 68 69  1  0
 69 70  1  0
 70 71  1  0
 71 72  1  0
 72 73  1  0
 73 74  1  0
 74 75  1  0
 75 76  1  0
 76 77  1  0
 77 78  1  0
 78 79  1  0
 79 80  1  0
 80 81  1  0
 81 82  1  0
 82 83  1  0
 83 84  1  0
 84 85  1  0
 85 86  1  0
 86 87  1  0
 87 88  1  0
 88 89  1  0
 89 90  1  0
 90 91  1  0
 91 92  1  0
 92 93  1  0
 93 94  1  0
 94 95  1  0
 95 96  1  0
 96 97  1  0
 97 98  1  0
 98 99  1  0
 99100  1  0
100101  1  0
101102  1  0
102103  1  0
103104  1  0
104105  1  0
105106  1  0
106107  1  0
107108  1  0
108109  1  0
109110  1  0
110111  1  0
111112  1  0
112113  1  0
113114  1  0
114115  1  0
115  2  1  0
M  END
>  <Title>  (556) 
idAATPgen7

$$$$

     RDKit          2D

114114  0  0  0  0  0  0  0  0999 V2000
   29.7415   -0.0000    0.0000 N   0  0  0  0  0  0  0  0  0  0  0  0
   28.2415    0.0000    0.0000 C   0  0  0  0  0  0  0  0  0  0  0  0
   26.7415    0.0000    0.0000 C   0  0  0  0  0  0  0  0  0  0  0  0
   26.6995   -1.4994    0.0000 C   0  0  0  0  0  0  0  0  0  0  0  0
   26.5734   -2.9941    0.0000 C   0  0  0  0  0  0  0  0  0  0  0  0
   26.3637   -4.4794    0.0000 C   0  0  0  0  0  0  0  0  0  0  0  0
   26.0711   -5.9506    0.0000 C   0  0  0  0  0  0  0  0  0  0  0  0
   25.6964   -7.4030    0.0000 C   0  0  0  0  0  0  0  0  0  0  0  0
   25.2409   -8.8322    0.0000 C   0  0  0  0  0  0  0  0  0  0  0  0
   24.7060  -10.2335    0.0000 C   0  0  0  0  0  0  0  0  0  0  0  0
   24.0933  -11.6027    0.0000 C   0  0  0  0  0  0  0  0  0  0  0  0
   23.4048  -12.9354    0.0000 C   0  0  0  0  0  0  0  0  0  0  0  0
   22.6427  -14.2274    0.0000 C   0  0  0  0  0  0  0  0  0  0  0  0
   21.8094  -15.4746    0.0000 C   0  0  0  0  0  0  0  0  0  0  0  0
   20.9074  -16.6731    0.0000 C   0  0  0  0  0  0  0  0  0  0  0  0
   19.9396  -17.8191    0.0000 C   0  0  0  0  0  0  0  0  0  0  0  0
   18.9091  -18.9091    0.0000 C   0  0  0  0  0  0  0  0  0  0  0  0
   17.8191  -19.9396    0.0000 C   0  0  0  0  0  0  0  0  0  0  0  0
   16.6731  -20.9074    0.0000 C   0  0  0  0  0  0  0  0  0  0  0  0
   15.4746  -21.8094    0.0000 C   0  0  0  0  0  0  0  0  0  0  0  0
   14.2274  -22.6427    0.0000 C   0  0  0  0  0  0  0  0  0  0  0  0
   12.9354  -23.4048    0.0000 C   0  0  0  0  0  0  0  0  0  0  0  0
   11.6027  -24.0933    0.0000 C   0  0  0  0  0  0  0  0  0  0  0  0
   10.2335  -24.7060    0.0000 C   0  0  0  0  0  0  0  0  0  0  0  0
    8.8322  -25.2409    0.0000 C   0  0  0  0  0  0  0  0  0  0  0  0
    7.4030  -25.6964    0.0000 C   0  0  0  0  0  0  0  0  0  0  0  0
    5.9506  -26.0711    0.0000 C   0  0  0  0  0  0  0  0  0  0  0  0
    4.4794  -26.3637    0.0000 C   0  0  0  0  0  0  0  0  0  0  0  0
    2.9941  -26.5734    0.0000 C   0  0  0  0  0  0  0  0  0  0  0  0
    1.4994  -26.6995    0.0000 C   0  0  0  0  0  0  0  0  0  0  0  0
   -0.0000  -26.7415    0.0000 C   0  0  0  0  0  0  0  0  0  0  0  0
   -1.4994  -26.6995    0.0000 C   0  0  0  0  0  0  0  0  0  0  0  0
   -2.9941  -26.5734    0.0000 C   0  0  0  0  0  0  0  0  0  0  0  0
   -4.4794  -26.3637    0.0000 C   0  0  0  0  0  0  0  0  0  0  0  0
   -5.9506  -26.0711    0.0000 C   0  0  0  0  0  0  0  0  0  0  0  0
   -7.4030  -25.6964    0.0000 C   0  0  0  0  0  0  0  0  0  0  0  0
   -8.8322  -25.2409    0.0000 C   0  0  0  0  0  0  0  0  0  0  0  0
  -10.2335  -24.7060    0.0000 C   0  0  0  0  0  0  0  0  0  0  0  0
  -11.6027  -24.0933    0.0000 C   0  0  0  0  0  0  0  0  0  0  0  0
  -12.9354  -23.4048    0.0000 C   0  0  0  0  0  0  0  0  0  0  0  0
  -14.2274  -22.6427    0.0000 C   0  0  0  0  0  0  0  0  0  0  0  0
  -15.4746  -21.8094    0.0000 C   0  0  0  0  0  0  0  0  0  0  0  0
  -16.6731  -20.9074    0.0000 C   0  0  0  0  0  0  0  0  0  0  0  0
  -17.8191  -19.9396    0.0000 C   0  0  0  0  0  0  0  0  0  0  0  0
  -18.9091  -18.9091    0.0000 C   0  0  0  0  0  0  0  0  0  0  0  0
  -19.9396  -17.8191    0.0000 C   0  0  0  0  0  0  0  0  0  0  0  0
  -20.9074  -16.6731    0.0000 C   0  0  0  0  0  0  0  0  0  0  0  0
  -21.8094  -15.4746    0.0000 C   0  0  0  0  0  0  0  0  0  0  0  0
  -22.6427  -14.2274    0.0000 C   0  0  0  0  0  0  0  0  0  0  0  0
  -23.4048  -12.9354    0.0000 C   0  0  0  0  0  0  0  0  0  0  0  0
  -24.0933  -11.6027    0.0000 C   0  0  0  0  0  0  0  0  0  0  0  0
  -24.7060  -10.2335    0.0000 C   0  0  0  0  0  0  0  0  0  0  0  0
  -25.2409   -8.8322    0.0000 C   0  0  0  0  0  0  0  0  0  0  0  0
  -25.6964   -7.4030    0.0000 C   0  0  0  0  0  0  0  0  0  0  0  0
  -26.0711   -5.9506    0.0000 C   0  0  0  0  0  0  0  0  0  0  0  0
  -26.3637   -4.4794    0.0000 C   0  0  0  0  0  0  0  0  0  0  0  0
  -26.5734   -2.9941    0.0000 C   0  0  0  0  0  0  0  0  0  0  0  0
  -26.6995   -1.4994    0.0000 C   0  0  0  0  0  0  0  0  0  0  0  0
  -26.7415    0.0000    0.0000 C   0  0  0  0  0  0  0  0  0  0  0  0
  -26.6995    1.4994    0.0000 C   0  0  0  0  0  0  0  0  0  0  0  0
  -26.5734    2.9941    0.0000 C   0  0  0  0  0  0  0  0  0  0  0  0
  -26.3637    4.4794    0.0000 C   0  0  0  0  0  0  0  0  0  0  0  0
  -26.0711    5.9506    0.0000 C   0  0  0  0  0  0  0  0  0  0  0  0
  -25.6964    7.4030    0.0000 C   0  0  0  0  0  0  0  0  0  0  0  0
  -25.2409    8.8322    0.0000 C   0  0  0  0  0  0  0  0  0  0  0  0
  -24.7060   10.2335    0.0000 C   0  0  0  0  0  0  0  0  0  0  0  0
  -24.0933   11.6027    0.0000 C   0  0  0  0  0  0  0  0  0  0  0  0
  -23.4048   12.9354    0.0000 C   0  0  0  0  0  0  0  0  0  0  0  0
  -22.6427   14.2274    0.0000 C   0  0  0  0  0  0  0  0  0  0  0  0
  -21.8094   15.4746    0.0000 C   0  0  0  0  0  0  0  0  0  0  0  0
  -20.9074   16.6731    0.0000 C   0  0  0  0  0  0  0  0  0  0  0  0
  -19.9396   17.8191    0.0000 C   0  0  0  0  0  0  0  0  0  0  0  0
  -18.9091   18.9091    0.0000 C   0  0  0  0  0  0  0  0  0  0  0  0
  -17.8191   19.9396    0.0000 C   0  0  0  0  0  0  0  0  0  0  0  0
  -16.6731   20.9074    0.0000 C   0  0  0  0  0  0  0  0  0  0  0  0
  -15.4746   21.8094    0.0000 C   0  0  0  0  0  0  0  0  0  0  0  0
  -14.2274   22.6427    0.0000 C   0  0  0  0  0  0  0  0  0  0  0  0
  -12.9354   23.4048    0.0000 C   0  0  0  0  0  0  0  0  0  0  0  0
  -11.6027   24.0933    0.0000 C   0  0  0  0  0  0  0  0  0  0  0  0
  -10.2335   24.7060    0.0000 C   0  0  0  0  0  0  0  0  0  0  0  0
   -8.8322   25.2409    0.0000 C   0  0  0  0  0  0  0  0  0  0  0  0
   -7.4030   25.6964    0.0000 C   0  0  0  0  0  0  0  0  0  0  0  0
   -5.9506   26.0711    0.0000 C   0  0  0  0  0  0  0  0  0  0  0  0
   -4.4794   26.3637    0.0000 C   0  0  0  0  0  0  0  0  0  0  0  0
   -2.9941   26.5734    0.0000 C   0  0  0  0  0  0  0  0  0  0  0  0
   -1.4994   26.6995    0.0000 C   0  0  0  0  0  0  0  0  0  0  0  0
    0.0000   26.7415    0.0000 C   0  0  0  0  0  0  0  0  0  0  0  0
    1.4994   26.6995    0.0000 C   0  0  0  0  0  0  0  0  0  0  0  0
    2.9941   26.5734    0.0000 C   0  0  0  0  0  0  0  0  0  0  0  0
    4.4794   26.3637    0.0000 C   0  0  0  0  0  0  0  0  0  0  0  0
    5.9506   26.0711    0.0000 C   0  0  0  0  0  0  0  0  0  0  0  0
    7.4030   25.6964    0.0000 C   0  0  0  0  0  0  0  0  0  0  0  0
    8.8322   25.2409    0.0000 C   0  0  0  0  0  0  0  0  0  0  0  0
   10.2335   24.7060    0.0000 C   0  0  0  0  0  0  0  0  0  0  0  0
   11.6027   24.0933    0.0000 C   0  0  0  0  0  0  0  0  0  0  0  0
   12.9354   23.4048    0.0000 C   0  0  0  0  0  0  0  0  0  0  0  0
   14.2274   22.6427    0.0000 C   0  0  0  0  0  0  0  0  0  0  0  0
   15.4746   21.8094    0.0000 C   0  0  0  0  0  0  0  0  0  0  0  0
   16.6731   20.9074    0.0000 C   0  0  0  0  0  0  0  0  0  0  0  0
   17.8191   19.9396    0.0000 C   0  0  0  0  0  0  0  0  0  0  0  0
   18.9091   18.9091    0.0000 C   0  0  0  0  0  0  0  0  0  0  0  0
   19.9396   17.8191    0.0000 C   0  0  0  0  0  0  0  0  0  0  0  0
   20.9074   16.6731    0.0000 C   0  0  0  0  0  0  0  0  0  0  0  0
   21.8094   15.4746    0.0000 C   0  0  0  0  0  0  0  0  0  0  0  0
   22.6427   14.2274    0.0000 C   0  0  0  0  0  0  0  0  0  0  0  0
   23.4048   12.9354    0.0000 C   0  0  0  0  0  0  0  0  0  0  0  0
   24.0933   11.6027    0.0000 C   0  0  0  0  0  0  0  0  0  0  0  0
   24.7060   10.2335    0.0000 C   0  0  0  0  0  0  0  0  0  0  0  0
   25.2409    8.8322    0.0000 C   0  0  0  0  0  0  0  0  0  0  0  0
   25.6964    7.4030    0.0000 C   0  0  0  0  0  0  0  0  0  0  0  0
   26.0711    5.9506    0.0000 C   0  0  0  0  0  0  0  0  0  0  0  0
   26.3637    4.4794    0.0000 C   0  0  0  0  0  0  0  0  0  0  0  0
   26.5734    2.9941    0.0000 C   0  0  0  0  0  0  0  0  0  0  0  0
   26.6995    1.4994    0.0000 C   0  0  0  0  0  0  0  0  0  0  0  0
  1  2  3  0
  2  3  1  0
  3  4  1  0
  4  5  1  0
  5  6  1  0
  6  7  1  0
  7  8  1  0
  8  9  1  0
  9 10  1  0
 10 11  1  0
 11 12  1  0
 12 13  1  0
 13 14  1  0
 14 15  1  0
 15 16  1  0
 16 17  1  0
 17 18  1  0
 18 19  1  0
 19 20  1  0
 20 21  1  0
 21 22  1  0
 22 23  1  0
 23 24  1  0
 24 25  1  0
 25 26  1  0
 26 27  1  0
 27 28  1  0
 28 29  1  0
 29 30  1  0
 30 31  1  0
 31 32  1  0
 32 33  1  0
 33 34  1  0
 34 35  1  0
 35 36  1  0
 36 37  1  0
 37 38  1  0
 38 39  1  0
 39 40  1  0
 40 41  1  0
 41 42  1  0
 42 43  1  0
 43 44  1  0
 44 45  1  0
 45 46  1  0
 46 47  1  0
 47 48  1  0
 48 49  1  0
 49 50  1  0
 50 51  1  0
 51 52  1  0
 52 53  1  0
 53 54  1  0
 54 55  1  0
 55 56  1  0
 56 57  1  0
 57 58  1  0
 58 59  1  0
 59 60  1  0
 60 61  1  0
 61 62  1  0
 62 63  1  0
 63 64  1  0
 64 65  1  0
 65 66  1  0
 66 67  1  0
 67 68  1  0
 68 69  1  0
 69 70  1  0
 70 71  1  0
 71 72  1  0
 72 73  1  0
 73 74  1  0
 74 75  1  0
 75 76  1  0
 76 77  1  0
 77 78  1  0
 78 79  1  0
 79 80  1  0
 80 81  1  0
 81 82  1  0
 82 83  1  0
 83 84  1  0
 84 85  1  0
 85 86  1  0
 86 87  1  0
 87 88  1  0
 88 89  1  0
 89 90  1  0
 90 91  1  0
 91 92  1  0
 92 93  1  0
 93 94  1  0
 94 95  1  0
 95 96  1  0
 96 97  1  0
 97 98  1  0
 98 99  1  0
 99100  1  0
100101  1  0
101102  1  0
102103  1  0
103104  1  0
104105  1  0
105106  1  0
106107  1  0
107108  1  0
108109  1  0
109110  1  0
110111  1  0
111112  1  0
112113  1  0
113114  1  0
114  3  1  0
M  END
>  <Title>  (557) 
idAATQgen7

$$$$

     RDKit          2D

 52 52  0  0  0  0  0  0  0  0999 V2000
   13.6831    0.0000    0.0000 C   0  0  0  0  0  0  0  0  0  0  0  0
   12.1831    0.0000    0.0000 C   0  0  0  0  0  0  0  0  0  0  0  0
   12.0907    1.4972    0.0000 C   0  0  0  0  0  0  0  0  0  0  0  0
   11.8151    2.9716    0.0000 C   0  0  0  0  0  0  0  0  0  0  0  0
   11.3604    4.4010    0.0000 C   0  0  0  0  0  0  0  0  0  0  0  0
   10.7334    5.7637    0.0000 C   0  0  0  0  0  0  0  0  0  0  0  0
    9.9438    7.0391    0.0000 C   0  0  0  0  0  0  0  0  0  0  0  0
    9.0034    8.2077    0.0000 C   0  0  0  0  0  0  0  0  0  0  0  0
    7.9265    9.2519    0.0000 C   0  0  0  0  0  0  0  0  0  0  0  0
    6.7295   10.1558    0.0000 C   0  0  0  0  0  0  0  0  0  0  0  0
    5.4305   10.9058    0.0000 C   0  0  0  0  0  0  0  0  0  0  0  0
    4.0491   11.4905    0.0000 C   0  0  0  0  0  0  0  0  0  0  0  0
    2.6064   11.9010    0.0000 C   0  0  0  0  0  0  0  0  0  0  0  0
    1.1241   12.1311    0.0000 C   0  0  0  0  0  0  0  0  0  0  0  0
   -0.3752   12.1773    0.0000 C   0  0  0  0  0  0  0  0  0  0  0  0
   -1.8688   12.0389    0.0000 C   0  0  0  0  0  0  0  0  0  0  0  0
   -3.3341   11.7180    0.0000 C   0  0  0  0  0  0  0  0  0  0  0  0
   -4.7488   11.2194    0.0000 C   0  0  0  0  0  0  0  0  0  0  0  0
   -6.0915   10.5508    0.0000 C   0  0  0  0  0  0  0  0  0  0  0  0
   -7.3419    9.7223    0.0000 C   0  0  0  0  0  0  0  0  0  0  0  0
   -8.4810    8.7464    0.0000 C   0  0  0  0  0  0  0  0  0  0  0  0
   -9.4916    7.6378    0.0000 C   0  0  0  0  0  0  0  0  0  0  0  0
  -10.3582    6.4136    0.0000 C   0  0  0  0  0  0  0  0  0  0  0  0
  -11.0679    5.0920    0.0000 C   0  0  0  0  0  0  0  0  0  0  0  0
  -11.6097    3.6933    0.0000 C   0  0  0  0  0  0  0  0  0  0  0  0
  -11.9756    2.2386    0.0000 C   0  0  0  0  0  0  0  0  0  0  0  0
  -12.1599    0.7500    0.0000 C   0  0  0  0  0  0  0  0  0  0  0  0
  -12.1599   -0.7500    0.0000 C   0  0  0  0  0  0  0  0  0  0  0  0
  -11.9756   -2.2386    0.0000 C   0  0  0  0  0  0  0  0  0  0  0  0
  -11.6097   -3.6933    0.0000 C   0  0  0  0  0  0  0  0  0  0  0  0
  -11.0679   -5.0920    0.0000 C   0  0  0  0  0  0  0  0  0  0  0  0
  -10.3582   -6.4136    0.0000 C   0  0  0  0  0  0  0  0  0  0  0  0
   -9.4916   -7.6378    0.0000 C   0  0  0  0  0  0  0  0  0  0  0  0
   -8.4810   -8.7464    0.0000 C   0  0  0  0  0  0  0  0  0  0  0  0
   -7.3419   -9.7223    0.0000 C   0  0  0  0  0  0  0  0  0  0  0  0
   -6.0915  -10.5508    0.0000 C   0  0  0  0  0  0  0  0  0  0  0  0
   -4.7488  -11.2194    0.0000 C   0  0  0  0  0  0  0  0  0  0  0  0
   -3.3341  -11.7180    0.0000 C   0  0  0  0  0  0  0  0  0  0  0  0
   -1.8688  -12.0389    0.0000 C   0  0  0  0  0  0  0  0  0  0  0  0
   -0.3752  -12.1773    0.0000 C   0  0  0  0  0  0  0  0  0  0  0  0
    1.1241  -12.1311    0.0000 C   0  0  0  0  0  0  0  0  0  0  0  0
    2.6064  -11.9010    0.0000 C   0  0  0  0  0  0  0  0  0  0  0  0
    4.0491  -11.4905    0.0000 C   0  0  0  0  0  0  0  0  0  0  0  0
    5.4305  -10.9058    0.0000 C   0  0  0  0  0  0  0  0  0  0  0  0
    6.7295  -10.1558    0.0000 C   0  0  0  0  0  0  0  0  0  0  0  0
    7.9265   -9.2519    0.0000 C   0  0  0  0  0  0  0  0  0  0  0  0
    9.0034   -8.2077    0.0000 C   0  0  0  0  0  0  0  0  0  0  0  0
    9.9438   -7.0391    0.0000 C   0  0  0  0  0  0  0  0  0  0  0  0
   10.7334   -5.7637    0.0000 C   0  0  0  0  0  0  0  0  0  0  0  0
   11.3604   -4.4010    0.0000 C   0  0  0  0  0  0  0  0  0  0  0  0
   11.8151   -2.9716    0.0000 C   0  0  0  0  0  0  0  0  0  0  0  0
   12.0907   -1.4972    0.0000 C   0  0  0  0  0  0  0  0  0  0  0  0
  1  2  1  0
  2  3  1  0
  3  4  2  0
  4  5  1  0
  5  6  1  0
  6  7  1  0
  7  8  1  0
  8  9  1  0
  9 10  1  0
 10 11  1  0
 11 12  1  0
 12 13  1  0
 13 14  1  0
 14 15  1  0
 15 16  1  0
 16 17  1  0
 17 18  1  0
 18 19  1  0
 19 20  1  0
 20 21  1  0
 21 22  1  0
 22 23  1  0
 23 24  1  0
 24 25  1  0
 25 26  1  0
 26 27  1  0
 27 28  1  0
 28 29  1  0
 29 30  1  0
 30 31  1  0
 31 32  1  0
 32 33  1  0
 33 34  1  0
 34 35  2  0
 35 36  1  0
 36 37  2  0
 37 38  1  0
 38 39  2  0
 39 40  1  0
 40 41  2  0
 41 42  1  0
 42 43  2  0
 43 44  1  0
 44 45  2  0
 45 46  1  0
 46 47  2  0
 47 48  1  0
 48 49  2  0
 49 50  1  0
 50 51  2  0
 51 52  1  0
 52  2  1  0
M  END
>  <Title>  (558) 
idAATRgen7

$$$$

     RDKit          2D

 12 12  0  0  0  0  0  0  0  0999 V2000
    4.1621    0.0000    0.0000 C   0  0  0  0  0  0  0  0  0  0  0  0
    2.6621    0.0000    0.0000 C   0  0  0  0  0  0  0  0  0  0  0  0
    2.2395    1.4392    0.0000 C   0  0  0  0  0  0  0  0  0  0  0  0
    1.1059    2.4215    0.0000 C   0  0  0  0  0  0  0  0  0  0  0  0
   -0.3789    2.6350    0.0000 C   0  0  0  0  0  0  0  0  0  0  0  0
   -1.7433    2.0119    0.0000 C   0  0  0  0  0  0  0  0  0  0  0  0
   -2.5543    0.7500    0.0000 C   0  0  0  0  0  0  0  0  0  0  0  0
   -2.5543   -0.7500    0.0000 C   0  0  0  0  0  0  0  0  0  0  0  0
   -1.7433   -2.0119    0.0000 C   0  0  0  0  0  0  0  0  0  0  0  0
   -0.3789   -2.6350    0.0000 C   0  0  0  0  0  0  0  0  0  0  0  0
    1.1059   -2.4215    0.0000 C   0  0  0  0  0  0  0  0  0  0  0  0
    2.2395   -1.4392    0.0000 C   0  0  0  0  0  0  0  0  0  0  0  0
  1  2  1  0
  2  3  1  0
  3  4  1  0
  4  5  1  0
  5  6  1  0
  6  7  1  0
  7  8  1  0
  8  9  1  0
  9 10  1  0
 10 11  1  0
 11 12  1  0
 12  2  1  0
M  END
>  <Title>  (559) 
idAATSgen7

$$$$

     RDKit          2D

  9  9  0  0  0  0  0  0  0  0999 V2000
    2.7760    0.0000    0.0000 C   0  0  0  0  0  0  0  0  0  0  0  0
    1.2760    0.0000    0.0000 C   0  0  0  0  0  0  0  0  0  0  0  0
    0.3943    1.2135    0.0000 C   0  0  0  0  0  0  0  0  0  0  0  0
   -1.0323    0.7500    0.0000 C   0  0  0  0  0  0  0  0  0  0  0  0
   -1.0323   -0.7500    0.0000 C   0  0  0  0  0  0  0  0  0  0  0  0
   -2.2458   -1.6317    0.0000 C   0  0  0  0  0  0  0  0  0  0  0  0
   -3.4593   -2.5134    0.0000 N   0  0  0  0  0  0  0  0  0  0  0  0
    0.3943   -1.2135    0.0000 C   0  0  0  0  0  0  0  0  0  0  0  0
    0.8578   -2.6401    0.0000 O   0  0  0  0  0  0  0  0  0  0  0  0
  1  2  1  0
  2  3  1  0
  3  4  1  0
  4  5  1  0
  5  6  1  0
  6  7  3  0
  5  8  1  0
  8  9  2  0
  8  2  1  0
M  END
>  <Title>  (560) 
idAATTgen7

$$$$

     RDKit          2D

 85 85  0  0  0  0  0  0  0  0999 V2000
   21.5582    0.0000    0.0000 C   0  0  0  0  0  0  0  0  0  0  0  0
   20.0582    0.0000    0.0000 C   0  0  0  0  0  0  0  0  0  0  0  0
   20.0021   -1.4990    0.0000 C   0  0  0  0  0  0  0  0  0  0  0  0
   19.8342   -2.9895    0.0000 C   0  0  0  0  0  0  0  0  0  0  0  0
   19.5553   -4.4634    0.0000 C   0  0  0  0  0  0  0  0  0  0  0  0
   19.1671   -5.9123    0.0000 C   0  0  0  0  0  0  0  0  0  0  0  0
   18.6717   -7.3281    0.0000 C   0  0  0  0  0  0  0  0  0  0  0  0
   18.0718   -8.7029    0.0000 C   0  0  0  0  0  0  0  0  0  0  0  0
   17.3709  -10.0291    0.0000 C   0  0  0  0  0  0  0  0  0  0  0  0
   16.5729  -11.2992    0.0000 C   0  0  0  0  0  0  0  0  0  0  0  0
   15.6821  -12.5061    0.0000 C   0  0  0  0  0  0  0  0  0  0  0  0
   14.7037  -13.6430    0.0000 C   0  0  0  0  0  0  0  0  0  0  0  0
   13.6430  -14.7037    0.0000 C   0  0  0  0  0  0  0  0  0  0  0  0
   12.5061  -15.6821    0.0000 C   0  0  0  0  0  0  0  0  0  0  0  0
   11.2992  -16.5729    0.0000 C   0  0  0  0  0  0  0  0  0  0  0  0
   10.0291  -17.3709    0.0000 C   0  0  0  0  0  0  0  0  0  0  0  0
    8.7029  -18.0718    0.0000 C   0  0  0  0  0  0  0  0  0  0  0  0
    7.3281  -18.6717    0.0000 C   0  0  0  0  0  0  0  0  0  0  0  0
    5.9123  -19.1671    0.0000 C   0  0  0  0  0  0  0  0  0  0  0  0
    4.4634  -19.5553    0.0000 C   0  0  0  0  0  0  0  0  0  0  0  0
    2.9895  -19.8342    0.0000 C   0  0  0  0  0  0  0  0  0  0  0  0
    1.4990  -20.0021    0.0000 C   0  0  0  0  0  0  0  0  0  0  0  0
   -0.0000  -20.0582    0.0000 C   0  0  0  0  0  0  0  0  0  0  0  0
   -1.4990  -20.0021    0.0000 C   0  0  0  0  0  0  0  0  0  0  0  0
   -2.9895  -19.8342    0.0000 C   0  0  0  0  0  0  0  0  0  0  0  0
   -4.4634  -19.5553    0.0000 C   0  0  0  0  0  0  0  0  0  0  0  0
   -5.9123  -19.1671    0.0000 C   0  0  0  0  0  0  0  0  0  0  0  0
   -7.3281  -18.6717    0.0000 C   0  0  0  0  0  0  0  0  0  0  0  0
   -8.7029  -18.0718    0.0000 C   0  0  0  0  0  0  0  0  0  0  0  0
  -10.0291  -17.3709    0.0000 C   0  0  0  0  0  0  0  0  0  0  0  0
  -11.2992  -16.5729    0.0000 C   0  0  0  0  0  0  0  0  0  0  0  0
  -12.5061  -15.6821    0.0000 C   0  0  0  0  0  0  0  0  0  0  0  0
  -13.6430  -14.7037    0.0000 N   0  0  0  0  0  0  0  0  0  0  0  0
  -14.7037  -13.6430    0.0000 C   0  0  0  0  0  0  0  0  0  0  0  0
  -15.6821  -12.5061    0.0000 C   0  0  0  0  0  0  0  0  0  0  0  0
  -16.5729  -11.2992    0.0000 C   0  0  0  0  0  0  0  0  0  0  0  0
  -17.3709  -10.0291    0.0000 C   0  0  0  0  0  0  0  0  0  0  0  0
  -18.0718   -8.7029    0.0000 C   0  0  0  0  0  0  0  0  0  0  0  0
  -18.6717   -7.3281    0.0000 C   0  0  0  0  0  0  0  0  0  0  0  0
  -19.1671   -5.9123    0.0000 C   0  0  0  0  0  0  0  0  0  0  0  0
  -19.5553   -4.4634    0.0000 C   0  0  0  0  0  0  0  0  0  0  0  0
  -19.8342   -2.9895    0.0000 C   0  0  0  0  0  0  0  0  0  0  0  0
  -20.0021   -1.4990    0.0000 C   0  0  0  0  0  0  0  0  0  0  0  0
  -20.0582    0.0000    0.0000 C   0  0  0  0  0  0  0  0  0  0  0  0
  -20.0021    1.4990    0.0000 C   0  0  0  0  0  0  0  0  0  0  0  0
  -19.8342    2.9895    0.0000 C   0  0  0  0  0  0  0  0  0  0  0  0
  -19.5553    4.4634    0.0000 C   0  0  0  0  0  0  0  0  0  0  0  0
  -19.1671    5.9123    0.0000 C   0  0  0  0  0  0  0  0  0  0  0  0
  -18.6717    7.3281    0.0000 C   0  0  0  0  0  0  0  0  0  0  0  0
  -18.0718    8.7029    0.0000 C   0  0  0  0  0  0  0  0  0  0  0  0
  -17.3709   10.0291    0.0000 C   0  0  0  0  0  0  0  0  0  0  0  0
  -16.5729   11.2992    0.0000 C   0  0  0  0  0  0  0  0  0  0  0  0
  -15.6821   12.5061    0.0000 C   0  0  0  0  0  0  0  0  0  0  0  0
  -14.7037   13.6430    0.0000 C   0  0  0  0  0  0  0  0  0  0  0  0
  -13.6430   14.7037    0.0000 C   0  0  0  0  0  0  0  0  0  0  0  0
  -12.5061   15.6821    0.0000 C   0  0  0  0  0  0  0  0  0  0  0  0
  -11.2992   16.5729    0.0000 C   0  0  0  0  0  0  0  0  0  0  0  0
  -10.0291   17.3709    0.0000 C   0  0  0  0  0  0  0  0  0  0  0  0
   -8.7029   18.0718    0.0000 C   0  0  0  0  0  0  0  0  0  0  0  0
   -7.3281   18.6717    0.0000 C   0  0  0  0  0  0  0  0  0  0  0  0
   -5.9123   19.1671    0.0000 C   0  0  0  0  0  0  0  0  0  0  0  0
   -4.4634   19.5553    0.0000 C   0  0  0  0  0  0  0  0  0  0  0  0
   -2.9895   19.8342    0.0000 C   0  0  0  0  0  0  0  0  0  0  0  0
   -1.4990   20.0021    0.0000 C   0  0  0  0  0  0  0  0  0  0  0  0
    0.0000   20.0582    0.0000 C   0  0  0  0  0  0  0  0  0  0  0  0
    1.4990   20.0021    0.0000 C   0  0  0  0  0  0  0  0  0  0  0  0
    2.9895   19.8342    0.0000 C   0  0  0  0  0  0  0  0  0  0  0  0
    4.4634   19.5553    0.0000 C   0  0  0  0  0  0  0  0  0  0  0  0
    5.9123   19.1671    0.0000 C   0  0  0  0  0  0  0  0  0  0  0  0
    7.3281   18.6717    0.0000 C   0  0  0  0  0  0  0  0  0  0  0  0
    8.7029   18.0718    0.0000 C   0  0  0  0  0  0  0  0  0  0  0  0
   10.0291   17.3709    0.0000 C   0  0  0  0  0  0  0  0  0  0  0  0
   11.2992   16.5729    0.0000 C   0  0  0  0  0  0  0  0  0  0  0  0
   12.5061   15.6821    0.0000 C   0  0  0  0  0  0  0  0  0  0  0  0
   13.6430   14.7037    0.0000 C   0  0  0  0  0  0  0  0  0  0  0  0
   14.7037   13.6430    0.0000 C   0  0  0  0  0  0  0  0  0  0  0  0
   15.6821   12.5061    0.0000 C   0  0  0  0  0  0  0  0  0  0  0  0
   16.5729   11.2992    0.0000 C   0  0  0  0  0  0  0  0  0  0  0  0
   17.3709   10.0291    0.0000 C   0  0  0  0  0  0  0  0  0  0  0  0
   18.0718    8.7029    0.0000 C   0  0  0  0  0  0  0  0  0  0  0  0
   18.6717    7.3281    0.0000 C   0  0  0  0  0  0  0  0  0  0  0  0
   19.1671    5.9123    0.0000 C   0  0  0  0  0  0  0  0  0  0  0  0
   19.5553    4.4634    0.0000 C   0  0  0  0  0  0  0  0  0  0  0  0
   19.8342    2.9895    0.0000 C   0  0  0  0  0  0  0  0  0  0  0  0
   20.0021    1.4990    0.0000 C   0  0  0  0  0  0  0  0  0  0  0  0
  1  2  1  0
  2  3  1  0
  3  4  2  0
  4  5  1  0
  5  6  2  0
  6  7  1  0
  7  8  2  0
  8  9  1  0
  9 10  1  0
 10 11  1  0
 11 12  1  0
 12 13  1  0
 13 14  1  0
 14 15  1  0
 15 16  1  0
 16 17  1  0
 17 18  1  0
 18 19  1  0
 19 20  1  0
 20 21  1  0
 21 22  1  0
 22 23  1  0
 23 24  1  0
 24 25  1  0
 25 26  1  0
 26 27  1  0
 27 28  1  0
 28 29  1  0
 29 30  1  0
 30 31  1  0
 31 32  1  0
 32 33  1  0
 33 34  1  0
 34 35  1  0
 35 36  1  0
 36 37  1  0
 37 38  1  0
 38 39  1  0
 39 40  1  0
 40 41  1  0
 41 42  1  0
 42 43  1  0
 43 44  1  0
 44 45  1  0
 45 46  1  0
 46 47  1  0
 47 48  1  0
 48 49  1  0
 49 50  1  0
 50 51  1  0
 51 52  1  0
 52 53  1  0
 53 54  1  0
 54 55  1  0
 55 56  1  0
 56 57  1  0
 57 58  1  0
 58 59  1  0
 59 60  1  0
 60 61  1  0
 61 62  1  0
 62 63  1  0
 63 64  1  0
 64 65  1  0
 65 66  1  0
 66 67  1  0
 67 68  1  0
 68 69  1  0
 69 70  1  0
 70 71  1  0
 71 72  1  0
 72 73  1  0
 73 74  1  0
 74 75  1  0
 75 76  1  0
 76 77  1  0
 77 78  1  0
 78 79  1  0
 79 80  1  0
 80 81  1  0
 81 82  1  0
 82 83  1  0
 83 84  1  0
 84 85  1  0
 85  2  1  0
M  END
>  <Title>  (561) 
idAATUgen7

$$$$

     RDKit          2D

  9  9  0  0  0  0  0  0  0  0999 V2000
    7.2760   -0.0000    0.0000 C   0  0  0  0  0  0  0  0  0  0  0  0
    5.7760   -0.0000    0.0000 C   0  0  0  0  0  0  0  0  0  0  0  0
    4.2760   -0.0000    0.0000 C   0  0  0  0  0  0  0  0  0  0  0  0
    2.7760    0.0000    0.0000 C   0  0  0  0  0  0  0  0  0  0  0  0
    1.2760    0.0000    0.0000 C   0  0  0  0  0  0  0  0  0  0  0  0
    0.3943    1.2135    0.0000 C   0  0  0  0  0  0  0  0  0  0  0  0
   -1.0323    0.7500    0.0000 C   0  0  0  0  0  0  0  0  0  0  0  0
   -1.0323   -0.7500    0.0000 C   0  0  0  0  0  0  0  0  0  0  0  0
    0.3943   -1.2135    0.0000 C   0  0  0  0  0  0  0  0  0  0  0  0
  1  2  3  0
  2  3  1  0
  3  4  3  0
  4  5  1  0
  5  6  2  0
  6  7  1  0
  7  8  1  0
  8  9  2  0
  9  5  1  0
M  END
>  <Title>  (562) 
idAATVgen7

$$$$

     RDKit          2D

 26 29  0  0  0  0  0  0  0  0999 V2000
   -1.3240   -6.3062    0.0000 C   0  0  0  0  0  0  0  0  0  0  0  0
   -0.7500   -4.9204    0.0000 C   0  0  0  0  0  0  0  0  0  0  0  0
    0.7500   -4.9204    0.0000 C   0  0  0  0  0  0  0  0  0  0  0  0
    1.8107   -3.8597    0.0000 S   0  0  0  0  0  4  0  0  0  0  0  0
    1.8107   -2.3597    0.0000 C   0  0  0  0  0  0  0  0  0  0  0  0
    3.1965   -1.7857    0.0000 C   0  0  0  0  0  0  0  0  0  0  0  0
    3.3923   -0.2985    0.0000 O   0  0  0  0  0  0  0  0  0  0  0  0
    4.3865   -2.6988    0.0000 N   0  0  0  0  0  0  0  0  0  0  0  0
    5.7723   -2.1248    0.0000 C   0  0  0  0  0  0  0  0  0  0  0  0
    6.9624   -3.0379    0.0000 N   0  0  0  0  0  0  0  0  0  0  0  0
    8.3482   -2.4639    0.0000 N   0  0  0  0  0  0  0  0  0  0  0  0
    8.5440   -0.9767    0.0000 N   0  0  0  0  0  0  0  0  0  0  0  0
    7.3539   -0.0636    0.0000 N   0  0  0  0  0  0  0  0  0  0  0  0
    5.9681   -0.6376    0.0000 N   0  0  0  0  0  0  0  0  0  0  0  0
    0.7500   -1.2990    0.0000 C   0  0  0  0  0  0  0  0  0  0  0  0
    1.5000    0.0000    0.0000 C   0  0  0  0  0  0  0  0  0  0  0  0
    0.7500    1.2990    0.0000 C   0  0  0  0  0  0  0  0  0  0  0  0
   -0.7500    1.2990    0.0000 C   0  0  0  0  0  0  0  0  0  0  0  0
   -1.5000    0.0000    0.0000 C   0  0  0  0  0  0  0  0  0  0  0  0
   -0.7500   -1.2990    0.0000 C   0  0  0  0  0  0  0  0  0  0  0  0
   -1.8107   -2.3597    0.0000 C   0  0  0  0  0  0  0  0  0  0  0  0
   -3.1097   -1.6097    0.0000 C   0  0  0  0  0  0  0  0  0  0  0  0
   -4.4087   -2.3597    0.0000 C   0  0  0  0  0  0  0  0  0  0  0  0
   -4.4087   -3.8597    0.0000 C   0  0  0  0  0  0  0  0  0  0  0  0
   -3.1097   -4.6097    0.0000 C   0  0  0  0  0  0  0  0  0  0  0  0
   -1.8107   -3.8597    0.0000 C   0  0  0  0  0  0  0  0  0  0  0  0
  1  2  1  0
  2  3  2  0
  3  4  1  0
  4  5  2  0
  5  6  1  0
  6  7  2  0
  6  8  1  0
  8  9  1  0
  9 10  2  0
 10 11  1  0
 11 12  2  0
 12 13  1  0
 13 14  2  0
  5 15  1  0
 15 16  2  0
 16 17  1  0
 17 18  2  0
 18 19  1  0
 19 20  2  0
 20 21  1  0
 21 22  2  0
 22 23  1  0
 23 24  2  0
 24 25  1  0
 25 26  2  0
 26  2  1  0
 14  9  1  0
 20 15  1  0
 26 21  1  0
M  END
>  <Title>  (563) 
idAATWgen7

$$$$

     RDKit          2D

 10 10  0  0  0  0  0  0  0  0999 V2000
    5.0260   -1.2990    0.0000 C   0  0  0  0  0  0  0  0  0  0  0  0
    3.5260   -1.2990    0.0000 C   0  0  0  0  0  0  0  0  0  0  0  0
    2.7760   -2.5981    0.0000 C   0  0  0  0  0  0  0  0  0  0  0  0
    3.5260   -3.8971    0.0000 O   0  0  0  0  0  0  0  0  0  0  0  0
    2.7760    0.0000    0.0000 C   0  0  0  0  0  0  0  0  0  0  0  0
    1.2760    0.0000    0.0000 C   0  0  0  0  0  0  0  0  0  0  0  0
    0.3943    1.2135    0.0000 C   0  0  0  0  0  0  0  0  0  0  0  0
   -1.0323    0.7500    0.0000 C   0  0  0  0  0  0  0  0  0  0  0  0
   -1.0323   -0.7500    0.0000 C   0  0  0  0  0  0  0  0  0  0  0  0
    0.3943   -1.2135    0.0000 C   0  0  0  0  0  0  0  0  0  0  0  0
  1  2  1  0
  2  3  1  0
  3  4  1  0
  2  5  1  0
  5  6  1  0
  6  7  1  0
  7  8  1  0
  8  9  2  0
  9 10  1  0
 10  6  1  0
M  END
>  <Title>  (564) 
idAATXgen7

$$$$

     RDKit          2D

 81 86  0  0  0  0  0  0  0  0999 V2000
  -11.0622   -4.8296    0.0000 C   0  0  0  0  0  0  0  0  0  0  0  0
   -9.9286   -5.8119    0.0000 C   0  0  0  0  0  0  0  0  0  0  0  0
  -10.8446   -6.9997    0.0000 C   0  0  0  0  0  0  0  0  0  0  0  0
  -11.6192   -8.2842    0.0000 C   0  0  0  0  0  0  0  0  0  0  0  0
  -12.2423   -9.6487    0.0000 C   0  0  0  0  0  0  0  0  0  0  0  0
  -12.7058  -11.0753    0.0000 C   0  0  0  0  0  0  0  0  0  0  0  0
  -13.0037  -12.5454    0.0000 C   0  0  0  0  0  0  0  0  0  0  0  0
  -13.1321  -14.0399    0.0000 C   0  0  0  0  0  0  0  0  0  0  0  0
  -13.0892  -15.5393    0.0000 C   0  0  0  0  0  0  0  0  0  0  0  0
  -12.8758  -17.0240    0.0000 C   0  0  0  0  0  0  0  0  0  0  0  0
  -12.4944  -18.4747    0.0000 C   0  0  0  0  0  0  0  0  0  0  0  0
  -11.9502  -19.8725    0.0000 C   0  0  0  0  0  0  0  0  0  0  0  0
  -11.2502  -21.1992    0.0000 C   0  0  0  0  0  0  0  0  0  0  0  0
  -10.4036  -22.4374    0.0000 C   0  0  0  0  0  0  0  0  0  0  0  0
   -9.4213  -23.5710    0.0000 C   0  0  0  0  0  0  0  0  0  0  0  0
   -8.3162  -24.5853    0.0000 C   0  0  0  0  0  0  0  0  0  0  0  0
   -7.1026  -25.4669    0.0000 C   0  0  0  0  0  0  0  0  0  0  0  0
   -5.7965  -26.2045    0.0000 C   0  0  0  0  0  0  0  0  0  0  0  0
   -4.4148  -26.7884    0.0000 C   0  0  0  0  0  0  0  0  0  0  0  0
   -2.9756  -27.2110    0.0000 C   0  0  0  0  0  0  0  0  0  0  0  0
   -1.4976  -27.4668    0.0000 C   0  0  0  0  0  0  0  0  0  0  0  0
   -0.0000  -27.5525    0.0000 C   0  0  0  0  0  0  0  0  0  0  0  0
    1.4976  -27.4668    0.0000 C   0  0  0  0  0  0  0  0  0  0  0  0
    2.9756  -27.2110    0.0000 C   0  0  0  0  0  0  0  0  0  0  0  0
    4.4148  -26.7884    0.0000 C   0  0  0  0  0  0  0  0  0  0  0  0
    5.7965  -26.2045    0.0000 C   0  0  0  0  0  0  0  0  0  0  0  0
    7.1026  -25.4669    0.0000 C   0  0  0  0  0  0  0  0  0  0  0  0
    8.3162  -24.5853    0.0000 C   0  0  0  0  0  0  0  0  0  0  0  0
    9.4213  -23.5710    0.0000 C   0  0  0  0  0  0  0  0  0  0  0  0
   10.4036  -22.4374    0.0000 C   0  0  0  0  0  0  0  0  0  0  0  0
   11.2502  -21.1992    0.0000 C   0  0  0  0  0  0  0  0  0  0  0  0
   11.9502  -19.8725    0.0000 C   0  0  0  0  0  0  0  0  0  0  0  0
   12.4944  -18.4747    0.0000 C   0  0  0  0  0  0  0  0  0  0  0  0
   12.8758  -17.0240    0.0000 C   0  0  0  0  0  0  0  0  0  0  0  0
   13.0892  -15.5393    0.0000 C   0  0  0  0  0  0  0  0  0  0  0  0
   13.1321  -14.0399    0.0000 C   0  0  0  0  0  0  0  0  0  0  0  0
   13.0037  -12.5454    0.0000 C   0  0  0  0  0  0  0  0  0  0  0  0
   12.7058  -11.0753    0.0000 C   0  0  0  0  0  0  0  0  0  0  0  0
   12.2423   -9.6487    0.0000 C   0  0  0  0  0  0  0  0  0  0  0  0
   11.6192   -8.2842    0.0000 C   0  0  0  0  0  0  0  0  0  0  0  0
   10.8446   -6.9997    0.0000 C   0  0  0  0  0  0  0  0  0  0  0  0
    9.9286   -5.8119    0.0000 C   0  0  0  0  0  0  0  0  0  0  0  0
    8.8832   -4.7362    0.0000 C   0  0  0  0  0  0  0  0  0  0  0  0
    7.7220   -3.7866    0.0000 C   0  0  0  0  0  0  0  0  0  0  0  0
    6.4601   -2.9757    0.0000 C   0  0  0  0  0  0  0  0  0  0  0  0
    5.1140   -2.3138    0.0000 C   0  0  0  0  0  0  0  0  0  0  0  0
    3.7012   -1.8098    0.0000 C   0  0  0  0  0  0  0  0  0  0  0  0
    2.2402   -1.4700    0.0000 C   0  0  0  0  0  0  0  0  0  0  0  0
    2.4960    0.0080    0.0000 C   0  0  0  0  0  0  0  0  0  0  0  0
    1.6105    1.2188    0.0000 O   0  0  0  0  0  0  0  0  0  0  0  0
    3.9039    0.5255    0.0000 N   0  0  0  0  0  0  0  0  0  0  0  0
    4.1597    2.0035    0.0000 C   0  0  0  0  0  0  0  0  0  0  0  0
    5.5676    2.5210    0.0000 N   0  0  0  0  0  0  0  0  0  0  0  0
    5.8234    3.9991    0.0000 N   0  0  0  0  0  0  0  0  0  0  0  0
    4.6713    4.9596    0.0000 N   0  0  0  0  0  0  0  0  0  0  0  0
    3.2634    4.4421    0.0000 N   0  0  0  0  0  0  0  0  0  0  0  0
    3.0076    2.9641    0.0000 N   0  0  0  0  0  0  0  0  0  0  0  0
    0.7500   -1.2990    0.0000 C   0  0  0  0  0  0  0  0  0  0  0  0
    1.5000    0.0000    0.0000 C   0  0  0  0  0  0  0  0  0  0  0  0
    0.7500    1.2990    0.0000 C   0  0  0  0  0  0  0  0  0  0  0  0
   -0.7500    1.2990    0.0000 C   0  0  0  0  0  0  0  0  0  0  0  0
   -1.5000    0.0000    0.0000 C   0  0  0  0  0  0  0  0  0  0  0  0
   -0.7500   -1.2990    0.0000 C   0  0  0  0  0  0  0  0  0  0  0  0
   -2.2402   -1.4700    0.0000 C   0  0  0  0  0  0  0  0  0  0  0  0
   -1.2155   -2.5654    0.0000 C   0  0  0  0  0  0  0  0  0  0  0  0
   -1.6518   -4.0006    0.0000 C   0  0  0  0  0  0  0  0  0  0  0  0
   -3.1128   -4.3403    0.0000 C   0  0  0  0  0  0  0  0  0  0  0  0
   -4.1375   -3.2449    0.0000 C   0  0  0  0  0  0  0  0  0  0  0  0
   -3.7012   -1.8098    0.0000 C   0  0  0  0  0  0  0  0  0  0  0  0
   -5.1140   -2.3138    0.0000 C   0  0  0  0  0  0  0  0  0  0  0  0
   -5.0141   -0.8172    0.0000 C   0  0  0  0  0  0  0  0  0  0  0  0
   -6.2603    0.0177    0.0000 C   0  0  0  0  0  0  0  0  0  0  0  0
   -7.6064   -0.6442    0.0000 C   0  0  0  0  0  0  0  0  0  0  0  0
   -7.7063   -2.1408    0.0000 C   0  0  0  0  0  0  0  0  0  0  0  0
   -6.4601   -2.9757    0.0000 C   0  0  0  0  0  0  0  0  0  0  0  0
   -7.7220   -3.7866    0.0000 C   0  0  0  0  0  0  0  0  0  0  0  0
   -6.3191   -4.3175    0.0000 C   0  0  0  0  0  0  0  0  0  0  0  0
   -6.0774   -5.7979    0.0000 C   0  0  0  0  0  0  0  0  0  0  0  0
   -7.2386   -6.7474    0.0000 C   0  0  0  0  0  0  0  0  0  0  0  0
   -8.6415   -6.2166    0.0000 C   0  0  0  0  0  0  0  0  0  0  0  0
   -8.8832   -4.7362    0.0000 C   0  0  0  0  0  0  0  0  0  0  0  0
  1  2  1  0
  2  3  1  0
  3  4  1  0
  4  5  1  0
  5  6  1  0
  6  7  1  0
  7  8  1  0
  8  9  1  0
  9 10  1  0
 10 11  1  0
 11 12  1  0
 12 13  1  0
 13 14  1  0
 14 15  1  0
 15 16  1  0
 16 17  1  0
 17 18  1  0
 18 19  1  0
 19 20  1  0
 20 21  1  0
 21 22  1  0
 22 23  1  0
 23 24  1  0
 24 25  1  0
 25 26  1  0
 26 27  1  0
 27 28  1  0
 28 29  1  0
 29 30  1  0
 30 31  2  0
 31 32  1  0
 32 33  2  0
 33 34  1  0
 34 35  2  0
 35 36  1  0
 36 37  2  0
 37 38  1  0
 38 39  2  0
 39 40  1  0
 40 41  2  0
 41 42  1  0
 42 43  2  0
 43 44  1  0
 44 45  2  0
 45 46  1  0
 46 47  2  0
 47 48  1  0
 48 49  1  0
 49 50  2  0
 49 51  1  0
 51 52  1  0
 52 53  2  0
 53 54  1  0
 54 55  2  0
 55 56  1  0
 56 57  2  0
 48 58  1  0
 58 59  2  0
 59 60  1  0
 60 61  2  0
 61 62  1  0
 62 63  2  0
 63 64  1  0
 64 65  2  0
 65 66  1  0
 66 67  2  0
 67 68  1  0
 68 69  2  0
 69 70  1  0
 70 71  2  0
 71 72  1  0
 72 73  2  0
 73 74  1  0
 74 75  2  0
 75 76  1  0
 76 77  2  0
 77 78  1  0
 78 79  2  0
 79 80  1  0
 80 81  2  0
 81  2  1  0
 57 52  1  0
 63 58  1  0
 69 64  1  0
 75 70  1  0
 81 76  1  0
M  END
>  <Title>  (565) 
idAATYgen7

$$$$

     RDKit          2D

 75 80  0  0  0  0  0  0  0  0999 V2000
  -11.0622   -4.8296    0.0000 C   0  0  0  0  0  0  0  0  0  0  0  0
   -9.9286   -5.8119    0.0000 C   0  0  0  0  0  0  0  0  0  0  0  0
  -10.8446   -6.9997    0.0000 C   0  0  0  0  0  0  0  0  0  0  0  0
  -11.6192   -8.2842    0.0000 C   0  0  0  0  0  0  0  0  0  0  0  0
  -12.2423   -9.6487    0.0000 C   0  0  0  0  0  0  0  0  0  0  0  0
  -12.7058  -11.0753    0.0000 C   0  0  0  0  0  0  0  0  0  0  0  0
  -13.0037  -12.5454    0.0000 C   0  0  0  0  0  0  0  0  0  0  0  0
  -13.1321  -14.0399    0.0000 C   0  0  0  0  0  0  0  0  0  0  0  0
  -13.0892  -15.5393    0.0000 C   0  0  0  0  0  0  0  0  0  0  0  0
  -12.8758  -17.0240    0.0000 C   0  0  0  0  0  0  0  0  0  0  0  0
  -12.4944  -18.4747    0.0000 C   0  0  0  0  0  0  0  0  0  0  0  0
  -11.9502  -19.8725    0.0000 C   0  0  0  0  0  0  0  0  0  0  0  0
  -11.2502  -21.1992    0.0000 C   0  0  0  0  0  0  0  0  0  0  0  0
  -10.4036  -22.4374    0.0000 C   0  0  0  0  0  0  0  0  0  0  0  0
   -9.4213  -23.5710    0.0000 C   0  0  0  0  0  0  0  0  0  0  0  0
   -8.3162  -24.5853    0.0000 C   0  0  0  0  0  0  0  0  0  0  0  0
   -7.1026  -25.4669    0.0000 C   0  0  0  0  0  0  0  0  0  0  0  0
   -5.7965  -26.2045    0.0000 C   0  0  0  0  0  0  0  0  0  0  0  0
   -4.4148  -26.7884    0.0000 C   0  0  0  0  0  0  0  0  0  0  0  0
   -2.9756  -27.2110    0.0000 C   0  0  0  0  0  0  0  0  0  0  0  0
   -1.4976  -27.4668    0.0000 C   0  0  0  0  0  0  0  0  0  0  0  0
   -0.0000  -27.5525    0.0000 C   0  0  0  0  0  0  0  0  0  0  0  0
    1.4976  -27.4668    0.0000 C   0  0  0  0  0  0  0  0  0  0  0  0
    2.9756  -27.2110    0.0000 C   0  0  0  0  0  0  0  0  0  0  0  0
    4.4148  -26.7884    0.0000 C   0  0  0  0  0  0  0  0  0  0  0  0
    5.7965  -26.2045    0.0000 C   0  0  0  0  0  0  0  0  0  0  0  0
    7.1026  -25.4669    0.0000 C   0  0  0  0  0  0  0  0  0  0  0  0
    8.3162  -24.5853    0.0000 C   0  0  0  0  0  0  0  0  0  0  0  0
    9.4213  -23.5710    0.0000 C   0  0  0  0  0  0  0  0  0  0  0  0
   10.4036  -22.4374    0.0000 C   0  0  0  0  0  0  0  0  0  0  0  0
   11.2502  -21.1992    0.0000 C   0  0  0  0  0  0  0  0  0  0  0  0
   11.9502  -19.8725    0.0000 C   0  0  0  0  0  0  0  0  0  0  0  0
   12.4944  -18.4747    0.0000 C   0  0  0  0  0  0  0  0  0  0  0  0
   12.8758  -17.0240    0.0000 C   0  0  0  0  0  0  0  0  0  0  0  0
   13.0892  -15.5393    0.0000 C   0  0  0  0  0  0  0  0  0  0  0  0
   13.1321  -14.0399    0.0000 C   0  0  0  0  0  0  0  0  0  0  0  0
   13.0037  -12.5454    0.0000 C   0  0  0  0  0  0  0  0  0  0  0  0
   12.7058  -11.0753    0.0000 C   0  0  0  0  0  0  0  0  0  0  0  0
   12.2423   -9.6487    0.0000 C   0  0  0  0  0  0  0  0  0  0  0  0
   11.6192   -8.2842    0.0000 C   0  0  0  0  0  0  0  0  0  0  0  0
   10.8446   -6.9997    0.0000 C   0  0  0  0  0  0  0  0  0  0  0  0
    9.9286   -5.8119    0.0000 C   0  0  0  0  0  0  0  0  0  0  0  0
    8.8832   -4.7362    0.0000 C   0  0  0  0  0  0  0  0  0  0  0  0
    7.7220   -3.7866    0.0000 C   0  0  0  0  0  0  0  0  0  0  0  0
    6.4601   -2.9757    0.0000 C   0  0  0  0  0  0  0  0  0  0  0  0
    5.1140   -2.3138    0.0000 C   0  0  0  0  0  0  0  0  0  0  0  0
    3.7012   -1.8098    0.0000 C   0  0  0  0  0  0  0  0  0  0  0  0
    3.8296   -3.3043    0.0000 C   0  0  0  0  0  0  0  0  0  0  0  0
    2.4479   -3.8882    0.0000 C   0  0  0  0  0  0  0  0  0  0  0  0
    1.4656   -2.7545    0.0000 C   0  0  0  0  0  0  0  0  0  0  0  0
    2.2402   -1.4700    0.0000 C   0  0  0  0  0  0  0  0  0  0  0  0
    0.7500   -1.2990    0.0000 C   0  0  0  0  0  0  0  0  0  0  0  0
    1.5000    0.0000    0.0000 C   0  0  0  0  0  0  0  0  0  0  0  0
    0.7500    1.2990    0.0000 C   0  0  0  0  0  0  0  0  0  0  0  0
   -0.7500    1.2990    0.0000 C   0  0  0  0  0  0  0  0  0  0  0  0
   -1.5000    0.0000    0.0000 C   0  0  0  0  0  0  0  0  0  0  0  0
   -0.7500   -1.2990    0.0000 C   0  0  0  0  0  0  0  0  0  0  0  0
   -2.2402   -1.4700    0.0000 C   0  0  0  0  0  0  0  0  0  0  0  0
   -1.2155   -2.5654    0.0000 C   0  0  0  0  0  0  0  0  0  0  0  0
   -1.6518   -4.0006    0.0000 C   0  0  0  0  0  0  0  0  0  0  0  0
   -3.1128   -4.3403    0.0000 C   0  0  0  0  0  0  0  0  0  0  0  0
   -4.1375   -3.2449    0.0000 C   0  0  0  0  0  0  0  0  0  0  0  0
   -3.7012   -1.8098    0.0000 C   0  0  0  0  0  0  0  0  0  0  0  0
   -5.1140   -2.3138    0.0000 C   0  0  0  0  0  0  0  0  0  0  0  0
   -5.0141   -0.8172    0.0000 C   0  0  0  0  0  0  0  0  0  0  0  0
   -6.2603    0.0177    0.0000 C   0  0  0  0  0  0  0  0  0  0  0  0
   -7.6064   -0.6442    0.0000 C   0  0  0  0  0  0  0  0  0  0  0  0
   -7.7063   -2.1408    0.0000 C   0  0  0  0  0  0  0  0  0  0  0  0
   -6.4601   -2.9757    0.0000 C   0  0  0  0  0  0  0  0  0  0  0  0
   -7.7220   -3.7866    0.0000 C   0  0  0  0  0  0  0  0  0  0  0  0
   -6.3191   -4.3175    0.0000 C   0  0  0  0  0  0  0  0  0  0  0  0
   -6.0774   -5.7979    0.0000 C   0  0  0  0  0  0  0  0  0  0  0  0
   -7.2386   -6.7474    0.0000 C   0  0  0  0  0  0  0  0  0  0  0  0
   -8.6415   -6.2166    0.0000 C   0  0  0  0  0  0  0  0  0  0  0  0
   -8.8832   -4.7362    0.0000 C   0  0  0  0  0  0  0  0  0  0  0  0
  1  2  1  0
  2  3  1  0
  3  4  1  0
  4  5  1  0
  5  6  1  0
  6  7  1  0
  7  8  1  0
  8  9  1  0
  9 10  1  0
 10 11  1  0
 11 12  1  0
 12 13  1  0
 13 14  1  0
 14 15  1  0
 15 16  1  0
 16 17  1  0
 17 18  1  0
 18 19  1  0
 19 20  1  0
 20 21  1  0
 21 22  1  0
 22 23  1  0
 23 24  1  0
 24 25  2  0
 25 26  1  0
 26 27  2  0
 27 28  1  0
 28 29  2  0
 29 30  1  0
 30 31  2  0
 31 32  1  0
 32 33  2  0
 33 34  1  0
 34 35  2  0
 35 36  1  0
 36 37  2  0
 37 38  1  0
 38 39  2  0
 39 40  1  0
 40 41  2  0
 41 42  1  0
 42 43  2  0
 43 44  1  0
 44 45  2  0
 45 46  1  0
 46 47  2  0
 47 48  1  0
 48 49  2  0
 49 50  1  0
 50 51  2  0
 51 52  1  0
 52 53  2  0
 53 54  1  0
 54 55  2  0
 55 56  1  0
 56 57  2  0
 57 58  1  0
 58 59  2  0
 59 60  1  0
 60 61  2  0
 61 62  1  0
 62 63  2  0
 63 64  1  0
 64 65  2  0
 65 66  1  0
 66 67  2  0
 67 68  1  0
 68 69  2  0
 69 70  1  0
 70 71  2  0
 71 72  1  0
 72 73  2  0
 73 74  1  0
 74 75  2  0
 75  2  1  0
 51 47  1  0
 57 52  1  0
 63 58  1  0
 69 64  1  0
 75 70  1  0
M  END
>  <Title>  (566) 
idAATZgen7

$$$$

     RDKit          2D

  6  6  0  0  0  0  0  0  0  0999 V2000
    1.5000    0.0000    0.0000 C   0  0  0  0  0  0  0  0  0  0  0  0
    0.7500   -1.2990    0.0000 C   0  0  0  0  0  0  0  0  0  0  0  0
   -0.7500   -1.2990    0.0000 C   0  0  0  0  0  0  0  0  0  0  0  0
   -1.5000    0.0000    0.0000 C   0  0  0  0  0  0  0  0  0  0  0  0
   -0.7500    1.2990    0.0000 C   0  0  0  0  0  0  0  0  0  0  0  0
    0.7500    1.2990    0.0000 C   0  0  0  0  0  0  0  0  0  0  0  0
  1  2  2  0
  2  3  1  0
  3  4  2  0
  4  5  1  0
  5  6  2  0
  6  1  1  0
M  END
>  <Title>  (567) 
idAAUAgen7

$$$$

     RDKit          2D

 34 34  0  0  0  0  0  0  0  0999 V2000
    9.3901    0.0000    0.0000 C   0  0  0  0  0  0  0  0  0  0  0  0
    7.8901    0.0000    0.0000 C   0  0  0  0  0  0  0  0  0  0  0  0
    7.7475    1.4932    0.0000 C   0  0  0  0  0  0  0  0  0  0  0  0
    7.3249    2.9324    0.0000 C   0  0  0  0  0  0  0  0  0  0  0  0
    6.6376    4.2657    0.0000 C   0  0  0  0  0  0  0  0  0  0  0  0
    5.7103    5.4448    0.0000 C   0  0  0  0  0  0  0  0  0  0  0  0
    4.5767    6.4271    0.0000 C   0  0  0  0  0  0  0  0  0  0  0  0
    3.2777    7.1771    0.0000 C   0  0  0  0  0  0  0  0  0  0  0  0
    1.8602    7.6677    0.0000 C   0  0  0  0  0  0  0  0  0  0  0  0
    0.3754    7.8811    0.0000 C   0  0  0  0  0  0  0  0  0  0  0  0
   -1.1229    7.8098    0.0000 C   0  0  0  0  0  0  0  0  0  0  0  0
   -2.5806    7.4561    0.0000 C   0  0  0  0  0  0  0  0  0  0  0  0
   -3.9450    6.8330    0.0000 C   0  0  0  0  0  0  0  0  0  0  0  0
   -5.1669    5.9629    0.0000 C   0  0  0  0  0  0  0  0  0  0  0  0
   -6.2020    4.8773    0.0000 C   0  0  0  0  0  0  0  0  0  0  0  0
   -7.0130    3.6154    0.0000 C   0  0  0  0  0  0  0  0  0  0  0  0
   -7.5705    2.2229    0.0000 C   0  0  0  0  0  0  0  0  0  0  0  0
   -7.8544    0.7500    0.0000 C   0  0  0  0  0  0  0  0  0  0  0  0
   -7.8544   -0.7500    0.0000 C   0  0  0  0  0  0  0  0  0  0  0  0
   -7.5705   -2.2229    0.0000 C   0  0  0  0  0  0  0  0  0  0  0  0
   -7.0130   -3.6154    0.0000 C   0  0  0  0  0  0  0  0  0  0  0  0
   -6.2020   -4.8773    0.0000 C   0  0  0  0  0  0  0  0  0  0  0  0
   -5.1669   -5.9629    0.0000 C   0  0  0  0  0  0  0  0  0  0  0  0
   -3.9450   -6.8330    0.0000 C   0  0  0  0  0  0  0  0  0  0  0  0
   -2.5806   -7.4561    0.0000 C   0  0  0  0  0  0  0  0  0  0  0  0
   -1.1229   -7.8098    0.0000 C   0  0  0  0  0  0  0  0  0  0  0  0
    0.3754   -7.8811    0.0000 C   0  0  0  0  0  0  0  0  0  0  0  0
    1.8602   -7.6677    0.0000 C   0  0  0  0  0  0  0  0  0  0  0  0
    3.2777   -7.1771    0.0000 C   0  0  0  0  0  0  0  0  0  0  0  0
    4.5767   -6.4271    0.0000 C   0  0  0  0  0  0  0  0  0  0  0  0
    5.7103   -5.4448    0.0000 C   0  0  0  0  0  0  0  0  0  0  0  0
    6.6376   -4.2657    0.0000 C   0  0  0  0  0  0  0  0  0  0  0  0
    7.3249   -2.9324    0.0000 C   0  0  0  0  0  0  0  0  0  0  0  0
    7.7475   -1.4932    0.0000 C   0  0  0  0  0  0  0  0  0  0  0  0
  1  2  1  0
  2  3  1  0
  3  4  2  0
  4  5  1  0
  5  6  2  0
  6  7  1  0
  7  8  1  0
  8  9  1  0
  9 10  1  0
 10 11  1  0
 11 12  1  0
 12 13  1  0
 13 14  1  0
 14 15  1  0
 15 16  1  0
 16 17  1  0
 17 18  1  0
 18 19  1  0
 19 20  1  0
 20 21  1  0
 21 22  1  0
 22 23  1  0
 23 24  1  0
 24 25  1  0
 25 26  1  0
 26 27  1  0
 27 28  1  0
 28 29  1  0
 29 30  1  0
 30 31  1  0
 31 32  1  0
 32 33  1  0
 33 34  1  0
 34  2  1  0
M  END
>  <Title>  (568) 
idAAUBgen7

$$$$

     RDKit          2D

 44 44  0  0  0  0  0  0  0  0999 V2000
   11.7746    0.0000    0.0000 C   0  0  0  0  0  0  0  0  0  0  0  0
   10.2746    0.0000    0.0000 C   0  0  0  0  0  0  0  0  0  0  0  0
   10.1651    1.4960    0.0000 C   0  0  0  0  0  0  0  0  0  0  0  0
    9.8390    2.9601    0.0000 C   0  0  0  0  0  0  0  0  0  0  0  0
    9.3031    4.3611    0.0000 C   0  0  0  0  0  0  0  0  0  0  0  0
    8.5690    5.6692    0.0000 C   0  0  0  0  0  0  0  0  0  0  0  0
    7.6523    6.8565    0.0000 C   0  0  0  0  0  0  0  0  0  0  0  0
    6.5724    7.8976    0.0000 C   0  0  0  0  0  0  0  0  0  0  0  0
    5.3525    8.7704    0.0000 C   0  0  0  0  0  0  0  0  0  0  0  0
    4.0185    9.4562    0.0000 C   0  0  0  0  0  0  0  0  0  0  0  0
    2.5988    9.9405    0.0000 C   0  0  0  0  0  0  0  0  0  0  0  0
    1.1237   10.2130    0.0000 C   0  0  0  0  0  0  0  0  0  0  0  0
   -0.3753   10.2678    0.0000 C   0  0  0  0  0  0  0  0  0  0  0  0
   -1.8663   10.1037    0.0000 C   0  0  0  0  0  0  0  0  0  0  0  0
   -3.3175    9.7243    0.0000 C   0  0  0  0  0  0  0  0  0  0  0  0
   -4.6980    9.1377    0.0000 C   0  0  0  0  0  0  0  0  0  0  0  0
   -5.9784    8.3563    0.0000 C   0  0  0  0  0  0  0  0  0  0  0  0
   -7.1314    7.3967    0.0000 C   0  0  0  0  0  0  0  0  0  0  0  0
   -8.1323    6.2796    0.0000 C   0  0  0  0  0  0  0  0  0  0  0  0
   -8.9600    5.0286    0.0000 C   0  0  0  0  0  0  0  0  0  0  0  0
   -9.5967    3.6704    0.0000 C   0  0  0  0  0  0  0  0  0  0  0  0
  -10.0288    2.2340    0.0000 C   0  0  0  0  0  0  0  0  0  0  0  0
  -10.2472    0.7500    0.0000 C   0  0  0  0  0  0  0  0  0  0  0  0
  -10.2472   -0.7500    0.0000 C   0  0  0  0  0  0  0  0  0  0  0  0
  -10.0288   -2.2340    0.0000 C   0  0  0  0  0  0  0  0  0  0  0  0
   -9.5967   -3.6704    0.0000 C   0  0  0  0  0  0  0  0  0  0  0  0
   -8.9600   -5.0286    0.0000 C   0  0  0  0  0  0  0  0  0  0  0  0
   -8.1323   -6.2796    0.0000 C   0  0  0  0  0  0  0  0  0  0  0  0
   -7.1314   -7.3967    0.0000 C   0  0  0  0  0  0  0  0  0  0  0  0
   -5.9784   -8.3563    0.0000 C   0  0  0  0  0  0  0  0  0  0  0  0
   -4.6980   -9.1377    0.0000 C   0  0  0  0  0  0  0  0  0  0  0  0
   -3.3175   -9.7243    0.0000 C   0  0  0  0  0  0  0  0  0  0  0  0
   -1.8663  -10.1037    0.0000 C   0  0  0  0  0  0  0  0  0  0  0  0
   -0.3753  -10.2678    0.0000 C   0  0  0  0  0  0  0  0  0  0  0  0
    1.1237  -10.2130    0.0000 C   0  0  0  0  0  0  0  0  0  0  0  0
    2.5988   -9.9405    0.0000 C   0  0  0  0  0  0  0  0  0  0  0  0
    4.0185   -9.4562    0.0000 C   0  0  0  0  0  0  0  0  0  0  0  0
    5.3525   -8.7704    0.0000 C   0  0  0  0  0  0  0  0  0  0  0  0
    6.5724   -7.8976    0.0000 C   0  0  0  0  0  0  0  0  0  0  0  0
    7.6523   -6.8565    0.0000 C   0  0  0  0  0  0  0  0  0  0  0  0
    8.5690   -5.6692    0.0000 C   0  0  0  0  0  0  0  0  0  0  0  0
    9.3031   -4.3611    0.0000 C   0  0  0  0  0  0  0  0  0  0  0  0
    9.8390   -2.9601    0.0000 C   0  0  0  0  0  0  0  0  0  0  0  0
   10.1651   -1.4960    0.0000 C   0  0  0  0  0  0  0  0  0  0  0  0
  1  2  1  0
  2  3  1  0
  3  4  2  0
  4  5  1  0
  5  6  2  0
  6  7  1  0
  7  8  2  0
  8  9  1  0
  9 10  1  0
 10 11  1  0
 11 12  1  0
 12 13  1  0
 13 14  1  0
 14 15  1  0
 15 16  1  0
 16 17  1  0
 17 18  1  0
 18 19  1  0
 19 20  1  0
 20 21  1  0
 21 22  1  0
 22 23  1  0
 23 24  1  0
 24 25  1  0
 25 26  1  0
 26 27  1  0
 27 28  1  0
 28 29  1  0
 29 30  1  0
 30 31  1  0
 31 32  1  0
 32 33  1  0
 33 34  1  0
 34 35  1  0
 35 36  1  0
 36 37  1  0
 37 38  1  0
 38 39  1  0
 39 40  1  0
 40 41  1  0
 41 42  1  0
 42 43  1  0
 43 44  1  0
 44  2  1  0
M  END
>  <Title>  (569) 
idAAUCgen7

$$$$

     RDKit          2D

 42 43  0  0  0  0  0  0  0  0999 V2000
    9.1517    0.0000    0.0000 C   0  0  0  0  0  0  0  0  0  0  0  0
    7.6517    0.0000    0.0000 C   0  0  0  0  0  0  0  0  0  0  0  0
    7.5047   -1.4928    0.0000 C   0  0  0  0  0  0  0  0  0  0  0  0
    7.0693   -2.9282    0.0000 C   0  0  0  0  0  0  0  0  0  0  0  0
    6.3622   -4.2511    0.0000 C   0  0  0  0  0  0  0  0  0  0  0  0
    5.4106   -5.4106    0.0000 C   0  0  0  0  0  0  0  0  0  0  0  0
    4.2511   -6.3622    0.0000 C   0  0  0  0  0  0  0  0  0  0  0  0
    2.9282   -7.0693    0.0000 C   0  0  0  0  0  0  0  0  0  0  0  0
    1.4928   -7.5047    0.0000 C   0  0  0  0  0  0  0  0  0  0  0  0
   -0.0000   -7.6517    0.0000 C   0  0  0  0  0  0  0  0  0  0  0  0
   -1.4928   -7.5047    0.0000 C   0  0  0  0  0  0  0  0  0  0  0  0
   -2.9282   -7.0693    0.0000 C   0  0  0  0  0  0  0  0  0  0  0  0
   -4.2511   -6.3622    0.0000 C   0  0  0  0  0  0  0  0  0  0  0  0
   -5.4106   -5.4106    0.0000 C   0  0  0  0  0  0  0  0  0  0  0  0
   -6.3622   -4.2511    0.0000 C   0  0  0  0  0  0  0  0  0  0  0  0
   -7.0693   -2.9282    0.0000 C   0  0  0  0  0  0  0  0  0  0  0  0
   -7.5047   -1.4928    0.0000 C   0  0  0  0  0  0  0  0  0  0  0  0
   -7.6517    0.0000    0.0000 C   0  0  0  0  0  0  0  0  0  0  0  0
   -7.5047    1.4928    0.0000 C   0  0  0  0  0  0  0  0  0  0  0  0
   -7.0693    2.9282    0.0000 C   0  0  0  0  0  0  0  0  0  0  0  0
   -6.3622    4.2511    0.0000 C   0  0  0  0  0  0  0  0  0  0  0  0
   -5.4106    5.4106    0.0000 C   0  0  0  0  0  0  0  0  0  0  0  0
   -4.2511    6.3622    0.0000 C   0  0  0  0  0  0  0  0  0  0  0  0
   -2.9282    7.0693    0.0000 C   0  0  0  0  0  0  0  0  0  0  0  0
   -1.4928    7.5047    0.0000 C   0  0  0  0  0  0  0  0  0  0  0  0
    0.0000    7.6517    0.0000 C   0  0  0  0  0  0  0  0  0  0  0  0
    1.4928    7.5047    0.0000 C   0  0  0  0  0  0  0  0  0  0  0  0
    2.9282    7.0693    0.0000 C   0  0  0  0  0  0  0  0  0  0  0  0
    4.2511    6.3622    0.0000 C   0  0  0  0  0  0  0  0  0  0  0  0
    5.4106    5.4106    0.0000 C   0  0  0  0  0  0  0  0  0  0  0  0
    6.3622    4.2511    0.0000 C   0  0  0  0  0  0  0  0  0  0  0  0
    7.0693    2.9282    0.0000 C   0  0  0  0  0  0  0  0  0  0  0  0
    8.4551    3.5022    0.0000 C   0  0  0  0  0  0  0  0  0  0  0  0
    9.6451    2.5891    0.0000 O   0  0  0  0  0  0  0  0  0  0  0  0
    8.6509    4.9894    0.0000 N   0  0  0  0  0  0  0  0  0  0  0  0
   10.0367    5.5634    0.0000 C   0  0  0  0  0  0  0  0  0  0  0  0
   11.2267    4.6503    0.0000 N   0  0  0  0  0  0  0  0  0  0  0  0
   12.6125    5.2243    0.0000 N   0  0  0  0  0  0  0  0  0  0  0  0
   12.8083    6.7115    0.0000 N   0  0  0  0  0  0  0  0  0  0  0  0
   11.6183    7.6246    0.0000 N   0  0  0  0  0  0  0  0  0  0  0  0
   10.2325    7.0506    0.0000 N   0  0  0  0  0  0  0  0  0  0  0  0
    7.5047    1.4928    0.0000 C   0  0  0  0  0  0  0  0  0  0  0  0
  1  2  1  0
  2  3  1  0
  3  4  1  0
  4  5  1  0
  5  6  1  0
  6  7  1  0
  7  8  1  0
  8  9  1  0
  9 10  1  0
 10 11  1  0
 11 12  1  0
 12 13  1  0
 13 14  1  0
 14 15  1  0
 15 16  1  0
 16 17  1  0
 17 18  1  0
 18 19  1  0
 19 20  1  0
 20 21  1  0
 21 22  1  0
 22 23  1  0
 23 24  1  0
 24 25  1  0
 25 26  1  0
 26 27  1  0
 27 28  1  0
 28 29  1  0
 29 30  1  0
 30 31  2  0
 31 32  1  0
 32 33  1  0
 33 34  2  0
 33 35  1  0
 35 36  1  0
 36 37  2  0
 37 38  1  0
 38 39  2  0
 39 40  1  0
 40 41  2  0
 32 42  1  0
 42  2  1  0
 41 36  1  0
M  END
>  <Title>  (570) 
idAAUDgen7

$$$$

     RDKit          2D

 22 24  0  0  0  0  0  0  0  0999 V2000
   -6.9624   -3.0379    0.0000 C   0  0  0  0  0  0  0  0  0  0  0  0
   -5.7723   -2.1248    0.0000 C   0  0  0  0  0  0  0  0  0  0  0  0
   -5.9681   -0.6376    0.0000 O   0  0  0  0  0  0  0  0  0  0  0  0
   -4.3865   -2.6988    0.0000 C   0  0  0  0  0  0  0  0  0  0  0  0
   -4.1907   -4.1860    0.0000 O   0  0  0  0  0  0  0  0  0  0  0  0
   -3.1965   -1.7857    0.0000 N   0  0  0  0  0  0  0  0  0  0  0  0
   -1.8107   -2.3597    0.0000 C   0  0  0  0  0  0  0  0  0  0  0  0
   -1.8107   -3.8597    0.0000 N   0  0  0  0  0  0  0  0  0  0  0  0
   -0.7500   -4.9204    0.0000 N   0  0  0  0  0  0  0  0  0  0  0  0
    0.7500   -4.9204    0.0000 N   0  0  0  0  0  0  0  0  0  0  0  0
    1.8107   -3.8597    0.0000 N   0  0  0  0  0  0  0  0  0  0  0  0
    3.2372   -4.3232    0.0000 C   0  0  0  0  0  0  0  0  0  0  0  0
    4.1189   -3.1097    0.0000 C   0  0  0  0  0  0  0  0  0  0  0  0
    3.2372   -1.8962    0.0000 C   0  0  0  0  0  0  0  0  0  0  0  0
    3.7008   -0.4696    0.0000 C   0  0  0  0  0  0  0  0  0  0  0  0
    1.8107   -2.3597    0.0000 C   0  0  0  0  0  0  0  0  0  0  0  0
    0.7500   -1.2990    0.0000 C   0  0  0  0  0  0  0  0  0  0  0  0
    1.5000    0.0000    0.0000 C   0  0  0  0  0  0  0  0  0  0  0  0
    0.7500    1.2990    0.0000 C   0  0  0  0  0  0  0  0  0  0  0  0
   -0.7500    1.2990    0.0000 C   0  0  0  0  0  0  0  0  0  0  0  0
   -1.5000    0.0000    0.0000 C   0  0  0  0  0  0  0  0  0  0  0  0
   -0.7500   -1.2990    0.0000 C   0  0  0  0  0  0  0  0  0  0  0  0
  1  2  1  0
  2  3  2  0
  2  4  1  0
  4  5  2  0
  4  6  1  0
  6  7  1  0
  7  8  2  0
  8  9  1  0
  9 10  2  0
 10 11  1  0
 11 12  1  0
 12 13  1  0
 13 14  1  0
 14 15  1  0
 14 16  1  0
 16 17  1  0
 17 18  2  0
 18 19  1  0
 19 20  2  0
 20 21  1  0
 21 22  2  0
 22  7  1  0
 16 11  1  0
 22 17  1  0
M  END
>  <Title>  (571) 
idAAUEgen7

$$$$

     RDKit          2D

 15 16  0  0  0  0  0  0  0  0999 V2000
    3.0613   -7.3456    0.0000 O   0  0  0  0  0  0  0  0  0  0  0  0
    1.8478   -6.4639    0.0000 C   0  0  0  0  0  0  0  0  0  0  0  0
    0.4775   -7.0740    0.0000 C   0  0  0  0  0  0  0  0  0  0  0  0
    0.3207   -8.5658    0.0000 O   0  0  0  0  0  0  0  0  0  0  0  0
    2.0046   -4.9721    0.0000 N   0  0  0  0  0  0  0  0  0  0  0  0
    3.3037   -4.2221    0.0000 C   0  0  0  0  0  0  0  0  0  0  0  0
    2.9918   -2.7549    0.0000 C   0  0  0  0  0  0  0  0  0  0  0  0
    1.5000   -2.5981    0.0000 C   0  0  0  0  0  0  0  0  0  0  0  0
    0.7500   -1.2990    0.0000 C   0  0  0  0  0  0  0  0  0  0  0  0
    1.5000    0.0000    0.0000 C   0  0  0  0  0  0  0  0  0  0  0  0
    0.7500    1.2990    0.0000 C   0  0  0  0  0  0  0  0  0  0  0  0
   -0.7500    1.2990    0.0000 C   0  0  0  0  0  0  0  0  0  0  0  0
   -1.5000    0.0000    0.0000 C   0  0  0  0  0  0  0  0  0  0  0  0
   -0.7500   -1.2990    0.0000 C   0  0  0  0  0  0  0  0  0  0  0  0
    0.8899   -3.9684    0.0000 C   0  0  0  0  0  0  0  0  0  0  0  0
  1  2  2  0
  2  3  1  0
  3  4  1  0
  2  5  1  0
  5  6  1  0
  6  7  1  0
  7  8  1  0
  8  9  1  0
  9 10  2  0
 10 11  1  0
 11 12  2  0
 12 13  1  0
 13 14  2  0
  8 15  1  0
 15  5  1  0
 14  9  1  0
M  END
>  <Title>  (572) 
idAAUFgen7

$$$$

     RDKit          2D

 28 31  0  0  0  0  0  0  0  0999 V2000
   -3.0367   -8.3929    0.0000 C   0  0  0  0  0  0  0  0  0  0  0  0
   -2.1015   -7.2201    0.0000 C   0  0  0  0  0  0  0  0  0  0  0  0
   -0.7500   -7.8710    0.0000 C   0  0  0  0  0  0  0  0  0  0  0  0
    0.7500   -7.8710    0.0000 C   0  0  0  0  0  0  0  0  0  0  0  0
    2.1015   -7.2201    0.0000 N   0  0  0  0  0  0  0  0  0  0  0  0
    3.0367   -6.0474    0.0000 C   0  0  0  0  0  0  0  0  0  0  0  0
    3.3705   -4.5850    0.0000 C   0  0  0  0  0  0  0  0  0  0  0  0
    3.0367   -3.1226    0.0000 C   0  0  0  0  0  0  0  0  0  0  0  0
    4.3881   -2.4718    0.0000 O   0  0  0  0  0  0  0  0  0  0  0  0
    2.1015   -1.9499    0.0000 N   0  0  0  0  0  0  0  0  0  0  0  0
    0.7500   -1.2990    0.0000 C   0  0  0  0  0  0  0  0  0  0  0  0
    1.5000    0.0000    0.0000 N   0  0  0  0  0  0  0  0  0  0  0  0
    0.7500    1.2990    0.0000 N   0  0  0  0  0  0  0  0  0  0  0  0
   -0.7500    1.2990    0.0000 N   0  0  0  0  0  0  0  0  0  0  0  0
   -1.5000    0.0000    0.0000 N   0  0  0  0  0  0  0  0  0  0  0  0
   -0.7500   -1.2990    0.0000 C   0  0  0  0  0  0  0  0  0  0  0  0
   -2.1015   -1.9499    0.0000 C   0  0  0  0  0  0  0  0  0  0  0  0
   -2.6495   -0.5536    0.0000 C   0  0  0  0  0  0  0  0  0  0  0  0
   -4.1327   -0.3300    0.0000 C   0  0  0  0  0  0  0  0  0  0  0  0
   -5.0679   -1.5027    0.0000 C   0  0  0  0  0  0  0  0  0  0  0  0
   -4.5199   -2.8990    0.0000 C   0  0  0  0  0  0  0  0  0  0  0  0
   -3.0367   -3.1226    0.0000 C   0  0  0  0  0  0  0  0  0  0  0  0
   -3.3705   -4.5850    0.0000 C   0  0  0  0  0  0  0  0  0  0  0  0
   -4.8038   -4.1429    0.0000 C   0  0  0  0  0  0  0  0  0  0  0  0
   -5.9034   -5.1631    0.0000 C   0  0  0  0  0  0  0  0  0  0  0  0
   -5.5696   -6.6255    0.0000 C   0  0  0  0  0  0  0  0  0  0  0  0
   -4.1363   -7.0677    0.0000 C   0  0  0  0  0  0  0  0  0  0  0  0
   -3.0367   -6.0474    0.0000 C   0  0  0  0  0  0  0  0  0  0  0  0
  1  2  1  0
  2  3  1  0
  3  4  1  0
  4  5  1  0
  5  6  1  0
  6  7  1  0
  7  8  1  0
  8  9  2  0
  8 10  1  0
 10 11  1  0
 11 12  2  0
 12 13  1  0
 13 14  2  0
 14 15  1  0
 15 16  2  0
 16 17  1  0
 17 18  2  0
 18 19  1  0
 19 20  2  0
 20 21  1  0
 21 22  2  0
 22 23  1  0
 23 24  2  0
 24 25  1  0
 25 26  2  0
 26 27  1  0
 27 28  2  0
 28  2  1  0
 16 11  1  0
 22 17  1  0
 28 23  1  0
M  END
>  <Title>  (573) 
idAAUGgen7

$$$$

     RDKit          2D

 59 60  0  0  0  0  0  0  0  0999 V2000
   -2.5003    0.0040    0.0000 C   0  0  0  0  0  0  0  0  0  0  0  0
   -2.2399   -1.4732    0.0000 C   0  0  0  0  0  0  0  0  0  0  0  0
   -3.6994   -1.8191    0.0000 C   0  0  0  0  0  0  0  0  0  0  0  0
   -5.1090   -2.3321    0.0000 C   0  0  0  0  0  0  0  0  0  0  0  0
   -6.4494   -3.0053    0.0000 C   0  0  0  0  0  0  0  0  0  0  0  0
   -7.7026   -3.8296    0.0000 C   0  0  0  0  0  0  0  0  0  0  0  0
   -8.8517   -4.7938    0.0000 C   0  0  0  0  0  0  0  0  0  0  0  0
   -9.8811   -5.8848    0.0000 C   0  0  0  0  0  0  0  0  0  0  0  0
  -10.7768   -7.0880    0.0000 C   0  0  0  0  0  0  0  0  0  0  0  0
  -11.5268   -8.3871    0.0000 C   0  0  0  0  0  0  0  0  0  0  0  0
  -12.1209   -9.7644    0.0000 C   0  0  0  0  0  0  0  0  0  0  0  0
  -12.5511  -11.2014    0.0000 C   0  0  0  0  0  0  0  0  0  0  0  0
  -12.8116  -12.6786    0.0000 C   0  0  0  0  0  0  0  0  0  0  0  0
  -12.8988  -14.1760    0.0000 C   0  0  0  0  0  0  0  0  0  0  0  0
  -12.8116  -15.6735    0.0000 C   0  0  0  0  0  0  0  0  0  0  0  0
  -12.5511  -17.1507    0.0000 C   0  0  0  0  0  0  0  0  0  0  0  0
  -12.1209  -18.5877    0.0000 C   0  0  0  0  0  0  0  0  0  0  0  0
  -11.5268  -19.9650    0.0000 C   0  0  0  0  0  0  0  0  0  0  0  0
  -10.7768  -21.2641    0.0000 C   0  0  0  0  0  0  0  0  0  0  0  0
   -9.8811  -22.4672    0.0000 C   0  0  0  0  0  0  0  0  0  0  0  0
   -8.8517  -23.5583    0.0000 C   0  0  0  0  0  0  0  0  0  0  0  0
   -7.7026  -24.5225    0.0000 C   0  0  0  0  0  0  0  0  0  0  0  0
   -6.4494  -25.3468    0.0000 C   0  0  0  0  0  0  0  0  0  0  0  0
   -5.1090  -26.0200    0.0000 C   0  0  0  0  0  0  0  0  0  0  0  0
   -3.6994  -26.5330    0.0000 C   0  0  0  0  0  0  0  0  0  0  0  0
   -2.2399  -26.8789    0.0000 C   0  0  0  0  0  0  0  0  0  0  0  0
   -0.7500  -27.0530    0.0000 C   0  0  0  0  0  0  0  0  0  0  0  0
    0.7500  -27.0530    0.0000 C   0  0  0  0  0  0  0  0  0  0  0  0
    2.2399  -26.8789    0.0000 C   0  0  0  0  0  0  0  0  0  0  0  0
    3.6994  -26.5330    0.0000 C   0  0  0  0  0  0  0  0  0  0  0  0
    5.1090  -26.0200    0.0000 C   0  0  0  0  0  0  0  0  0  0  0  0
    6.4494  -25.3468    0.0000 C   0  0  0  0  0  0  0  0  0  0  0  0
    7.7026  -24.5225    0.0000 C   0  0  0  0  0  0  0  0  0  0  0  0
    8.8517  -23.5583    0.0000 C   0  0  0  0  0  0  0  0  0  0  0  0
    9.8811  -22.4672    0.0000 C   0  0  0  0  0  0  0  0  0  0  0  0
   10.7768  -21.2641    0.0000 C   0  0  0  0  0  0  0  0  0  0  0  0
   11.5268  -19.9650    0.0000 C   0  0  0  0  0  0  0  0  0  0  0  0
   12.1209  -18.5877    0.0000 C   0  0  0  0  0  0  0  0  0  0  0  0
   12.5511  -17.1507    0.0000 C   0  0  0  0  0  0  0  0  0  0  0  0
   12.8116  -15.6735    0.0000 C   0  0  0  0  0  0  0  0  0  0  0  0
   12.8988  -14.1760    0.0000 C   0  0  0  0  0  0  0  0  0  0  0  0
   12.8116  -12.6786    0.0000 C   0  0  0  0  0  0  0  0  0  0  0  0
   12.5511  -11.2014    0.0000 C   0  0  0  0  0  0  0  0  0  0  0  0
   12.1209   -9.7644    0.0000 C   0  0  0  0  0  0  0  0  0  0  0  0
   11.5268   -8.3871    0.0000 C   0  0  0  0  0  0  0  0  0  0  0  0
   10.7768   -7.0880    0.0000 C   0  0  0  0  0  0  0  0  0  0  0  0
    9.8811   -5.8848    0.0000 C   0  0  0  0  0  0  0  0  0  0  0  0
    8.8517   -4.7938    0.0000 C   0  0  0  0  0  0  0  0  0  0  0  0
    7.7026   -3.8296    0.0000 C   0  0  0  0  0  0  0  0  0  0  0  0
    6.4494   -3.0053    0.0000 N   0  0  0  0  0  0  0  0  0  0  0  0
    5.1090   -2.3321    0.0000 C   0  0  0  0  0  0  0  0  0  0  0  0
    3.6994   -1.8191    0.0000 C   0  0  0  0  0  0  0  0  0  0  0  0
    2.2399   -1.4732    0.0000 C   0  0  0  0  0  0  0  0  0  0  0  0
    0.7500   -1.2990    0.0000 C   0  0  0  0  0  0  0  0  0  0  0  0
    1.5000    0.0000    0.0000 C   0  0  0  0  0  0  0  0  0  0  0  0
    0.7500    1.2990    0.0000 C   0  0  0  0  0  0  0  0  0  0  0  0
   -0.7500    1.2990    0.0000 C   0  0  0  0  0  0  0  0  0  0  0  0
   -1.5000    0.0000    0.0000 C   0  0  0  0  0  0  0  0  0  0  0  0
   -0.7500   -1.2990    0.0000 C   0  0  0  0  0  0  0  0  0  0  0  0
  1  2  1  0
  2  3  1  0
  3  4  1  0
  4  5  1  0
  5  6  1  0
  6  7  1  0
  7  8  1  0
  8  9  1  0
  9 10  1  0
 10 11  1  0
 11 12  1  0
 12 13  1  0
 13 14  1  0
 14 15  1  0
 15 16  1  0
 16 17  1  0
 17 18  1  0
 18 19  1  0
 19 20  1  0
 20 21  1  0
 21 22  1  0
 22 23  1  0
 23 24  1  0
 24 25  1  0
 25 26  1  0
 26 27  1  0
 27 28  1  0
 28 29  1  0
 29 30  1  0
 30 31  1  0
 31 32  1  0
 32 33  1  0
 33 34  1  0
 34 35  1  0
 35 36  1  0
 36 37  1  0
 37 38  1  0
 38 39  1  0
 39 40  1  0
 40 41  1  0
 41 42  1  0
 42 43  1  0
 43 44  1  0
 44 45  1  0
 45 46  1  0
 46 47  1  0
 47 48  1  0
 48 49  1  0
 49 50  1  0
 50 51  1  0
 51 52  1  0
 52 53  1  0
 53 54  1  0
 54 55  2  0
 55 56  1  0
 56 57  2  0
 57 58  1  0
 58 59  2  0
 59  2  1  0
 59 54  1  0
M  END
>  <Title>  (574) 
idAAUHgen7

$$$$

     RDKit          2D

  6  6  0  0  0  0  0  0  0  0999 V2000
    1.5000    0.0000    0.0000 C   0  0  0  0  0  0  0  0  0  0  0  0
    0.7500   -1.2990    0.0000 C   0  0  0  0  0  0  0  0  0  0  0  0
   -0.7500   -1.2990    0.0000 C   0  0  0  0  0  0  0  0  0  0  0  0
   -1.5000    0.0000    0.0000 C   0  0  0  0  0  0  0  0  0  0  0  0
   -0.7500    1.2990    0.0000 C   0  0  0  0  0  0  0  0  0  0  0  0
    0.7500    1.2990    0.0000 C   0  0  0  0  0  0  0  0  0  0  0  0
  1  2  1  0
  2  3  1  0
  3  4  1  0
  4  5  1  0
  5  6  1  0
  6  1  1  0
M  END
>  <Title>  (575) 
idAAUIgen7

$$$$

     RDKit          2D

 98 98  0  0  0  0  0  0  0  0999 V2000
   24.6611    0.0000    0.0000 C   0  0  0  0  0  0  0  0  0  0  0  0
   23.1611    0.0000    0.0000 C   0  0  0  0  0  0  0  0  0  0  0  0
   23.1125    1.4992    0.0000 C   0  0  0  0  0  0  0  0  0  0  0  0
   22.9670    2.9921    0.0000 C   0  0  0  0  0  0  0  0  0  0  0  0
   22.7252    4.4725    0.0000 C   0  0  0  0  0  0  0  0  0  0  0  0
   22.3880    5.9341    0.0000 C   0  0  0  0  0  0  0  0  0  0  0  0
   21.9569    7.3709    0.0000 C   0  0  0  0  0  0  0  0  0  0  0  0
   21.4338    8.7767    0.0000 C   0  0  0  0  0  0  0  0  0  0  0  0
   20.8207   10.1457    0.0000 C   0  0  0  0  0  0  0  0  0  0  0  0
   20.1203   11.4721    0.0000 C   0  0  0  0  0  0  0  0  0  0  0  0
   19.3355   12.7504    0.0000 C   0  0  0  0  0  0  0  0  0  0  0  0
   18.4696   13.9753    0.0000 C   0  0  0  0  0  0  0  0  0  0  0  0
   17.5263   15.1415    0.0000 C   0  0  0  0  0  0  0  0  0  0  0  0
   16.5094   16.2442    0.0000 C   0  0  0  0  0  0  0  0  0  0  0  0
   15.4233   17.2788    0.0000 C   0  0  0  0  0  0  0  0  0  0  0  0
   14.2725   18.2409    0.0000 C   0  0  0  0  0  0  0  0  0  0  0  0
   13.0619   19.1265    0.0000 C   0  0  0  0  0  0  0  0  0  0  0  0
   11.7964   19.9319    0.0000 C   0  0  0  0  0  0  0  0  0  0  0  0
   10.4815   20.6537    0.0000 C   0  0  0  0  0  0  0  0  0  0  0  0
    9.1226   21.2888    0.0000 C   0  0  0  0  0  0  0  0  0  0  0  0
    7.7254   21.8347    0.0000 C   0  0  0  0  0  0  0  0  0  0  0  0
    6.2959   22.2890    0.0000 C   0  0  0  0  0  0  0  0  0  0  0  0
    4.8399   22.6498    0.0000 C   0  0  0  0  0  0  0  0  0  0  0  0
    3.3637   22.9155    0.0000 C   0  0  0  0  0  0  0  0  0  0  0  0
    1.8733   23.0852    0.0000 C   0  0  0  0  0  0  0  0  0  0  0  0
    0.3750   23.1581    0.0000 C   0  0  0  0  0  0  0  0  0  0  0  0
   -1.1248   23.1338    0.0000 C   0  0  0  0  0  0  0  0  0  0  0  0
   -2.6198   23.0124    0.0000 C   0  0  0  0  0  0  0  0  0  0  0  0
   -4.1039   22.7946    0.0000 C   0  0  0  0  0  0  0  0  0  0  0  0
   -5.5708   22.4812    0.0000 C   0  0  0  0  0  0  0  0  0  0  0  0
   -7.0143   22.0734    0.0000 C   0  0  0  0  0  0  0  0  0  0  0  0
   -8.4284   21.5731    0.0000 C   0  0  0  0  0  0  0  0  0  0  0  0
   -9.8072   20.9823    0.0000 C   0  0  0  0  0  0  0  0  0  0  0  0
  -11.1448   20.3034    0.0000 C   0  0  0  0  0  0  0  0  0  0  0  0
  -12.4357   19.5395    0.0000 C   0  0  0  0  0  0  0  0  0  0  0  0
  -13.6744   18.6935    0.0000 C   0  0  0  0  0  0  0  0  0  0  0  0
  -14.8557   17.7692    0.0000 C   0  0  0  0  0  0  0  0  0  0  0  0
  -15.9748   16.7703    0.0000 C   0  0  0  0  0  0  0  0  0  0  0  0
  -17.0268   15.7011    0.0000 C   0  0  0  0  0  0  0  0  0  0  0  0
  -18.0074   14.5660    0.0000 C   0  0  0  0  0  0  0  0  0  0  0  0
  -18.9125   13.3699    0.0000 C   0  0  0  0  0  0  0  0  0  0  0  0
  -19.7383   12.1176    0.0000 C   0  0  0  0  0  0  0  0  0  0  0  0
  -20.4813   10.8146    0.0000 C   0  0  0  0  0  0  0  0  0  0  0  0
  -21.1383    9.4661    0.0000 C   0  0  0  0  0  0  0  0  0  0  0  0
  -21.7067    8.0780    0.0000 C   0  0  0  0  0  0  0  0  0  0  0  0
  -22.1841    6.6560    0.0000 C   0  0  0  0  0  0  0  0  0  0  0  0
  -22.5684    5.2061    0.0000 C   0  0  0  0  0  0  0  0  0  0  0  0
  -22.8581    3.7343    0.0000 C   0  0  0  0  0  0  0  0  0  0  0  0
  -23.0519    2.2469    0.0000 C   0  0  0  0  0  0  0  0  0  0  0  0
  -23.1489    0.7500    0.0000 C   0  0  0  0  0  0  0  0  0  0  0  0
  -23.1489   -0.7500    0.0000 C   0  0  0  0  0  0  0  0  0  0  0  0
  -23.0519   -2.2469    0.0000 C   0  0  0  0  0  0  0  0  0  0  0  0
  -22.8581   -3.7343    0.0000 C   0  0  0  0  0  0  0  0  0  0  0  0
  -22.5684   -5.2061    0.0000 C   0  0  0  0  0  0  0  0  0  0  0  0
  -22.1841   -6.6560    0.0000 C   0  0  0  0  0  0  0  0  0  0  0  0
  -21.7067   -8.0780    0.0000 C   0  0  0  0  0  0  0  0  0  0  0  0
  -21.1383   -9.4661    0.0000 C   0  0  0  0  0  0  0  0  0  0  0  0
  -20.4813  -10.8146    0.0000 C   0  0  0  0  0  0  0  0  0  0  0  0
  -19.7383  -12.1176    0.0000 C   0  0  0  0  0  0  0  0  0  0  0  0
  -18.9125  -13.3699    0.0000 C   0  0  0  0  0  0  0  0  0  0  0  0
  -18.0074  -14.5660    0.0000 C   0  0  0  0  0  0  0  0  0  0  0  0
  -17.0268  -15.7011    0.0000 C   0  0  0  0  0  0  0  0  0  0  0  0
  -15.9748  -16.7703    0.0000 C   0  0  0  0  0  0  0  0  0  0  0  0
  -14.8557  -17.7692    0.0000 C   0  0  0  0  0  0  0  0  0  0  0  0
  -13.6744  -18.6935    0.0000 C   0  0  0  0  0  0  0  0  0  0  0  0
  -12.4357  -19.5395    0.0000 C   0  0  0  0  0  0  0  0  0  0  0  0
  -11.1448  -20.3034    0.0000 C   0  0  0  0  0  0  0  0  0  0  0  0
   -9.8072  -20.9823    0.0000 C   0  0  0  0  0  0  0  0  0  0  0  0
   -8.4284  -21.5731    0.0000 C   0  0  0  0  0  0  0  0  0  0  0  0
   -7.0143  -22.0734    0.0000 C   0  0  0  0  0  0  0  0  0  0  0  0
   -5.5708  -22.4812    0.0000 C   0  0  0  0  0  0  0  0  0  0  0  0
   -4.1039  -22.7946    0.0000 C   0  0  0  0  0  0  0  0  0  0  0  0
   -2.6198  -23.0124    0.0000 C   0  0  0  0  0  0  0  0  0  0  0  0
   -1.1248  -23.1338    0.0000 C   0  0  0  0  0  0  0  0  0  0  0  0
    0.3750  -23.1581    0.0000 C   0  0  0  0  0  0  0  0  0  0  0  0
    1.8733  -23.0852    0.0000 C   0  0  0  0  0  0  0  0  0  0  0  0
    3.3637  -22.9155    0.0000 C   0  0  0  0  0  0  0  0  0  0  0  0
    4.8399  -22.6498    0.0000 C   0  0  0  0  0  0  0  0  0  0  0  0
    6.2959  -22.2890    0.0000 C   0  0  0  0  0  0  0  0  0  0  0  0
    7.7254  -21.8347    0.0000 C   0  0  0  0  0  0  0  0  0  0  0  0
    9.1226  -21.2888    0.0000 C   0  0  0  0  0  0  0  0  0  0  0  0
   10.4815  -20.6537    0.0000 C   0  0  0  0  0  0  0  0  0  0  0  0
   11.7964  -19.9319    0.0000 C   0  0  0  0  0  0  0  0  0  0  0  0
   13.0619  -19.1265    0.0000 C   0  0  0  0  0  0  0  0  0  0  0  0
   14.2725  -18.2409    0.0000 C   0  0  0  0  0  0  0  0  0  0  0  0
   15.4233  -17.2788    0.0000 C   0  0  0  0  0  0  0  0  0  0  0  0
   16.5094  -16.2442    0.0000 C   0  0  0  0  0  0  0  0  0  0  0  0
   17.5263  -15.1415    0.0000 C   0  0  0  0  0  0  0  0  0  0  0  0
   18.4696  -13.9753    0.0000 C   0  0  0  0  0  0  0  0  0  0  0  0
   19.3355  -12.7504    0.0000 C   0  0  0  0  0  0  0  0  0  0  0  0
   20.1203  -11.4721    0.0000 C   0  0  0  0  0  0  0  0  0  0  0  0
   20.8207  -10.1457    0.0000 C   0  0  0  0  0  0  0  0  0  0  0  0
   21.4338   -8.7767    0.0000 C   0  0  0  0  0  0  0  0  0  0  0  0
   21.9569   -7.3709    0.0000 C   0  0  0  0  0  0  0  0  0  0  0  0
   22.3880   -5.9341    0.0000 C   0  0  0  0  0  0  0  0  0  0  0  0
   22.7252   -4.4725    0.0000 C   0  0  0  0  0  0  0  0  0  0  0  0
   22.9670   -2.9921    0.0000 C   0  0  0  0  0  0  0  0  0  0  0  0
   23.1125   -1.4992    0.0000 C   0  0  0  0  0  0  0  0  0  0  0  0
  1  2  1  0
  2  3  1  0
  3  4  1  0
  4  5  1  0
  5  6  1  0
  6  7  1  0
  7  8  1  0
  8  9  1  0
  9 10  1  0
 10 11  1  0
 11 12  1  0
 12 13  1  0
 13 14  1  0
 14 15  1  0
 15 16  1  0
 16 17  1  0
 17 18  1  0
 18 19  1  0
 19 20  1  0
 20 21  1  0
 21 22  1  0
 22 23  1  0
 23 24  1  0
 24 25  1  0
 25 26  1  0
 26 27  1  0
 27 28  1  0
 28 29  1  0
 29 30  1  0
 30 31  1  0
 31 32  1  0
 32 33  1  0
 33 34  1  0
 34 35  1  0
 35 36  1  0
 36 37  1  0
 37 38  1  0
 38 39  1  0
 39 40  1  0
 40 41  1  0
 41 42  1  0
 42 43  1  0
 43 44  1  0
 44 45  1  0
 45 46  1  0
 46 47  1  0
 47 48  1  0
 48 49  1  0
 49 50  1  0
 50 51  1  0
 51 52  1  0
 52 53  1  0
 53 54  1  0
 54 55  1  0
 55 56  1  0
 56 57  1  0
 57 58  1  0
 58 59  1  0
 59 60  1  0
 60 61  1  0
 61 62  1  0
 62 63  1  0
 63 64  1  0
 64 65  1  0
 65 66  1  0
 66 67  1  0
 67 68  1  0
 68 69  1  0
 69 70  1  0
 70 71  1  0
 71 72  1  0
 72 73  1  0
 73 74  1  0
 74 75  1  0
 75 76  1  0
 76 77  1  0
 77 78  1  0
 78 79  1  0
 79 80  1  0
 80 81  1  0
 81 82  1  0
 82 83  1  0
 83 84  1  0
 84 85  1  0
 85 86  1  0
 86 87  1  0
 87 88  1  0
 88 89  1  0
 89 90  1  0
 90 91  1  0
 91 92  1  0
 92 93  1  0
 93 94  1  0
 94 95  1  0
 95 96  1  0
 96 97  1  0
 97 98  1  0
 98  2  1  0
M  END
>  <Title>  (576) 
idAAUJgen7

$$$$

     RDKit          2D

 12 13  0  0  0  0  0  0  0  0999 V2000
    3.0000    0.0000    0.0000 O   0  0  0  0  0  0  0  0  0  0  0  0
    1.5000    0.0000    0.0000 C   0  0  0  0  0  0  0  0  0  0  0  0
    0.7500   -1.2990    0.0000 C   0  0  0  0  0  0  0  0  0  0  0  0
   -0.7500   -1.2990    0.0000 C   0  0  0  0  0  0  0  0  0  0  0  0
   -1.5000    0.0000    0.0000 C   0  0  0  0  0  0  0  0  0  0  0  0
   -0.7500    1.2990    0.0000 C   0  0  0  0  0  0  0  0  0  0  0  0
    0.7500    1.2990    0.0000 C   0  0  0  0  0  0  0  0  0  0  0  0
    1.5000    2.5981    0.0000 C   0  0  0  0  0  0  0  0  0  0  0  0
    0.8899    3.9684    0.0000 C   0  0  0  0  0  0  0  0  0  0  0  0
    2.0046    4.9721    0.0000 C   0  0  0  0  0  0  0  0  0  0  0  0
    3.3037    4.2221    0.0000 C   0  0  0  0  0  0  0  0  0  0  0  0
    2.9918    2.7549    0.0000 C   0  0  0  0  0  0  0  0  0  0  0  0
  1  2  1  0
  2  3  2  0
  3  4  1  0
  4  5  2  0
  5  6  1  0
  6  7  2  0
  7  8  1  0
  8  9  2  0
  9 10  1  0
 10 11  1  0
 11 12  2  0
  7  2  1  0
 12  8  1  0
M  END
>  <Title>  (577) 
idAAUKgen7

$$$$

     RDKit          2D

 63 63  0  0  0  0  0  0  0  0999 V2000
   15.0464    0.0000    0.0000 C   0  0  0  0  0  0  0  0  0  0  0  0
   14.9716    1.4981    0.0000 C   0  0  0  0  0  0  0  0  0  0  0  0
   14.7480    2.9814    0.0000 C   0  0  0  0  0  0  0  0  0  0  0  0
   14.3779    4.4350    0.0000 C   0  0  0  0  0  0  0  0  0  0  0  0
   13.8649    5.8445    0.0000 C   0  0  0  0  0  0  0  0  0  0  0  0
   13.2141    7.1960    0.0000 C   0  0  0  0  0  0  0  0  0  0  0  0
   12.4319    8.4759    0.0000 C   0  0  0  0  0  0  0  0  0  0  0  0
   11.5262    9.6716    0.0000 C   0  0  0  0  0  0  0  0  0  0  0  0
   10.5059   10.7712    0.0000 C   0  0  0  0  0  0  0  0  0  0  0  0
    9.3813   11.7637    0.0000 C   0  0  0  0  0  0  0  0  0  0  0  0
    8.1634   12.6393    0.0000 C   0  0  0  0  0  0  0  0  0  0  0  0
    6.8643   13.3893    0.0000 C   0  0  0  0  0  0  0  0  0  0  0  0
    5.4971   14.0063    0.0000 C   0  0  0  0  0  0  0  0  0  0  0  0
    4.0752   14.4840    0.0000 C   0  0  0  0  0  0  0  0  0  0  0  0
    2.6128   14.8178    0.0000 C   0  0  0  0  0  0  0  0  0  0  0  0
    1.1244   15.0043    0.0000 C   0  0  0  0  0  0  0  0  0  0  0  0
   -0.3751   15.0417    0.0000 C   0  0  0  0  0  0  0  0  0  0  0  0
   -1.8709   14.9296    0.0000 C   0  0  0  0  0  0  0  0  0  0  0  0
   -3.3481   14.6691    0.0000 C   0  0  0  0  0  0  0  0  0  0  0  0
   -4.7921   14.2629    0.0000 C   0  0  0  0  0  0  0  0  0  0  0  0
   -6.1884   13.7149    0.0000 C   0  0  0  0  0  0  0  0  0  0  0  0
   -7.5232   13.0305    0.0000 C   0  0  0  0  0  0  0  0  0  0  0  0
   -8.7832   12.2167    0.0000 C   0  0  0  0  0  0  0  0  0  0  0  0
   -9.9560   11.2815    0.0000 C   0  0  0  0  0  0  0  0  0  0  0  0
  -11.0298   10.2341    0.0000 C   0  0  0  0  0  0  0  0  0  0  0  0
  -11.9940    9.0851    0.0000 C   0  0  0  0  0  0  0  0  0  0  0  0
  -12.8389    7.8457    0.0000 C   0  0  0  0  0  0  0  0  0  0  0  0
  -13.5563    6.5284    0.0000 C   0  0  0  0  0  0  0  0  0  0  0  0
  -14.1390    5.1462    0.0000 C   0  0  0  0  0  0  0  0  0  0  0  0
  -14.5811    3.7128    0.0000 C   0  0  0  0  0  0  0  0  0  0  0  0
  -14.8783    2.2425    0.0000 C   0  0  0  0  0  0  0  0  0  0  0  0
  -15.0277    0.7500    0.0000 C   0  0  0  0  0  0  0  0  0  0  0  0
  -15.0277   -0.7500    0.0000 C   0  0  0  0  0  0  0  0  0  0  0  0
  -14.8783   -2.2425    0.0000 C   0  0  0  0  0  0  0  0  0  0  0  0
  -14.5811   -3.7128    0.0000 C   0  0  0  0  0  0  0  0  0  0  0  0
  -14.1390   -5.1462    0.0000 C   0  0  0  0  0  0  0  0  0  0  0  0
  -13.5563   -6.5284    0.0000 C   0  0  0  0  0  0  0  0  0  0  0  0
  -12.8389   -7.8457    0.0000 C   0  0  0  0  0  0  0  0  0  0  0  0
  -11.9940   -9.0851    0.0000 C   0  0  0  0  0  0  0  0  0  0  0  0
  -11.0298  -10.2341    0.0000 C   0  0  0  0  0  0  0  0  0  0  0  0
   -9.9560  -11.2815    0.0000 C   0  0  0  0  0  0  0  0  0  0  0  0
   -8.7832  -12.2167    0.0000 C   0  0  0  0  0  0  0  0  0  0  0  0
   -7.5232  -13.0305    0.0000 C   0  0  0  0  0  0  0  0  0  0  0  0
   -6.1884  -13.7149    0.0000 C   0  0  0  0  0  0  0  0  0  0  0  0
   -4.7921  -14.2629    0.0000 C   0  0  0  0  0  0  0  0  0  0  0  0
   -3.3481  -14.6691    0.0000 C   0  0  0  0  0  0  0  0  0  0  0  0
   -1.8709  -14.9296    0.0000 C   0  0  0  0  0  0  0  0  0  0  0  0
   -0.3751  -15.0417    0.0000 C   0  0  0  0  0  0  0  0  0  0  0  0
    1.1244  -15.0043    0.0000 C   0  0  0  0  0  0  0  0  0  0  0  0
    2.6128  -14.8178    0.0000 C   0  0  0  0  0  0  0  0  0  0  0  0
    4.0752  -14.4840    0.0000 C   0  0  0  0  0  0  0  0  0  0  0  0
    5.4971  -14.0063    0.0000 C   0  0  0  0  0  0  0  0  0  0  0  0
    6.8643  -13.3893    0.0000 C   0  0  0  0  0  0  0  0  0  0  0  0
    8.1634  -12.6393    0.0000 C   0  0  0  0  0  0  0  0  0  0  0  0
    9.3813  -11.7637    0.0000 C   0  0  0  0  0  0  0  0  0  0  0  0
   10.5059  -10.7712    0.0000 C   0  0  0  0  0  0  0  0  0  0  0  0
   11.5262   -9.6716    0.0000 C   0  0  0  0  0  0  0  0  0  0  0  0
   12.4319   -8.4759    0.0000 C   0  0  0  0  0  0  0  0  0  0  0  0
   13.2141   -7.1960    0.0000 C   0  0  0  0  0  0  0  0  0  0  0  0
   13.8649   -5.8445    0.0000 C   0  0  0  0  0  0  0  0  0  0  0  0
   14.3779   -4.4350    0.0000 C   0  0  0  0  0  0  0  0  0  0  0  0
   14.7480   -2.9814    0.0000 C   0  0  0  0  0  0  0  0  0  0  0  0
   14.9716   -1.4981    0.0000 C   0  0  0  0  0  0  0  0  0  0  0  0
  1  2  1  0
  2  3  1  0
  3  4  1  0
  4  5  1  0
  5  6  1  0
  6  7  1  0
  7  8  1  0
  8  9  1  0
  9 10  1  0
 10 11  1  0
 11 12  1  0
 12 13  1  0
 13 14  1  0
 14 15  1  0
 15 16  1  0
 16 17  1  0
 17 18  1  0
 18 19  1  0
 19 20  1  0
 20 21  1  0
 21 22  1  0
 22 23  1  0
 23 24  1  0
 24 25  1  0
 25 26  1  0
 26 27  1  0
 27 28  1  0
 28 29  1  0
 29 30  1  0
 30 31  1  0
 31 32  1  0
 32 33  1  0
 33 34  1  0
 34 35  1  0
 35 36  1  0
 36 37  1  0
 37 38  1  0
 38 39  1  0
 39 40  1  0
 40 41  1  0
 41 42  1  0
 42 43  1  0
 43 44  1  0
 44 45  1  0
 45 46  1  0
 46 47  1  0
 47 48  1  0
 48 49  1  0
 49 50  1  0
 50 51  1  0
 51 52  1  0
 52 53  1  0
 53 54  1  0
 54 55  1  0
 55 56  1  0
 56 57  1  0
 57 58  1  0
 58 59  1  0
 59 60  1  0
 60 61  1  0
 61 62  1  0
 62 63  1  0
 63  1  1  0
M  END
>  <Title>  (578) 
idAAULgen7

$$$$

     RDKit          2D

 17 18  0  0  0  0  0  0  0  0999 V2000
    3.2286   -0.0000    0.0000 C   0  0  0  0  0  0  0  0  0  0  0  0
    1.7286    0.0000    0.0000 C   0  0  0  0  0  0  0  0  0  0  0  0
    1.0777    1.3515    0.0000 C   0  0  0  0  0  0  0  0  0  0  0  0
   -0.3846    1.6852    0.0000 C   0  0  0  0  0  0  0  0  0  0  0  0
   -1.5574    0.7500    0.0000 C   0  0  0  0  0  0  0  0  0  0  0  0
   -1.5574   -0.7500    0.0000 C   0  0  0  0  0  0  0  0  0  0  0  0
   -2.9088   -1.4008    0.0000 C   0  0  0  0  0  0  0  0  0  0  0  0
   -3.0209   -2.8966    0.0000 O   0  0  0  0  0  0  0  0  0  0  0  0
   -4.1482   -0.5558    0.0000 N   0  0  0  0  0  0  0  0  0  0  0  0
   -5.4997   -1.2067    0.0000 C   0  0  0  0  0  0  0  0  0  0  0  0
   -6.7390   -0.3617    0.0000 N   0  0  0  0  0  0  0  0  0  0  0  0
   -8.0905   -1.0125    0.0000 N   0  0  0  0  0  0  0  0  0  0  0  0
   -8.2026   -2.5083    0.0000 N   0  0  0  0  0  0  0  0  0  0  0  0
   -6.9632   -3.3533    0.0000 N   0  0  0  0  0  0  0  0  0  0  0  0
   -5.6118   -2.7025    0.0000 N   0  0  0  0  0  0  0  0  0  0  0  0
   -0.3846   -1.6852    0.0000 C   0  0  0  0  0  0  0  0  0  0  0  0
    1.0777   -1.3515    0.0000 C   0  0  0  0  0  0  0  0  0  0  0  0
  1  2  1  0
  2  3  2  0
  3  4  1  0
  4  5  1  0
  5  6  1  0
  6  7  1  0
  7  8  2  0
  7  9  1  0
  9 10  1  0
 10 11  2  0
 11 12  1  0
 12 13  2  0
 13 14  1  0
 14 15  2  0
  6 16  1  0
 16 17  2  0
 17  2  1  0
 15 10  1  0
M  END
>  <Title>  (579) 
idAAUMgen7

$$$$

     RDKit          2D

 89 89  0  0  0  0  0  0  0  0999 V2000
   21.2516    0.0000    0.0000 C   0  0  0  0  0  0  0  0  0  0  0  0
   21.1987    1.4991    0.0000 C   0  0  0  0  0  0  0  0  0  0  0  0
   21.0401    2.9907    0.0000 C   0  0  0  0  0  0  0  0  0  0  0  0
   20.7767    4.4674    0.0000 C   0  0  0  0  0  0  0  0  0  0  0  0
   20.4099    5.9218    0.0000 C   0  0  0  0  0  0  0  0  0  0  0  0
   19.9413    7.3467    0.0000 C   0  0  0  0  0  0  0  0  0  0  0  0
   19.3734    8.7351    0.0000 C   0  0  0  0  0  0  0  0  0  0  0  0
   18.7090   10.0799    0.0000 C   0  0  0  0  0  0  0  0  0  0  0  0
   17.9514   11.3745    0.0000 C   0  0  0  0  0  0  0  0  0  0  0  0
   17.1043   12.6124    0.0000 C   0  0  0  0  0  0  0  0  0  0  0  0
   16.1720   13.7875    0.0000 C   0  0  0  0  0  0  0  0  0  0  0  0
   15.1592   14.8940    0.0000 C   0  0  0  0  0  0  0  0  0  0  0  0
   14.0708   15.9262    0.0000 C   0  0  0  0  0  0  0  0  0  0  0  0
   12.9123   16.8790    0.0000 C   0  0  0  0  0  0  0  0  0  0  0  0
   11.6895   17.7478    0.0000 C   0  0  0  0  0  0  0  0  0  0  0  0
   10.4085   18.5282    0.0000 C   0  0  0  0  0  0  0  0  0  0  0  0
    9.0756   19.2162    0.0000 C   0  0  0  0  0  0  0  0  0  0  0  0
    7.6975   19.8085    0.0000 C   0  0  0  0  0  0  0  0  0  0  0  0
    6.2811   20.3022    0.0000 C   0  0  0  0  0  0  0  0  0  0  0  0
    4.8333   20.6947    0.0000 C   0  0  0  0  0  0  0  0  0  0  0  0
    3.3615   20.9841    0.0000 C   0  0  0  0  0  0  0  0  0  0  0  0
    1.8730   21.1689    0.0000 C   0  0  0  0  0  0  0  0  0  0  0  0
    0.3751   21.2483    0.0000 C   0  0  0  0  0  0  0  0  0  0  0  0
   -1.1247   21.2218    0.0000 C   0  0  0  0  0  0  0  0  0  0  0  0
   -2.6189   21.0896    0.0000 C   0  0  0  0  0  0  0  0  0  0  0  0
   -4.1000   20.8524    0.0000 C   0  0  0  0  0  0  0  0  0  0  0  0
   -5.5607   20.5112    0.0000 C   0  0  0  0  0  0  0  0  0  0  0  0
   -6.9937   20.0679    0.0000 C   0  0  0  0  0  0  0  0  0  0  0  0
   -8.3918   19.5245    0.0000 C   0  0  0  0  0  0  0  0  0  0  0  0
   -9.7481   18.8840    0.0000 C   0  0  0  0  0  0  0  0  0  0  0  0
  -11.0559   18.1493    0.0000 C   0  0  0  0  0  0  0  0  0  0  0  0
  -12.3086   17.3242    0.0000 C   0  0  0  0  0  0  0  0  0  0  0  0
  -13.5000   16.4128    0.0000 C   0  0  0  0  0  0  0  0  0  0  0  0
  -14.6241   15.4197    0.0000 C   0  0  0  0  0  0  0  0  0  0  0  0
  -15.6754   14.3497    0.0000 C   0  0  0  0  0  0  0  0  0  0  0  0
  -16.6485   13.2082    0.0000 C   0  0  0  0  0  0  0  0  0  0  0  0
  -17.5387   12.0009    0.0000 C   0  0  0  0  0  0  0  0  0  0  0  0
  -18.3416   10.7339    0.0000 C   0  0  0  0  0  0  0  0  0  0  0  0
  -19.0531    9.4134    0.0000 C   0  0  0  0  0  0  0  0  0  0  0  0
  -19.6696    8.0459    0.0000 C   0  0  0  0  0  0  0  0  0  0  0  0
  -20.1882    6.6384    0.0000 C   0  0  0  0  0  0  0  0  0  0  0  0
  -20.6061    5.1978    0.0000 C   0  0  0  0  0  0  0  0  0  0  0  0
  -20.9215    3.7313    0.0000 C   0  0  0  0  0  0  0  0  0  0  0  0
  -21.1326    2.2463    0.0000 C   0  0  0  0  0  0  0  0  0  0  0  0
  -21.2384    0.7500    0.0000 C   0  0  0  0  0  0  0  0  0  0  0  0
  -21.2384   -0.7500    0.0000 C   0  0  0  0  0  0  0  0  0  0  0  0
  -21.1326   -2.2463    0.0000 C   0  0  0  0  0  0  0  0  0  0  0  0
  -20.9215   -3.7313    0.0000 C   0  0  0  0  0  0  0  0  0  0  0  0
  -20.6061   -5.1978    0.0000 C   0  0  0  0  0  0  0  0  0  0  0  0
  -20.1882   -6.6384    0.0000 C   0  0  0  0  0  0  0  0  0  0  0  0
  -19.6696   -8.0459    0.0000 C   0  0  0  0  0  0  0  0  0  0  0  0
  -19.0531   -9.4134    0.0000 C   0  0  0  0  0  0  0  0  0  0  0  0
  -18.3416  -10.7339    0.0000 C   0  0  0  0  0  0  0  0  0  0  0  0
  -17.5387  -12.0009    0.0000 C   0  0  0  0  0  0  0  0  0  0  0  0
  -16.6485  -13.2082    0.0000 C   0  0  0  0  0  0  0  0  0  0  0  0
  -15.6754  -14.3497    0.0000 C   0  0  0  0  0  0  0  0  0  0  0  0
  -14.6241  -15.4197    0.0000 C   0  0  0  0  0  0  0  0  0  0  0  0
  -13.5000  -16.4128    0.0000 C   0  0  0  0  0  0  0  0  0  0  0  0
  -12.3086  -17.3242    0.0000 C   0  0  0  0  0  0  0  0  0  0  0  0
  -11.0559  -18.1493    0.0000 C   0  0  0  0  0  0  0  0  0  0  0  0
   -9.7481  -18.8840    0.0000 C   0  0  0  0  0  0  0  0  0  0  0  0
   -8.3918  -19.5245    0.0000 C   0  0  0  0  0  0  0  0  0  0  0  0
   -6.9937  -20.0679    0.0000 C   0  0  0  0  0  0  0  0  0  0  0  0
   -5.5607  -20.5112    0.0000 C   0  0  0  0  0  0  0  0  0  0  0  0
   -4.1000  -20.8524    0.0000 C   0  0  0  0  0  0  0  0  0  0  0  0
   -2.6189  -21.0896    0.0000 C   0  0  0  0  0  0  0  0  0  0  0  0
   -1.1247  -21.2218    0.0000 C   0  0  0  0  0  0  0  0  0  0  0  0
    0.3751  -21.2483    0.0000 C   0  0  0  0  0  0  0  0  0  0  0  0
    1.8730  -21.1689    0.0000 C   0  0  0  0  0  0  0  0  0  0  0  0
    3.3615  -20.9841    0.0000 C   0  0  0  0  0  0  0  0  0  0  0  0
    4.8333  -20.6947    0.0000 C   0  0  0  0  0  0  0  0  0  0  0  0
    6.2811  -20.3022    0.0000 C   0  0  0  0  0  0  0  0  0  0  0  0
    7.6975  -19.8085    0.0000 C   0  0  0  0  0  0  0  0  0  0  0  0
    9.0756  -19.2162    0.0000 C   0  0  0  0  0  0  0  0  0  0  0  0
   10.4085  -18.5282    0.0000 C   0  0  0  0  0  0  0  0  0  0  0  0
   11.6895  -17.7478    0.0000 C   0  0  0  0  0  0  0  0  0  0  0  0
   12.9123  -16.8790    0.0000 C   0  0  0  0  0  0  0  0  0  0  0  0
   14.0708  -15.9262    0.0000 C   0  0  0  0  0  0  0  0  0  0  0  0
   15.1592  -14.8940    0.0000 C   0  0  0  0  0  0  0  0  0  0  0  0
   16.1720  -13.7875    0.0000 C   0  0  0  0  0  0  0  0  0  0  0  0
   17.1043  -12.6124    0.0000 C   0  0  0  0  0  0  0  0  0  0  0  0
   17.9514  -11.3745    0.0000 C   0  0  0  0  0  0  0  0  0  0  0  0
   18.7090  -10.0799    0.0000 C   0  0  0  0  0  0  0  0  0  0  0  0
   19.3734   -8.7351    0.0000 C   0  0  0  0  0  0  0  0  0  0  0  0
   19.9413   -7.3467    0.0000 C   0  0  0  0  0  0  0  0  0  0  0  0
   20.4099   -5.9218    0.0000 C   0  0  0  0  0  0  0  0  0  0  0  0
   20.7767   -4.4674    0.0000 C   0  0  0  0  0  0  0  0  0  0  0  0
   21.0401   -2.9907    0.0000 C   0  0  0  0  0  0  0  0  0  0  0  0
   21.1987   -1.4991    0.0000 C   0  0  0  0  0  0  0  0  0  0  0  0
  1  2  1  0
  2  3  1  0
  3  4  1  0
  4  5  1  0
  5  6  1  0
  6  7  1  0
  7  8  1  0
  8  9  1  0
  9 10  1  0
 10 11  1  0
 11 12  1  0
 12 13  1  0
 13 14  1  0
 14 15  1  0
 15 16  1  0
 16 17  1  0
 17 18  1  0
 18 19  1  0
 19 20  1  0
 20 21  1  0
 21 22  1  0
 22 23  1  0
 23 24  1  0
 24 25  1  0
 25 26  1  0
 26 27  1  0
 27 28  1  0
 28 29  1  0
 29 30  1  0
 30 31  1  0
 31 32  1  0
 32 33  1  0
 33 34  1  0
 34 35  1  0
 35 36  1  0
 36 37  1  0
 37 38  1  0
 38 39  1  0
 39 40  1  0
 40 41  1  0
 41 42  1  0
 42 43  1  0
 43 44  1  0
 44 45  1  0
 45 46  1  0
 46 47  1  0
 47 48  1  0
 48 49  1  0
 49 50  1  0
 50 51  1  0
 51 52  1  0
 52 53  1  0
 53 54  1  0
 54 55  1  0
 55 56  1  0
 56 57  1  0
 57 58  1  0
 58 59  1  0
 59 60  1  0
 60 61  1  0
 61 62  1  0
 62 63  1  0
 63 64  1  0
 64 65  1  0
 65 66  1  0
 66 67  1  0
 67 68  1  0
 68 69  1  0
 69 70  1  0
 70 71  1  0
 71 72  1  0
 72 73  1  0
 73 74  1  0
 74 75  1  0
 75 76  1  0
 76 77  1  0
 77 78  1  0
 78 79  1  0
 79 80  1  0
 80 81  1  0
 81 82  1  0
 82 83  1  0
 83 84  1  0
 84 85  1  0
 85 86  1  0
 86 87  1  0
 87 88  1  0
 88 89  1  0
 89  1  1  0
M  END
>  <Title>  (580) 
idAAUNgen7

$$$$

     RDKit          2D

  7  7  0  0  0  0  0  0  0  0999 V2000
    3.0000    0.0000    0.0000 C   0  0  0  0  0  0  0  0  0  0  0  0
    1.5000    0.0000    0.0000 C   0  0  0  0  0  0  0  0  0  0  0  0
    0.7500   -1.2990    0.0000 C   0  0  0  0  0  0  0  0  0  0  0  0
   -0.7500   -1.2990    0.0000 C   0  0  0  0  0  0  0  0  0  0  0  0
   -1.5000    0.0000    0.0000 C   0  0  0  0  0  0  0  0  0  0  0  0
   -0.7500    1.2990    0.0000 C   0  0  0  0  0  0  0  0  0  0  0  0
    0.7500    1.2990    0.0000 C   0  0  0  0  0  0  0  0  0  0  0  0
  1  2  1  0
  2  3  2  0
  3  4  1  0
  4  5  1  0
  5  6  2  0
  6  7  1  0
  7  2  1  0
M  END
>  <Title>  (581) 
idAAUOgen7

$$$$

     RDKit          2D

 56 56  0  0  0  0  0  0  0  0999 V2000
   14.1831    0.7750    0.0000 C   0  0  0  0  0  0  0  0  0  0  0  0
   12.8988    0.0000    0.0000 C   0  0  0  0  0  0  0  0  0  0  0  0
   14.1831   -0.7750    0.0000 C   0  0  0  0  0  0  0  0  0  0  0  0
   12.8116   -1.4975    0.0000 C   0  0  0  0  0  0  0  0  0  0  0  0
   12.5511   -2.9747    0.0000 C   0  0  0  0  0  0  0  0  0  0  0  0
   12.1209   -4.4117    0.0000 C   0  0  0  0  0  0  0  0  0  0  0  0
   11.5268   -5.7890    0.0000 C   0  0  0  0  0  0  0  0  0  0  0  0
   10.7768   -7.0880    0.0000 C   0  0  0  0  0  0  0  0  0  0  0  0
    9.8811   -8.2912    0.0000 C   0  0  0  0  0  0  0  0  0  0  0  0
    8.8517   -9.3823    0.0000 C   0  0  0  0  0  0  0  0  0  0  0  0
    7.7026  -10.3464    0.0000 C   0  0  0  0  0  0  0  0  0  0  0  0
    6.4494  -11.1707    0.0000 C   0  0  0  0  0  0  0  0  0  0  0  0
    5.1090  -11.8439    0.0000 C   0  0  0  0  0  0  0  0  0  0  0  0
    3.6994  -12.3569    0.0000 C   0  0  0  0  0  0  0  0  0  0  0  0
    2.2399  -12.7029    0.0000 C   0  0  0  0  0  0  0  0  0  0  0  0
    0.7500  -12.8770    0.0000 C   0  0  0  0  0  0  0  0  0  0  0  0
   -0.7500  -12.8770    0.0000 C   0  0  0  0  0  0  0  0  0  0  0  0
   -2.2399  -12.7029    0.0000 C   0  0  0  0  0  0  0  0  0  0  0  0
   -3.6994  -12.3569    0.0000 C   0  0  0  0  0  0  0  0  0  0  0  0
   -5.1090  -11.8439    0.0000 C   0  0  0  0  0  0  0  0  0  0  0  0
   -6.4494  -11.1707    0.0000 C   0  0  0  0  0  0  0  0  0  0  0  0
   -7.7026  -10.3464    0.0000 C   0  0  0  0  0  0  0  0  0  0  0  0
   -8.8517   -9.3823    0.0000 C   0  0  0  0  0  0  0  0  0  0  0  0
   -9.8811   -8.2912    0.0000 C   0  0  0  0  0  0  0  0  0  0  0  0
  -10.7768   -7.0880    0.0000 C   0  0  0  0  0  0  0  0  0  0  0  0
  -11.5268   -5.7890    0.0000 C   0  0  0  0  0  0  0  0  0  0  0  0
  -12.1209   -4.4117    0.0000 C   0  0  0  0  0  0  0  0  0  0  0  0
  -12.5511   -2.9747    0.0000 C   0  0  0  0  0  0  0  0  0  0  0  0
  -12.8116   -1.4975    0.0000 C   0  0  0  0  0  0  0  0  0  0  0  0
  -12.8988    0.0000    0.0000 C   0  0  0  0  0  0  0  0  0  0  0  0
  -12.8116    1.4975    0.0000 C   0  0  0  0  0  0  0  0  0  0  0  0
  -12.5511    2.9747    0.0000 C   0  0  0  0  0  0  0  0  0  0  0  0
  -12.1209    4.4117    0.0000 C   0  0  0  0  0  0  0  0  0  0  0  0
  -11.5268    5.7890    0.0000 C   0  0  0  0  0  0  0  0  0  0  0  0
  -10.7768    7.0880    0.0000 C   0  0  0  0  0  0  0  0  0  0  0  0
   -9.8811    8.2912    0.0000 C   0  0  0  0  0  0  0  0  0  0  0  0
   -8.8517    9.3823    0.0000 C   0  0  0  0  0  0  0  0  0  0  0  0
   -7.7026   10.3464    0.0000 C   0  0  0  0  0  0  0  0  0  0  0  0
   -6.4494   11.1707    0.0000 C   0  0  0  0  0  0  0  0  0  0  0  0
   -5.1090   11.8439    0.0000 C   0  0  0  0  0  0  0  0  0  0  0  0
   -3.6994   12.3569    0.0000 C   0  0  0  0  0  0  0  0  0  0  0  0
   -2.2399   12.7029    0.0000 C   0  0  0  0  0  0  0  0  0  0  0  0
   -0.7500   12.8770    0.0000 C   0  0  0  0  0  0  0  0  0  0  0  0
    0.7500   12.8770    0.0000 C   0  0  0  0  0  0  0  0  0  0  0  0
    2.2399   12.7029    0.0000 C   0  0  0  0  0  0  0  0  0  0  0  0
    3.6994   12.3569    0.0000 C   0  0  0  0  0  0  0  0  0  0  0  0
    5.1090   11.8439    0.0000 C   0  0  0  0  0  0  0  0  0  0  0  0
    6.4494   11.1707    0.0000 C   0  0  0  0  0  0  0  0  0  0  0  0
    7.7026   10.3464    0.0000 C   0  0  0  0  0  0  0  0  0  0  0  0
    8.8517    9.3823    0.0000 C   0  0  0  0  0  0  0  0  0  0  0  0
    9.8811    8.2912    0.0000 C   0  0  0  0  0  0  0  0  0  0  0  0
   10.7768    7.0880    0.0000 C   0  0  0  0  0  0  0  0  0  0  0  0
   11.5268    5.7890    0.0000 C   0  0  0  0  0  0  0  0  0  0  0  0
   12.1209    4.4117    0.0000 C   0  0  0  0  0  0  0  0  0  0  0  0
   12.5511    2.9747    0.0000 C   0  0  0  0  0  0  0  0  0  0  0  0
   12.8116    1.4975    0.0000 C   0  0  0  0  0  0  0  0  0  0  0  0
  1  2  1  0
  2  3  1  0
  2  4  1  0
  4  5  1  0
  5  6  1  0
  6  7  1  0
  7  8  1  0
  8  9  1  0
  9 10  1  0
 10 11  1  0
 11 12  1  0
 12 13  1  0
 13 14  1  0
 14 15  1  0
 15 16  1  0
 16 17  1  0
 17 18  1  0
 18 19  1  0
 19 20  1  0
 20 21  1  0
 21 22  1  0
 22 23  1  0
 23 24  1  0
 24 25  1  0
 25 26  1  0
 26 27  1  0
 27 28  1  0
 28 29  1  0
 29 30  1  0
 30 31  1  0
 31 32  1  0
 32 33  1  0
 33 34  1  0
 34 35  1  0
 35 36  1  0
 36 37  1  0
 37 38  1  0
 38 39  1  0
 39 40  1  0
 40 41  1  0
 41 42  1  0
 42 43  1  0
 43 44  1  0
 44 45  1  0
 45 46  1  0
 46 47  1  0
 47 48  1  0
 48 49  1  0
 49 50  1  0
 50 51  1  0
 51 52  1  0
 52 53  1  0
 53 54  1  0
 54 55  1  0
 55 56  1  0
 56  2  1  0
M  END
>  <Title>  (582) 
idAAUPgen7

$$$$

     RDKit          2D

  9  9  0  0  0  0  0  0  0  0999 V2000
    3.0000    0.0000    0.0000 C   0  0  0  0  0  0  0  0  0  0  0  0
    1.5000    0.0000    0.0000 C   0  0  0  0  0  0  0  0  0  0  0  0
    0.7500   -1.2990    0.0000 C   0  0  0  0  0  0  0  0  0  0  0  0
   -0.7500   -1.2990    0.0000 C   0  0  0  0  0  0  0  0  0  0  0  0
   -1.5000    0.0000    0.0000 C   0  0  0  0  0  0  0  0  0  0  0  0
   -0.7500    1.2990    0.0000 C   0  0  0  0  0  0  0  0  0  0  0  0
   -1.5000    2.5981    0.0000 C   0  0  0  0  0  0  0  0  0  0  0  0
   -2.2500    3.8971    0.0000 N   0  0  0  0  0  0  0  0  0  0  0  0
    0.7500    1.2990    0.0000 C   0  0  0  0  0  0  0  0  0  0  0  0
  1  2  1  0
  2  3  2  0
  3  4  1  0
  4  5  1  0
  5  6  1  0
  6  7  1  0
  7  8  3  0
  6  9  2  0
  9  2  1  0
M  END
>  <Title>  (583) 
idAAUQgen7

$$$$

     RDKit          2D

  6  6  0  0  0  0  0  0  0  0999 V2000
    2.7760    0.0000    0.0000 C   0  0  0  0  0  0  0  0  0  0  0  0
    1.2760    0.0000    0.0000 C   0  0  0  0  0  0  0  0  0  0  0  0
    0.3943    1.2135    0.0000 C   0  0  0  0  0  0  0  0  0  0  0  0
   -1.0323    0.7500    0.0000 C   0  0  0  0  0  0  0  0  0  0  0  0
   -1.0323   -0.7500    0.0000 C   0  0  0  0  0  0  0  0  0  0  0  0
    0.3943   -1.2135    0.0000 C   0  0  0  0  0  0  0  0  0  0  0  0
  1  2  1  0
  2  3  2  0
  3  4  1  0
  4  5  1  0
  5  6  2  0
  6  2  1  0
M  END
>  <Title>  (584) 
idAAURgen7

$$$$

     RDKit          2D

 34 38  0  0  0  0  0  0  0  0999 V2000
    7.0738    2.2365    0.0000 C   0  0  0  0  0  0  0  0  0  0  0  0
    6.4507    3.6010    0.0000 O   0  0  0  0  0  0  0  0  0  0  0  0
    4.9575    3.7435    0.0000 C   0  0  0  0  0  0  0  0  0  0  0  0
    4.4000    2.3510    0.0000 C   0  0  0  0  0  0  0  0  0  0  0  0
    3.1781    1.4809    0.0000 C   0  0  0  0  0  0  0  0  0  0  0  0
    1.6798    1.4095    0.0000 C   0  0  0  0  0  0  0  0  0  0  0  0
    2.1929    0.0000    0.0000 C   0  0  0  0  0  0  0  0  0  0  0  0
    1.6798   -1.4095    0.0000 C   0  0  0  0  0  0  0  0  0  0  0  0
    0.3808   -2.1595    0.0000 C   0  0  0  0  0  0  0  0  0  0  0  0
   -1.0964   -1.8991    0.0000 C   0  0  0  0  0  0  0  0  0  0  0  0
   -2.0606   -0.7500    0.0000 C   0  0  0  0  0  0  0  0  0  0  0  0
   -2.0606    0.7500    0.0000 C   0  0  0  0  0  0  0  0  0  0  0  0
   -1.0964    1.8991    0.0000 C   0  0  0  0  0  0  0  0  0  0  0  0
    0.3808    2.1595    0.0000 C   0  0  0  0  0  0  0  0  0  0  0  0
   -0.3066    3.4928    0.0000 C   0  0  0  0  0  0  0  0  0  0  0  0
   -1.6710    2.8697    0.0000 C   0  0  0  0  0  0  0  0  0  0  0  0
   -2.8929    3.7398    0.0000 C   0  0  0  0  0  0  0  0  0  0  0  0
   -2.7503    5.2330    0.0000 C   0  0  0  0  0  0  0  0  0  0  0  0
   -1.3858    5.8561    0.0000 C   0  0  0  0  0  0  0  0  0  0  0  0
   -0.1640    4.9860    0.0000 C   0  0  0  0  0  0  0  0  0  0  0  0
    0.7633    6.1651    0.0000 C   0  0  0  0  0  0  0  0  0  0  0  0
   -0.3704    7.1474    0.0000 C   0  0  0  0  0  0  0  0  0  0  0  0
   -0.0865    8.6203    0.0000 C   0  0  0  0  0  0  0  0  0  0  0  0
    1.3310    9.1109    0.0000 C   0  0  0  0  0  0  0  0  0  0  0  0
    1.6149   10.5838    0.0000 C   0  0  0  0  0  0  0  0  0  0  0  0
    1.8988   12.0567    0.0000 N   0  0  0  0  0  0  0  0  0  0  0  0
    2.4646    8.1286    0.0000 C   0  0  0  0  0  0  0  0  0  0  0  0
    2.1808    6.6557    0.0000 C   0  0  0  0  0  0  0  0  0  0  0  0
    3.6385    6.3020    0.0000 C   0  0  0  0  0  0  0  0  0  0  0  0
    4.0611    7.7413    0.0000 C   0  0  0  0  0  0  0  0  0  0  0  0
    5.5188    8.0949    0.0000 C   0  0  0  0  0  0  0  0  0  0  0  0
    6.5539    7.0093    0.0000 C   0  0  0  0  0  0  0  0  0  0  0  0
    6.1313    5.5701    0.0000 C   0  0  0  0  0  0  0  0  0  0  0  0
    4.6736    5.2164    0.0000 C   0  0  0  0  0  0  0  0  0  0  0  0
  1  2  1  0
  2  3  1  0
  3  4  2  0
  4  5  1  0
  5  6  2  0
  6  7  1  0
  7  8  2  0
  8  9  1  0
  9 10  2  0
 10 11  1  0
 11 12  2  0
 12 13  1  0
 13 14  2  0
 14 15  1  0
 15 16  2  0
 16 17  1  0
 17 18  2  0
 18 19  1  0
 19 20  2  0
 20 21  1  0
 21 22  2  0
 22 23  1  0
 23 24  2  0
 24 25  1  0
 25 26  3  0
 24 27  1  0
 27 28  2  0
 28 29  1  0
 29 30  2  0
 30 31  1  0
 31 32  2  0
 32 33  1  0
 33 34  2  0
 34  3  1  0
 14  6  1  0
 20 15  1  0
 28 21  1  0
 34 29  1  0
M  END
>  <Title>  (585) 
idAAUSgen7

$$$$

     RDKit          2D

 76 76  0  0  0  0  0  0  0  0999 V2000
   19.4102    0.0000    0.0000 O   0  0  0  0  0  0  0  0  0  0  0  0
   17.9102    0.0000    0.0000 C   0  0  0  0  0  0  0  0  0  0  0  0
   17.8474    1.4987    0.0000 C   0  0  0  0  0  0  0  0  0  0  0  0
   17.6594    2.9869    0.0000 C   0  0  0  0  0  0  0  0  0  0  0  0
   17.3475    4.4541    0.0000 C   0  0  0  0  0  0  0  0  0  0  0  0
   16.9139    5.8901    0.0000 C   0  0  0  0  0  0  0  0  0  0  0  0
   16.3618    7.2847    0.0000 C   0  0  0  0  0  0  0  0  0  0  0  0
   15.6948    8.6283    0.0000 C   0  0  0  0  0  0  0  0  0  0  0  0
   14.9178    9.9113    0.0000 C   0  0  0  0  0  0  0  0  0  0  0  0
   14.0361   11.1249    0.0000 C   0  0  0  0  0  0  0  0  0  0  0  0
   13.0560   12.2604    0.0000 C   0  0  0  0  0  0  0  0  0  0  0  0
   11.9842   13.3098    0.0000 C   0  0  0  0  0  0  0  0  0  0  0  0
   10.8285   14.2660    0.0000 C   0  0  0  0  0  0  0  0  0  0  0  0
    9.5967   15.1221    0.0000 C   0  0  0  0  0  0  0  0  0  0  0  0
    8.2977   15.8721    0.0000 C   0  0  0  0  0  0  0  0  0  0  0  0
    6.9405   16.5107    0.0000 C   0  0  0  0  0  0  0  0  0  0  0  0
    5.5345   17.0336    0.0000 C   0  0  0  0  0  0  0  0  0  0  0  0
    4.0898   17.4370    0.0000 C   0  0  0  0  0  0  0  0  0  0  0  0
    2.6164   17.7180    0.0000 C   0  0  0  0  0  0  0  0  0  0  0  0
    1.1246   17.8748    0.0000 C   0  0  0  0  0  0  0  0  0  0  0  0
   -0.3751   17.9062    0.0000 C   0  0  0  0  0  0  0  0  0  0  0  0
   -1.8721   17.8121    0.0000 C   0  0  0  0  0  0  0  0  0  0  0  0
   -3.3560   17.5929    0.0000 C   0  0  0  0  0  0  0  0  0  0  0  0
   -4.8164   17.2504    0.0000 C   0  0  0  0  0  0  0  0  0  0  0  0
   -6.2430   16.7869    0.0000 C   0  0  0  0  0  0  0  0  0  0  0  0
   -7.6258   16.2056    0.0000 C   0  0  0  0  0  0  0  0  0  0  0  0
   -8.9551   15.5107    0.0000 C   0  0  0  0  0  0  0  0  0  0  0  0
  -10.2216   14.7069    0.0000 C   0  0  0  0  0  0  0  0  0  0  0  0
  -11.4164   13.8000    0.0000 C   0  0  0  0  0  0  0  0  0  0  0  0
  -12.5311   12.7963    0.0000 C   0  0  0  0  0  0  0  0  0  0  0  0
  -13.5579   11.7029    0.0000 C   0  0  0  0  0  0  0  0  0  0  0  0
  -14.4896   10.5273    0.0000 C   0  0  0  0  0  0  0  0  0  0  0  0
  -15.3197    9.2780    0.0000 C   0  0  0  0  0  0  0  0  0  0  0  0
  -16.0423    7.9635    0.0000 C   0  0  0  0  0  0  0  0  0  0  0  0
  -16.6525    6.5932    0.0000 C   0  0  0  0  0  0  0  0  0  0  0  0
  -17.1458    5.1766    0.0000 C   0  0  0  0  0  0  0  0  0  0  0  0
  -17.5188    3.7237    0.0000 C   0  0  0  0  0  0  0  0  0  0  0  0
  -17.7689    2.2447    0.0000 C   0  0  0  0  0  0  0  0  0  0  0  0
  -17.8945    0.7500    0.0000 C   0  0  0  0  0  0  0  0  0  0  0  0
  -17.8945   -0.7500    0.0000 C   0  0  0  0  0  0  0  0  0  0  0  0
  -17.7689   -2.2447    0.0000 C   0  0  0  0  0  0  0  0  0  0  0  0
  -17.5188   -3.7237    0.0000 C   0  0  0  0  0  0  0  0  0  0  0  0
  -17.1458   -5.1766    0.0000 C   0  0  0  0  0  0  0  0  0  0  0  0
  -16.6525   -6.5932    0.0000 C   0  0  0  0  0  0  0  0  0  0  0  0
  -16.0423   -7.9635    0.0000 C   0  0  0  0  0  0  0  0  0  0  0  0
  -15.3197   -9.2780    0.0000 C   0  0  0  0  0  0  0  0  0  0  0  0
  -14.4896  -10.5273    0.0000 C   0  0  0  0  0  0  0  0  0  0  0  0
  -13.5579  -11.7029    0.0000 C   0  0  0  0  0  0  0  0  0  0  0  0
  -12.5311  -12.7963    0.0000 C   0  0  0  0  0  0  0  0  0  0  0  0
  -11.4164  -13.8000    0.0000 C   0  0  0  0  0  0  0  0  0  0  0  0
  -10.2216  -14.7069    0.0000 C   0  0  0  0  0  0  0  0  0  0  0  0
   -8.9551  -15.5107    0.0000 C   0  0  0  0  0  0  0  0  0  0  0  0
   -7.6258  -16.2056    0.0000 C   0  0  0  0  0  0  0  0  0  0  0  0
   -6.2430  -16.7869    0.0000 C   0  0  0  0  0  0  0  0  0  0  0  0
   -4.8164  -17.2504    0.0000 C   0  0  0  0  0  0  0  0  0  0  0  0
   -3.3560  -17.5929    0.0000 C   0  0  0  0  0  0  0  0  0  0  0  0
   -1.8721  -17.8121    0.0000 C   0  0  0  0  0  0  0  0  0  0  0  0
   -0.3751  -17.9062    0.0000 C   0  0  0  0  0  0  0  0  0  0  0  0
    1.1246  -17.8748    0.0000 C   0  0  0  0  0  0  0  0  0  0  0  0
    2.6164  -17.7180    0.0000 C   0  0  0  0  0  0  0  0  0  0  0  0
    4.0898  -17.4370    0.0000 C   0  0  0  0  0  0  0  0  0  0  0  0
    5.5345  -17.0336    0.0000 C   0  0  0  0  0  0  0  0  0  0  0  0
    6.9405  -16.5107    0.0000 C   0  0  0  0  0  0  0  0  0  0  0  0
    8.2977  -15.8721    0.0000 C   0  0  0  0  0  0  0  0  0  0  0  0
    9.5967  -15.1221    0.0000 C   0  0  0  0  0  0  0  0  0  0  0  0
   10.8285  -14.2660    0.0000 C   0  0  0  0  0  0  0  0  0  0  0  0
   11.9842  -13.3098    0.0000 C   0  0  0  0  0  0  0  0  0  0  0  0
   13.0560  -12.2604    0.0000 C   0  0  0  0  0  0  0  0  0  0  0  0
   14.0361  -11.1249    0.0000 C   0  0  0  0  0  0  0  0  0  0  0  0
   14.9178   -9.9113    0.0000 C   0  0  0  0  0  0  0  0  0  0  0  0
   15.6948   -8.6283    0.0000 C   0  0  0  0  0  0  0  0  0  0  0  0
   16.3618   -7.2847    0.0000 C   0  0  0  0  0  0  0  0  0  0  0  0
   16.9139   -5.8901    0.0000 C   0  0  0  0  0  0  0  0  0  0  0  0
   17.3475   -4.4541    0.0000 C   0  0  0  0  0  0  0  0  0  0  0  0
   17.6594   -2.9869    0.0000 C   0  0  0  0  0  0  0  0  0  0  0  0
   17.8474   -1.4987    0.0000 C   0  0  0  0  0  0  0  0  0  0  0  0
  1  2  1  0
  2  3  2  0
  3  4  1  0
  4  5  1  0
  5  6  1  0
  6  7  1  0
  7  8  1  0
  8  9  1  0
  9 10  1  0
 10 11  1  0
 11 12  1  0
 12 13  1  0
 13 14  1  0
 14 15  1  0
 15 16  1  0
 16 17  1  0
 17 18  1  0
 18 19  1  0
 19 20  1  0
 20 21  1  0
 21 22  1  0
 22 23  1  0
 23 24  1  0
 24 25  1  0
 25 26  1  0
 26 27  1  0
 27 28  1  0
 28 29  1  0
 29 30  1  0
 30 31  1  0
 31 32  1  0
 32 33  1  0
 33 34  1  0
 34 35  1  0
 35 36  1  0
 36 37  1  0
 37 38  1  0
 38 39  1  0
 39 40  1  0
 40 41  1  0
 41 42  1  0
 42 43  1  0
 43 44  1  0
 44 45  1  0
 45 46  1  0
 46 47  1  0
 47 48  1  0
 48 49  1  0
 49 50  1  0
 50 51  1  0
 51 52  1  0
 52 53  1  0
 53 54  1  0
 54 55  1  0
 55 56  1  0
 56 57  1  0
 57 58  1  0
 58 59  1  0
 59 60  1  0
 60 61  1  0
 61 62  1  0
 62 63  1  0
 63 64  1  0
 64 65  1  0
 65 66  1  0
 66 67  1  0
 67 68  1  0
 68 69  1  0
 69 70  1  0
 70 71  1  0
 71 72  1  0
 72 73  1  0
 73 74  1  0
 74 75  1  0
 75 76  1  0
 76  2  1  0
M  END
>  <Title>  (586) 
idAAUTgen7

$$$$

     RDKit          2D

 24 26  0  0  0  0  0  0  0  0999 V2000
    1.8478   -9.0619    0.0000 C   0  0  0  0  0  0  0  0  0  0  0  0
    2.0046   -7.5702    0.0000 C   0  0  0  0  0  0  0  0  0  0  0  0
    3.3037   -6.8202    0.0000 C   0  0  0  0  0  0  0  0  0  0  0  0
    2.9918   -5.3529    0.0000 C   0  0  0  0  0  0  0  0  0  0  0  0
    1.5000   -5.1962    0.0000 C   0  0  0  0  0  0  0  0  0  0  0  0
    0.7500   -3.8971    0.0000 C   0  0  0  0  0  0  0  0  0  0  0  0
   -0.7500   -3.8971    0.0000 O   0  0  0  0  0  0  0  0  0  0  0  0
    1.5000   -2.5981    0.0000 N   0  0  0  0  0  0  0  0  0  0  0  0
    0.7500   -1.2990    0.0000 C   0  0  0  0  0  0  0  0  0  0  0  0
    1.5000    0.0000    0.0000 N   0  0  0  0  0  0  0  0  0  0  0  0
    0.7500    1.2990    0.0000 N   0  0  0  0  0  0  0  0  0  0  0  0
   -0.7500    1.2990    0.0000 C   0  0  0  0  0  0  0  0  0  0  0  0
   -1.5000    2.5981    0.0000 N   0  0  0  0  0  0  0  0  0  0  0  0
   -0.7500    3.8971    0.0000 C   0  0  0  0  0  0  0  0  0  0  0  0
    0.7500    3.8971    0.0000 O   0  0  0  0  0  0  0  0  0  0  0  0
   -1.5000    5.1962    0.0000 C   0  0  0  0  0  0  0  0  0  0  0  0
   -0.7500    6.4952    0.0000 C   0  0  0  0  0  0  0  0  0  0  0  0
   -1.5000    7.7942    0.0000 C   0  0  0  0  0  0  0  0  0  0  0  0
   -3.0000    7.7942    0.0000 C   0  0  0  0  0  0  0  0  0  0  0  0
   -3.7500    6.4952    0.0000 C   0  0  0  0  0  0  0  0  0  0  0  0
   -3.0000    5.1962    0.0000 C   0  0  0  0  0  0  0  0  0  0  0  0
   -1.5000    0.0000    0.0000 C   0  0  0  0  0  0  0  0  0  0  0  0
   -0.7500   -1.2990    0.0000 C   0  0  0  0  0  0  0  0  0  0  0  0
    0.8899   -6.5665    0.0000 C   0  0  0  0  0  0  0  0  0  0  0  0
  1  2  1  0
  2  3  1  0
  3  4  1  0
  4  5  1  0
  5  6  1  0
  6  7  2  0
  6  8  1  0
  8  9  1  0
  9 10  2  0
 10 11  1  0
 11 12  2  0
 12 13  1  0
 13 14  1  0
 14 15  2  0
 14 16  1  0
 16 17  2  0
 17 18  1  0
 18 19  2  0
 19 20  1  0
 20 21  2  0
 12 22  1  0
 22 23  1  0
  5 24  1  0
 24  2  1  0
 23  9  1  0
 21 16  1  0
M  END
>  <Title>  (587) 
idAAUUgen7

$$$$

     RDKit          2D

 79 80  0  0  0  0  0  0  0  0999 V2000
   -0.0120   -3.1327    0.0000 C   0  0  0  0  0  0  0  0  0  0  0  0
    1.2819   -3.8915    0.0000 C   0  0  0  0  0  0  0  0  0  0  0  0
    0.5855   -5.2200    0.0000 C   0  0  0  0  0  0  0  0  0  0  0  0
    0.0186   -6.6088    0.0000 C   0  0  0  0  0  0  0  0  0  0  0  0
   -0.4138   -8.0451    0.0000 C   0  0  0  0  0  0  0  0  0  0  0  0
   -0.7077   -9.5160    0.0000 C   0  0  0  0  0  0  0  0  0  0  0  0
   -0.8604  -11.0082    0.0000 C   0  0  0  0  0  0  0  0  0  0  0  0
   -0.8706  -12.5082    0.0000 C   0  0  0  0  0  0  0  0  0  0  0  0
   -0.7382  -14.0023    0.0000 C   0  0  0  0  0  0  0  0  0  0  0  0
   -0.4643  -15.4771    0.0000 C   0  0  0  0  0  0  0  0  0  0  0  0
   -0.0515  -16.9192    0.0000 C   0  0  0  0  0  0  0  0  0  0  0  0
    0.4965  -18.3155    0.0000 C   0  0  0  0  0  0  0  0  0  0  0  0
    1.1747  -19.6534    0.0000 C   0  0  0  0  0  0  0  0  0  0  0  0
    1.9771  -20.9208    0.0000 C   0  0  0  0  0  0  0  0  0  0  0  0
    2.8963  -22.1061    0.0000 C   0  0  0  0  0  0  0  0  0  0  0  0
    3.9240  -23.1987    0.0000 C   0  0  0  0  0  0  0  0  0  0  0  0
    5.0509  -24.1887    0.0000 C   0  0  0  0  0  0  0  0  0  0  0  0
    6.2669  -25.0671    0.0000 C   0  0  0  0  0  0  0  0  0  0  0  0
    7.5608  -25.8259    0.0000 C   0  0  0  0  0  0  0  0  0  0  0  0
    8.9209  -26.4583    0.0000 C   0  0  0  0  0  0  0  0  0  0  0  0
   10.3351  -26.9585    0.0000 C   0  0  0  0  0  0  0  0  0  0  0  0
   11.7904  -27.3221    0.0000 C   0  0  0  0  0  0  0  0  0  0  0  0
   13.2736  -27.5456    0.0000 C   0  0  0  0  0  0  0  0  0  0  0  0
   14.7714  -27.6272    0.0000 C   0  0  0  0  0  0  0  0  0  0  0  0
   16.2701  -27.5660    0.0000 C   0  0  0  0  0  0  0  0  0  0  0  0
   17.7563  -27.3626    0.0000 C   0  0  0  0  0  0  0  0  0  0  0  0
   19.2164  -27.0189    0.0000 C   0  0  0  0  0  0  0  0  0  0  0  0
   20.6372  -26.5380    0.0000 C   0  0  0  0  0  0  0  0  0  0  0  0
   22.0058  -25.9241    0.0000 C   0  0  0  0  0  0  0  0  0  0  0  0
   23.3099  -25.1830    0.0000 C   0  0  0  0  0  0  0  0  0  0  0  0
   24.5377  -24.3212    0.0000 C   0  0  0  0  0  0  0  0  0  0  0  0
   25.6780  -23.3467    0.0000 C   0  0  0  0  0  0  0  0  0  0  0  0
   26.7204  -22.2681    0.0000 C   0  0  0  0  0  0  0  0  0  0  0  0
   27.6557  -21.0954    0.0000 C   0  0  0  0  0  0  0  0  0  0  0  0
   28.4752  -19.8390    0.0000 C   0  0  0  0  0  0  0  0  0  0  0  0
   29.1716  -18.5105    0.0000 C   0  0  0  0  0  0  0  0  0  0  0  0
   29.7385  -17.1218    0.0000 C   0  0  0  0  0  0  0  0  0  0  0  0
   30.1709  -15.6854    0.0000 C   0  0  0  0  0  0  0  0  0  0  0  0
   30.4648  -14.2145    0.0000 C   0  0  0  0  0  0  0  0  0  0  0  0
   30.6175  -12.7223    0.0000 C   0  0  0  0  0  0  0  0  0  0  0  0
   30.6277  -11.2223    0.0000 C   0  0  0  0  0  0  0  0  0  0  0  0
   30.4953   -9.7282    0.0000 C   0  0  0  0  0  0  0  0  0  0  0  0
   30.2215   -8.2534    0.0000 C   0  0  0  0  0  0  0  0  0  0  0  0
   29.8087   -6.8113    0.0000 C   0  0  0  0  0  0  0  0  0  0  0  0
   29.2606   -5.4150    0.0000 C   0  0  0  0  0  0  0  0  0  0  0  0
   28.5824   -4.0771    0.0000 C   0  0  0  0  0  0  0  0  0  0  0  0
   27.7800   -2.8098    0.0000 C   0  0  0  0  0  0  0  0  0  0  0  0
   26.8608   -1.6244    0.0000 C   0  0  0  0  0  0  0  0  0  0  0  0
   25.8331   -0.5318    0.0000 C   0  0  0  0  0  0  0  0  0  0  0  0
   24.7062    0.4582    0.0000 C   0  0  0  0  0  0  0  0  0  0  0  0
   23.4903    1.3366    0.0000 C   0  0  0  0  0  0  0  0  0  0  0  0
   22.1964    2.0954    0.0000 C   0  0  0  0  0  0  0  0  0  0  0  0
   20.8362    2.7278    0.0000 C   0  0  0  0  0  0  0  0  0  0  0  0
   19.4221    3.2280    0.0000 C   0  0  0  0  0  0  0  0  0  0  0  0
   17.9668    3.5915    0.0000 C   0  0  0  0  0  0  0  0  0  0  0  0
   16.4835    3.8151    0.0000 C   0  0  0  0  0  0  0  0  0  0  0  0
   14.9858    3.8967    0.0000 C   0  0  0  0  0  0  0  0  0  0  0  0
   13.4870    3.8355    0.0000 C   0  0  0  0  0  0  0  0  0  0  0  0
   12.0008    3.6321    0.0000 C   0  0  0  0  0  0  0  0  0  0  0  0
   10.5408    3.2884    0.0000 C   0  0  0  0  0  0  0  0  0  0  0  0
    9.1200    2.8074    0.0000 C   0  0  0  0  0  0  0  0  0  0  0  0
    7.7513    2.1936    0.0000 C   0  0  0  0  0  0  0  0  0  0  0  0
    6.4472    1.4525    0.0000 C   0  0  0  0  0  0  0  0  0  0  0  0
    5.2194    0.5907    0.0000 C   0  0  0  0  0  0  0  0  0  0  0  0
    4.0792   -0.3839    0.0000 C   0  0  0  0  0  0  0  0  0  0  0  0
    3.0367   -1.4624    0.0000 C   0  0  0  0  0  0  0  0  0  0  0  0
    3.3705    0.0000    0.0000 C   0  0  0  0  0  0  0  0  0  0  0  0
    3.0367    1.4624    0.0000 C   0  0  0  0  0  0  0  0  0  0  0  0
    2.1015    2.6351    0.0000 C   0  0  0  0  0  0  0  0  0  0  0  0
    0.7500    3.2860    0.0000 C   0  0  0  0  0  0  0  0  0  0  0  0
   -0.7500    3.2860    0.0000 C   0  0  0  0  0  0  0  0  0  0  0  0
   -2.1015    2.6351    0.0000 C   0  0  0  0  0  0  0  0  0  0  0  0
   -3.0367    1.4624    0.0000 C   0  0  0  0  0  0  0  0  0  0  0  0
   -3.3705    0.0000    0.0000 C   0  0  0  0  0  0  0  0  0  0  0  0
   -3.0367   -1.4624    0.0000 C   0  0  0  0  0  0  0  0  0  0  0  0
   -2.1015   -2.6351    0.0000 C   0  0  0  0  0  0  0  0  0  0  0  0
   -0.7500   -3.2860    0.0000 C   0  0  0  0  0  0  0  0  0  0  0  0
    0.7500   -3.2860    0.0000 C   0  0  0  0  0  0  0  0  0  0  0  0
    2.1015   -2.6351    0.0000 C   0  0  0  0  0  0  0  0  0  0  0  0
  1  2  1  0
  2  3  1  0
  3  4  1  0
  4  5  1  0
  5  6  1  0
  6  7  1  0
  7  8  1  0
  8  9  1  0
  9 10  1  0
 10 11  1  0
 11 12  1  0
 12 13  1  0
 13 14  1  0
 14 15  1  0
 15 16  1  0
 16 17  1  0
 17 18  1  0
 18 19  1  0
 19 20  1  0
 20 21  1  0
 21 22  1  0
 22 23  1  0
 23 24  1  0
 24 25  1  0
 25 26  1  0
 26 27  1  0
 27 28  1  0
 28 29  1  0
 29 30  1  0
 30 31  1  0
 31 32  1  0
 32 33  1  0
 33 34  1  0
 34 35  1  0
 35 36  1  0
 36 37  1  0
 37 38  1  0
 38 39  1  0
 39 40  1  0
 40 41  1  0
 41 42  1  0
 42 43  1  0
 43 44  1  0
 44 45  1  0
 45 46  1  0
 46 47  1  0
 47 48  1  0
 48 49  1  0
 49 50  1  0
 50 51  1  0
 51 52  1  0
 52 53  1  0
 53 54  1  0
 54 55  1  0
 55 56  1  0
 56 57  1  0
 57 58  1  0
 58 59  1  0
 59 60  2  0
 60 61  1  0
 61 62  2  0
 62 63  1  0
 63 64  2  0
 64 65  1  0
 65 66  2  0
 66 67  1  0
 67 68  1  0
 68 69  1  0
 69 70  1  0
 70 71  1  0
 71 72  1  0
 72 73  1  0
 73 74  1  0
 74 75  2  0
 75 76  1  0
 76 77  2  0
 77 78  1  0
 78 79  2  0
 79  2  1  0
 79 66  1  0
M  END
>  <Title>  (588) 
idAAUVgen7

$$$$

     RDKit          2D

 29 30  0  0  0  0  0  0  0  0999 V2000
    6.0567    0.0000    0.0000 C   0  0  0  0  0  0  0  0  0  0  0  0
    4.5567    0.0000    0.0000 C   0  0  0  0  0  0  0  0  0  0  0  0
    4.3098    1.4795    0.0000 C   0  0  0  0  0  0  0  0  0  0  0  0
    3.5958    2.7988    0.0000 C   0  0  0  0  0  0  0  0  0  0  0  0
    2.4923    3.8147    0.0000 C   0  0  0  0  0  0  0  0  0  0  0  0
    1.1186    4.4172    0.0000 C   0  0  0  0  0  0  0  0  0  0  0  0
   -0.3763    4.5411    0.0000 C   0  0  0  0  0  0  0  0  0  0  0  0
   -1.8304    4.1729    0.0000 C   0  0  0  0  0  0  0  0  0  0  0  0
   -3.0861    3.3524    0.0000 C   0  0  0  0  0  0  0  0  0  0  0  0
   -4.0075    2.1687    0.0000 C   0  0  0  0  0  0  0  0  0  0  0  0
   -4.4945    0.7500    0.0000 C   0  0  0  0  0  0  0  0  0  0  0  0
   -4.4945   -0.7500    0.0000 C   0  0  0  0  0  0  0  0  0  0  0  0
   -4.0075   -2.1687    0.0000 C   0  0  0  0  0  0  0  0  0  0  0  0
   -3.0861   -3.3524    0.0000 C   0  0  0  0  0  0  0  0  0  0  0  0
   -1.8304   -4.1729    0.0000 C   0  0  0  0  0  0  0  0  0  0  0  0
   -0.3763   -4.5411    0.0000 C   0  0  0  0  0  0  0  0  0  0  0  0
    1.1186   -4.4172    0.0000 C   0  0  0  0  0  0  0  0  0  0  0  0
    2.4923   -3.8147    0.0000 C   0  0  0  0  0  0  0  0  0  0  0  0
    3.5958   -2.7988    0.0000 C   0  0  0  0  0  0  0  0  0  0  0  0
    4.7795   -3.7201    0.0000 C   0  0  0  0  0  0  0  0  0  0  0  0
    6.1693   -3.1556    0.0000 O   0  0  0  0  0  0  0  0  0  0  0  0
    4.5735   -5.2059    0.0000 N   0  0  0  0  0  0  0  0  0  0  0  0
    5.7572   -6.1272    0.0000 C   0  0  0  0  0  0  0  0  0  0  0  0
    5.5512   -7.6130    0.0000 N   0  0  0  0  0  0  0  0  0  0  0  0
    6.7349   -8.5343    0.0000 N   0  0  0  0  0  0  0  0  0  0  0  0
    8.1247   -7.9698    0.0000 N   0  0  0  0  0  0  0  0  0  0  0  0
    8.3307   -6.4840    0.0000 N   0  0  0  0  0  0  0  0  0  0  0  0
    7.1470   -5.5627    0.0000 N   0  0  0  0  0  0  0  0  0  0  0  0
    4.3098   -1.4795    0.0000 C   0  0  0  0  0  0  0  0  0  0  0  0
  1  2  1  0
  2  3  1  0
  3  4  1  0
  4  5  1  0
  5  6  1  0
  6  7  1  0
  7  8  1  0
  8  9  1  0
  9 10  1  0
 10 11  1  0
 11 12  1  0
 12 13  1  0
 13 14  1  0
 14 15  1  0
 15 16  1  0
 16 17  1  0
 17 18  1  0
 18 19  1  0
 19 20  1  0
 20 21  2  0
 20 22  1  0
 22 23  1  0
 23 24  2  0
 24 25  1  0
 25 26  2  0
 26 27  1  0
 27 28  2  0
 19 29  1  0
 29  2  1  0
 28 23  1  0
M  END
>  <Title>  (589) 
idAAUWgen7

$$$$

     RDKit          2D

 33 37  0  0  0  0  0  0  0  0999 V2000
   -1.7236    6.7261    0.0000 C   0  0  0  0  0  0  0  0  0  0  0  0
   -0.7367    5.5965    0.0000 N   0  0  0  0  0  0  0  0  0  0  0  0
    0.6426    6.1860    0.0000 C   0  0  0  0  0  0  0  0  0  0  0  0
    2.1050    5.8522    0.0000 C   0  0  0  0  0  0  0  0  0  0  0  0
    3.0919    4.7226    0.0000 C   0  0  0  0  0  0  0  0  0  0  0  0
    4.4712    5.3122    0.0000 C   0  0  0  0  0  0  0  0  0  0  0  0
    5.6714    4.4124    0.0000 O   0  0  0  0  0  0  0  0  0  0  0  0
    4.6503    6.8014    0.0000 N   0  0  0  0  0  0  0  0  0  0  0  0
    6.0296    7.3910    0.0000 C   0  0  0  0  0  0  0  0  0  0  0  0
    7.2298    6.4912    0.0000 N   0  0  0  0  0  0  0  0  0  0  0  0
    8.6091    7.0808    0.0000 N   0  0  0  0  0  0  0  0  0  0  0  0
    8.7882    8.5700    0.0000 N   0  0  0  0  0  0  0  0  0  0  0  0
    7.5880    9.4698    0.0000 N   0  0  0  0  0  0  0  0  0  0  0  0
    6.2087    8.8802    0.0000 N   0  0  0  0  0  0  0  0  0  0  0  0
    3.2264    3.2287    0.0000 C   0  0  0  0  0  0  0  0  0  0  0  0
    4.7262    3.2062    0.0000 C   0  0  0  0  0  0  0  0  0  0  0  0
    5.4567    1.8961    0.0000 C   0  0  0  0  0  0  0  0  0  0  0  0
    4.6874    0.6084    0.0000 C   0  0  0  0  0  0  0  0  0  0  0  0
    3.1875    0.6309    0.0000 C   0  0  0  0  0  0  0  0  0  0  0  0
    2.4570    1.9410    0.0000 C   0  0  0  0  0  0  0  0  0  0  0  0
    1.0777    1.3515    0.0000 C   0  0  0  0  0  0  0  0  0  0  0  0
    1.7286    0.0000    0.0000 C   0  0  0  0  0  0  0  0  0  0  0  0
    1.0777   -1.3515    0.0000 C   0  0  0  0  0  0  0  0  0  0  0  0
   -0.3846   -1.6852    0.0000 C   0  0  0  0  0  0  0  0  0  0  0  0
   -1.5574   -0.7500    0.0000 C   0  0  0  0  0  0  0  0  0  0  0  0
   -1.5574    0.7500    0.0000 C   0  0  0  0  0  0  0  0  0  0  0  0
   -0.3846    1.6852    0.0000 C   0  0  0  0  0  0  0  0  0  0  0  0
   -1.3716    2.8148    0.0000 C   0  0  0  0  0  0  0  0  0  0  0  0
   -2.5981    1.9514    0.0000 C   0  0  0  0  0  0  0  0  0  0  0  0
   -3.9592    2.5820    0.0000 C   0  0  0  0  0  0  0  0  0  0  0  0
   -4.0936    4.0759    0.0000 C   0  0  0  0  0  0  0  0  0  0  0  0
   -2.8670    4.9393    0.0000 C   0  0  0  0  0  0  0  0  0  0  0  0
   -1.5060    4.3088    0.0000 C   0  0  0  0  0  0  0  0  0  0  0  0
  1  2  1  0
  2  3  1  0
  3  4  2  0
  4  5  1  0
  5  6  1  0
  6  7  2  0
  6  8  1  0
  8  9  1  0
  9 10  2  0
 10 11  1  0
 11 12  2  0
 12 13  1  0
 13 14  2  0
  5 15  1  0
 15 16  2  0
 16 17  1  0
 17 18  2  0
 18 19  1  0
 19 20  2  0
 20 21  1  0
 21 22  2  0
 22 23  1  0
 23 24  2  0
 24 25  1  0
 25 26  1  0
 26 27  1  0
 27 28  1  0
 28 29  2  0
 29 30  1  0
 30 31  2  0
 31 32  1  0
 32 33  2  0
 33  2  1  0
 14  9  1  0
 20 15  1  0
 27 21  1  0
 33 28  1  0
M  END
>  <Title>  (590) 
idAAUXgen7

$$$$

     RDKit          2D

 65 65  0  0  0  0  0  0  0  0999 V2000
   16.7850    0.0000    0.0000 C   0  0  0  0  0  0  0  0  0  0  0  0
   15.2850    0.0000    0.0000 C   0  0  0  0  0  0  0  0  0  0  0  0
   15.2114   -1.4982    0.0000 C   0  0  0  0  0  0  0  0  0  0  0  0
   14.9913   -2.9820    0.0000 C   0  0  0  0  0  0  0  0  0  0  0  0
   14.6268   -4.4370    0.0000 C   0  0  0  0  0  0  0  0  0  0  0  0
   14.1215   -5.8493    0.0000 C   0  0  0  0  0  0  0  0  0  0  0  0
   13.4802   -7.2053    0.0000 C   0  0  0  0  0  0  0  0  0  0  0  0
   12.7090   -8.4919    0.0000 C   0  0  0  0  0  0  0  0  0  0  0  0
   11.8155   -9.6967    0.0000 C   0  0  0  0  0  0  0  0  0  0  0  0
   10.8081  -10.8081    0.0000 C   0  0  0  0  0  0  0  0  0  0  0  0
    9.6967  -11.8155    0.0000 C   0  0  0  0  0  0  0  0  0  0  0  0
    8.4919  -12.7090    0.0000 C   0  0  0  0  0  0  0  0  0  0  0  0
    7.2053  -13.4802    0.0000 C   0  0  0  0  0  0  0  0  0  0  0  0
    5.8493  -14.1215    0.0000 C   0  0  0  0  0  0  0  0  0  0  0  0
    4.4370  -14.6268    0.0000 C   0  0  0  0  0  0  0  0  0  0  0  0
    2.9820  -14.9913    0.0000 C   0  0  0  0  0  0  0  0  0  0  0  0
    1.4982  -15.2114    0.0000 C   0  0  0  0  0  0  0  0  0  0  0  0
   -0.0000  -15.2850    0.0000 C   0  0  0  0  0  0  0  0  0  0  0  0
   -1.4982  -15.2114    0.0000 C   0  0  0  0  0  0  0  0  0  0  0  0
   -2.9820  -14.9913    0.0000 C   0  0  0  0  0  0  0  0  0  0  0  0
   -4.4370  -14.6268    0.0000 C   0  0  0  0  0  0  0  0  0  0  0  0
   -5.8493  -14.1215    0.0000 C   0  0  0  0  0  0  0  0  0  0  0  0
   -7.2053  -13.4802    0.0000 C   0  0  0  0  0  0  0  0  0  0  0  0
   -8.4919  -12.7090    0.0000 C   0  0  0  0  0  0  0  0  0  0  0  0
   -9.6967  -11.8155    0.0000 C   0  0  0  0  0  0  0  0  0  0  0  0
  -10.8081  -10.8081    0.0000 C   0  0  0  0  0  0  0  0  0  0  0  0
  -11.8155   -9.6967    0.0000 C   0  0  0  0  0  0  0  0  0  0  0  0
  -12.7090   -8.4919    0.0000 C   0  0  0  0  0  0  0  0  0  0  0  0
  -13.4802   -7.2053    0.0000 C   0  0  0  0  0  0  0  0  0  0  0  0
  -14.1215   -5.8493    0.0000 C   0  0  0  0  0  0  0  0  0  0  0  0
  -14.6268   -4.4370    0.0000 C   0  0  0  0  0  0  0  0  0  0  0  0
  -14.9913   -2.9820    0.0000 C   0  0  0  0  0  0  0  0  0  0  0  0
  -15.2114   -1.4982    0.0000 C   0  0  0  0  0  0  0  0  0  0  0  0
  -15.2850    0.0000    0.0000 C   0  0  0  0  0  0  0  0  0  0  0  0
  -15.2114    1.4982    0.0000 C   0  0  0  0  0  0  0  0  0  0  0  0
  -14.9913    2.9820    0.0000 C   0  0  0  0  0  0  0  0  0  0  0  0
  -14.6268    4.4370    0.0000 C   0  0  0  0  0  0  0  0  0  0  0  0
  -14.1215    5.8493    0.0000 C   0  0  0  0  0  0  0  0  0  0  0  0
  -13.4802    7.2053    0.0000 C   0  0  0  0  0  0  0  0  0  0  0  0
  -12.7090    8.4919    0.0000 C   0  0  0  0  0  0  0  0  0  0  0  0
  -11.8155    9.6967    0.0000 C   0  0  0  0  0  0  0  0  0  0  0  0
  -10.8081   10.8081    0.0000 C   0  0  0  0  0  0  0  0  0  0  0  0
   -9.6967   11.8155    0.0000 C   0  0  0  0  0  0  0  0  0  0  0  0
   -8.4919   12.7090    0.0000 C   0  0  0  0  0  0  0  0  0  0  0  0
   -7.2053   13.4802    0.0000 C   0  0  0  0  0  0  0  0  0  0  0  0
   -5.8493   14.1215    0.0000 C   0  0  0  0  0  0  0  0  0  0  0  0
   -4.4370   14.6268    0.0000 C   0  0  0  0  0  0  0  0  0  0  0  0
   -2.9820   14.9913    0.0000 C   0  0  0  0  0  0  0  0  0  0  0  0
   -1.4982   15.2114    0.0000 C   0  0  0  0  0  0  0  0  0  0  0  0
    0.0000   15.2850    0.0000 C   0  0  0  0  0  0  0  0  0  0  0  0
    1.4982   15.2114    0.0000 C   0  0  0  0  0  0  0  0  0  0  0  0
    2.9820   14.9913    0.0000 C   0  0  0  0  0  0  0  0  0  0  0  0
    4.4370   14.6268    0.0000 C   0  0  0  0  0  0  0  0  0  0  0  0
    5.8493   14.1215    0.0000 C   0  0  0  0  0  0  0  0  0  0  0  0
    7.2053   13.4802    0.0000 C   0  0  0  0  0  0  0  0  0  0  0  0
    8.4919   12.7090    0.0000 C   0  0  0  0  0  0  0  0  0  0  0  0
    9.6967   11.8155    0.0000 C   0  0  0  0  0  0  0  0  0  0  0  0
   10.8081   10.8081    0.0000 C   0  0  0  0  0  0  0  0  0  0  0  0
   11.8155    9.6967    0.0000 C   0  0  0  0  0  0  0  0  0  0  0  0
   12.7090    8.4919    0.0000 C   0  0  0  0  0  0  0  0  0  0  0  0
   13.4802    7.2053    0.0000 C   0  0  0  0  0  0  0  0  0  0  0  0
   14.1215    5.8493    0.0000 C   0  0  0  0  0  0  0  0  0  0  0  0
   14.6268    4.4370    0.0000 C   0  0  0  0  0  0  0  0  0  0  0  0
   14.9913    2.9820    0.0000 C   0  0  0  0  0  0  0  0  0  0  0  0
   15.2114    1.4982    0.0000 C   0  0  0  0  0  0  0  0  0  0  0  0
  1  2  1  0
  2  3  1  0
  3  4  2  0
  4  5  1  0
  5  6  2  0
  6  7  1  0
  7  8  2  0
  8  9  1  0
  9 10  2  0
 10 11  1  0
 11 12  2  0
 12 13  1  0
 13 14  2  0
 14 15  1  0
 15 16  2  0
 16 17  1  0
 17 18  1  0
 18 19  1  0
 19 20  1  0
 20 21  1  0
 21 22  1  0
 22 23  1  0
 23 24  1  0
 24 25  1  0
 25 26  1  0
 26 27  1  0
 27 28  1  0
 28 29  1  0
 29 30  1  0
 30 31  1  0
 31 32  1  0
 32 33  1  0
 33 34  1  0
 34 35  1  0
 35 36  1  0
 36 37  1  0
 37 38  1  0
 38 39  1  0
 39 40  1  0
 40 41  1  0
 41 42  1  0
 42 43  1  0
 43 44  1  0
 44 45  1  0
 45 46  1  0
 46 47  1  0
 47 48  1  0
 48 49  1  0
 49 50  1  0
 50 51  1  0
 51 52  1  0
 52 53  1  0
 53 54  1  0
 54 55  1  0
 55 56  1  0
 56 57  1  0
 57 58  1  0
 58 59  1  0
 59 60  1  0
 60 61  1  0
 61 62  1  0
 62 63  1  0
 63 64  1  0
 64 65  1  0
 65  2  1  0
M  END
>  <Title>  (591) 
idAAUYgen7

$$$$

     RDKit          2D

 34 38  0  0  0  0  0  0  0  0999 V2000
   -1.1382   -8.3460    0.0000 C   0  0  0  0  0  0  0  0  0  0  0  0
   -0.7500   -6.8971    0.0000 C   0  0  0  0  0  0  0  0  0  0  0  0
    0.7500   -6.8971    0.0000 C   0  0  0  0  0  0  0  0  0  0  0  0
    2.0490   -6.1471    0.0000 C   0  0  0  0  0  0  0  0  0  0  0  0
    2.7990   -4.8481    0.0000 C   0  0  0  0  0  0  0  0  0  0  0  0
    2.7990   -3.3481    0.0000 C   0  0  0  0  0  0  0  0  0  0  0  0
    2.0490   -2.0490    0.0000 C   0  0  0  0  0  0  0  0  0  0  0  0
    3.1097   -0.9884    0.0000 C   0  0  0  0  0  0  0  0  0  0  0  0
    2.7215    0.4605    0.0000 O   0  0  0  0  0  0  0  0  0  0  0  0
    4.5586   -1.3766    0.0000 N   0  0  0  0  0  0  0  0  0  0  0  0
    5.6192   -0.3159    0.0000 C   0  0  0  0  0  0  0  0  0  0  0  0
    7.0681   -0.7042    0.0000 N   0  0  0  0  0  0  0  0  0  0  0  0
    8.1288    0.3565    0.0000 N   0  0  0  0  0  0  0  0  0  0  0  0
    7.7406    1.8054    0.0000 N   0  0  0  0  0  0  0  0  0  0  0  0
    6.2917    2.1936    0.0000 N   0  0  0  0  0  0  0  0  0  0  0  0
    5.2310    1.1329    0.0000 N   0  0  0  0  0  0  0  0  0  0  0  0
    0.7500   -1.2990    0.0000 C   0  0  0  0  0  0  0  0  0  0  0  0
    1.5000    0.0000    0.0000 C   0  0  0  0  0  0  0  0  0  0  0  0
    0.7500    1.2990    0.0000 C   0  0  0  0  0  0  0  0  0  0  0  0
   -0.7500    1.2990    0.0000 C   0  0  0  0  0  0  0  0  0  0  0  0
   -1.5000    0.0000    0.0000 C   0  0  0  0  0  0  0  0  0  0  0  0
   -0.7500   -1.2990    0.0000 C   0  0  0  0  0  0  0  0  0  0  0  0
   -2.0490   -2.0490    0.0000 C   0  0  0  0  0  0  0  0  0  0  0  0
   -2.7990   -0.7500    0.0000 C   0  0  0  0  0  0  0  0  0  0  0  0
   -4.2990   -0.7500    0.0000 C   0  0  0  0  0  0  0  0  0  0  0  0
   -5.0490   -2.0490    0.0000 C   0  0  0  0  0  0  0  0  0  0  0  0
   -4.2990   -3.3481    0.0000 C   0  0  0  0  0  0  0  0  0  0  0  0
   -2.7990   -3.3481    0.0000 C   0  0  0  0  0  0  0  0  0  0  0  0
   -2.7990   -4.8481    0.0000 C   0  0  0  0  0  0  0  0  0  0  0  0
   -4.2990   -4.8481    0.0000 C   0  0  0  0  0  0  0  0  0  0  0  0
   -5.0490   -6.1471    0.0000 C   0  0  0  0  0  0  0  0  0  0  0  0
   -4.2990   -7.4462    0.0000 C   0  0  0  0  0  0  0  0  0  0  0  0
   -2.7990   -7.4462    0.0000 C   0  0  0  0  0  0  0  0  0  0  0  0
   -2.0490   -6.1471    0.0000 C   0  0  0  0  0  0  0  0  0  0  0  0
  1  2  1  0
  2  3  1  0
  3  4  1  0
  4  5  1  0
  5  6  1  0
  6  7  1  0
  7  8  1  0
  8  9  2  0
  8 10  1  0
 10 11  1  0
 11 12  2  0
 12 13  1  0
 13 14  2  0
 14 15  1  0
 15 16  2  0
  7 17  1  0
 17 18  2  0
 18 19  1  0
 19 20  2  0
 20 21  1  0
 21 22  2  0
 22 23  1  0
 23 24  2  0
 24 25  1  0
 25 26  2  0
 26 27  1  0
 27 28  2  0
 28 29  1  0
 29 30  2  0
 30 31  1  0
 31 32  2  0
 32 33  1  0
 33 34  2  0
 34  2  1  0
 16 11  1  0
 22 17  1  0
 28 23  1  0
 34 29  1  0
M  END
>  <Title>  (592) 
idAAUZgen7

$$$$

     RDKit          2D

 45 47  0  0  0  0  0  0  0  0999 V2000
   -2.6683   -0.1698    0.0000 C   0  0  0  0  0  0  0  0  0  0  0  0
   -2.2193   -1.6010    0.0000 C   0  0  0  0  0  0  0  0  0  0  0  0
   -3.5977   -2.1925    0.0000 C   0  0  0  0  0  0  0  0  0  0  0  0
   -4.8289   -3.0494    0.0000 C   0  0  0  0  0  0  0  0  0  0  0  0
   -5.8623   -4.1366    0.0000 C   0  0  0  0  0  0  0  0  0  0  0  0
   -6.6558   -5.4096    0.0000 C   0  0  0  0  0  0  0  0  0  0  0  0
   -7.1767   -6.8162    0.0000 C   0  0  0  0  0  0  0  0  0  0  0  0
   -7.4039   -8.2989    0.0000 C   0  0  0  0  0  0  0  0  0  0  0  0
   -7.3279   -9.7970    0.0000 C   0  0  0  0  0  0  0  0  0  0  0  0
   -6.9519  -11.2491    0.0000 C   0  0  0  0  0  0  0  0  0  0  0  0
   -6.2913  -12.5958    0.0000 C   0  0  0  0  0  0  0  0  0  0  0  0
   -5.3732  -13.7820    0.0000 C   0  0  0  0  0  0  0  0  0  0  0  0
   -4.2350  -14.7590    0.0000 C   0  0  0  0  0  0  0  0  0  0  0  0
   -2.9235  -15.4870    0.0000 C   0  0  0  0  0  0  0  0  0  0  0  0
   -1.4923  -15.9360    0.0000 C   0  0  0  0  0  0  0  0  0  0  0  0
   -0.0000  -16.0878    0.0000 C   0  0  0  0  0  0  0  0  0  0  0  0
    1.4923  -15.9360    0.0000 C   0  0  0  0  0  0  0  0  0  0  0  0
    2.9235  -15.4870    0.0000 C   0  0  0  0  0  0  0  0  0  0  0  0
    4.2350  -14.7590    0.0000 C   0  0  0  0  0  0  0  0  0  0  0  0
    5.3732  -13.7820    0.0000 C   0  0  0  0  0  0  0  0  0  0  0  0
    6.2913  -12.5958    0.0000 C   0  0  0  0  0  0  0  0  0  0  0  0
    6.9519  -11.2491    0.0000 C   0  0  0  0  0  0  0  0  0  0  0  0
    7.3279   -9.7970    0.0000 C   0  0  0  0  0  0  0  0  0  0  0  0
    7.4039   -8.2989    0.0000 C   0  0  0  0  0  0  0  0  0  0  0  0
    7.1767   -6.8162    0.0000 C   0  0  0  0  0  0  0  0  0  0  0  0
    6.6558   -5.4096    0.0000 C   0  0  0  0  0  0  0  0  0  0  0  0
    5.8623   -4.1366    0.0000 C   0  0  0  0  0  0  0  0  0  0  0  0
    4.8289   -3.0494    0.0000 C   0  0  0  0  0  0  0  0  0  0  0  0
    3.5977   -2.1925    0.0000 C   0  0  0  0  0  0  0  0  0  0  0  0
    2.2193   -1.6010    0.0000 C   0  0  0  0  0  0  0  0  0  0  0  0
    2.6683   -0.1698    0.0000 C   0  0  0  0  0  0  0  0  0  0  0  0
    1.6534    0.9347    0.0000 O   0  0  0  0  0  0  0  0  0  0  0  0
    4.1323    0.1569    0.0000 N   0  0  0  0  0  0  0  0  0  0  0  0
    4.5814    1.5882    0.0000 C   0  0  0  0  0  0  0  0  0  0  0  0
    6.0454    1.9149    0.0000 N   0  0  0  0  0  0  0  0  0  0  0  0
    6.4944    3.3461    0.0000 N   0  0  0  0  0  0  0  0  0  0  0  0
    5.4795    4.4506    0.0000 N   0  0  0  0  0  0  0  0  0  0  0  0
    4.0155    4.1238    0.0000 N   0  0  0  0  0  0  0  0  0  0  0  0
    3.5664    2.6926    0.0000 N   0  0  0  0  0  0  0  0  0  0  0  0
    0.7500   -1.2990    0.0000 C   0  0  0  0  0  0  0  0  0  0  0  0
    1.5000    0.0000    0.0000 C   0  0  0  0  0  0  0  0  0  0  0  0
    0.7500    1.2990    0.0000 C   0  0  0  0  0  0  0  0  0  0  0  0
   -0.7500    1.2990    0.0000 C   0  0  0  0  0  0  0  0  0  0  0  0
   -1.5000    0.0000    0.0000 C   0  0  0  0  0  0  0  0  0  0  0  0
   -0.7500   -1.2990    0.0000 C   0  0  0  0  0  0  0  0  0  0  0  0
  1  2  1  0
  2  3  1  0
  3  4  2  0
  4  5  1  0
  5  6  1  0
  6  7  1  0
  7  8  1  0
  8  9  1  0
  9 10  1  0
 10 11  1  0
 11 12  1  0
 12 13  1  0
 13 14  1  0
 14 15  1  0
 15 16  1  0
 16 17  1  0
 17 18  1  0
 18 19  1  0
 19 20  1  0
 20 21  1  0
 21 22  1  0
 22 23  1  0
 23 24  1  0
 24 25  1  0
 25 26  1  0
 26 27  1  0
 27 28  1  0
 28 29  1  0
 29 30  1  0
 30 31  1  0
 31 32  2  0
 31 33  1  0
 33 34  1  0
 34 35  2  0
 35 36  1  0
 36 37  2  0
 37 38  1  0
 38 39  2  0
 30 40  1  0
 40 41  2  0
 41 42  1  0
 42 43  2  0
 43 44  1  0
 44 45  2  0
 45  2  1  0
 39 34  1  0
 45 40  1  0
M  END
>  <Title>  (593) 
idAAVAgen7

$$$$

     RDKit          2D

 86 86  0  0  0  0  0  0  0  0999 V2000
   21.7969    0.0000    0.0000 C   0  0  0  0  0  0  0  0  0  0  0  0
   20.2969    0.0000    0.0000 C   0  0  0  0  0  0  0  0  0  0  0  0
   20.2414    1.4990    0.0000 C   0  0  0  0  0  0  0  0  0  0  0  0
   20.0755    2.9898    0.0000 C   0  0  0  0  0  0  0  0  0  0  0  0
   19.7998    4.4642    0.0000 C   0  0  0  0  0  0  0  0  0  0  0  0
   19.4161    5.9143    0.0000 C   0  0  0  0  0  0  0  0  0  0  0  0
   18.9263    7.3321    0.0000 C   0  0  0  0  0  0  0  0  0  0  0  0
   18.3331    8.7098    0.0000 C   0  0  0  0  0  0  0  0  0  0  0  0
   17.6398   10.0400    0.0000 C   0  0  0  0  0  0  0  0  0  0  0  0
   16.8501   11.3153    0.0000 C   0  0  0  0  0  0  0  0  0  0  0  0
   15.9685   12.5288    0.0000 C   0  0  0  0  0  0  0  0  0  0  0  0
   14.9996   13.6739    0.0000 C   0  0  0  0  0  0  0  0  0  0  0  0
   13.9488   14.7443    0.0000 C   0  0  0  0  0  0  0  0  0  0  0  0
   12.8218   15.7342    0.0000 C   0  0  0  0  0  0  0  0  0  0  0  0
   11.6247   16.6382    0.0000 C   0  0  0  0  0  0  0  0  0  0  0  0
   10.3642   17.4513    0.0000 C   0  0  0  0  0  0  0  0  0  0  0  0
    9.0471   18.1690    0.0000 C   0  0  0  0  0  0  0  0  0  0  0  0
    7.6806   18.7876    0.0000 C   0  0  0  0  0  0  0  0  0  0  0  0
    6.2721   19.3035    0.0000 C   0  0  0  0  0  0  0  0  0  0  0  0
    4.8293   19.7140    0.0000 C   0  0  0  0  0  0  0  0  0  0  0  0
    3.3602   20.0168    0.0000 C   0  0  0  0  0  0  0  0  0  0  0  0
    1.8728   20.2103    0.0000 C   0  0  0  0  0  0  0  0  0  0  0  0
    0.3751   20.2934    0.0000 C   0  0  0  0  0  0  0  0  0  0  0  0
   -1.1247   20.2657    0.0000 C   0  0  0  0  0  0  0  0  0  0  0  0
   -2.6183   20.1273    0.0000 C   0  0  0  0  0  0  0  0  0  0  0  0
   -4.0976   19.8790    0.0000 C   0  0  0  0  0  0  0  0  0  0  0  0
   -5.5545   19.5221    0.0000 C   0  0  0  0  0  0  0  0  0  0  0  0
   -6.9811   19.0585    0.0000 C   0  0  0  0  0  0  0  0  0  0  0  0
   -8.3695   18.4909    0.0000 C   0  0  0  0  0  0  0  0  0  0  0  0
   -9.7123   17.8223    0.0000 C   0  0  0  0  0  0  0  0  0  0  0  0
  -11.0020   17.0564    0.0000 C   0  0  0  0  0  0  0  0  0  0  0  0
  -12.2316   16.1973    0.0000 C   0  0  0  0  0  0  0  0  0  0  0  0
  -13.3944   15.2497    0.0000 C   0  0  0  0  0  0  0  0  0  0  0  0
  -14.4841   14.2188    0.0000 C   0  0  0  0  0  0  0  0  0  0  0  0
  -15.4946   13.1103    0.0000 C   0  0  0  0  0  0  0  0  0  0  0  0
  -16.4205   11.9302    0.0000 C   0  0  0  0  0  0  0  0  0  0  0  0
  -17.2568   10.6849    0.0000 C   0  0  0  0  0  0  0  0  0  0  0  0
  -17.9987    9.3813    0.0000 C   0  0  0  0  0  0  0  0  0  0  0  0
  -18.6424    8.0264    0.0000 C   0  0  0  0  0  0  0  0  0  0  0  0
  -19.1843    6.6277    0.0000 C   0  0  0  0  0  0  0  0  0  0  0  0
  -19.6214    5.1928    0.0000 C   0  0  0  0  0  0  0  0  0  0  0  0
  -19.9513    3.7295    0.0000 C   0  0  0  0  0  0  0  0  0  0  0  0
  -20.1722    2.2459    0.0000 C   0  0  0  0  0  0  0  0  0  0  0  0
  -20.2830    0.7500    0.0000 C   0  0  0  0  0  0  0  0  0  0  0  0
  -20.2830   -0.7500    0.0000 C   0  0  0  0  0  0  0  0  0  0  0  0
  -20.1722   -2.2459    0.0000 C   0  0  0  0  0  0  0  0  0  0  0  0
  -19.9513   -3.7295    0.0000 C   0  0  0  0  0  0  0  0  0  0  0  0
  -19.6214   -5.1928    0.0000 C   0  0  0  0  0  0  0  0  0  0  0  0
  -19.1843   -6.6277    0.0000 C   0  0  0  0  0  0  0  0  0  0  0  0
  -18.6424   -8.0264    0.0000 C   0  0  0  0  0  0  0  0  0  0  0  0
  -17.9987   -9.3813    0.0000 C   0  0  0  0  0  0  0  0  0  0  0  0
  -17.2568  -10.6849    0.0000 C   0  0  0  0  0  0  0  0  0  0  0  0
  -16.4205  -11.9302    0.0000 C   0  0  0  0  0  0  0  0  0  0  0  0
  -15.4946  -13.1103    0.0000 C   0  0  0  0  0  0  0  0  0  0  0  0
  -14.4841  -14.2188    0.0000 C   0  0  0  0  0  0  0  0  0  0  0  0
  -13.3944  -15.2497    0.0000 C   0  0  0  0  0  0  0  0  0  0  0  0
  -12.2316  -16.1973    0.0000 C   0  0  0  0  0  0  0  0  0  0  0  0
  -11.0020  -17.0564    0.0000 C   0  0  0  0  0  0  0  0  0  0  0  0
   -9.7123  -17.8223    0.0000 C   0  0  0  0  0  0  0  0  0  0  0  0
   -8.3695  -18.4909    0.0000 C   0  0  0  0  0  0  0  0  0  0  0  0
   -6.9811  -19.0585    0.0000 C   0  0  0  0  0  0  0  0  0  0  0  0
   -5.5545  -19.5221    0.0000 C   0  0  0  0  0  0  0  0  0  0  0  0
   -4.0976  -19.8790    0.0000 C   0  0  0  0  0  0  0  0  0  0  0  0
   -2.6183  -20.1273    0.0000 C   0  0  0  0  0  0  0  0  0  0  0  0
   -1.1247  -20.2657    0.0000 C   0  0  0  0  0  0  0  0  0  0  0  0
    0.3751  -20.2934    0.0000 C   0  0  0  0  0  0  0  0  0  0  0  0
    1.8728  -20.2103    0.0000 C   0  0  0  0  0  0  0  0  0  0  0  0
    3.3602  -20.0168    0.0000 C   0  0  0  0  0  0  0  0  0  0  0  0
    4.8293  -19.7140    0.0000 C   0  0  0  0  0  0  0  0  0  0  0  0
    6.2721  -19.3035    0.0000 C   0  0  0  0  0  0  0  0  0  0  0  0
    7.6806  -18.7876    0.0000 C   0  0  0  0  0  0  0  0  0  0  0  0
    9.0471  -18.1690    0.0000 C   0  0  0  0  0  0  0  0  0  0  0  0
   10.3642  -17.4513    0.0000 C   0  0  0  0  0  0  0  0  0  0  0  0
   11.6247  -16.6382    0.0000 C   0  0  0  0  0  0  0  0  0  0  0  0
   12.8218  -15.7342    0.0000 C   0  0  0  0  0  0  0  0  0  0  0  0
   13.9488  -14.7443    0.0000 C   0  0  0  0  0  0  0  0  0  0  0  0
   14.9996  -13.6739    0.0000 C   0  0  0  0  0  0  0  0  0  0  0  0
   15.9685  -12.5288    0.0000 C   0  0  0  0  0  0  0  0  0  0  0  0
   16.8501  -11.3153    0.0000 C   0  0  0  0  0  0  0  0  0  0  0  0
   17.6398  -10.0400    0.0000 C   0  0  0  0  0  0  0  0  0  0  0  0
   18.3331   -8.7098    0.0000 C   0  0  0  0  0  0  0  0  0  0  0  0
   18.9263   -7.3321    0.0000 C   0  0  0  0  0  0  0  0  0  0  0  0
   19.4161   -5.9143    0.0000 C   0  0  0  0  0  0  0  0  0  0  0  0
   19.7998   -4.4642    0.0000 C   0  0  0  0  0  0  0  0  0  0  0  0
   20.0755   -2.9898    0.0000 C   0  0  0  0  0  0  0  0  0  0  0  0
   20.2414   -1.4990    0.0000 C   0  0  0  0  0  0  0  0  0  0  0  0
  1  2  1  0
  2  3  1  0
  3  4  2  0
  4  5  1  0
  5  6  2  0
  6  7  1  0
  7  8  2  0
  8  9  1  0
  9 10  2  0
 10 11  1  0
 11 12  2  0
 12 13  1  0
 13 14  2  0
 14 15  1  0
 15 16  1  0
 16 17  1  0
 17 18  1  0
 18 19  1  0
 19 20  1  0
 20 21  1  0
 21 22  1  0
 22 23  1  0
 23 24  1  0
 24 25  1  0
 25 26  1  0
 26 27  1  0
 27 28  1  0
 28 29  1  0
 29 30  1  0
 30 31  1  0
 31 32  1  0
 32 33  1  0
 33 34  1  0
 34 35  1  0
 35 36  1  0
 36 37  1  0
 37 38  1  0
 38 39  1  0
 39 40  1  0
 40 41  1  0
 41 42  1  0
 42 43  1  0
 43 44  1  0
 44 45  1  0
 45 46  1  0
 46 47  1  0
 47 48  1  0
 48 49  1  0
 49 50  1  0
 50 51  1  0
 51 52  1  0
 52 53  1  0
 53 54  1  0
 54 55  1  0
 55 56  1  0
 56 57  1  0
 57 58  1  0
 58 59  1  0
 59 60  1  0
 60 61  1  0
 61 62  1  0
 62 63  1  0
 63 64  1  0
 64 65  1  0
 65 66  1  0
 66 67  1  0
 67 68  1  0
 68 69  1  0
 69 70  1  0
 70 71  1  0
 71 72  1  0
 72 73  1  0
 73 74  1  0
 74 75  1  0
 75 76  1  0
 76 77  1  0
 77 78  1  0
 78 79  1  0
 79 80  1  0
 80 81  1  0
 81 82  1  0
 82 83  1  0
 83 84  1  0
 84 85  1  0
 85 86  1  0
 86  2  1  0
M  END
>  <Title>  (594) 
idAAVBgen7

$$$$

     RDKit          2D

  8  8  0  0  0  0  0  0  0  0999 V2000
    3.2286   -0.0000    0.0000 C   0  0  0  0  0  0  0  0  0  0  0  0
    1.7286    0.0000    0.0000 C   0  0  0  0  0  0  0  0  0  0  0  0
    1.0777    1.3515    0.0000 C   0  0  0  0  0  0  0  0  0  0  0  0
   -0.3846    1.6852    0.0000 C   0  0  0  0  0  0  0  0  0  0  0  0
   -1.5574    0.7500    0.0000 C   0  0  0  0  0  0  0  0  0  0  0  0
   -1.5574   -0.7500    0.0000 C   0  0  0  0  0  0  0  0  0  0  0  0
   -0.3846   -1.6852    0.0000 C   0  0  0  0  0  0  0  0  0  0  0  0
    1.0777   -1.3515    0.0000 C   0  0  0  0  0  0  0  0  0  0  0  0
  1  2  1  0
  2  3  2  0
  3  4  1  0
  4  5  1  0
  5  6  1  0
  6  7  2  0
  7  8  1  0
  8  2  1  0
M  END
>  <Title>  (595) 
idAAVCgen7

$$$$

     RDKit          2D

 21 23  0  0  0  0  0  0  0  0999 V2000
   -3.1476   -2.1380    0.0000 C   0  0  0  0  0  0  0  0  0  0  0  0
   -1.6852   -2.4718    0.0000 C   0  0  0  0  0  0  0  0  0  0  0  0
   -1.3515   -3.9342    0.0000 C   0  0  0  0  0  0  0  0  0  0  0  0
   -0.0000   -4.5850    0.0000 C   0  0  0  0  0  0  0  0  0  0  0  0
    1.3515   -3.9342    0.0000 C   0  0  0  0  0  0  0  0  0  0  0  0
    1.6852   -2.4718    0.0000 C   0  0  0  0  0  0  0  0  0  0  0  0
    3.1476   -2.1380    0.0000 C   0  0  0  0  0  0  0  0  0  0  0  0
    3.5898   -0.7046    0.0000 O   0  0  0  0  0  0  0  0  0  0  0  0
    4.1679   -3.2376    0.0000 N   0  0  0  0  0  0  0  0  0  0  0  0
    5.6303   -2.9038    0.0000 C   0  0  0  0  0  0  0  0  0  0  0  0
    6.6505   -4.0034    0.0000 N   0  0  0  0  0  0  0  0  0  0  0  0
    8.1129   -3.6696    0.0000 N   0  0  0  0  0  0  0  0  0  0  0  0
    8.5551   -2.2362    0.0000 N   0  0  0  0  0  0  0  0  0  0  0  0
    7.5348   -1.1367    0.0000 N   0  0  0  0  0  0  0  0  0  0  0  0
    6.0724   -1.4704    0.0000 N   0  0  0  0  0  0  0  0  0  0  0  0
    0.7500   -1.2990    0.0000 C   0  0  0  0  0  0  0  0  0  0  0  0
    1.5000    0.0000    0.0000 C   0  0  0  0  0  0  0  0  0  0  0  0
    0.7500    1.2990    0.0000 C   0  0  0  0  0  0  0  0  0  0  0  0
   -0.7500    1.2990    0.0000 C   0  0  0  0  0  0  0  0  0  0  0  0
   -1.5000    0.0000    0.0000 C   0  0  0  0  0  0  0  0  0  0  0  0
   -0.7500   -1.2990    0.0000 C   0  0  0  0  0  0  0  0  0  0  0  0
  1  2  1  0
  2  3  1  0
  3  4  2  0
  4  5  1  0
  5  6  2  0
  6  7  1  0
  7  8  2  0
  7  9  1  0
  9 10  1  0
 10 11  2  0
 11 12  1  0
 12 13  2  0
 13 14  1  0
 14 15  2  0
  6 16  1  0
 16 17  2  0
 17 18  1  0
 18 19  2  0
 19 20  1  0
 20 21  2  0
 21  2  1  0
 15 10  1  0
 21 16  1  0
M  END
>  <Title>  (596) 
idAAVDgen7

$$$$

     RDKit          2D

 19 18  0  0  0  0  0  0  0  0999 V2000
    0.0000    0.0000    0.0000 C   0  0  0  0  0  0  0  0  0  0  0  0
    1.2990    0.7500    0.0000 C   0  0  0  0  0  0  0  0  0  0  0  0
    2.5981   -0.0000    0.0000 C   0  0  0  0  0  0  0  0  0  0  0  0
    3.8971   -0.7500    0.0000 C   0  0  0  0  0  0  0  0  0  0  0  0
    5.1962   -1.5000    0.0000 C   0  0  0  0  0  0  0  0  0  0  0  0
    6.4952   -0.7500    0.0000 C   0  0  0  0  0  0  0  0  0  0  0  0
    7.7942   -1.5000    0.0000 C   0  0  0  0  0  0  0  0  0  0  0  0
    9.0933   -0.7500    0.0000 C   0  0  0  0  0  0  0  0  0  0  0  0
   10.3923   -1.5000    0.0000 C   0  0  0  0  0  0  0  0  0  0  0  0
   11.6913   -0.7500    0.0000 C   0  0  0  0  0  0  0  0  0  0  0  0
   12.9904   -1.5000    0.0000 C   0  0  0  0  0  0  0  0  0  0  0  0
   14.2894   -0.7500    0.0000 C   0  0  0  0  0  0  0  0  0  0  0  0
   15.5885   -1.5000    0.0000 C   0  0  0  0  0  0  0  0  0  0  0  0
   16.8875   -0.7500    0.0000 C   0  0  0  0  0  0  0  0  0  0  0  0
   18.1865   -1.5000    0.0000 C   0  0  0  0  0  0  0  0  0  0  0  0
   19.4856   -0.7500    0.0000 C   0  0  0  0  0  0  0  0  0  0  0  0
   20.7846   -1.5000    0.0000 C   0  0  0  0  0  0  0  0  0  0  0  0
   22.0836   -0.7500    0.0000 C   0  0  0  0  0  0  0  0  0  0  0  0
   23.3827   -1.5000    0.0000 C   0  0  0  0  0  0  0  0  0  0  0  0
  1  2  1  0
  2  3  1  0
  3  4  3  0
  4  5  1  0
  5  6  2  3
  6  7  1  0
  7  8  1  0
  8  9  1  0
  9 10  1  0
 10 11  1  0
 11 12  1  0
 12 13  1  0
 13 14  1  0
 14 15  1  0
 15 16  1  0
 16 17  1  0
 17 18  1  0
 18 19  1  0
M  END
>  <Title>  (597) 
idAAVEgen7

$$$$

     RDKit          2D

 25 27  0  0  0  0  0  0  0  0999 V2000
   -2.2502   -7.3547    0.0000 C   0  0  0  0  0  0  0  0  0  0  0  0
   -1.4392   -6.0928    0.0000 C   0  0  0  0  0  0  0  0  0  0  0  0
   -0.0000   -6.5154    0.0000 C   0  0  0  0  0  0  0  0  0  0  0  0
    1.4392   -6.0928    0.0000 C   0  0  0  0  0  0  0  0  0  0  0  0
    2.4215   -4.9592    0.0000 C   0  0  0  0  0  0  0  0  0  0  0  0
    2.6350   -3.4744    0.0000 C   0  0  0  0  0  0  0  0  0  0  0  0
    2.0119   -2.1100    0.0000 C   0  0  0  0  0  0  0  0  0  0  0  0
    0.7500   -1.2990    0.0000 C   0  0  0  0  0  0  0  0  0  0  0  0
    1.5000    0.0000    0.0000 C   0  0  0  0  0  0  0  0  0  0  0  0
    0.7500    1.2990    0.0000 C   0  0  0  0  0  0  0  0  0  0  0  0
   -0.7500    1.2990    0.0000 C   0  0  0  0  0  0  0  0  0  0  0  0
   -1.5000    0.0000    0.0000 C   0  0  0  0  0  0  0  0  0  0  0  0
   -0.7500   -1.2990    0.0000 C   0  0  0  0  0  0  0  0  0  0  0  0
   -2.0119   -2.1100    0.0000 C   0  0  0  0  0  0  0  0  0  0  0  0
   -3.1455   -1.1277    0.0000 C   0  0  0  0  0  0  0  0  0  0  0  0
   -2.8616    0.3452    0.0000 O   0  0  0  0  0  0  0  0  0  0  0  0
   -4.5630   -1.6183    0.0000 N   0  0  0  0  0  0  0  0  0  0  0  0
   -5.6966   -0.6360    0.0000 C   0  0  0  0  0  0  0  0  0  0  0  0
   -5.4128    0.8369    0.0000 N   0  0  0  0  0  0  0  0  0  0  0  0
   -6.5464    1.8192    0.0000 N   0  0  0  0  0  0  0  0  0  0  0  0
   -7.9639    1.3286    0.0000 N   0  0  0  0  0  0  0  0  0  0  0  0
   -8.2478   -0.1443    0.0000 N   0  0  0  0  0  0  0  0  0  0  0  0
   -7.1141   -1.1266    0.0000 N   0  0  0  0  0  0  0  0  0  0  0  0
   -2.6350   -3.4744    0.0000 C   0  0  0  0  0  0  0  0  0  0  0  0
   -2.4215   -4.9592    0.0000 C   0  0  0  0  0  0  0  0  0  0  0  0
  1  2  1  0
  2  3  1  0
  3  4  1  0
  4  5  1  0
  5  6  1  0
  6  7  1  0
  7  8  1  0
  8  9  2  0
  9 10  1  0
 10 11  2  0
 11 12  1  0
 12 13  2  0
 13 14  1  0
 14 15  1  0
 15 16  2  0
 15 17  1  0
 17 18  1  0
 18 19  2  0
 19 20  1  0
 20 21  2  0
 21 22  1  0
 22 23  2  0
 14 24  1  0
 24 25  1  0
 25  2  1  0
 13  8  1  0
 23 18  1  0
M  END
>  <Title>  (598) 
idAAVFgen7

$$$$

     RDKit          2D

 54 57  0  0  0  0  0  0  0  0999 V2000
   -5.7681   -1.3165    0.0000 C   0  0  0  0  0  0  0  0  0  0  0  0
   -5.0181   -2.6156    0.0000 C   0  0  0  0  0  0  0  0  0  0  0  0
   -6.2574   -3.4605    0.0000 C   0  0  0  0  0  0  0  0  0  0  0  0
   -7.3570   -4.4808    0.0000 C   0  0  0  0  0  0  0  0  0  0  0  0
   -8.2922   -5.6535    0.0000 C   0  0  0  0  0  0  0  0  0  0  0  0
   -9.0422   -6.9526    0.0000 C   0  0  0  0  0  0  0  0  0  0  0  0
   -9.5902   -8.3489    0.0000 C   0  0  0  0  0  0  0  0  0  0  0  0
   -9.9240   -9.8113    0.0000 C   0  0  0  0  0  0  0  0  0  0  0  0
  -10.0361  -11.3071    0.0000 C   0  0  0  0  0  0  0  0  0  0  0  0
   -9.9240  -12.8029    0.0000 C   0  0  0  0  0  0  0  0  0  0  0  0
   -9.5902  -14.2653    0.0000 C   0  0  0  0  0  0  0  0  0  0  0  0
   -9.0422  -15.6616    0.0000 C   0  0  0  0  0  0  0  0  0  0  0  0
   -8.2922  -16.9606    0.0000 C   0  0  0  0  0  0  0  0  0  0  0  0
   -7.3570  -18.1334    0.0000 C   0  0  0  0  0  0  0  0  0  0  0  0
   -6.2574  -19.1536    0.0000 C   0  0  0  0  0  0  0  0  0  0  0  0
   -5.0181  -19.9986    0.0000 C   0  0  0  0  0  0  0  0  0  0  0  0
   -3.6666  -20.6495    0.0000 C   0  0  0  0  0  0  0  0  0  0  0  0
   -2.2332  -21.0916    0.0000 C   0  0  0  0  0  0  0  0  0  0  0  0
   -0.7500  -21.3151    0.0000 C   0  0  0  0  0  0  0  0  0  0  0  0
    0.7500  -21.3151    0.0000 C   0  0  0  0  0  0  0  0  0  0  0  0
    2.2332  -21.0916    0.0000 C   0  0  0  0  0  0  0  0  0  0  0  0
    3.6666  -20.6495    0.0000 C   0  0  0  0  0  0  0  0  0  0  0  0
    5.0181  -19.9986    0.0000 C   0  0  0  0  0  0  0  0  0  0  0  0
    6.2574  -19.1536    0.0000 C   0  0  0  0  0  0  0  0  0  0  0  0
    7.3570  -18.1334    0.0000 C   0  0  0  0  0  0  0  0  0  0  0  0
    8.2922  -16.9606    0.0000 C   0  0  0  0  0  0  0  0  0  0  0  0
    9.0422  -15.6616    0.0000 C   0  0  0  0  0  0  0  0  0  0  0  0
    9.5902  -14.2653    0.0000 C   0  0  0  0  0  0  0  0  0  0  0  0
    9.9240  -12.8029    0.0000 C   0  0  0  0  0  0  0  0  0  0  0  0
   10.0361  -11.3071    0.0000 C   0  0  0  0  0  0  0  0  0  0  0  0
    9.9240   -9.8113    0.0000 C   0  0  0  0  0  0  0  0  0  0  0  0
    9.5902   -8.3489    0.0000 C   0  0  0  0  0  0  0  0  0  0  0  0
    9.0422   -6.9526    0.0000 C   0  0  0  0  0  0  0  0  0  0  0  0
    8.2922   -5.6535    0.0000 C   0  0  0  0  0  0  0  0  0  0  0  0
    7.3570   -4.4808    0.0000 C   0  0  0  0  0  0  0  0  0  0  0  0
    6.2574   -3.4605    0.0000 C   0  0  0  0  0  0  0  0  0  0  0  0
    5.0181   -2.6156    0.0000 C   0  0  0  0  0  0  0  0  0  0  0  0
    3.6666   -1.9647    0.0000 C   0  0  0  0  0  0  0  0  0  0  0  0
    4.5300   -0.7382    0.0000 C   0  0  0  0  0  0  0  0  0  0  0  0
    3.6303    0.4620    0.0000 C   0  0  0  0  0  0  0  0  0  0  0  0
    2.2108   -0.0228    0.0000 C   0  0  0  0  0  0  0  0  0  0  0  0
    2.2332   -1.5226    0.0000 C   0  0  0  0  0  0  0  0  0  0  0  0
    0.7500   -1.2990    0.0000 C   0  0  0  0  0  0  0  0  0  0  0  0
    1.5000    0.0000    0.0000 C   0  0  0  0  0  0  0  0  0  0  0  0
    0.7500    1.2990    0.0000 C   0  0  0  0  0  0  0  0  0  0  0  0
   -0.7500    1.2990    0.0000 C   0  0  0  0  0  0  0  0  0  0  0  0
   -1.5000    0.0000    0.0000 C   0  0  0  0  0  0  0  0  0  0  0  0
   -0.7500   -1.2990    0.0000 C   0  0  0  0  0  0  0  0  0  0  0  0
   -2.2332   -1.5226    0.0000 C   0  0  0  0  0  0  0  0  0  0  0  0
   -1.1337   -2.5429    0.0000 C   0  0  0  0  0  0  0  0  0  0  0  0
   -1.4674   -4.0053    0.0000 C   0  0  0  0  0  0  0  0  0  0  0  0
   -2.9008   -4.4474    0.0000 C   0  0  0  0  0  0  0  0  0  0  0  0
   -4.0004   -3.4271    0.0000 C   0  0  0  0  0  0  0  0  0  0  0  0
   -3.6666   -1.9647    0.0000 C   0  0  0  0  0  0  0  0  0  0  0  0
  1  2  1  0
  2  3  1  0
  3  4  1  0
  4  5  1  0
  5  6  1  0
  6  7  1  0
  7  8  1  0
  8  9  1  0
  9 10  1  0
 10 11  1  0
 11 12  1  0
 12 13  1  0
 13 14  1  0
 14 15  1  0
 15 16  1  0
 16 17  1  0
 17 18  1  0
 18 19  1  0
 19 20  1  0
 20 21  1  0
 21 22  1  0
 22 23  1  0
 23 24  1  0
 24 25  1  0
 25 26  1  0
 26 27  1  0
 27 28  2  0
 28 29  1  0
 29 30  2  0
 30 31  1  0
 31 32  2  0
 32 33  1  0
 33 34  2  0
 34 35  1  0
 35 36  2  0
 36 37  1  0
 37 38  2  0
 38 39  1  0
 39 40  2  0
 40 41  1  0
 41 42  2  0
 42 43  1  0
 43 44  2  0
 44 45  1  0
 45 46  2  0
 46 47  1  0
 47 48  2  0
 48 49  1  0
 49 50  2  0
 50 51  1  0
 51 52  2  0
 52 53  1  0
 53 54  2  0
 54  2  1  0
 42 38  1  0
 48 43  1  0
 54 49  1  0
M  END
>  <Title>  (599) 
idAAVGgen7

$$$$

     RDKit          2D

 50 50  0  0  0  0  0  0  0  0999 V2000
   13.2059   -0.0000    0.0000 O   0  0  0  0  0  0  0  0  0  0  0  0
   11.7059    0.0000    0.0000 C   0  0  0  0  0  0  0  0  0  0  0  0
   11.6098    1.4969    0.0000 C   0  0  0  0  0  0  0  0  0  0  0  0
   11.3231    2.9693    0.0000 C   0  0  0  0  0  0  0  0  0  0  0  0
   10.8504    4.3928    0.0000 C   0  0  0  0  0  0  0  0  0  0  0  0
   10.1996    5.7443    0.0000 C   0  0  0  0  0  0  0  0  0  0  0  0
    9.3813    7.0014    0.0000 C   0  0  0  0  0  0  0  0  0  0  0  0
    8.4089    8.1436    0.0000 C   0  0  0  0  0  0  0  0  0  0  0  0
    7.2985    9.1520    0.0000 C   0  0  0  0  0  0  0  0  0  0  0  0
    6.0683   10.0102    0.0000 C   0  0  0  0  0  0  0  0  0  0  0  0
    4.7384   10.7040    0.0000 C   0  0  0  0  0  0  0  0  0  0  0  0
    3.3307   11.2221    0.0000 C   0  0  0  0  0  0  0  0  0  0  0  0
    1.8683   11.5559    0.0000 C   0  0  0  0  0  0  0  0  0  0  0  0
    0.3752   11.6999    0.0000 C   0  0  0  0  0  0  0  0  0  0  0  0
   -1.1240   11.6518    0.0000 C   0  0  0  0  0  0  0  0  0  0  0  0
   -2.6048   11.4124    0.0000 C   0  0  0  0  0  0  0  0  0  0  0  0
   -4.0428   10.9856    0.0000 C   0  0  0  0  0  0  0  0  0  0  0  0
   -5.4144   10.3784    0.0000 C   0  0  0  0  0  0  0  0  0  0  0  0
   -6.6971    9.6009    0.0000 C   0  0  0  0  0  0  0  0  0  0  0  0
   -7.8699    8.6656    0.0000 C   0  0  0  0  0  0  0  0  0  0  0  0
   -8.9134    7.5881    0.0000 C   0  0  0  0  0  0  0  0  0  0  0  0
   -9.8106    6.3860    0.0000 C   0  0  0  0  0  0  0  0  0  0  0  0
  -10.5467    5.0790    0.0000 C   0  0  0  0  0  0  0  0  0  0  0  0
  -11.1096    3.6886    0.0000 C   0  0  0  0  0  0  0  0  0  0  0  0
  -11.4900    2.2377    0.0000 C   0  0  0  0  0  0  0  0  0  0  0  0
  -11.6819    0.7500    0.0000 C   0  0  0  0  0  0  0  0  0  0  0  0
  -11.6819   -0.7500    0.0000 C   0  0  0  0  0  0  0  0  0  0  0  0
  -11.4900   -2.2377    0.0000 C   0  0  0  0  0  0  0  0  0  0  0  0
  -11.1096   -3.6886    0.0000 C   0  0  0  0  0  0  0  0  0  0  0  0
  -10.5467   -5.0790    0.0000 C   0  0  0  0  0  0  0  0  0  0  0  0
   -9.8106   -6.3860    0.0000 C   0  0  0  0  0  0  0  0  0  0  0  0
   -8.9134   -7.5881    0.0000 C   0  0  0  0  0  0  0  0  0  0  0  0
   -7.8699   -8.6656    0.0000 C   0  0  0  0  0  0  0  0  0  0  0  0
   -6.6971   -9.6009    0.0000 C   0  0  0  0  0  0  0  0  0  0  0  0
   -5.4144  -10.3784    0.0000 C   0  0  0  0  0  0  0  0  0  0  0  0
   -4.0428  -10.9856    0.0000 C   0  0  0  0  0  0  0  0  0  0  0  0
   -2.6048  -11.4124    0.0000 C   0  0  0  0  0  0  0  0  0  0  0  0
   -1.1240  -11.6518    0.0000 C   0  0  0  0  0  0  0  0  0  0  0  0
    0.3752  -11.6999    0.0000 C   0  0  0  0  0  0  0  0  0  0  0  0
    1.8683  -11.5559    0.0000 C   0  0  0  0  0  0  0  0  0  0  0  0
    3.3307  -11.2221    0.0000 C   0  0  0  0  0  0  0  0  0  0  0  0
    4.7384  -10.7040    0.0000 C   0  0  0  0  0  0  0  0  0  0  0  0
    6.0683  -10.0102    0.0000 C   0  0  0  0  0  0  0  0  0  0  0  0
    7.2985   -9.1520    0.0000 C   0  0  0  0  0  0  0  0  0  0  0  0
    8.4089   -8.1436    0.0000 C   0  0  0  0  0  0  0  0  0  0  0  0
    9.3813   -7.0014    0.0000 C   0  0  0  0  0  0  0  0  0  0  0  0
   10.1996   -5.7443    0.0000 C   0  0  0  0  0  0  0  0  0  0  0  0
   10.8504   -4.3928    0.0000 C   0  0  0  0  0  0  0  0  0  0  0  0
   11.3231   -2.9693    0.0000 C   0  0  0  0  0  0  0  0  0  0  0  0
   11.6098   -1.4969    0.0000 C   0  0  0  0  0  0  0  0  0  0  0  0
  1  2  2  0
  2  3  1  0
  3  4  2  0
  4  5  1  0
  5  6  2  0
  6  7  1  0
  7  8  2  0
  8  9  1  0
  9 10  1  0
 10 11  1  0
 11 12  1  0
 12 13  1  0
 13 14  1  0
 14 15  1  0
 15 16  1  0
 16 17  1  0
 17 18  1  0
 18 19  1  0
 19 20  1  0
 20 21  1  0
 21 22  1  0
 22 23  1  0
 23 24  1  0
 24 25  1  0
 25 26  1  0
 26 27  1  0
 27 28  1  0
 28 29  1  0
 29 30  1  0
 30 31  1  0
 31 32  1  0
 32 33  1  0
 33 34  1  0
 34 35  1  0
 35 36  1  0
 36 37  1  0
 37 38  1  0
 38 39  1  0
 39 40  1  0
 40 41  1  0
 41 42  1  0
 42 43  1  0
 43 44  1  0
 44 45  1  0
 45 46  1  0
 46 47  1  0
 47 48  1  0
 48 49  1  0
 49 50  1  0
 50  2  1  0
M  END
>  <Title>  (600) 
idAAVHgen7

$$$$

     RDKit          2D

106107  0  0  0  0  0  0  0  0999 V2000
   28.0055    0.0847    0.0000 C   0  0  0  0  0  0  0  0  0  0  0  0
   26.9177    1.1175    0.0000 C   0  0  0  0  0  0  0  0  0  0  0  0
   25.6687    0.2869    0.0000 C   0  0  0  0  0  0  0  0  0  0  0  0
   24.1830    0.0804    0.0000 C   0  0  0  0  0  0  0  0  0  0  0  0
   22.7548    0.5390    0.0000 C   0  0  0  0  0  0  0  0  0  0  0  0
   21.6772    1.4991    0.0000 C   0  0  0  0  0  0  0  0  0  0  0  0
   21.7290    0.0000    0.0000 C   0  0  0  0  0  0  0  0  0  0  0  0
   21.6772   -1.4991    0.0000 C   0  0  0  0  0  0  0  0  0  0  0  0
   21.5221   -2.9911    0.0000 C   0  0  0  0  0  0  0  0  0  0  0  0
   21.2645   -4.4688    0.0000 C   0  0  0  0  0  0  0  0  0  0  0  0
   20.9055   -5.9252    0.0000 C   0  0  0  0  0  0  0  0  0  0  0  0
   20.4469   -7.3534    0.0000 C   0  0  0  0  0  0  0  0  0  0  0  0
   19.8909   -8.7465    0.0000 C   0  0  0  0  0  0  0  0  0  0  0  0
   19.2400  -10.0980    0.0000 C   0  0  0  0  0  0  0  0  0  0  0  0
   18.4975  -11.4013    0.0000 C   0  0  0  0  0  0  0  0  0  0  0  0
   17.6669  -12.6503    0.0000 C   0  0  0  0  0  0  0  0  0  0  0  0
   16.7520  -13.8390    0.0000 C   0  0  0  0  0  0  0  0  0  0  0  0
   15.7573  -14.9618    0.0000 C   0  0  0  0  0  0  0  0  0  0  0  0
   14.6876  -16.0132    0.0000 C   0  0  0  0  0  0  0  0  0  0  0  0
   13.5478  -16.9884    0.0000 C   0  0  0  0  0  0  0  0  0  0  0  0
   12.3435  -17.8826    0.0000 C   0  0  0  0  0  0  0  0  0  0  0  0
   11.0803  -18.6916    0.0000 C   0  0  0  0  0  0  0  0  0  0  0  0
    9.7644  -19.4115    0.0000 C   0  0  0  0  0  0  0  0  0  0  0  0
    8.4019  -20.0389    0.0000 C   0  0  0  0  0  0  0  0  0  0  0  0
    6.9993  -20.5708    0.0000 C   0  0  0  0  0  0  0  0  0  0  0  0
    5.5635  -21.0047    0.0000 C   0  0  0  0  0  0  0  0  0  0  0  0
    4.1011  -21.3384    0.0000 C   0  0  0  0  0  0  0  0  0  0  0  0
    2.6191  -21.5705    0.0000 C   0  0  0  0  0  0  0  0  0  0  0  0
    1.1247  -21.6998    0.0000 C   0  0  0  0  0  0  0  0  0  0  0  0
   -0.3751  -21.7257    0.0000 C   0  0  0  0  0  0  0  0  0  0  0  0
   -1.8730  -21.6481    0.0000 C   0  0  0  0  0  0  0  0  0  0  0  0
   -3.3621  -21.4673    0.0000 C   0  0  0  0  0  0  0  0  0  0  0  0
   -4.8351  -21.1842    0.0000 C   0  0  0  0  0  0  0  0  0  0  0  0
   -6.2851  -20.8001    0.0000 C   0  0  0  0  0  0  0  0  0  0  0  0
   -7.7052  -20.3169    0.0000 C   0  0  0  0  0  0  0  0  0  0  0  0
   -9.0885  -19.7369    0.0000 C   0  0  0  0  0  0  0  0  0  0  0  0
  -10.4285  -19.0629    0.0000 C   0  0  0  0  0  0  0  0  0  0  0  0
  -11.7189  -18.2980    0.0000 C   0  0  0  0  0  0  0  0  0  0  0  0
  -12.9533  -17.4459    0.0000 C   0  0  0  0  0  0  0  0  0  0  0  0
  -14.1261  -16.5106    0.0000 C   0  0  0  0  0  0  0  0  0  0  0  0
  -15.2315  -15.4967    0.0000 C   0  0  0  0  0  0  0  0  0  0  0  0
  -16.2644  -14.4090    0.0000 C   0  0  0  0  0  0  0  0  0  0  0  0
  -17.2197  -13.2525    0.0000 C   0  0  0  0  0  0  0  0  0  0  0  0
  -18.0930  -12.0330    0.0000 C   0  0  0  0  0  0  0  0  0  0  0  0
  -18.8800  -10.7560    0.0000 C   0  0  0  0  0  0  0  0  0  0  0  0
  -19.5771   -9.4278    0.0000 C   0  0  0  0  0  0  0  0  0  0  0  0
  -20.1809   -8.0547    0.0000 C   0  0  0  0  0  0  0  0  0  0  0  0
  -20.6885   -6.6432    0.0000 C   0  0  0  0  0  0  0  0  0  0  0  0
  -21.0976   -5.2001    0.0000 C   0  0  0  0  0  0  0  0  0  0  0  0
  -21.4061   -3.7321    0.0000 C   0  0  0  0  0  0  0  0  0  0  0  0
  -21.6125   -2.2464    0.0000 C   0  0  0  0  0  0  0  0  0  0  0  0
  -21.7160   -0.7500    0.0000 C   0  0  0  0  0  0  0  0  0  0  0  0
  -21.7160    0.7500    0.0000 C   0  0  0  0  0  0  0  0  0  0  0  0
  -21.6125    2.2464    0.0000 C   0  0  0  0  0  0  0  0  0  0  0  0
  -21.4061    3.7321    0.0000 C   0  0  0  0  0  0  0  0  0  0  0  0
  -21.0976    5.2001    0.0000 C   0  0  0  0  0  0  0  0  0  0  0  0
  -20.6885    6.6432    0.0000 C   0  0  0  0  0  0  0  0  0  0  0  0
  -20.1809    8.0547    0.0000 C   0  0  0  0  0  0  0  0  0  0  0  0
  -19.5771    9.4278    0.0000 C   0  0  0  0  0  0  0  0  0  0  0  0
  -18.8800   10.7560    0.0000 C   0  0  0  0  0  0  0  0  0  0  0  0
  -18.0930   12.0330    0.0000 C   0  0  0  0  0  0  0  0  0  0  0  0
  -17.2197   13.2525    0.0000 C   0  0  0  0  0  0  0  0  0  0  0  0
  -16.2644   14.4090    0.0000 C   0  0  0  0  0  0  0  0  0  0  0  0
  -15.2315   15.4967    0.0000 C   0  0  0  0  0  0  0  0  0  0  0  0
  -14.1261   16.5106    0.0000 C   0  0  0  0  0  0  0  0  0  0  0  0
  -12.9533   17.4459    0.0000 C   0  0  0  0  0  0  0  0  0  0  0  0
  -11.7189   18.2980    0.0000 C   0  0  0  0  0  0  0  0  0  0  0  0
  -10.4285   19.0629    0.0000 C   0  0  0  0  0  0  0  0  0  0  0  0
   -9.0885   19.7369    0.0000 C   0  0  0  0  0  0  0  0  0  0  0  0
   -7.7052   20.3169    0.0000 C   0  0  0  0  0  0  0  0  0  0  0  0
   -6.2851   20.8001    0.0000 C   0  0  0  0  0  0  0  0  0  0  0  0
   -4.8351   21.1842    0.0000 C   0  0  0  0  0  0  0  0  0  0  0  0
   -3.3621   21.4673    0.0000 C   0  0  0  0  0  0  0  0  0  0  0  0
   -1.8730   21.6481    0.0000 C   0  0  0  0  0  0  0  0  0  0  0  0
   -0.3751   21.7257    0.0000 C   0  0  0  0  0  0  0  0  0  0  0  0
    1.1247   21.6998    0.0000 C   0  0  0  0  0  0  0  0  0  0  0  0
    2.6191   21.5705    0.0000 C   0  0  0  0  0  0  0  0  0  0  0  0
    4.1011   21.3384    0.0000 C   0  0  0  0  0  0  0  0  0  0  0  0
    5.5635   21.0047    0.0000 C   0  0  0  0  0  0  0  0  0  0  0  0
    6.9993   20.5708    0.0000 C   0  0  0  0  0  0  0  0  0  0  0  0
    8.4019   20.0389    0.0000 C   0  0  0  0  0  0  0  0  0  0  0  0
    9.7644   19.4115    0.0000 C   0  0  0  0  0  0  0  0  0  0  0  0
   11.0803   18.6916    0.0000 C   0  0  0  0  0  0  0  0  0  0  0  0
   12.3435   17.8826    0.0000 C   0  0  0  0  0  0  0  0  0  0  0  0
   13.5478   16.9884    0.0000 C   0  0  0  0  0  0  0  0  0  0  0  0
   14.6876   16.0132    0.0000 C   0  0  0  0  0  0  0  0  0  0  0  0
   15.7573   14.9618    0.0000 C   0  0  0  0  0  0  0  0  0  0  0  0
   16.7520   13.8390    0.0000 C   0  0  0  0  0  0  0  0  0  0  0  0
   17.6669   12.6503    0.0000 C   0  0  0  0  0  0  0  0  0  0  0  0
   18.4975   11.4013    0.0000 C   0  0  0  0  0  0  0  0  0  0  0  0
   19.2400   10.0980    0.0000 C   0  0  0  0  0  0  0  0  0  0  0  0
   19.8909    8.7465    0.0000 C   0  0  0  0  0  0  0  0  0  0  0  0
   20.4469    7.3534    0.0000 C   0  0  0  0  0  0  0  0  0  0  0  0
   20.9055    5.9252    0.0000 C   0  0  0  0  0  0  0  0  0  0  0  0
   22.2068    6.6713    0.0000 C   0  0  0  0  0  0  0  0  0  0  0  0
   21.2645    4.4688    0.0000 C   0  0  0  0  0  0  0  0  0  0  0  0
   22.0294    5.7591    0.0000 C   0  0  0  0  0  0  0  0  0  0  0  0
   23.2784    6.5898    0.0000 C   0  0  0  0  0  0  0  0  0  0  0  0
   24.7641    6.7962    0.0000 C   0  0  0  0  0  0  0  0  0  0  0  0
   26.1923    6.3376    0.0000 C   0  0  0  0  0  0  0  0  0  0  0  0
   27.2800    5.3048    0.0000 C   0  0  0  0  0  0  0  0  0  0  0  0
   27.8119    3.9023    0.0000 C   0  0  0  0  0  0  0  0  0  0  0  0
   27.6826    2.4079    0.0000 C   0  0  0  0  0  0  0  0  0  0  0  0
   29.1108    1.9493    0.0000 O   0  0  0  0  0  0  0  0  0  0  0  0
   21.5221    2.9911    0.0000 C   0  0  0  0  0  0  0  0  0  0  0  0
   23.0078    3.1975    0.0000 O   0  0  0  0  0  0  0  0  0  0  0  0
  1  2  1  0
  2  3  1  0
  3  4  1  0
  4  5  1  0
  5  6  1  0
  6  7  2  0
  7  8  1  0
  8  9  2  0
  9 10  1  0
 10 11  2  0
 11 12  1  0
 12 13  2  0
 13 14  1  0
 14 15  2  0
 15 16  1  0
 16 17  2  0
 17 18  1  0
 18 19  2  0
 19 20  1  0
 20 21  2  0
 21 22  1  0
 22 23  2  0
 23 24  1  0
 24 25  1  0
 25 26  1  0
 26 27  1  0
 27 28  1  0
 28 29  1  0
 29 30  1  0
 30 31  1  0
 31 32  1  0
 32 33  1  0
 33 34  1  0
 34 35  1  0
 35 36  1  0
 36 37  1  0
 37 38  1  0
 38 39  1  0
 39 40  1  0
 40 41  1  0
 41 42  1  0
 42 43  1  0
 43 44  1  0
 44 45  1  0
 45 46  1  0
 46 47  1  0
 47 48  1  0
 48 49  1  0
 49 50  1  0
 50 51  1  0
 51 52  1  0
 52 53  1  0
 53 54  1  0
 54 55  1  0
 55 56  1  0
 56 57  1  0
 57 58  1  0
 58 59  1  0
 59 60  1  0
 60 61  1  0
 61 62  1  0
 62 63  1  0
 63 64  1  0
 64 65  1  0
 65 66  1  0
 66 67  1  0
 67 68  1  0
 68 69  1  0
 69 70  1  0
 70 71  1  0
 71 72  1  0
 72 73  1  0
 73 74  1  0
 74 75  1  0
 75 76  1  0
 76 77  1  0
 77 78  1  0
 78 79  1  0
 79 80  1  0
 80 81  1  0
 81 82  1  0
 82 83  1  0
 83 84  1  0
 84 85  1  0
 85 86  1  0
 86 87  1  0
 87 88  1  0
 88 89  1  0
 89 90  1  0
 90 91  1  0
 91 92  1  0
 92 93  1  0
 93 94  1  0
 94 95  1  0
 94 96  1  0
 96 97  2  0
 97 98  1  0
 98 99  2  0
 99100  1  0
100101  2  0
101102  1  0
102103  1  0
103104  2  0
 96105  1  0
105106  2  0
103  2  1  0
105  6  1  0
M  END
>  <Title>  (601) 
idAAVIgen7

$$$$

     RDKit          2D

  9  9  0  0  0  0  0  0  0  0999 V2000
    2.7760    0.0000    0.0000 C   0  0  0  0  0  0  0  0  0  0  0  0
    1.2760    0.0000    0.0000 C   0  0  0  0  0  0  0  0  0  0  0  0
    0.3943    1.2135    0.0000 C   0  0  0  0  0  0  0  0  0  0  0  0
   -1.0323    0.7500    0.0000 C   0  0  0  0  0  0  0  0  0  0  0  0
   -1.0323   -0.7500    0.0000 C   0  0  0  0  0  0  0  0  0  0  0  0
   -2.2458   -1.6317    0.0000 C   0  0  0  0  0  0  0  0  0  0  0  0
   -3.6161   -1.0216    0.0000 N   0  0  0  0  0  0  0  0  0  0  0  0
   -2.0890   -3.1235    0.0000 O   0  0  0  0  0  0  0  0  0  0  0  0
    0.3943   -1.2135    0.0000 N   0  0  0  0  0  0  0  0  0  0  0  0
  1  2  1  0
  2  3  1  0
  3  4  1  0
  4  5  1  0
  5  6  1  0
  6  7  1  0
  6  8  2  0
  5  9  1  0
  9  2  1  0
M  END
>  <Title>  (602) 
idAAVJgen7

$$$$

     RDKit          2D

 67 67  0  0  0  0  0  0  0  0999 V2000
   17.2623    0.0000    0.0000 C   0  0  0  0  0  0  0  0  0  0  0  0
   15.7623    0.0000    0.0000 C   0  0  0  0  0  0  0  0  0  0  0  0
   15.6909   -1.4983    0.0000 C   0  0  0  0  0  0  0  0  0  0  0  0
   15.4774   -2.9830    0.0000 C   0  0  0  0  0  0  0  0  0  0  0  0
   15.1238   -4.4408    0.0000 C   0  0  0  0  0  0  0  0  0  0  0  0
   14.6332   -5.8583    0.0000 C   0  0  0  0  0  0  0  0  0  0  0  0
   14.0101   -7.2227    0.0000 C   0  0  0  0  0  0  0  0  0  0  0  0
   13.2601   -8.5217    0.0000 C   0  0  0  0  0  0  0  0  0  0  0  0
   12.3900   -9.7436    0.0000 C   0  0  0  0  0  0  0  0  0  0  0  0
   11.4077  -10.8772    0.0000 C   0  0  0  0  0  0  0  0  0  0  0  0
   10.3221  -11.9123    0.0000 C   0  0  0  0  0  0  0  0  0  0  0  0
    9.1430  -12.8396    0.0000 C   0  0  0  0  0  0  0  0  0  0  0  0
    7.8811  -13.6505    0.0000 C   0  0  0  0  0  0  0  0  0  0  0  0
    6.5479  -14.3379    0.0000 C   0  0  0  0  0  0  0  0  0  0  0  0
    5.1553  -14.8954    0.0000 C   0  0  0  0  0  0  0  0  0  0  0  0
    3.7161  -15.3180    0.0000 C   0  0  0  0  0  0  0  0  0  0  0  0
    2.2432  -15.6019    0.0000 C   0  0  0  0  0  0  0  0  0  0  0  0
    0.7500  -15.7444    0.0000 C   0  0  0  0  0  0  0  0  0  0  0  0
   -0.7500  -15.7444    0.0000 C   0  0  0  0  0  0  0  0  0  0  0  0
   -2.2432  -15.6019    0.0000 C   0  0  0  0  0  0  0  0  0  0  0  0
   -3.7161  -15.3180    0.0000 C   0  0  0  0  0  0  0  0  0  0  0  0
   -5.1553  -14.8954    0.0000 C   0  0  0  0  0  0  0  0  0  0  0  0
   -6.5479  -14.3379    0.0000 C   0  0  0  0  0  0  0  0  0  0  0  0
   -7.8811  -13.6505    0.0000 C   0  0  0  0  0  0  0  0  0  0  0  0
   -9.1430  -12.8396    0.0000 C   0  0  0  0  0  0  0  0  0  0  0  0
  -10.3221  -11.9123    0.0000 C   0  0  0  0  0  0  0  0  0  0  0  0
  -11.4077  -10.8772    0.0000 C   0  0  0  0  0  0  0  0  0  0  0  0
  -12.3900   -9.7436    0.0000 C   0  0  0  0  0  0  0  0  0  0  0  0
  -13.2601   -8.5217    0.0000 C   0  0  0  0  0  0  0  0  0  0  0  0
  -14.0101   -7.2227    0.0000 C   0  0  0  0  0  0  0  0  0  0  0  0
  -14.6332   -5.8583    0.0000 C   0  0  0  0  0  0  0  0  0  0  0  0
  -15.1238   -4.4408    0.0000 C   0  0  0  0  0  0  0  0  0  0  0  0
  -15.4774   -2.9830    0.0000 C   0  0  0  0  0  0  0  0  0  0  0  0
  -15.6909   -1.4983    0.0000 C   0  0  0  0  0  0  0  0  0  0  0  0
  -15.7623    0.0000    0.0000 C   0  0  0  0  0  0  0  0  0  0  0  0
  -15.6909    1.4983    0.0000 C   0  0  0  0  0  0  0  0  0  0  0  0
  -15.4774    2.9830    0.0000 C   0  0  0  0  0  0  0  0  0  0  0  0
  -15.1238    4.4408    0.0000 C   0  0  0  0  0  0  0  0  0  0  0  0
  -14.6332    5.8583    0.0000 C   0  0  0  0  0  0  0  0  0  0  0  0
  -14.0101    7.2227    0.0000 C   0  0  0  0  0  0  0  0  0  0  0  0
  -13.2601    8.5217    0.0000 C   0  0  0  0  0  0  0  0  0  0  0  0
  -12.3900    9.7436    0.0000 C   0  0  0  0  0  0  0  0  0  0  0  0
  -11.4077   10.8772    0.0000 C   0  0  0  0  0  0  0  0  0  0  0  0
  -10.3221   11.9123    0.0000 C   0  0  0  0  0  0  0  0  0  0  0  0
   -9.1430   12.8396    0.0000 C   0  0  0  0  0  0  0  0  0  0  0  0
   -7.8811   13.6505    0.0000 C   0  0  0  0  0  0  0  0  0  0  0  0
   -6.5479   14.3379    0.0000 C   0  0  0  0  0  0  0  0  0  0  0  0
   -5.1553   14.8954    0.0000 C   0  0  0  0  0  0  0  0  0  0  0  0
   -3.7161   15.3180    0.0000 C   0  0  0  0  0  0  0  0  0  0  0  0
   -2.2432   15.6019    0.0000 C   0  0  0  0  0  0  0  0  0  0  0  0
   -0.7500   15.7444    0.0000 C   0  0  0  0  0  0  0  0  0  0  0  0
    0.7500   15.7444    0.0000 C   0  0  0  0  0  0  0  0  0  0  0  0
    2.2432   15.6019    0.0000 C   0  0  0  0  0  0  0  0  0  0  0  0
    3.7161   15.3180    0.0000 C   0  0  0  0  0  0  0  0  0  0  0  0
    5.1553   14.8954    0.0000 C   0  0  0  0  0  0  0  0  0  0  0  0
    6.5479   14.3379    0.0000 C   0  0  0  0  0  0  0  0  0  0  0  0
    7.8811   13.6505    0.0000 C   0  0  0  0  0  0  0  0  0  0  0  0
    9.1430   12.8396    0.0000 C   0  0  0  0  0  0  0  0  0  0  0  0
   10.3221   11.9123    0.0000 C   0  0  0  0  0  0  0  0  0  0  0  0
   11.4077   10.8772    0.0000 C   0  0  0  0  0  0  0  0  0  0  0  0
   12.3900    9.7436    0.0000 C   0  0  0  0  0  0  0  0  0  0  0  0
   13.2601    8.5217    0.0000 C   0  0  0  0  0  0  0  0  0  0  0  0
   14.0101    7.2227    0.0000 C   0  0  0  0  0  0  0  0  0  0  0  0
   14.6332    5.8583    0.0000 C   0  0  0  0  0  0  0  0  0  0  0  0
   15.1238    4.4408    0.0000 C   0  0  0  0  0  0  0  0  0  0  0  0
   15.4774    2.9830    0.0000 C   0  0  0  0  0  0  0  0  0  0  0  0
   15.6909    1.4983    0.0000 C   0  0  0  0  0  0  0  0  0  0  0  0
  1  2  1  0
  2  3  1  0
  3  4  1  0
  4  5  1  0
  5  6  1  0
  6  7  1  0
  7  8  1  0
  8  9  1  0
  9 10  1  0
 10 11  1  0
 11 12  1  0
 12 13  1  0
 13 14  1  0
 14 15  1  0
 15 16  1  0
 16 17  1  0
 17 18  1  0
 18 19  1  0
 19 20  1  0
 20 21  1  0
 21 22  1  0
 22 23  1  0
 23 24  1  0
 24 25  1  0
 25 26  1  0
 26 27  1  0
 27 28  1  0
 28 29  1  0
 29 30  1  0
 30 31  1  0
 31 32  1  0
 32 33  1  0
 33 34  1  0
 34 35  1  0
 35 36  1  0
 36 37  1  0
 37 38  1  0
 38 39  1  0
 39 40  1  0
 40 41  1  0
 41 42  1  0
 42 43  1  0
 43 44  1  0
 44 45  1  0
 45 46  1  0
 46 47  1  0
 47 48  1  0
 48 49  1  0
 49 50  1  0
 50 51  1  0
 51 52  1  0
 52 53  1  0
 53 54  1  0
 54 55  1  0
 55 56  1  0
 56 57  1  0
 57 58  1  0
 58 59  1  0
 59 60  1  0
 60 61  1  0
 61 62  1  0
 62 63  1  0
 63 64  1  0
 64 65  1  0
 65 66  1  0
 66 67  1  0
 67  2  1  0
M  END
>  <Title>  (603) 
idAAVKgen7

$$$$

     RDKit          2D

 26 29  0  0  0  0  0  0  0  0999 V2000
   -3.1981   -1.5132    0.0000 C   0  0  0  0  0  0  0  0  0  0  0  0
   -1.8991   -2.2632    0.0000 C   0  0  0  0  0  0  0  0  0  0  0  0
   -2.1595   -3.7404    0.0000 C   0  0  0  0  0  0  0  0  0  0  0  0
   -1.4095   -5.0395    0.0000 C   0  0  0  0  0  0  0  0  0  0  0  0
   -0.0000   -5.5525    0.0000 C   0  0  0  0  0  0  0  0  0  0  0  0
   -0.0000   -7.0525    0.0000 C   0  0  0  0  0  0  0  0  0  0  0  0
    1.2990   -7.8025    0.0000 O   0  0  0  0  0  0  0  0  0  0  0  0
   -1.2990   -7.8025    0.0000 N   0  0  0  0  0  0  0  0  0  0  0  0
   -1.2990   -9.3025    0.0000 C   0  0  0  0  0  0  0  0  0  0  0  0
   -2.5981  -10.0525    0.0000 N   0  0  0  0  0  0  0  0  0  0  0  0
   -2.5981  -11.5525    0.0000 N   0  0  0  0  0  0  0  0  0  0  0  0
   -1.2990  -12.3025    0.0000 N   0  0  0  0  0  0  0  0  0  0  0  0
   -0.0000  -11.5525    0.0000 N   0  0  0  0  0  0  0  0  0  0  0  0
   -0.0000  -10.0525    0.0000 N   0  0  0  0  0  0  0  0  0  0  0  0
    1.4095   -5.0395    0.0000 C   0  0  0  0  0  0  0  0  0  0  0  0
    2.1595   -3.7404    0.0000 C   0  0  0  0  0  0  0  0  0  0  0  0
    3.6449   -3.9492    0.0000 C   0  0  0  0  0  0  0  0  0  0  0  0
    4.3025   -2.6010    0.0000 C   0  0  0  0  0  0  0  0  0  0  0  0
    3.2235   -1.5590    0.0000 C   0  0  0  0  0  0  0  0  0  0  0  0
    1.8991   -2.2632    0.0000 C   0  0  0  0  0  0  0  0  0  0  0  0
    0.7500   -1.2990    0.0000 C   0  0  0  0  0  0  0  0  0  0  0  0
    1.5000    0.0000    0.0000 C   0  0  0  0  0  0  0  0  0  0  0  0
    0.7500    1.2990    0.0000 C   0  0  0  0  0  0  0  0  0  0  0  0
   -0.7500    1.2990    0.0000 C   0  0  0  0  0  0  0  0  0  0  0  0
   -1.5000    0.0000    0.0000 C   0  0  0  0  0  0  0  0  0  0  0  0
   -0.7500   -1.2990    0.0000 C   0  0  0  0  0  0  0  0  0  0  0  0
  1  2  1  0
  2  3  1  0
  3  4  1  0
  4  5  1  0
  5  6  1  0
  6  7  2  0
  6  8  1  0
  8  9  1  0
  9 10  2  0
 10 11  1  0
 11 12  2  0
 12 13  1  0
 13 14  2  0
  5 15  1  0
 15 16  2  0
 16 17  1  0
 17 18  2  0
 18 19  1  0
 19 20  2  0
 20 21  1  0
 21 22  2  0
 22 23  1  0
 23 24  2  0
 24 25  1  0
 25 26  2  0
 26  2  1  0
 14  9  1  0
 20 16  1  0
 26 21  1  0
M  END
>  <Title>  (604) 
idAAVLgen7

$$$$

     RDKit          2D

 29 29  0  0  0  0  0  0  0  0999 V2000
    8.1986    0.0000    0.0000 C   0  0  0  0  0  0  0  0  0  0  0  0
    6.6986    0.0000    0.0000 C   0  0  0  0  0  0  0  0  0  0  0  0
    6.5306   -1.4906    0.0000 C   0  0  0  0  0  0  0  0  0  0  0  0
    6.0352   -2.9064    0.0000 C   0  0  0  0  0  0  0  0  0  0  0  0
    5.2371   -4.1765    0.0000 C   0  0  0  0  0  0  0  0  0  0  0  0
    4.1765   -5.2371    0.0000 C   0  0  0  0  0  0  0  0  0  0  0  0
    2.9064   -6.0352    0.0000 C   0  0  0  0  0  0  0  0  0  0  0  0
    1.4906   -6.5306    0.0000 C   0  0  0  0  0  0  0  0  0  0  0  0
   -0.0000   -6.6986    0.0000 C   0  0  0  0  0  0  0  0  0  0  0  0
   -1.4906   -6.5306    0.0000 C   0  0  0  0  0  0  0  0  0  0  0  0
   -2.9064   -6.0352    0.0000 C   0  0  0  0  0  0  0  0  0  0  0  0
   -4.1765   -5.2371    0.0000 C   0  0  0  0  0  0  0  0  0  0  0  0
   -5.2371   -4.1765    0.0000 C   0  0  0  0  0  0  0  0  0  0  0  0
   -6.0352   -2.9064    0.0000 C   0  0  0  0  0  0  0  0  0  0  0  0
   -6.5306   -1.4906    0.0000 C   0  0  0  0  0  0  0  0  0  0  0  0
   -6.6986    0.0000    0.0000 C   0  0  0  0  0  0  0  0  0  0  0  0
   -6.5306    1.4906    0.0000 C   0  0  0  0  0  0  0  0  0  0  0  0
   -6.0352    2.9064    0.0000 C   0  0  0  0  0  0  0  0  0  0  0  0
   -5.2371    4.1765    0.0000 C   0  0  0  0  0  0  0  0  0  0  0  0
   -4.1765    5.2371    0.0000 C   0  0  0  0  0  0  0  0  0  0  0  0
   -2.9064    6.0352    0.0000 C   0  0  0  0  0  0  0  0  0  0  0  0
   -1.4906    6.5306    0.0000 C   0  0  0  0  0  0  0  0  0  0  0  0
    0.0000    6.6986    0.0000 C   0  0  0  0  0  0  0  0  0  0  0  0
    1.4906    6.5306    0.0000 C   0  0  0  0  0  0  0  0  0  0  0  0
    2.9064    6.0352    0.0000 C   0  0  0  0  0  0  0  0  0  0  0  0
    4.1765    5.2371    0.0000 C   0  0  0  0  0  0  0  0  0  0  0  0
    5.2371    4.1765    0.0000 C   0  0  0  0  0  0  0  0  0  0  0  0
    6.0352    2.9064    0.0000 C   0  0  0  0  0  0  0  0  0  0  0  0
    6.5306    1.4906    0.0000 C   0  0  0  0  0  0  0  0  0  0  0  0
  1  2  1  0
  2  3  1  0
  3  4  1  0
  4  5  1  0
  5  6  1  0
  6  7  1  0
  7  8  1  0
  8  9  1  0
  9 10  1  0
 10 11  1  0
 11 12  1  0
 12 13  1  0
 13 14  1  0
 14 15  1  0
 15 16  1  0
 16 17  1  0
 17 18  1  0
 18 19  1  0
 19 20  1  0
 20 21  1  0
 21 22  1  0
 22 23  1  0
 23 24  1  0
 24 25  1  0
 25 26  1  0
 26 27  1  0
 27 28  1  0
 28 29  1  0
 29  2  1  0
M  END
>  <Title>  (605) 
idAAVMgen7

$$$$

     RDKit          2D

  3  2  0  0  0  0  0  0  0  0999 V2000
    0.0000    0.0000    0.0000 C   0  0  0  0  0  0  0  0  0  0  0  0
    1.2990    0.7500    0.0000 C   0  0  0  0  0  0  0  0  0  0  0  0
    2.5981   -0.0000    0.0000 C   0  0  0  0  0  0  0  0  0  0  0  0
  1  2  1  0
  2  3  1  0
M  END
>  <Title>  (606) 
idAAVNgen7

$$$$

     RDKit          2D

  9  9  0  0  0  0  0  0  0  0999 V2000
    5.0260   -1.2990    0.0000 C   0  0  0  0  0  0  0  0  0  0  0  0
    3.5260   -1.2990    0.0000 C   0  0  0  0  0  0  0  0  0  0  0  0
    2.7760   -2.5981    0.0000 O   0  0  0  0  0  0  0  0  0  0  0  0
    2.7760    0.0000    0.0000 N   0  0  0  0  0  0  0  0  0  0  0  0
    1.2760    0.0000    0.0000 C   0  0  0  0  0  0  0  0  0  0  0  0
    0.3943    1.2135    0.0000 C   0  0  0  0  0  0  0  0  0  0  0  0
   -1.0323    0.7500    0.0000 C   0  0  0  0  0  0  0  0  0  0  0  0
   -1.0323   -0.7500    0.0000 C   0  0  0  0  0  0  0  0  0  0  0  0
    0.3943   -1.2135    0.0000 C   0  0  0  0  0  0  0  0  0  0  0  0
  1  2  1  0
  2  3  2  0
  2  4  1  0
  4  5  1  0
  5  6  1  0
  6  7  1  0
  7  8  2  0
  8  9  1  0
  9  5  1  0
M  END
>  <Title>  (607) 
idAAVOgen7

$$$$

     RDKit          2D

 42 47  0  0  0  0  0  0  0  0999 V2000
    3.4439    0.8114    0.0000 C   0  0  0  0  0  0  0  0  0  0  0  0
    2.4570    1.9410    0.0000 C   0  0  0  0  0  0  0  0  0  0  0  0
    3.2264    3.2287    0.0000 C   0  0  0  0  0  0  0  0  0  0  0  0
    3.0919    4.7226    0.0000 C   0  0  0  0  0  0  0  0  0  0  0  0
    2.1050    5.8522    0.0000 C   0  0  0  0  0  0  0  0  0  0  0  0
    2.8744    7.1399    0.0000 N   0  0  0  0  0  0  0  0  0  0  0  0
    4.3742    7.1175    0.0000 C   0  0  0  0  0  0  0  0  0  0  0  0
    5.1047    5.8074    0.0000 O   0  0  0  0  0  0  0  0  0  0  0  0
    5.1436    8.4051    0.0000 C   0  0  0  0  0  0  0  0  0  0  0  0
    4.5540    9.7844    0.0000 C   0  0  0  0  0  0  0  0  0  0  0  0
    5.6836   10.7713    0.0000 C   0  0  0  0  0  0  0  0  0  0  0  0
    6.9713   10.0020    0.0000 C   0  0  0  0  0  0  0  0  0  0  0  0
    8.3506   10.5915    0.0000 C   0  0  0  0  0  0  0  0  0  0  0  0
    8.5297   12.0808    0.0000 O   0  0  0  0  0  0  0  0  0  0  0  0
    9.5508    9.6918    0.0000 N   0  0  0  0  0  0  0  0  0  0  0  0
   10.9301   10.2813    0.0000 C   0  0  0  0  0  0  0  0  0  0  0  0
   12.1303    9.3816    0.0000 N   0  0  0  0  0  0  0  0  0  0  0  0
   13.5096    9.9711    0.0000 N   0  0  0  0  0  0  0  0  0  0  0  0
   13.6887   11.4604    0.0000 N   0  0  0  0  0  0  0  0  0  0  0  0
   12.4885   12.3601    0.0000 N   0  0  0  0  0  0  0  0  0  0  0  0
   11.1092   11.7706    0.0000 N   0  0  0  0  0  0  0  0  0  0  0  0
    6.6375    8.5396    0.0000 C   0  0  0  0  0  0  0  0  0  0  0  0
    7.6244    7.4100    0.0000 O   0  0  0  0  0  0  0  0  0  0  0  0
    0.6426    6.1860    0.0000 C   0  0  0  0  0  0  0  0  0  0  0  0
    0.8217    7.6753    0.0000 C   0  0  0  0  0  0  0  0  0  0  0  0
   -0.3785    8.5750    0.0000 C   0  0  0  0  0  0  0  0  0  0  0  0
   -1.7578    7.9855    0.0000 C   0  0  0  0  0  0  0  0  0  0  0  0
   -1.9369    6.4962    0.0000 C   0  0  0  0  0  0  0  0  0  0  0  0
   -0.7367    5.5965    0.0000 C   0  0  0  0  0  0  0  0  0  0  0  0
   -1.5060    4.3088    0.0000 C   0  0  0  0  0  0  0  0  0  0  0  0
   -2.8670    4.9393    0.0000 C   0  0  0  0  0  0  0  0  0  0  0  0
   -4.0936    4.0759    0.0000 C   0  0  0  0  0  0  0  0  0  0  0  0
   -3.9592    2.5820    0.0000 C   0  0  0  0  0  0  0  0  0  0  0  0
   -2.5981    1.9514    0.0000 C   0  0  0  0  0  0  0  0  0  0  0  0
   -1.3716    2.8148    0.0000 C   0  0  0  0  0  0  0  0  0  0  0  0
   -0.3846    1.6852    0.0000 C   0  0  0  0  0  0  0  0  0  0  0  0
    1.0777    1.3515    0.0000 C   0  0  0  0  0  0  0  0  0  0  0  0
    1.7286    0.0000    0.0000 C   0  0  0  0  0  0  0  0  0  0  0  0
    1.0777   -1.3515    0.0000 C   0  0  0  0  0  0  0  0  0  0  0  0
   -0.3846   -1.6852    0.0000 C   0  0  0  0  0  0  0  0  0  0  0  0
   -1.5574   -0.7500    0.0000 C   0  0  0  0  0  0  0  0  0  0  0  0
   -1.5574    0.7500    0.0000 C   0  0  0  0  0  0  0  0  0  0  0  0
  1  2  1  0
  2  3  2  0
  3  4  1  0
  4  5  2  0
  5  6  1  0
  6  7  1  0
  7  8  2  0
  7  9  1  0
  9 10  1  0
 10 11  1  0
 11 12  1  0
 12 13  1  0
 13 14  2  0
 13 15  1  0
 15 16  1  0
 16 17  2  0
 17 18  1  0
 18 19  2  0
 19 20  1  0
 20 21  2  0
 12 22  1  0
 22 23  2  0
  5 24  1  0
 24 25  2  0
 25 26  1  0
 26 27  2  0
 27 28  1  0
 28 29  2  0
 29 30  1  0
 30 31  2  0
 31 32  1  0
 32 33  2  0
 33 34  1  0
 34 35  2  0
 35 36  1  0
 36 37  1  0
 37 38  2  0
 38 39  1  0
 39 40  1  0
 40 41  1  0
 41 42  1  0
 37  2  1  0
 22  9  1  0
 29 24  1  0
 35 30  1  0
 42 36  2  0
 21 16  1  0
M  END
>  <Title>  (608) 
idAAVPgen7

$$$$

     RDKit          2D

 24 26  0  0  0  0  0  0  0  0999 V2000
    5.8875   -3.9505    0.0000 O   0  0  0  0  0  0  0  0  0  0  0  0
    4.6740   -4.8322    0.0000 C   0  0  0  0  0  0  0  0  0  0  0  0
    4.8308   -6.3240    0.0000 C   0  0  0  0  0  0  0  0  0  0  0  0
    6.2011   -6.9341    0.0000 C   0  0  0  0  0  0  0  0  0  0  0  0
    6.3579   -8.4259    0.0000 C   0  0  0  0  0  0  0  0  0  0  0  0
    7.7282   -9.0360    0.0000 C   0  0  0  0  0  0  0  0  0  0  0  0
    7.8850  -10.5278    0.0000 O   0  0  0  0  0  0  0  0  0  0  0  0
    5.1443   -9.3075    0.0000 N   0  0  0  0  0  0  0  0  0  0  0  0
    5.3011  -10.7993    0.0000 C   0  0  0  0  0  0  0  0  0  0  0  0
    6.6002  -11.5493    0.0000 C   0  0  0  0  0  0  0  0  0  0  0  0
    6.2883  -13.0165    0.0000 C   0  0  0  0  0  0  0  0  0  0  0  0
    4.7965  -13.1733    0.0000 C   0  0  0  0  0  0  0  0  0  0  0  0
    4.1864  -11.8030    0.0000 C   0  0  0  0  0  0  0  0  0  0  0  0
    3.3037   -4.2221    0.0000 N   0  0  0  0  0  0  0  0  0  0  0  0
    2.0046   -4.9721    0.0000 C   0  0  0  0  0  0  0  0  0  0  0  0
    0.8899   -3.9684    0.0000 C   0  0  0  0  0  0  0  0  0  0  0  0
    1.5000   -2.5981    0.0000 C   0  0  0  0  0  0  0  0  0  0  0  0
    0.7500   -1.2990    0.0000 C   0  0  0  0  0  0  0  0  0  0  0  0
    1.5000    0.0000    0.0000 C   0  0  0  0  0  0  0  0  0  0  0  0
    0.7500    1.2990    0.0000 C   0  0  0  0  0  0  0  0  0  0  0  0
   -0.7500    1.2990    0.0000 C   0  0  0  0  0  0  0  0  0  0  0  0
   -1.5000    0.0000    0.0000 C   0  0  0  0  0  0  0  0  0  0  0  0
   -0.7500   -1.2990    0.0000 C   0  0  0  0  0  0  0  0  0  0  0  0
    2.9918   -2.7549    0.0000 C   0  0  0  0  0  0  0  0  0  0  0  0
  1  2  2  0
  2  3  1  0
  3  4  1  0
  4  5  1  0
  5  6  1  0
  6  7  1  0
  5  8  1  0
  8  9  1  0
  9 10  2  0
 10 11  1  0
 11 12  1  0
 12 13  1  0
  2 14  1  0
 14 15  1  0
 15 16  1  0
 16 17  1  0
 17 18  1  0
 18 19  2  0
 19 20  1  0
 20 21  2  0
 21 22  1  0
 22 23  2  0
 17 24  1  0
 13  9  1  0
 24 14  1  0
 23 18  1  0
M  END
>  <Title>  (609) 
idAAVQgen7

$$$$

     RDKit          2D

 25 25  0  0  0  0  0  0  0  0999 V2000
    7.2460    0.0000    0.0000 C   0  0  0  0  0  0  0  0  0  0  0  0
    5.7460    0.0000    0.0000 C   0  0  0  0  0  0  0  0  0  0  0  0
    5.5502   -1.4872    0.0000 C   0  0  0  0  0  0  0  0  0  0  0  0
    4.9762   -2.8730    0.0000 C   0  0  0  0  0  0  0  0  0  0  0  0
    4.0630   -4.0630    0.0000 C   0  0  0  0  0  0  0  0  0  0  0  0
    2.8730   -4.9762    0.0000 C   0  0  0  0  0  0  0  0  0  0  0  0
    1.4872   -5.5502    0.0000 C   0  0  0  0  0  0  0  0  0  0  0  0
   -0.0000   -5.7460    0.0000 C   0  0  0  0  0  0  0  0  0  0  0  0
   -1.4872   -5.5502    0.0000 C   0  0  0  0  0  0  0  0  0  0  0  0
   -2.8730   -4.9762    0.0000 C   0  0  0  0  0  0  0  0  0  0  0  0
   -4.0630   -4.0630    0.0000 C   0  0  0  0  0  0  0  0  0  0  0  0
   -4.9762   -2.8730    0.0000 C   0  0  0  0  0  0  0  0  0  0  0  0
   -5.5502   -1.4872    0.0000 C   0  0  0  0  0  0  0  0  0  0  0  0
   -5.7460    0.0000    0.0000 C   0  0  0  0  0  0  0  0  0  0  0  0
   -5.5502    1.4872    0.0000 C   0  0  0  0  0  0  0  0  0  0  0  0
   -4.9762    2.8730    0.0000 C   0  0  0  0  0  0  0  0  0  0  0  0
   -4.0630    4.0630    0.0000 C   0  0  0  0  0  0  0  0  0  0  0  0
   -2.8730    4.9762    0.0000 C   0  0  0  0  0  0  0  0  0  0  0  0
   -1.4872    5.5502    0.0000 C   0  0  0  0  0  0  0  0  0  0  0  0
    0.0000    5.7460    0.0000 C   0  0  0  0  0  0  0  0  0  0  0  0
    1.4872    5.5502    0.0000 C   0  0  0  0  0  0  0  0  0  0  0  0
    2.8730    4.9762    0.0000 C   0  0  0  0  0  0  0  0  0  0  0  0
    4.0630    4.0630    0.0000 C   0  0  0  0  0  0  0  0  0  0  0  0
    4.9762    2.8730    0.0000 C   0  0  0  0  0  0  0  0  0  0  0  0
    5.5502    1.4872    0.0000 C   0  0  0  0  0  0  0  0  0  0  0  0
  1  2  1  0
  2  3  1  0
  3  4  1  0
  4  5  1  0
  5  6  1  0
  6  7  1  0
  7  8  1  0
  8  9  1  0
  9 10  1  0
 10 11  1  0
 11 12  1  0
 12 13  1  0
 13 14  1  0
 14 15  1  0
 15 16  1  0
 16 17  1  0
 17 18  1  0
 18 19  1  0
 19 20  1  0
 20 21  1  0
 21 22  1  0
 22 23  1  0
 23 24  1  0
 24 25  1  0
 25  2  1  0
M  END
>  <Title>  (610) 
idAAVRgen7

$$$$

     RDKit          2D

  8  8  0  0  0  0  0  0  0  0999 V2000
    3.7500   -1.2990    0.0000 C   0  0  0  0  0  0  0  0  0  0  0  0
    3.0000    0.0000    0.0000 N   0  0  0  0  0  0  0  0  0  0  0  0
    1.5000    0.0000    0.0000 C   0  0  0  0  0  0  0  0  0  0  0  0
    0.7500   -1.2990    0.0000 C   0  0  0  0  0  0  0  0  0  0  0  0
   -0.7500   -1.2990    0.0000 C   0  0  0  0  0  0  0  0  0  0  0  0
   -1.5000    0.0000    0.0000 C   0  0  0  0  0  0  0  0  0  0  0  0
   -0.7500    1.2990    0.0000 C   0  0  0  0  0  0  0  0  0  0  0  0
    0.7500    1.2990    0.0000 C   0  0  0  0  0  0  0  0  0  0  0  0
  1  2  1  0
  2  3  1  0
  3  4  1  0
  4  5  2  0
  5  6  1  0
  6  7  1  0
  7  8  1  0
  8  3  1  0
M  END
>  <Title>  (611) 
idAAVSgen7

$$$$

     RDKit          2D

 18 19  0  0  0  0  0  0  0  0999 V2000
   -0.8928  -10.2822    0.0000 N   0  0  0  0  0  0  0  0  0  0  0  0
    0.4775   -9.6721    0.0000 C   0  0  0  0  0  0  0  0  0  0  0  0
    1.8478   -9.0619    0.0000 C   0  0  0  0  0  0  0  0  0  0  0  0
    3.0613   -9.9436    0.0000 O   0  0  0  0  0  0  0  0  0  0  0  0
    2.0046   -7.5702    0.0000 C   0  0  0  0  0  0  0  0  0  0  0  0
    3.3037   -6.8202    0.0000 C   0  0  0  0  0  0  0  0  0  0  0  0
    2.9918   -5.3529    0.0000 C   0  0  0  0  0  0  0  0  0  0  0  0
    1.5000   -5.1962    0.0000 C   0  0  0  0  0  0  0  0  0  0  0  0
    0.7500   -3.8971    0.0000 C   0  0  0  0  0  0  0  0  0  0  0  0
   -0.7500   -3.8971    0.0000 O   0  0  0  0  0  0  0  0  0  0  0  0
    1.5000   -2.5981    0.0000 N   0  0  0  0  0  0  0  0  0  0  0  0
    0.7500   -1.2990    0.0000 C   0  0  0  0  0  0  0  0  0  0  0  0
    1.5000    0.0000    0.0000 N   0  0  0  0  0  0  0  0  0  0  0  0
    0.7500    1.2990    0.0000 N   0  0  0  0  0  0  0  0  0  0  0  0
   -0.7500    1.2990    0.0000 N   0  0  0  0  0  0  0  0  0  0  0  0
   -1.5000    0.0000    0.0000 N   0  0  0  0  0  0  0  0  0  0  0  0
   -0.7500   -1.2990    0.0000 N   0  0  0  0  0  0  0  0  0  0  0  0
    0.8899   -6.5665    0.0000 C   0  0  0  0  0  0  0  0  0  0  0  0
  1  2  3  0
  2  3  1  0
  3  4  2  0
  3  5  1  0
  5  6  1  0
  6  7  1  0
  7  8  1  0
  8  9  1  0
  9 10  2  0
  9 11  1  0
 11 12  1  0
 12 13  2  0
 13 14  1  0
 14 15  2  0
 15 16  1  0
 16 17  2  0
  8 18  1  0
 18  5  1  0
 17 12  1  0
M  END
>  <Title>  (612) 
idAAVTgen7

$$$$

     RDKit          2D

 93 93  0  0  0  0  0  0  0  0999 V2000
   22.2063    0.0000    0.0000 C   0  0  0  0  0  0  0  0  0  0  0  0
   22.1557    1.4991    0.0000 C   0  0  0  0  0  0  0  0  0  0  0  0
   22.0039    2.9914    0.0000 C   0  0  0  0  0  0  0  0  0  0  0  0
   21.7518    4.4701    0.0000 C   0  0  0  0  0  0  0  0  0  0  0  0
   21.4004    5.9284    0.0000 C   0  0  0  0  0  0  0  0  0  0  0  0
   20.9513    7.3596    0.0000 C   0  0  0  0  0  0  0  0  0  0  0  0
   20.4067    8.7572    0.0000 C   0  0  0  0  0  0  0  0  0  0  0  0
   19.7689   10.1149    0.0000 C   0  0  0  0  0  0  0  0  0  0  0  0
   19.0410   11.4264    0.0000 C   0  0  0  0  0  0  0  0  0  0  0  0
   18.2262   12.6858    0.0000 C   0  0  0  0  0  0  0  0  0  0  0  0
   17.3282   13.8873    0.0000 C   0  0  0  0  0  0  0  0  0  0  0  0
   16.3511   15.0254    0.0000 C   0  0  0  0  0  0  0  0  0  0  0  0
   15.2994   16.0950    0.0000 C   0  0  0  0  0  0  0  0  0  0  0  0
   14.1780   17.0911    0.0000 C   0  0  0  0  0  0  0  0  0  0  0  0
   12.9918   18.0093    0.0000 C   0  0  0  0  0  0  0  0  0  0  0  0
   11.7464   18.8453    0.0000 C   0  0  0  0  0  0  0  0  0  0  0  0
   10.4473   19.5953    0.0000 C   0  0  0  0  0  0  0  0  0  0  0  0
    9.1006   20.2559    0.0000 C   0  0  0  0  0  0  0  0  0  0  0  0
    7.7124   20.8240    0.0000 C   0  0  0  0  0  0  0  0  0  0  0  0
    6.2890   21.2972    0.0000 C   0  0  0  0  0  0  0  0  0  0  0  0
    4.8368   21.6732    0.0000 C   0  0  0  0  0  0  0  0  0  0  0  0
    3.3627   21.9503    0.0000 C   0  0  0  0  0  0  0  0  0  0  0  0
    1.8731   22.1272    0.0000 C   0  0  0  0  0  0  0  0  0  0  0  0
    0.3751   22.2032    0.0000 C   0  0  0  0  0  0  0  0  0  0  0  0
   -1.1247   22.1778    0.0000 C   0  0  0  0  0  0  0  0  0  0  0  0
   -2.6194   22.0513    0.0000 C   0  0  0  0  0  0  0  0  0  0  0  0
   -4.1021   21.8242    0.0000 C   0  0  0  0  0  0  0  0  0  0  0  0
   -5.5661   21.4974    0.0000 C   0  0  0  0  0  0  0  0  0  0  0  0
   -7.0047   21.0726    0.0000 C   0  0  0  0  0  0  0  0  0  0  0  0
   -8.4113   20.5517    0.0000 C   0  0  0  0  0  0  0  0  0  0  0  0
   -9.7795   19.9370    0.0000 C   0  0  0  0  0  0  0  0  0  0  0  0
  -11.1032   19.2313    0.0000 C   0  0  0  0  0  0  0  0  0  0  0  0
  -12.3761   18.4378    0.0000 C   0  0  0  0  0  0  0  0  0  0  0  0
  -13.5926   17.5602    0.0000 C   0  0  0  0  0  0  0  0  0  0  0  0
  -14.7471   16.6025    0.0000 C   0  0  0  0  0  0  0  0  0  0  0  0
  -15.8343   15.5691    0.0000 C   0  0  0  0  0  0  0  0  0  0  0  0
  -16.8492   14.4646    0.0000 C   0  0  0  0  0  0  0  0  0  0  0  0
  -17.7873   13.2941    0.0000 C   0  0  0  0  0  0  0  0  0  0  0  0
  -18.6442   12.0630    0.0000 C   0  0  0  0  0  0  0  0  0  0  0  0
  -19.4160   10.7768    0.0000 C   0  0  0  0  0  0  0  0  0  0  0  0
  -20.0993    9.4414    0.0000 C   0  0  0  0  0  0  0  0  0  0  0  0
  -20.6908    8.0630    0.0000 C   0  0  0  0  0  0  0  0  0  0  0  0
  -21.1879    6.6478    0.0000 C   0  0  0  0  0  0  0  0  0  0  0  0
  -21.5884    5.2022    0.0000 C   0  0  0  0  0  0  0  0  0  0  0  0
  -21.8903    3.7329    0.0000 C   0  0  0  0  0  0  0  0  0  0  0  0
  -22.0924    2.2466    0.0000 C   0  0  0  0  0  0  0  0  0  0  0  0
  -22.1937    0.7500    0.0000 C   0  0  0  0  0  0  0  0  0  0  0  0
  -22.1937   -0.7500    0.0000 C   0  0  0  0  0  0  0  0  0  0  0  0
  -22.0924   -2.2466    0.0000 C   0  0  0  0  0  0  0  0  0  0  0  0
  -21.8903   -3.7329    0.0000 C   0  0  0  0  0  0  0  0  0  0  0  0
  -21.5884   -5.2022    0.0000 C   0  0  0  0  0  0  0  0  0  0  0  0
  -21.1879   -6.6478    0.0000 C   0  0  0  0  0  0  0  0  0  0  0  0
  -20.6908   -8.0630    0.0000 C   0  0  0  0  0  0  0  0  0  0  0  0
  -20.0993   -9.4414    0.0000 C   0  0  0  0  0  0  0  0  0  0  0  0
  -19.4160  -10.7768    0.0000 C   0  0  0  0  0  0  0  0  0  0  0  0
  -18.6442  -12.0630    0.0000 C   0  0  0  0  0  0  0  0  0  0  0  0
  -17.7873  -13.2941    0.0000 C   0  0  0  0  0  0  0  0  0  0  0  0
  -16.8492  -14.4646    0.0000 C   0  0  0  0  0  0  0  0  0  0  0  0
  -15.8343  -15.5691    0.0000 C   0  0  0  0  0  0  0  0  0  0  0  0
  -14.7471  -16.6025    0.0000 C   0  0  0  0  0  0  0  0  0  0  0  0
  -13.5926  -17.5602    0.0000 C   0  0  0  0  0  0  0  0  0  0  0  0
  -12.3761  -18.4378    0.0000 C   0  0  0  0  0  0  0  0  0  0  0  0
  -11.1032  -19.2313    0.0000 C   0  0  0  0  0  0  0  0  0  0  0  0
   -9.7795  -19.9370    0.0000 C   0  0  0  0  0  0  0  0  0  0  0  0
   -8.4113  -20.5517    0.0000 C   0  0  0  0  0  0  0  0  0  0  0  0
   -7.0047  -21.0726    0.0000 C   0  0  0  0  0  0  0  0  0  0  0  0
   -5.5661  -21.4974    0.0000 C   0  0  0  0  0  0  0  0  0  0  0  0
   -4.1021  -21.8242    0.0000 C   0  0  0  0  0  0  0  0  0  0  0  0
   -2.6194  -22.0513    0.0000 C   0  0  0  0  0  0  0  0  0  0  0  0
   -1.1247  -22.1778    0.0000 C   0  0  0  0  0  0  0  0  0  0  0  0
    0.3751  -22.2032    0.0000 C   0  0  0  0  0  0  0  0  0  0  0  0
    1.8731  -22.1272    0.0000 C   0  0  0  0  0  0  0  0  0  0  0  0
    3.3627  -21.9503    0.0000 C   0  0  0  0  0  0  0  0  0  0  0  0
    4.8368  -21.6732    0.0000 C   0  0  0  0  0  0  0  0  0  0  0  0
    6.2890  -21.2972    0.0000 C   0  0  0  0  0  0  0  0  0  0  0  0
    7.7124  -20.8240    0.0000 C   0  0  0  0  0  0  0  0  0  0  0  0
    9.1006  -20.2559    0.0000 C   0  0  0  0  0  0  0  0  0  0  0  0
   10.4473  -19.5953    0.0000 C   0  0  0  0  0  0  0  0  0  0  0  0
   11.7464  -18.8453    0.0000 C   0  0  0  0  0  0  0  0  0  0  0  0
   12.9918  -18.0093    0.0000 C   0  0  0  0  0  0  0  0  0  0  0  0
   14.1780  -17.0911    0.0000 C   0  0  0  0  0  0  0  0  0  0  0  0
   15.2994  -16.0950    0.0000 C   0  0  0  0  0  0  0  0  0  0  0  0
   16.3511  -15.0254    0.0000 C   0  0  0  0  0  0  0  0  0  0  0  0
   17.3282  -13.8873    0.0000 C   0  0  0  0  0  0  0  0  0  0  0  0
   18.2262  -12.6858    0.0000 C   0  0  0  0  0  0  0  0  0  0  0  0
   19.0410  -11.4264    0.0000 C   0  0  0  0  0  0  0  0  0  0  0  0
   19.7689  -10.1149    0.0000 C   0  0  0  0  0  0  0  0  0  0  0  0
   20.4067   -8.7572    0.0000 C   0  0  0  0  0  0  0  0  0  0  0  0
   20.9513   -7.3596    0.0000 C   0  0  0  0  0  0  0  0  0  0  0  0
   21.4004   -5.9284    0.0000 C   0  0  0  0  0  0  0  0  0  0  0  0
   21.7518   -4.4701    0.0000 C   0  0  0  0  0  0  0  0  0  0  0  0
   22.0039   -2.9914    0.0000 C   0  0  0  0  0  0  0  0  0  0  0  0
   22.1557   -1.4991    0.0000 C   0  0  0  0  0  0  0  0  0  0  0  0
  1  2  2  0
  2  3  1  0
  3  4  2  0
  4  5  1  0
  5  6  1  0
  6  7  1  0
  7  8  1  0
  8  9  1  0
  9 10  1  0
 10 11  1  0
 11 12  1  0
 12 13  1  0
 13 14  1  0
 14 15  1  0
 15 16  1  0
 16 17  1  0
 17 18  1  0
 18 19  1  0
 19 20  1  0
 20 21  1  0
 21 22  1  0
 22 23  1  0
 23 24  1  0
 24 25  1  0
 25 26  1  0
 26 27  1  0
 27 28  1  0
 28 29  1  0
 29 30  1  0
 30 31  1  0
 31 32  1  0
 32 33  1  0
 33 34  1  0
 34 35  1  0
 35 36  1  0
 36 37  1  0
 37 38  1  0
 38 39  1  0
 39 40  1  0
 40 41  1  0
 41 42  1  0
 42 43  1  0
 43 44  1  0
 44 45  1  0
 45 46  1  0
 46 47  1  0
 47 48  1  0
 48 49  1  0
 49 50  1  0
 50 51  1  0
 51 52  1  0
 52 53  1  0
 53 54  1  0
 54 55  1  0
 55 56  1  0
 56 57  1  0
 57 58  1  0
 58 59  1  0
 59 60  1  0
 60 61  1  0
 61 62  1  0
 62 63  1  0
 63 64  1  0
 64 65  1  0
 65 66  1  0
 66 67  1  0
 67 68  1  0
 68 69  1  0
 69 70  1  0
 70 71  1  0
 71 72  1  0
 72 73  1  0
 73 74  1  0
 74 75  1  0
 75 76  1  0
 76 77  1  0
 77 78  1  0
 78 79  1  0
 79 80  1  0
 80 81  1  0
 81 82  1  0
 82 83  1  0
 83 84  1  0
 84 85  1  0
 85 86  1  0
 86 87  1  0
 87 88  1  0
 88 89  1  0
 89 90  1  0
 90 91  2  0
 91 92  1  0
 92 93  2  0
 93  1  1  0
M  END
>  <Title>  (613) 
idAAVUgen7

$$$$

     RDKit          2D

  8  8  0  0  0  0  0  0  0  0999 V2000
    2.7760    0.0000    0.0000 C   0  0  0  0  0  0  0  0  0  0  0  0
    1.2760    0.0000    0.0000 C   0  0  0  0  0  0  0  0  0  0  0  0
    0.3943    1.2135    0.0000 C   0  0  0  0  0  0  0  0  0  0  0  0
   -1.0323    0.7500    0.0000 C   0  0  0  0  0  0  0  0  0  0  0  0
   -1.0323   -0.7500    0.0000 C   0  0  0  0  0  0  0  0  0  0  0  0
   -2.2458   -1.6317    0.0000 C   0  0  0  0  0  0  0  0  0  0  0  0
   -3.4593   -2.5134    0.0000 N   0  0  0  0  0  0  0  0  0  0  0  0
    0.3943   -1.2135    0.0000 C   0  0  0  0  0  0  0  0  0  0  0  0
  1  2  1  0
  2  3  2  0
  3  4  1  0
  4  5  1  0
  5  6  1  0
  6  7  3  0
  5  8  2  0
  8  2  1  0
M  END
>  <Title>  (614) 
idAAVVgen7

$$$$

     RDKit          2D

 10 10  0  0  0  0  0  0  0  0999 V2000
    7.5000    0.0000    0.0000 C   0  0  0  0  0  0  0  0  0  0  0  0
    6.0000    0.0000    0.0000 C   0  0  0  0  0  0  0  0  0  0  0  0
    4.5000    0.0000    0.0000 C   0  0  0  0  0  0  0  0  0  0  0  0
    3.0000    0.0000    0.0000 C   0  0  0  0  0  0  0  0  0  0  0  0
    1.5000    0.0000    0.0000 C   0  0  0  0  0  0  0  0  0  0  0  0
    0.7500   -1.2990    0.0000 C   0  0  0  0  0  0  0  0  0  0  0  0
   -0.7500   -1.2990    0.0000 C   0  0  0  0  0  0  0  0  0  0  0  0
   -1.5000    0.0000    0.0000 C   0  0  0  0  0  0  0  0  0  0  0  0
   -0.7500    1.2990    0.0000 C   0  0  0  0  0  0  0  0  0  0  0  0
    0.7500    1.2990    0.0000 C   0  0  0  0  0  0  0  0  0  0  0  0
  1  2  3  0
  2  3  1  0
  3  4  3  0
  4  5  1  0
  5  6  2  0
  6  7  1  0
  7  8  1  0
  8  9  2  0
  9 10  1  0
 10  5  1  0
M  END
>  <Title>  (615) 
idAAVWgen7

$$$$

     RDKit          2D

 85 85  0  0  0  0  0  0  0  0999 V2000
   21.5582    0.0000    0.0000 C   0  0  0  0  0  0  0  0  0  0  0  0
   20.0582    0.0000    0.0000 C   0  0  0  0  0  0  0  0  0  0  0  0
   20.0021   -1.4990    0.0000 C   0  0  0  0  0  0  0  0  0  0  0  0
   19.8342   -2.9895    0.0000 C   0  0  0  0  0  0  0  0  0  0  0  0
   19.5553   -4.4634    0.0000 C   0  0  0  0  0  0  0  0  0  0  0  0
   19.1671   -5.9123    0.0000 C   0  0  0  0  0  0  0  0  0  0  0  0
   18.6717   -7.3281    0.0000 C   0  0  0  0  0  0  0  0  0  0  0  0
   18.0718   -8.7029    0.0000 C   0  0  0  0  0  0  0  0  0  0  0  0
   17.3709  -10.0291    0.0000 C   0  0  0  0  0  0  0  0  0  0  0  0
   16.5729  -11.2992    0.0000 C   0  0  0  0  0  0  0  0  0  0  0  0
   15.6821  -12.5061    0.0000 C   0  0  0  0  0  0  0  0  0  0  0  0
   14.7037  -13.6430    0.0000 C   0  0  0  0  0  0  0  0  0  0  0  0
   13.6430  -14.7037    0.0000 C   0  0  0  0  0  0  0  0  0  0  0  0
   12.5061  -15.6821    0.0000 C   0  0  0  0  0  0  0  0  0  0  0  0
   11.2992  -16.5729    0.0000 C   0  0  0  0  0  0  0  0  0  0  0  0
   10.0291  -17.3709    0.0000 C   0  0  0  0  0  0  0  0  0  0  0  0
    8.7029  -18.0718    0.0000 C   0  0  0  0  0  0  0  0  0  0  0  0
    7.3281  -18.6717    0.0000 C   0  0  0  0  0  0  0  0  0  0  0  0
    5.9123  -19.1671    0.0000 C   0  0  0  0  0  0  0  0  0  0  0  0
    4.4634  -19.5553    0.0000 C   0  0  0  0  0  0  0  0  0  0  0  0
    2.9895  -19.8342    0.0000 C   0  0  0  0  0  0  0  0  0  0  0  0
    1.4990  -20.0021    0.0000 C   0  0  0  0  0  0  0  0  0  0  0  0
   -0.0000  -20.0582    0.0000 C   0  0  0  0  0  0  0  0  0  0  0  0
   -1.4990  -20.0021    0.0000 C   0  0  0  0  0  0  0  0  0  0  0  0
   -2.9895  -19.8342    0.0000 C   0  0  0  0  0  0  0  0  0  0  0  0
   -4.4634  -19.5553    0.0000 C   0  0  0  0  0  0  0  0  0  0  0  0
   -5.9123  -19.1671    0.0000 C   0  0  0  0  0  0  0  0  0  0  0  0
   -7.3281  -18.6717    0.0000 C   0  0  0  0  0  0  0  0  0  0  0  0
   -8.7029  -18.0718    0.0000 C   0  0  0  0  0  0  0  0  0  0  0  0
  -10.0291  -17.3709    0.0000 C   0  0  0  0  0  0  0  0  0  0  0  0
  -11.2992  -16.5729    0.0000 C   0  0  0  0  0  0  0  0  0  0  0  0
  -12.5061  -15.6821    0.0000 C   0  0  0  0  0  0  0  0  0  0  0  0
  -13.6430  -14.7037    0.0000 C   0  0  0  0  0  0  0  0  0  0  0  0
  -14.7037  -13.6430    0.0000 C   0  0  0  0  0  0  0  0  0  0  0  0
  -15.6821  -12.5061    0.0000 C   0  0  0  0  0  0  0  0  0  0  0  0
  -16.5729  -11.2992    0.0000 C   0  0  0  0  0  0  0  0  0  0  0  0
  -17.3709  -10.0291    0.0000 C   0  0  0  0  0  0  0  0  0  0  0  0
  -18.0718   -8.7029    0.0000 C   0  0  0  0  0  0  0  0  0  0  0  0
  -18.6717   -7.3281    0.0000 C   0  0  0  0  0  0  0  0  0  0  0  0
  -19.1671   -5.9123    0.0000 C   0  0  0  0  0  0  0  0  0  0  0  0
  -19.5553   -4.4634    0.0000 C   0  0  0  0  0  0  0  0  0  0  0  0
  -19.8342   -2.9895    0.0000 C   0  0  0  0  0  0  0  0  0  0  0  0
  -20.0021   -1.4990    0.0000 C   0  0  0  0  0  0  0  0  0  0  0  0
  -20.0582    0.0000    0.0000 C   0  0  0  0  0  0  0  0  0  0  0  0
  -20.0021    1.4990    0.0000 C   0  0  0  0  0  0  0  0  0  0  0  0
  -19.8342    2.9895    0.0000 C   0  0  0  0  0  0  0  0  0  0  0  0
  -19.5553    4.4634    0.0000 C   0  0  0  0  0  0  0  0  0  0  0  0
  -19.1671    5.9123    0.0000 C   0  0  0  0  0  0  0  0  0  0  0  0
  -18.6717    7.3281    0.0000 C   0  0  0  0  0  0  0  0  0  0  0  0
  -18.0718    8.7029    0.0000 C   0  0  0  0  0  0  0  0  0  0  0  0
  -17.3709   10.0291    0.0000 C   0  0  0  0  0  0  0  0  0  0  0  0
  -16.5729   11.2992    0.0000 C   0  0  0  0  0  0  0  0  0  0  0  0
  -15.6821   12.5061    0.0000 C   0  0  0  0  0  0  0  0  0  0  0  0
  -14.7037   13.6430    0.0000 C   0  0  0  0  0  0  0  0  0  0  0  0
  -13.6430   14.7037    0.0000 C   0  0  0  0  0  0  0  0  0  0  0  0
  -12.5061   15.6821    0.0000 C   0  0  0  0  0  0  0  0  0  0  0  0
  -11.2992   16.5729    0.0000 C   0  0  0  0  0  0  0  0  0  0  0  0
  -10.0291   17.3709    0.0000 C   0  0  0  0  0  0  0  0  0  0  0  0
   -8.7029   18.0718    0.0000 C   0  0  0  0  0  0  0  0  0  0  0  0
   -7.3281   18.6717    0.0000 C   0  0  0  0  0  0  0  0  0  0  0  0
   -5.9123   19.1671    0.0000 C   0  0  0  0  0  0  0  0  0  0  0  0
   -4.4634   19.5553    0.0000 C   0  0  0  0  0  0  0  0  0  0  0  0
   -2.9895   19.8342    0.0000 C   0  0  0  0  0  0  0  0  0  0  0  0
   -1.4990   20.0021    0.0000 C   0  0  0  0  0  0  0  0  0  0  0  0
    0.0000   20.0582    0.0000 C   0  0  0  0  0  0  0  0  0  0  0  0
    1.4990   20.0021    0.0000 C   0  0  0  0  0  0  0  0  0  0  0  0
    2.9895   19.8342    0.0000 C   0  0  0  0  0  0  0  0  0  0  0  0
    4.4634   19.5553    0.0000 C   0  0  0  0  0  0  0  0  0  0  0  0
    5.9123   19.1671    0.0000 C   0  0  0  0  0  0  0  0  0  0  0  0
    7.3281   18.6717    0.0000 C   0  0  0  0  0  0  0  0  0  0  0  0
    8.7029   18.0718    0.0000 C   0  0  0  0  0  0  0  0  0  0  0  0
   10.0291   17.3709    0.0000 C   0  0  0  0  0  0  0  0  0  0  0  0
   11.2992   16.5729    0.0000 C   0  0  0  0  0  0  0  0  0  0  0  0
   12.5061   15.6821    0.0000 C   0  0  0  0  0  0  0  0  0  0  0  0
   13.6430   14.7037    0.0000 C   0  0  0  0  0  0  0  0  0  0  0  0
   14.7037   13.6430    0.0000 C   0  0  0  0  0  0  0  0  0  0  0  0
   15.6821   12.5061    0.0000 C   0  0  0  0  0  0  0  0  0  0  0  0
   16.5729   11.2992    0.0000 C   0  0  0  0  0  0  0  0  0  0  0  0
   17.3709   10.0291    0.0000 C   0  0  0  0  0  0  0  0  0  0  0  0
   18.0718    8.7029    0.0000 C   0  0  0  0  0  0  0  0  0  0  0  0
   18.6717    7.3281    0.0000 C   0  0  0  0  0  0  0  0  0  0  0  0
   19.1671    5.9123    0.0000 C   0  0  0  0  0  0  0  0  0  0  0  0
   19.5553    4.4634    0.0000 C   0  0  0  0  0  0  0  0  0  0  0  0
   19.8342    2.9895    0.0000 C   0  0  0  0  0  0  0  0  0  0  0  0
   20.0021    1.4990    0.0000 C   0  0  0  0  0  0  0  0  0  0  0  0
  1  2  1  0
  2  3  1  0
  3  4  2  0
  4  5  1  0
  5  6  2  0
  6  7  1  0
  7  8  2  0
  8  9  1  0
  9 10  1  0
 10 11  1  0
 11 12  1  0
 12 13  1  0
 13 14  1  0
 14 15  1  0
 15 16  1  0
 16 17  1  0
 17 18  1  0
 18 19  1  0
 19 20  1  0
 20 21  1  0
 21 22  1  0
 22 23  1  0
 23 24  1  0
 24 25  1  0
 25 26  1  0
 26 27  1  0
 27 28  1  0
 28 29  1  0
 29 30  1  0
 30 31  1  0
 31 32  1  0
 32 33  1  0
 33 34  1  0
 34 35  1  0
 35 36  1  0
 36 37  1  0
 37 38  1  0
 38 39  1  0
 39 40  1  0
 40 41  1  0
 41 42  1  0
 42 43  1  0
 43 44  1  0
 44 45  1  0
 45 46  1  0
 46 47  1  0
 47 48  1  0
 48 49  1  0
 49 50  1  0
 50 51  1  0
 51 52  1  0
 52 53  1  0
 53 54  1  0
 54 55  1  0
 55 56  1  0
 56 57  1  0
 57 58  1  0
 58 59  1  0
 59 60  1  0
 60 61  1  0
 61 62  1  0
 62 63  1  0
 63 64  1  0
 64 65  1  0
 65 66  1  0
 66 67  1  0
 67 68  1  0
 68 69  1  0
 69 70  1  0
 70 71  1  0
 71 72  1  0
 72 73  1  0
 73 74  1  0
 74 75  1  0
 75 76  1  0
 76 77  1  0
 77 78  1  0
 78 79  1  0
 79 80  1  0
 80 81  1  0
 81 82  1  0
 82 83  1  0
 83 84  1  0
 84 85  1  0
 85  2  1  0
M  END
>  <Title>  (616) 
idAAVXgen7

$$$$

     RDKit          2D

  7  6  0  0  0  0  0  0  0  0999 V2000
    0.0000    0.0000    0.0000 C   0  0  0  0  0  0  0  0  0  0  0  0
    1.2990    0.7500    0.0000 C   0  0  0  0  0  0  0  0  0  0  0  0
    2.5981   -0.0000    0.0000 C   0  0  0  0  0  0  0  0  0  0  0  0
    3.8971    0.7500    0.0000 C   0  0  0  0  0  0  0  0  0  0  0  0
    5.1962   -0.0000    0.0000 C   0  0  0  0  0  0  0  0  0  0  0  0
    5.1962   -1.5000    0.0000 O   0  0  0  0  0  0  0  0  0  0  0  0
    6.4952    0.7500    0.0000 O   0  0  0  0  0  0  0  0  0  0  0  0
  1  2  1  0
  2  3  2  3
  3  4  1  0
  4  5  1  0
  5  6  2  0
  5  7  1  0
M  END
>  <Title>  (617) 
idAAVYgen7

$$$$

     RDKit          2D

 10 10  0  0  0  0  0  0  0  0999 V2000
    5.2500   -1.2990    0.0000 C   0  0  0  0  0  0  0  0  0  0  0  0
    3.7500   -1.2990    0.0000 C   0  0  0  0  0  0  0  0  0  0  0  0
    3.0000   -2.5981    0.0000 O   0  0  0  0  0  0  0  0  0  0  0  0
    3.0000    0.0000    0.0000 N   0  0  0  0  0  0  0  0  0  0  0  0
    1.5000    0.0000    0.0000 C   0  0  0  0  0  0  0  0  0  0  0  0
    0.7500   -1.2990    0.0000 N   0  0  0  0  0  0  0  0  0  0  0  0
   -0.7500   -1.2990    0.0000 N   0  0  0  0  0  0  0  0  0  0  0  0
   -1.5000    0.0000    0.0000 N   0  0  0  0  0  0  0  0  0  0  0  0
   -0.7500    1.2990    0.0000 N   0  0  0  0  0  0  0  0  0  0  0  0
    0.7500    1.2990    0.0000 N   0  0  0  0  0  0  0  0  0  0  0  0
  1  2  1  0
  2  3  2  0
  2  4  1  0
  4  5  1  0
  5  6  2  0
  6  7  1  0
  7  8  2  0
  8  9  1  0
  9 10  2  0
 10  5  1  0
M  END
>  <Title>  (618) 
idAAVZgen7

$$$$

     RDKit          2D

 32 36  0  0  0  0  0  0  0  0999 V2000
    1.2135   -7.3421    0.0000 C   0  0  0  0  0  0  0  0  0  0  0  0
    0.7500   -5.9156    0.0000 C   0  0  0  0  0  0  0  0  0  0  0  0
    1.9635   -5.0339    0.0000 C   0  0  0  0  0  0  0  0  0  0  0  0
    2.4271   -3.6073    0.0000 C   0  0  0  0  0  0  0  0  0  0  0  0
    1.9635   -2.1807    0.0000 C   0  0  0  0  0  0  0  0  0  0  0  0
    3.1771   -1.2990    0.0000 C   0  0  0  0  0  0  0  0  0  0  0  0
    3.0203    0.1927    0.0000 O   0  0  0  0  0  0  0  0  0  0  0  0
    4.5474   -1.9091    0.0000 N   0  0  0  0  0  0  0  0  0  0  0  0
    5.7609   -1.0275    0.0000 C   0  0  0  0  0  0  0  0  0  0  0  0
    7.1312   -1.6376    0.0000 N   0  0  0  0  0  0  0  0  0  0  0  0
    8.3447   -0.7559    0.0000 N   0  0  0  0  0  0  0  0  0  0  0  0
    8.1879    0.7359    0.0000 N   0  0  0  0  0  0  0  0  0  0  0  0
    6.8176    1.3460    0.0000 N   0  0  0  0  0  0  0  0  0  0  0  0
    5.6041    0.4643    0.0000 N   0  0  0  0  0  0  0  0  0  0  0  0
    0.7500   -1.2990    0.0000 C   0  0  0  0  0  0  0  0  0  0  0  0
    1.5000    0.0000    0.0000 C   0  0  0  0  0  0  0  0  0  0  0  0
    0.7500    1.2990    0.0000 C   0  0  0  0  0  0  0  0  0  0  0  0
   -0.7500    1.2990    0.0000 C   0  0  0  0  0  0  0  0  0  0  0  0
   -1.5000    0.0000    0.0000 C   0  0  0  0  0  0  0  0  0  0  0  0
   -0.7500   -1.2990    0.0000 C   0  0  0  0  0  0  0  0  0  0  0  0
   -1.9635   -2.1807    0.0000 C   0  0  0  0  0  0  0  0  0  0  0  0
   -2.9672   -1.0660    0.0000 C   0  0  0  0  0  0  0  0  0  0  0  0
   -4.4344   -1.3779    0.0000 C   0  0  0  0  0  0  0  0  0  0  0  0
   -4.8980   -2.8045    0.0000 C   0  0  0  0  0  0  0  0  0  0  0  0
   -3.8943   -3.9192    0.0000 C   0  0  0  0  0  0  0  0  0  0  0  0
   -2.4271   -3.6073    0.0000 C   0  0  0  0  0  0  0  0  0  0  0  0
   -1.9635   -5.0339    0.0000 C   0  0  0  0  0  0  0  0  0  0  0  0
   -3.3338   -5.6440    0.0000 C   0  0  0  0  0  0  0  0  0  0  0  0
   -3.4906   -7.1358    0.0000 C   0  0  0  0  0  0  0  0  0  0  0  0
   -2.2771   -8.0175    0.0000 C   0  0  0  0  0  0  0  0  0  0  0  0
   -0.9068   -7.4073    0.0000 C   0  0  0  0  0  0  0  0  0  0  0  0
   -0.7500   -5.9156    0.0000 C   0  0  0  0  0  0  0  0  0  0  0  0
  1  2  1  0
  2  3  1  0
  3  4  1  0
  4  5  1  0
  5  6  1  0
  6  7  2  0
  6  8  1  0
  8  9  1  0
  9 10  2  0
 10 11  1  0
 11 12  2  0
 12 13  1  0
 13 14  2  0
  5 15  1  0
 15 16  2  0
 16 17  1  0
 17 18  2  0
 18 19  1  0
 19 20  2  0
 20 21  1  0
 21 22  2  0
 22 23  1  0
 23 24  2  0
 24 25  1  0
 25 26  2  0
 26 27  1  0
 27 28  2  0
 28 29  1  0
 29 30  2  0
 30 31  1  0
 31 32  2  0
 32  2  1  0
 14  9  1  0
 20 15  1  0
 26 21  1  0
 32 27  1  0
M  END
>  <Title>  (619) 
idAAWAgen7

$$$$

     RDKit          2D

 58 58  0  0  0  0  0  0  0  0999 V2000
   15.1146    0.0000    0.0000 C   0  0  0  0  0  0  0  0  0  0  0  0
   13.6146    0.0000    0.0000 C   0  0  0  0  0  0  0  0  0  0  0  0
   13.5320    1.4977    0.0000 C   0  0  0  0  0  0  0  0  0  0  0  0
   13.2851    2.9773    0.0000 C   0  0  0  0  0  0  0  0  0  0  0  0
   12.8770    4.4207    0.0000 C   0  0  0  0  0  0  0  0  0  0  0  0
   12.3125    5.8104    0.0000 C   0  0  0  0  0  0  0  0  0  0  0  0
   11.5986    7.1296    0.0000 C   0  0  0  0  0  0  0  0  0  0  0  0
   10.7439    8.3623    0.0000 C   0  0  0  0  0  0  0  0  0  0  0  0
    9.7587    9.4934    0.0000 C   0  0  0  0  0  0  0  0  0  0  0  0
    8.6551   10.5094    0.0000 C   0  0  0  0  0  0  0  0  0  0  0  0
    7.4465   11.3977    0.0000 C   0  0  0  0  0  0  0  0  0  0  0  0
    6.1475   12.1477    0.0000 C   0  0  0  0  0  0  0  0  0  0  0  0
    4.7738   12.7503    0.0000 C   0  0  0  0  0  0  0  0  0  0  0  0
    3.3422   13.1980    0.0000 C   0  0  0  0  0  0  0  0  0  0  0  0
    1.8700   13.4856    0.0000 C   0  0  0  0  0  0  0  0  0  0  0  0
    0.3751   13.6095    0.0000 C   0  0  0  0  0  0  0  0  0  0  0  0
   -1.1243   13.5681    0.0000 C   0  0  0  0  0  0  0  0  0  0  0  0
   -2.6101   13.3621    0.0000 C   0  0  0  0  0  0  0  0  0  0  0  0
   -4.0642   12.9939    0.0000 C   0  0  0  0  0  0  0  0  0  0  0  0
   -5.4689   12.4679    0.0000 C   0  0  0  0  0  0  0  0  0  0  0  0
   -6.8073   11.7906    0.0000 C   0  0  0  0  0  0  0  0  0  0  0  0
   -8.0631   10.9702    0.0000 C   0  0  0  0  0  0  0  0  0  0  0  0
   -9.2209   10.0166    0.0000 C   0  0  0  0  0  0  0  0  0  0  0  0
  -10.2669    8.9414    0.0000 C   0  0  0  0  0  0  0  0  0  0  0  0
  -11.1882    7.7577    0.0000 C   0  0  0  0  0  0  0  0  0  0  0  0
  -11.9737    6.4799    0.0000 C   0  0  0  0  0  0  0  0  0  0  0  0
  -12.6139    5.1233    0.0000 C   0  0  0  0  0  0  0  0  0  0  0  0
  -13.1009    3.7046    0.0000 C   0  0  0  0  0  0  0  0  0  0  0  0
  -13.4290    2.2409    0.0000 C   0  0  0  0  0  0  0  0  0  0  0  0
  -13.5940    0.7500    0.0000 C   0  0  0  0  0  0  0  0  0  0  0  0
  -13.5940   -0.7500    0.0000 C   0  0  0  0  0  0  0  0  0  0  0  0
  -13.4290   -2.2409    0.0000 C   0  0  0  0  0  0  0  0  0  0  0  0
  -13.1009   -3.7046    0.0000 C   0  0  0  0  0  0  0  0  0  0  0  0
  -12.6139   -5.1233    0.0000 C   0  0  0  0  0  0  0  0  0  0  0  0
  -11.9737   -6.4799    0.0000 C   0  0  0  0  0  0  0  0  0  0  0  0
  -11.1882   -7.7577    0.0000 C   0  0  0  0  0  0  0  0  0  0  0  0
  -10.2669   -8.9414    0.0000 C   0  0  0  0  0  0  0  0  0  0  0  0
   -9.2209  -10.0166    0.0000 C   0  0  0  0  0  0  0  0  0  0  0  0
   -8.0631  -10.9702    0.0000 C   0  0  0  0  0  0  0  0  0  0  0  0
   -6.8073  -11.7906    0.0000 C   0  0  0  0  0  0  0  0  0  0  0  0
   -5.4689  -12.4679    0.0000 C   0  0  0  0  0  0  0  0  0  0  0  0
   -4.0642  -12.9939    0.0000 C   0  0  0  0  0  0  0  0  0  0  0  0
   -2.6101  -13.3621    0.0000 C   0  0  0  0  0  0  0  0  0  0  0  0
   -1.1243  -13.5681    0.0000 C   0  0  0  0  0  0  0  0  0  0  0  0
    0.3751  -13.6095    0.0000 C   0  0  0  0  0  0  0  0  0  0  0  0
    1.8700  -13.4856    0.0000 C   0  0  0  0  0  0  0  0  0  0  0  0
    3.3422  -13.1980    0.0000 C   0  0  0  0  0  0  0  0  0  0  0  0
    4.7738  -12.7503    0.0000 C   0  0  0  0  0  0  0  0  0  0  0  0
    6.1475  -12.1477    0.0000 C   0  0  0  0  0  0  0  0  0  0  0  0
    7.4465  -11.3977    0.0000 C   0  0  0  0  0  0  0  0  0  0  0  0
    8.6551  -10.5094    0.0000 C   0  0  0  0  0  0  0  0  0  0  0  0
    9.7587   -9.4934    0.0000 C   0  0  0  0  0  0  0  0  0  0  0  0
   10.7439   -8.3623    0.0000 C   0  0  0  0  0  0  0  0  0  0  0  0
   11.5986   -7.1296    0.0000 C   0  0  0  0  0  0  0  0  0  0  0  0
   12.3125   -5.8104    0.0000 C   0  0  0  0  0  0  0  0  0  0  0  0
   12.8770   -4.4207    0.0000 C   0  0  0  0  0  0  0  0  0  0  0  0
   13.2851   -2.9773    0.0000 C   0  0  0  0  0  0  0  0  0  0  0  0
   13.5320   -1.4977    0.0000 C   0  0  0  0  0  0  0  0  0  0  0  0
  1  2  1  0
  2  3  2  0
  3  4  1  0
  4  5  1  0
  5  6  2  0
  6  7  1  0
  7  8  2  0
  8  9  1  0
  9 10  2  0
 10 11  1  0
 11 12  2  0
 12 13  1  0
 13 14  2  0
 14 15  1  0
 15 16  2  0
 16 17  1  0
 17 18  2  0
 18 19  1  0
 19 20  2  0
 20 21  1  0
 21 22  2  0
 22 23  1  0
 23 24  1  0
 24 25  1  0
 25 26  1  0
 26 27  1  0
 27 28  1  0
 28 29  1  0
 29 30  1  0
 30 31  1  0
 31 32  1  0
 32 33  1  0
 33 34  1  0
 34 35  1  0
 35 36  1  0
 36 37  1  0
 37 38  1  0
 38 39  1  0
 39 40  1  0
 40 41  1  0
 41 42  1  0
 42 43  1  0
 43 44  1  0
 44 45  1  0
 45 46  1  0
 46 47  1  0
 47 48  1  0
 48 49  1  0
 49 50  1  0
 50 51  1  0
 51 52  1  0
 52 53  1  0
 53 54  1  0
 54 55  1  0
 55 56  1  0
 56 57  1  0
 57 58  1  0
 58  2  1  0
M  END
>  <Title>  (620) 
idAAWBgen7

$$$$

     RDKit          2D

 34 37  0  0  0  0  0  0  0  0999 V2000
   -4.8705   -4.5850    0.0000 C   0  0  0  0  0  0  0  0  0  0  0  0
   -3.3705   -4.5850    0.0000 C   0  0  0  0  0  0  0  0  0  0  0  0
   -3.0367   -6.0474    0.0000 C   0  0  0  0  0  0  0  0  0  0  0  0
   -2.1015   -7.2201    0.0000 C   0  0  0  0  0  0  0  0  0  0  0  0
   -0.7500   -7.8710    0.0000 C   0  0  0  0  0  0  0  0  0  0  0  0
    0.7500   -7.8710    0.0000 C   0  0  0  0  0  0  0  0  0  0  0  0
    2.1015   -7.2201    0.0000 C   0  0  0  0  0  0  0  0  0  0  0  0
    3.0367   -6.0474    0.0000 C   0  0  0  0  0  0  0  0  0  0  0  0
    3.3705   -4.5850    0.0000 C   0  0  0  0  0  0  0  0  0  0  0  0
    3.0367   -3.1226    0.0000 C   0  0  0  0  0  0  0  0  0  0  0  0
    2.1015   -1.9499    0.0000 C   0  0  0  0  0  0  0  0  0  0  0  0
    3.0367   -0.7771    0.0000 O   0  0  0  0  0  0  0  0  0  0  0  0
    4.5199   -1.0007    0.0000 C   0  0  0  0  0  0  0  0  0  0  0  0
    5.4552    0.1721    0.0000 C   0  0  0  0  0  0  0  0  0  0  0  0
    4.9072    1.5684    0.0000 O   0  0  0  0  0  0  0  0  0  0  0  0
    6.9384   -0.0515    0.0000 N   0  0  0  0  0  0  0  0  0  0  0  0
    7.8736    1.1213    0.0000 C   0  0  0  0  0  0  0  0  0  0  0  0
    9.3569    0.8977    0.0000 N   0  0  0  0  0  0  0  0  0  0  0  0
   10.2921    2.0704    0.0000 N   0  0  0  0  0  0  0  0  0  0  0  0
    9.7441    3.4667    0.0000 N   0  0  0  0  0  0  0  0  0  0  0  0
    8.2609    3.6903    0.0000 N   0  0  0  0  0  0  0  0  0  0  0  0
    7.3256    2.5176    0.0000 N   0  0  0  0  0  0  0  0  0  0  0  0
    0.7500   -1.2990    0.0000 C   0  0  0  0  0  0  0  0  0  0  0  0
    1.5000    0.0000    0.0000 C   0  0  0  0  0  0  0  0  0  0  0  0
    0.7500    1.2990    0.0000 C   0  0  0  0  0  0  0  0  0  0  0  0
   -0.7500    1.2990    0.0000 C   0  0  0  0  0  0  0  0  0  0  0  0
   -1.5000    0.0000    0.0000 C   0  0  0  0  0  0  0  0  0  0  0  0
   -0.7500   -1.2990    0.0000 C   0  0  0  0  0  0  0  0  0  0  0  0
   -2.1015   -1.9499    0.0000 C   0  0  0  0  0  0  0  0  0  0  0  0
   -2.6495   -0.5536    0.0000 C   0  0  0  0  0  0  0  0  0  0  0  0
   -4.1327   -0.3300    0.0000 C   0  0  0  0  0  0  0  0  0  0  0  0
   -5.0679   -1.5027    0.0000 C   0  0  0  0  0  0  0  0  0  0  0  0
   -4.5199   -2.8990    0.0000 C   0  0  0  0  0  0  0  0  0  0  0  0
   -3.0367   -3.1226    0.0000 C   0  0  0  0  0  0  0  0  0  0  0  0
  1  2  1  0
  2  3  1  0
  3  4  1  0
  4  5  1  0
  5  6  1  0
  6  7  1  0
  7  8  1  0
  8  9  1  0
  9 10  1  0
 10 11  1  0
 11 12  1  0
 12 13  1  0
 13 14  1  0
 14 15  2  0
 14 16  1  0
 16 17  1  0
 17 18  2  0
 18 19  1  0
 19 20  2  0
 20 21  1  0
 21 22  2  0
 11 23  1  0
 23 24  2  0
 24 25  1  0
 25 26  2  0
 26 27  1  0
 27 28  2  0
 28 29  1  0
 29 30  2  0
 30 31  1  0
 31 32  2  0
 32 33  1  0
 33 34  2  0
 34  2  1  0
 22 17  1  0
 28 23  1  0
 34 29  1  0
M  END
>  <Title>  (621) 
idAAWCgen7

$$$$

     RDKit          2D

 27 30  0  0  0  0  0  0  0  0999 V2000
   -2.3737   -6.1885    0.0000 C   0  0  0  0  0  0  0  0  0  0  0  0
   -1.4095   -5.0395    0.0000 C   0  0  0  0  0  0  0  0  0  0  0  0
   -0.0000   -5.5525    0.0000 C   0  0  0  0  0  0  0  0  0  0  0  0
    1.4095   -5.0395    0.0000 C   0  0  0  0  0  0  0  0  0  0  0  0
    2.1595   -3.7404    0.0000 C   0  0  0  0  0  0  0  0  0  0  0  0
    1.8991   -2.2632    0.0000 C   0  0  0  0  0  0  0  0  0  0  0  0
    3.1981   -1.5132    0.0000 C   0  0  0  0  0  0  0  0  0  0  0  0
    3.1981   -0.0132    0.0000 O   0  0  0  0  0  0  0  0  0  0  0  0
    4.4971   -2.2632    0.0000 N   0  0  0  0  0  0  0  0  0  0  0  0
    5.7962   -1.5132    0.0000 C   0  0  0  0  0  0  0  0  0  0  0  0
    7.0952   -2.2632    0.0000 N   0  0  0  0  0  0  0  0  0  0  0  0
    8.3943   -1.5132    0.0000 N   0  0  0  0  0  0  0  0  0  0  0  0
    8.3943   -0.0132    0.0000 N   0  0  0  0  0  0  0  0  0  0  0  0
    7.0952    0.7368    0.0000 N   0  0  0  0  0  0  0  0  0  0  0  0
    5.7962   -0.0132    0.0000 N   0  0  0  0  0  0  0  0  0  0  0  0
    0.7500   -1.2990    0.0000 C   0  0  0  0  0  0  0  0  0  0  0  0
    1.5000    0.0000    0.0000 C   0  0  0  0  0  0  0  0  0  0  0  0
    0.7500    1.2990    0.0000 C   0  0  0  0  0  0  0  0  0  0  0  0
   -0.7500    1.2990    0.0000 C   0  0  0  0  0  0  0  0  0  0  0  0
   -1.5000    0.0000    0.0000 C   0  0  0  0  0  0  0  0  0  0  0  0
   -0.7500   -1.2990    0.0000 C   0  0  0  0  0  0  0  0  0  0  0  0
   -1.8991   -2.2632    0.0000 C   0  0  0  0  0  0  0  0  0  0  0  0
   -3.0481   -1.2990    0.0000 C   0  0  0  0  0  0  0  0  0  0  0  0
   -4.4577   -1.8121    0.0000 C   0  0  0  0  0  0  0  0  0  0  0  0
   -4.7181   -3.2893    0.0000 C   0  0  0  0  0  0  0  0  0  0  0  0
   -3.5691   -4.2535    0.0000 C   0  0  0  0  0  0  0  0  0  0  0  0
   -2.1595   -3.7404    0.0000 C   0  0  0  0  0  0  0  0  0  0  0  0
  1  2  1  0
  2  3  2  0
  3  4  1  0
  4  5  1  0
  5  6  1  0
  6  7  1  0
  7  8  2  0
  7  9  1  0
  9 10  1  0
 10 11  2  0
 11 12  1  0
 12 13  2  0
 13 14  1  0
 14 15  2  0
  6 16  1  0
 16 17  2  0
 17 18  1  0
 18 19  2  0
 19 20  1  0
 20 21  2  0
 21 22  1  0
 22 23  2  0
 23 24  1  0
 24 25  2  0
 25 26  1  0
 26 27  2  0
 27  2  1  0
 15 10  1  0
 21 16  1  0
 27 22  1  0
M  END
>  <Title>  (622) 
idAAWDgen7

$$$$

     RDKit          2D

 34 34  0  0  0  0  0  0  0  0999 V2000
    9.3901    0.0000    0.0000 O   0  0  0  0  0  0  0  0  0  0  0  0
    7.8901    0.0000    0.0000 C   0  0  0  0  0  0  0  0  0  0  0  0
    7.7475    1.4932    0.0000 C   0  0  0  0  0  0  0  0  0  0  0  0
    7.3249    2.9324    0.0000 C   0  0  0  0  0  0  0  0  0  0  0  0
    6.6376    4.2657    0.0000 C   0  0  0  0  0  0  0  0  0  0  0  0
    5.7103    5.4448    0.0000 C   0  0  0  0  0  0  0  0  0  0  0  0
    4.5767    6.4271    0.0000 C   0  0  0  0  0  0  0  0  0  0  0  0
    3.2777    7.1771    0.0000 C   0  0  0  0  0  0  0  0  0  0  0  0
    1.8602    7.6677    0.0000 C   0  0  0  0  0  0  0  0  0  0  0  0
    0.3754    7.8811    0.0000 C   0  0  0  0  0  0  0  0  0  0  0  0
   -1.1229    7.8098    0.0000 C   0  0  0  0  0  0  0  0  0  0  0  0
   -2.5806    7.4561    0.0000 C   0  0  0  0  0  0  0  0  0  0  0  0
   -3.9450    6.8330    0.0000 C   0  0  0  0  0  0  0  0  0  0  0  0
   -5.1669    5.9629    0.0000 C   0  0  0  0  0  0  0  0  0  0  0  0
   -6.2020    4.8773    0.0000 C   0  0  0  0  0  0  0  0  0  0  0  0
   -7.0130    3.6154    0.0000 C   0  0  0  0  0  0  0  0  0  0  0  0
   -7.5705    2.2229    0.0000 C   0  0  0  0  0  0  0  0  0  0  0  0
   -7.8544    0.7500    0.0000 C   0  0  0  0  0  0  0  0  0  0  0  0
   -7.8544   -0.7500    0.0000 C   0  0  0  0  0  0  0  0  0  0  0  0
   -7.5705   -2.2229    0.0000 C   0  0  0  0  0  0  0  0  0  0  0  0
   -7.0130   -3.6154    0.0000 C   0  0  0  0  0  0  0  0  0  0  0  0
   -6.2020   -4.8773    0.0000 C   0  0  0  0  0  0  0  0  0  0  0  0
   -5.1669   -5.9629    0.0000 C   0  0  0  0  0  0  0  0  0  0  0  0
   -3.9450   -6.8330    0.0000 C   0  0  0  0  0  0  0  0  0  0  0  0
   -2.5806   -7.4561    0.0000 C   0  0  0  0  0  0  0  0  0  0  0  0
   -1.1229   -7.8098    0.0000 C   0  0  0  0  0  0  0  0  0  0  0  0
    0.3754   -7.8811    0.0000 C   0  0  0  0  0  0  0  0  0  0  0  0
    1.8602   -7.6677    0.0000 C   0  0  0  0  0  0  0  0  0  0  0  0
    3.2777   -7.1771    0.0000 C   0  0  0  0  0  0  0  0  0  0  0  0
    4.5767   -6.4271    0.0000 C   0  0  0  0  0  0  0  0  0  0  0  0
    5.7103   -5.4448    0.0000 C   0  0  0  0  0  0  0  0  0  0  0  0
    6.6376   -4.2657    0.0000 C   0  0  0  0  0  0  0  0  0  0  0  0
    7.3249   -2.9324    0.0000 C   0  0  0  0  0  0  0  0  0  0  0  0
    7.7475   -1.4932    0.0000 C   0  0  0  0  0  0  0  0  0  0  0  0
  1  2  1  0
  2  3  2  0
  3  4  1  0
  4  5  1  0
  5  6  1  0
  6  7  1  0
  7  8  1  0
  8  9  1  0
  9 10  1  0
 10 11  1  0
 11 12  1  0
 12 13  1  0
 13 14  1  0
 14 15  1  0
 15 16  1  0
 16 17  1  0
 17 18  1  0
 18 19  1  0
 19 20  1  0
 20 21  1  0
 21 22  1  0
 22 23  1  0
 23 24  1  0
 24 25  1  0
 25 26  1  0
 26 27  1  0
 27 28  1  0
 28 29  1  0
 29 30  1  0
 30 31  1  0
 31 32  1  0
 32 33  1  0
 33 34  1  0
 34  2  1  0
M  END
>  <Title>  (623) 
idAAWEgen7

$$$$

     RDKit          2D

 22 22  0  0  0  0  0  0  0  0999 V2000
    6.5321    0.0000    0.0000 O   0  0  0  0  0  0  0  0  0  0  0  0
    5.0321    0.0000    0.0000 C   0  0  0  0  0  0  0  0  0  0  0  0
    4.8086    1.4832    0.0000 C   0  0  0  0  0  0  0  0  0  0  0  0
    4.1577    2.8347    0.0000 C   0  0  0  0  0  0  0  0  0  0  0  0
    3.1375    3.9343    0.0000 C   0  0  0  0  0  0  0  0  0  0  0  0
    1.8384    4.6843    0.0000 C   0  0  0  0  0  0  0  0  0  0  0  0
    0.3761    5.0181    0.0000 C   0  0  0  0  0  0  0  0  0  0  0  0
   -1.1198    4.9060    0.0000 C   0  0  0  0  0  0  0  0  0  0  0  0
   -2.5161    4.3580    0.0000 C   0  0  0  0  0  0  0  0  0  0  0  0
   -3.6888    3.4227    0.0000 C   0  0  0  0  0  0  0  0  0  0  0  0
   -4.5338    2.1834    0.0000 C   0  0  0  0  0  0  0  0  0  0  0  0
   -4.9759    0.7500    0.0000 C   0  0  0  0  0  0  0  0  0  0  0  0
   -4.9759   -0.7500    0.0000 C   0  0  0  0  0  0  0  0  0  0  0  0
   -4.5338   -2.1834    0.0000 C   0  0  0  0  0  0  0  0  0  0  0  0
   -3.6888   -3.4227    0.0000 C   0  0  0  0  0  0  0  0  0  0  0  0
   -2.5161   -4.3580    0.0000 C   0  0  0  0  0  0  0  0  0  0  0  0
   -1.1198   -4.9060    0.0000 C   0  0  0  0  0  0  0  0  0  0  0  0
    0.3761   -5.0181    0.0000 C   0  0  0  0  0  0  0  0  0  0  0  0
    1.8384   -4.6843    0.0000 C   0  0  0  0  0  0  0  0  0  0  0  0
    3.1375   -3.9343    0.0000 C   0  0  0  0  0  0  0  0  0  0  0  0
    4.1577   -2.8347    0.0000 C   0  0  0  0  0  0  0  0  0  0  0  0
    4.8086   -1.4832    0.0000 C   0  0  0  0  0  0  0  0  0  0  0  0
  1  2  1  0
  2  3  1  0
  3  4  1  0
  4  5  2  0
  5  6  1  0
  6  7  1  0
  7  8  1  0
  8  9  1  0
  9 10  1  0
 10 11  1  0
 11 12  1  0
 12 13  1  0
 13 14  1  0
 14 15  1  0
 15 16  1  0
 16 17  1  0
 17 18  1  0
 18 19  1  0
 19 20  1  0
 20 21  1  0
 21 22  1  0
 22  2  1  0
M  END
>  <Title>  (624) 
idAAWFgen7

$$$$

     RDKit          2D

 56 56  0  0  0  0  0  0  0  0999 V2000
   13.3760    0.0000    0.0000 C   0  0  0  0  0  0  0  0  0  0  0  0
   13.2919   -1.4976    0.0000 C   0  0  0  0  0  0  0  0  0  0  0  0
   13.0407   -2.9764    0.0000 C   0  0  0  0  0  0  0  0  0  0  0  0
   12.6254   -4.4178    0.0000 C   0  0  0  0  0  0  0  0  0  0  0  0
   12.0514   -5.8036    0.0000 C   0  0  0  0  0  0  0  0  0  0  0  0
   11.3258   -7.1165    0.0000 C   0  0  0  0  0  0  0  0  0  0  0  0
   10.4578   -8.3398    0.0000 C   0  0  0  0  0  0  0  0  0  0  0  0
    9.4583   -9.4583    0.0000 C   0  0  0  0  0  0  0  0  0  0  0  0
    8.3398  -10.4578    0.0000 C   0  0  0  0  0  0  0  0  0  0  0  0
    7.1165  -11.3258    0.0000 C   0  0  0  0  0  0  0  0  0  0  0  0
    5.8036  -12.0514    0.0000 C   0  0  0  0  0  0  0  0  0  0  0  0
    4.4178  -12.6254    0.0000 C   0  0  0  0  0  0  0  0  0  0  0  0
    2.9764  -13.0407    0.0000 C   0  0  0  0  0  0  0  0  0  0  0  0
    1.4976  -13.2919    0.0000 C   0  0  0  0  0  0  0  0  0  0  0  0
   -0.0000  -13.3760    0.0000 C   0  0  0  0  0  0  0  0  0  0  0  0
   -1.4976  -13.2919    0.0000 C   0  0  0  0  0  0  0  0  0  0  0  0
   -2.9764  -13.0407    0.0000 C   0  0  0  0  0  0  0  0  0  0  0  0
   -4.4178  -12.6254    0.0000 C   0  0  0  0  0  0  0  0  0  0  0  0
   -5.8036  -12.0514    0.0000 C   0  0  0  0  0  0  0  0  0  0  0  0
   -7.1165  -11.3258    0.0000 C   0  0  0  0  0  0  0  0  0  0  0  0
   -8.3398  -10.4578    0.0000 C   0  0  0  0  0  0  0  0  0  0  0  0
   -9.4583   -9.4583    0.0000 C   0  0  0  0  0  0  0  0  0  0  0  0
  -10.4578   -8.3398    0.0000 C   0  0  0  0  0  0  0  0  0  0  0  0
  -11.3258   -7.1165    0.0000 C   0  0  0  0  0  0  0  0  0  0  0  0
  -12.0514   -5.8036    0.0000 C   0  0  0  0  0  0  0  0  0  0  0  0
  -12.6254   -4.4178    0.0000 C   0  0  0  0  0  0  0  0  0  0  0  0
  -13.0407   -2.9764    0.0000 C   0  0  0  0  0  0  0  0  0  0  0  0
  -13.2919   -1.4976    0.0000 C   0  0  0  0  0  0  0  0  0  0  0  0
  -13.3760    0.0000    0.0000 C   0  0  0  0  0  0  0  0  0  0  0  0
  -13.2919    1.4976    0.0000 C   0  0  0  0  0  0  0  0  0  0  0  0
  -13.0407    2.9764    0.0000 C   0  0  0  0  0  0  0  0  0  0  0  0
  -12.6254    4.4178    0.0000 C   0  0  0  0  0  0  0  0  0  0  0  0
  -12.0514    5.8036    0.0000 C   0  0  0  0  0  0  0  0  0  0  0  0
  -11.3258    7.1165    0.0000 C   0  0  0  0  0  0  0  0  0  0  0  0
  -10.4578    8.3398    0.0000 C   0  0  0  0  0  0  0  0  0  0  0  0
   -9.4583    9.4583    0.0000 C   0  0  0  0  0  0  0  0  0  0  0  0
   -8.3398   10.4578    0.0000 C   0  0  0  0  0  0  0  0  0  0  0  0
   -7.1165   11.3258    0.0000 C   0  0  0  0  0  0  0  0  0  0  0  0
   -5.8036   12.0514    0.0000 C   0  0  0  0  0  0  0  0  0  0  0  0
   -4.4178   12.6254    0.0000 C   0  0  0  0  0  0  0  0  0  0  0  0
   -2.9764   13.0407    0.0000 C   0  0  0  0  0  0  0  0  0  0  0  0
   -1.4976   13.2919    0.0000 C   0  0  0  0  0  0  0  0  0  0  0  0
    0.0000   13.3760    0.0000 C   0  0  0  0  0  0  0  0  0  0  0  0
    1.4976   13.2919    0.0000 C   0  0  0  0  0  0  0  0  0  0  0  0
    2.9764   13.0407    0.0000 C   0  0  0  0  0  0  0  0  0  0  0  0
    4.4178   12.6254    0.0000 C   0  0  0  0  0  0  0  0  0  0  0  0
    5.8036   12.0514    0.0000 C   0  0  0  0  0  0  0  0  0  0  0  0
    7.1165   11.3258    0.0000 C   0  0  0  0  0  0  0  0  0  0  0  0
    8.3398   10.4578    0.0000 C   0  0  0  0  0  0  0  0  0  0  0  0
    9.4583    9.4583    0.0000 C   0  0  0  0  0  0  0  0  0  0  0  0
   10.4578    8.3398    0.0000 C   0  0  0  0  0  0  0  0  0  0  0  0
   11.3258    7.1165    0.0000 C   0  0  0  0  0  0  0  0  0  0  0  0
   12.0514    5.8036    0.0000 C   0  0  0  0  0  0  0  0  0  0  0  0
   12.6254    4.4178    0.0000 C   0  0  0  0  0  0  0  0  0  0  0  0
   13.0407    2.9764    0.0000 C   0  0  0  0  0  0  0  0  0  0  0  0
   13.2919    1.4976    0.0000 C   0  0  0  0  0  0  0  0  0  0  0  0
  1  2  1  0
  2  3  1  0
  3  4  1  0
  4  5  1  0
  5  6  1  0
  6  7  1  0
  7  8  1  0
  8  9  1  0
  9 10  1  0
 10 11  1  0
 11 12  1  0
 12 13  1  0
 13 14  1  0
 14 15  1  0
 15 16  1  0
 16 17  1  0
 17 18  1  0
 18 19  1  0
 19 20  1  0
 20 21  1  0
 21 22  1  0
 22 23  1  0
 23 24  1  0
 24 25  1  0
 25 26  1  0
 26 27  1  0
 27 28  1  0
 28 29  1  0
 29 30  1  0
 30 31  1  0
 31 32  1  0
 32 33  1  0
 33 34  1  0
 34 35  1  0
 35 36  1  0
 36 37  1  0
 37 38  1  0
 38 39  1  0
 39 40  1  0
 40 41  1  0
 41 42  1  0
 42 43  1  0
 43 44  1  0
 44 45  1  0
 45 46  1  0
 46 47  1  0
 47 48  1  0
 48 49  1  0
 49 50  1  0
 50 51  1  0
 51 52  1  0
 52 53  1  0
 53 54  1  0
 54 55  1  0
 55 56  1  0
 56  1  1  0
M  END
>  <Title>  (625) 
idAAWGgen7

$$$$

     RDKit          2D

 80 80  0  0  0  0  0  0  0  0999 V2000
   19.1035    0.0000    0.0000 C   0  0  0  0  0  0  0  0  0  0  0  0
   19.0446   -1.4988    0.0000 C   0  0  0  0  0  0  0  0  0  0  0  0
   18.8683   -2.9884    0.0000 C   0  0  0  0  0  0  0  0  0  0  0  0
   18.5757   -4.4596    0.0000 C   0  0  0  0  0  0  0  0  0  0  0  0
   18.1685   -5.9033    0.0000 C   0  0  0  0  0  0  0  0  0  0  0  0
   17.6493   -7.3106    0.0000 C   0  0  0  0  0  0  0  0  0  0  0  0
   17.0213   -8.6728    0.0000 C   0  0  0  0  0  0  0  0  0  0  0  0
   16.2884   -9.9816    0.0000 C   0  0  0  0  0  0  0  0  0  0  0  0
   15.4551  -11.2288    0.0000 C   0  0  0  0  0  0  0  0  0  0  0  0
   14.5264  -12.4067    0.0000 C   0  0  0  0  0  0  0  0  0  0  0  0
   13.5082  -13.5082    0.0000 C   0  0  0  0  0  0  0  0  0  0  0  0
   12.4067  -14.5264    0.0000 C   0  0  0  0  0  0  0  0  0  0  0  0
   11.2288  -15.4551    0.0000 C   0  0  0  0  0  0  0  0  0  0  0  0
    9.9816  -16.2884    0.0000 C   0  0  0  0  0  0  0  0  0  0  0  0
    8.6728  -17.0213    0.0000 C   0  0  0  0  0  0  0  0  0  0  0  0
    7.3106  -17.6493    0.0000 C   0  0  0  0  0  0  0  0  0  0  0  0
    5.9033  -18.1685    0.0000 C   0  0  0  0  0  0  0  0  0  0  0  0
    4.4596  -18.5757    0.0000 C   0  0  0  0  0  0  0  0  0  0  0  0
    2.9884  -18.8683    0.0000 C   0  0  0  0  0  0  0  0  0  0  0  0
    1.4988  -19.0446    0.0000 C   0  0  0  0  0  0  0  0  0  0  0  0
   -0.0000  -19.1035    0.0000 C   0  0  0  0  0  0  0  0  0  0  0  0
   -1.4988  -19.0446    0.0000 C   0  0  0  0  0  0  0  0  0  0  0  0
   -2.9884  -18.8683    0.0000 C   0  0  0  0  0  0  0  0  0  0  0  0
   -4.4596  -18.5757    0.0000 C   0  0  0  0  0  0  0  0  0  0  0  0
   -5.9033  -18.1685    0.0000 C   0  0  0  0  0  0  0  0  0  0  0  0
   -7.3106  -17.6493    0.0000 C   0  0  0  0  0  0  0  0  0  0  0  0
   -8.6728  -17.0213    0.0000 C   0  0  0  0  0  0  0  0  0  0  0  0
   -9.9816  -16.2884    0.0000 C   0  0  0  0  0  0  0  0  0  0  0  0
  -11.2288  -15.4551    0.0000 C   0  0  0  0  0  0  0  0  0  0  0  0
  -12.4067  -14.5264    0.0000 C   0  0  0  0  0  0  0  0  0  0  0  0
  -13.5082  -13.5082    0.0000 C   0  0  0  0  0  0  0  0  0  0  0  0
  -14.5264  -12.4067    0.0000 C   0  0  0  0  0  0  0  0  0  0  0  0
  -15.4551  -11.2288    0.0000 C   0  0  0  0  0  0  0  0  0  0  0  0
  -16.2884   -9.9816    0.0000 C   0  0  0  0  0  0  0  0  0  0  0  0
  -17.0213   -8.6728    0.0000 C   0  0  0  0  0  0  0  0  0  0  0  0
  -17.6493   -7.3106    0.0000 C   0  0  0  0  0  0  0  0  0  0  0  0
  -18.1685   -5.9033    0.0000 C   0  0  0  0  0  0  0  0  0  0  0  0
  -18.5757   -4.4596    0.0000 C   0  0  0  0  0  0  0  0  0  0  0  0
  -18.8683   -2.9884    0.0000 C   0  0  0  0  0  0  0  0  0  0  0  0
  -19.0446   -1.4988    0.0000 C   0  0  0  0  0  0  0  0  0  0  0  0
  -19.1035    0.0000    0.0000 C   0  0  0  0  0  0  0  0  0  0  0  0
  -19.0446    1.4988    0.0000 C   0  0  0  0  0  0  0  0  0  0  0  0
  -18.8683    2.9884    0.0000 C   0  0  0  0  0  0  0  0  0  0  0  0
  -18.5757    4.4596    0.0000 C   0  0  0  0  0  0  0  0  0  0  0  0
  -18.1685    5.9033    0.0000 C   0  0  0  0  0  0  0  0  0  0  0  0
  -17.6493    7.3106    0.0000 C   0  0  0  0  0  0  0  0  0  0  0  0
  -17.0213    8.6728    0.0000 C   0  0  0  0  0  0  0  0  0  0  0  0
  -16.2884    9.9816    0.0000 C   0  0  0  0  0  0  0  0  0  0  0  0
  -15.4551   11.2288    0.0000 C   0  0  0  0  0  0  0  0  0  0  0  0
  -14.5264   12.4067    0.0000 C   0  0  0  0  0  0  0  0  0  0  0  0
  -13.5082   13.5082    0.0000 C   0  0  0  0  0  0  0  0  0  0  0  0
  -12.4067   14.5264    0.0000 C   0  0  0  0  0  0  0  0  0  0  0  0
  -11.2288   15.4551    0.0000 C   0  0  0  0  0  0  0  0  0  0  0  0
   -9.9816   16.2884    0.0000 C   0  0  0  0  0  0  0  0  0  0  0  0
   -8.6728   17.0213    0.0000 C   0  0  0  0  0  0  0  0  0  0  0  0
   -7.3106   17.6493    0.0000 C   0  0  0  0  0  0  0  0  0  0  0  0
   -5.9033   18.1685    0.0000 C   0  0  0  0  0  0  0  0  0  0  0  0
   -4.4596   18.5757    0.0000 C   0  0  0  0  0  0  0  0  0  0  0  0
   -2.9884   18.8683    0.0000 C   0  0  0  0  0  0  0  0  0  0  0  0
   -1.4988   19.0446    0.0000 C   0  0  0  0  0  0  0  0  0  0  0  0
    0.0000   19.1035    0.0000 C   0  0  0  0  0  0  0  0  0  0  0  0
    1.4988   19.0446    0.0000 C   0  0  0  0  0  0  0  0  0  0  0  0
    2.9884   18.8683    0.0000 C   0  0  0  0  0  0  0  0  0  0  0  0
    4.4596   18.5757    0.0000 C   0  0  0  0  0  0  0  0  0  0  0  0
    5.9033   18.1685    0.0000 C   0  0  0  0  0  0  0  0  0  0  0  0
    7.3106   17.6493    0.0000 C   0  0  0  0  0  0  0  0  0  0  0  0
    8.6728   17.0213    0.0000 C   0  0  0  0  0  0  0  0  0  0  0  0
    9.9816   16.2884    0.0000 C   0  0  0  0  0  0  0  0  0  0  0  0
   11.2288   15.4551    0.0000 C   0  0  0  0  0  0  0  0  0  0  0  0
   12.4067   14.5264    0.0000 C   0  0  0  0  0  0  0  0  0  0  0  0
   13.5082   13.5082    0.0000 C   0  0  0  0  0  0  0  0  0  0  0  0
   14.5264   12.4067    0.0000 C   0  0  0  0  0  0  0  0  0  0  0  0
   15.4551   11.2288    0.0000 C   0  0  0  0  0  0  0  0  0  0  0  0
   16.2884    9.9816    0.0000 C   0  0  0  0  0  0  0  0  0  0  0  0
   17.0213    8.6728    0.0000 C   0  0  0  0  0  0  0  0  0  0  0  0
   17.6493    7.3106    0.0000 C   0  0  0  0  0  0  0  0  0  0  0  0
   18.1685    5.9033    0.0000 C   0  0  0  0  0  0  0  0  0  0  0  0
   18.5757    4.4596    0.0000 C   0  0  0  0  0  0  0  0  0  0  0  0
   18.8683    2.9884    0.0000 C   0  0  0  0  0  0  0  0  0  0  0  0
   19.0446    1.4988    0.0000 C   0  0  0  0  0  0  0  0  0  0  0  0
  1  2  1  0
  2  3  1  0
  3  4  1  0
  4  5  1  0
  5  6  1  0
  6  7  1  0
  7  8  1  0
  8  9  1  0
  9 10  1  0
 10 11  1  0
 11 12  1  0
 12 13  1  0
 13 14  1  0
 14 15  1  0
 15 16  1  0
 16 17  1  0
 17 18  1  0
 18 19  1  0
 19 20  1  0
 20 21  1  0
 21 22  1  0
 22 23  1  0
 23 24  1  0
 24 25  1  0
 25 26  1  0
 26 27  1  0
 27 28  1  0
 28 29  1  0
 29 30  1  0
 30 31  1  0
 31 32  1  0
 32 33  1  0
 33 34  1  0
 34 35  1  0
 35 36  1  0
 36 37  1  0
 37 38  1  0
 38 39  1  0
 39 40  1  0
 40 41  1  0
 41 42  1  0
 42 43  1  0
 43 44  1  0
 44 45  1  0
 45 46  1  0
 46 47  1  0
 47 48  1  0
 48 49  1  0
 49 50  1  0
 50 51  1  0
 51 52  1  0
 52 53  1  0
 53 54  1  0
 54 55  1  0
 55 56  1  0
 56 57  1  0
 57 58  1  0
 58 59  1  0
 59 60  1  0
 60 61  1  0
 61 62  1  0
 62 63  1  0
 63 64  1  0
 64 65  1  0
 65 66  1  0
 66 67  1  0
 67 68  1  0
 68 69  1  0
 69 70  1  0
 70 71  1  0
 71 72  1  0
 72 73  1  0
 73 74  1  0
 74 75  1  0
 75 76  1  0
 76 77  1  0
 77 78  1  0
 78 79  1  0
 79 80  1  0
 80  1  1  0
M  END
>  <Title>  (626) 
idAAWHgen7

$$$$

     RDKit          2D

 59 59  0  0  0  0  0  0  0  0999 V2000
   15.3533    0.0000    0.0000 C   0  0  0  0  0  0  0  0  0  0  0  0
   13.8533    0.0000    0.0000 C   0  0  0  0  0  0  0  0  0  0  0  0
   13.7720   -1.4978    0.0000 C   0  0  0  0  0  0  0  0  0  0  0  0
   13.5294   -2.9780    0.0000 C   0  0  0  0  0  0  0  0  0  0  0  0
   13.1281   -4.4234    0.0000 C   0  0  0  0  0  0  0  0  0  0  0  0
   12.5729   -5.8168    0.0000 C   0  0  0  0  0  0  0  0  0  0  0  0
   11.8703   -7.1421    0.0000 C   0  0  0  0  0  0  0  0  0  0  0  0
   11.0285   -8.3836    0.0000 C   0  0  0  0  0  0  0  0  0  0  0  0
   10.0574   -9.5269    0.0000 C   0  0  0  0  0  0  0  0  0  0  0  0
    8.9684  -10.5584    0.0000 C   0  0  0  0  0  0  0  0  0  0  0  0
    7.7743  -11.4662    0.0000 C   0  0  0  0  0  0  0  0  0  0  0  0
    6.4890  -12.2395    0.0000 C   0  0  0  0  0  0  0  0  0  0  0  0
    5.1276  -12.8693    0.0000 C   0  0  0  0  0  0  0  0  0  0  0  0
    3.7061  -13.3483    0.0000 C   0  0  0  0  0  0  0  0  0  0  0  0
    2.2412  -13.6708    0.0000 C   0  0  0  0  0  0  0  0  0  0  0  0
    0.7500  -13.8329    0.0000 C   0  0  0  0  0  0  0  0  0  0  0  0
   -0.7500  -13.8329    0.0000 C   0  0  0  0  0  0  0  0  0  0  0  0
   -2.2412  -13.6708    0.0000 C   0  0  0  0  0  0  0  0  0  0  0  0
   -3.7061  -13.3483    0.0000 C   0  0  0  0  0  0  0  0  0  0  0  0
   -5.1276  -12.8693    0.0000 C   0  0  0  0  0  0  0  0  0  0  0  0
   -6.4890  -12.2395    0.0000 C   0  0  0  0  0  0  0  0  0  0  0  0
   -7.7743  -11.4662    0.0000 C   0  0  0  0  0  0  0  0  0  0  0  0
   -8.9684  -10.5584    0.0000 C   0  0  0  0  0  0  0  0  0  0  0  0
  -10.0574   -9.5269    0.0000 C   0  0  0  0  0  0  0  0  0  0  0  0
  -11.0285   -8.3836    0.0000 C   0  0  0  0  0  0  0  0  0  0  0  0
  -11.8703   -7.1421    0.0000 C   0  0  0  0  0  0  0  0  0  0  0  0
  -12.5729   -5.8168    0.0000 C   0  0  0  0  0  0  0  0  0  0  0  0
  -13.1281   -4.4234    0.0000 C   0  0  0  0  0  0  0  0  0  0  0  0
  -13.5294   -2.9780    0.0000 C   0  0  0  0  0  0  0  0  0  0  0  0
  -13.7720   -1.4978    0.0000 C   0  0  0  0  0  0  0  0  0  0  0  0
  -13.8533    0.0000    0.0000 C   0  0  0  0  0  0  0  0  0  0  0  0
  -13.7720    1.4978    0.0000 C   0  0  0  0  0  0  0  0  0  0  0  0
  -13.5294    2.9780    0.0000 C   0  0  0  0  0  0  0  0  0  0  0  0
  -13.1281    4.4234    0.0000 C   0  0  0  0  0  0  0  0  0  0  0  0
  -12.5729    5.8168    0.0000 C   0  0  0  0  0  0  0  0  0  0  0  0
  -11.8703    7.1421    0.0000 C   0  0  0  0  0  0  0  0  0  0  0  0
  -11.0285    8.3836    0.0000 C   0  0  0  0  0  0  0  0  0  0  0  0
  -10.0574    9.5269    0.0000 C   0  0  0  0  0  0  0  0  0  0  0  0
   -8.9684   10.5584    0.0000 C   0  0  0  0  0  0  0  0  0  0  0  0
   -7.7743   11.4662    0.0000 C   0  0  0  0  0  0  0  0  0  0  0  0
   -6.4890   12.2395    0.0000 C   0  0  0  0  0  0  0  0  0  0  0  0
   -5.1276   12.8693    0.0000 C   0  0  0  0  0  0  0  0  0  0  0  0
   -3.7061   13.3483    0.0000 C   0  0  0  0  0  0  0  0  0  0  0  0
   -2.2412   13.6708    0.0000 C   0  0  0  0  0  0  0  0  0  0  0  0
   -0.7500   13.8329    0.0000 C   0  0  0  0  0  0  0  0  0  0  0  0
    0.7500   13.8329    0.0000 C   0  0  0  0  0  0  0  0  0  0  0  0
    2.2412   13.6708    0.0000 C   0  0  0  0  0  0  0  0  0  0  0  0
    3.7061   13.3483    0.0000 C   0  0  0  0  0  0  0  0  0  0  0  0
    5.1276   12.8693    0.0000 C   0  0  0  0  0  0  0  0  0  0  0  0
    6.4890   12.2395    0.0000 C   0  0  0  0  0  0  0  0  0  0  0  0
    7.7743   11.4662    0.0000 C   0  0  0  0  0  0  0  0  0  0  0  0
    8.9684   10.5584    0.0000 C   0  0  0  0  0  0  0  0  0  0  0  0
   10.0574    9.5269    0.0000 C   0  0  0  0  0  0  0  0  0  0  0  0
   11.0285    8.3836    0.0000 C   0  0  0  0  0  0  0  0  0  0  0  0
   11.8703    7.1421    0.0000 C   0  0  0  0  0  0  0  0  0  0  0  0
   12.5729    5.8168    0.0000 C   0  0  0  0  0  0  0  0  0  0  0  0
   13.1281    4.4234    0.0000 C   0  0  0  0  0  0  0  0  0  0  0  0
   13.5294    2.9780    0.0000 C   0  0  0  0  0  0  0  0  0  0  0  0
   13.7720    1.4978    0.0000 C   0  0  0  0  0  0  0  0  0  0  0  0
  1  2  1  0
  2  3  1  0
  3  4  2  0
  4  5  1  0
  5  6  2  0
  6  7  1  0
  7  8  2  0
  8  9  1  0
  9 10  1  0
 10 11  1  0
 11 12  1  0
 12 13  1  0
 13 14  1  0
 14 15  1  0
 15 16  1  0
 16 17  1  0
 17 18  1  0
 18 19  1  0
 19 20  1  0
 20 21  1  0
 21 22  1  0
 22 23  1  0
 23 24  1  0
 24 25  1  0
 25 26  1  0
 26 27  1  0
 27 28  1  0
 28 29  1  0
 29 30  1  0
 30 31  1  0
 31 32  1  0
 32 33  1  0
 33 34  1  0
 34 35  1  0
 35 36  1  0
 36 37  1  0
 37 38  1  0
 38 39  1  0
 39 40  1  0
 40 41  1  0
 41 42  1  0
 42 43  1  0
 43 44  1  0
 44 45  1  0
 45 46  1  0
 46 47  1  0
 47 48  1  0
 48 49  1  0
 49 50  1  0
 50 51  1  0
 51 52  1  0
 52 53  1  0
 53 54  1  0
 54 55  1  0
 55 56  1  0
 56 57  1  0
 57 58  1  0
 58 59  1  0
 59  2  1  0
M  END
>  <Title>  (627) 
idAAWIgen7

$$$$

     RDKit          2D

116116  0  0  0  0  0  0  0  0999 V2000
   28.9576    0.0000    0.0000 C   0  0  0  0  0  0  0  0  0  0  0  0
   27.4576    0.0000    0.0000 C   0  0  0  0  0  0  0  0  0  0  0  0
   27.4167    1.4994    0.0000 C   0  0  0  0  0  0  0  0  0  0  0  0
   27.2939    2.9944    0.0000 C   0  0  0  0  0  0  0  0  0  0  0  0
   27.0896    4.4804    0.0000 C   0  0  0  0  0  0  0  0  0  0  0  0
   26.8045    5.9531    0.0000 C   0  0  0  0  0  0  0  0  0  0  0  0
   26.4394    7.4080    0.0000 C   0  0  0  0  0  0  0  0  0  0  0  0
   25.9954    8.8408    0.0000 C   0  0  0  0  0  0  0  0  0  0  0  0
   25.4739   10.2472    0.0000 C   0  0  0  0  0  0  0  0  0  0  0  0
   24.8763   11.6230    0.0000 C   0  0  0  0  0  0  0  0  0  0  0  0
   24.2044   12.9641    0.0000 C   0  0  0  0  0  0  0  0  0  0  0  0
   23.4603   14.2666    0.0000 C   0  0  0  0  0  0  0  0  0  0  0  0
   22.6463   15.5264    0.0000 C   0  0  0  0  0  0  0  0  0  0  0  0
   21.7646   16.7399    0.0000 C   0  0  0  0  0  0  0  0  0  0  0  0
   20.8179   17.9035    0.0000 C   0  0  0  0  0  0  0  0  0  0  0  0
   19.8092   19.0136    0.0000 C   0  0  0  0  0  0  0  0  0  0  0  0
   18.7413   20.0670    0.0000 C   0  0  0  0  0  0  0  0  0  0  0  0
   17.6175   21.0605    0.0000 C   0  0  0  0  0  0  0  0  0  0  0  0
   16.4411   21.9912    0.0000 C   0  0  0  0  0  0  0  0  0  0  0  0
   15.2156   22.8562    0.0000 C   0  0  0  0  0  0  0  0  0  0  0  0
   13.9448   23.6530    0.0000 C   0  0  0  0  0  0  0  0  0  0  0  0
   12.6323   24.3792    0.0000 C   0  0  0  0  0  0  0  0  0  0  0  0
   11.2821   25.0327    0.0000 C   0  0  0  0  0  0  0  0  0  0  0  0
    9.8983   25.6115    0.0000 C   0  0  0  0  0  0  0  0  0  0  0  0
    8.4849   26.1138    0.0000 C   0  0  0  0  0  0  0  0  0  0  0  0
    7.0462   26.5382    0.0000 C   0  0  0  0  0  0  0  0  0  0  0  0
    5.5864   26.8833    0.0000 C   0  0  0  0  0  0  0  0  0  0  0  0
    4.1100   27.1483    0.0000 C   0  0  0  0  0  0  0  0  0  0  0  0
    2.6213   27.3322    0.0000 C   0  0  0  0  0  0  0  0  0  0  0  0
    1.1248   27.4346    0.0000 C   0  0  0  0  0  0  0  0  0  0  0  0
   -0.3750   27.4551    0.0000 C   0  0  0  0  0  0  0  0  0  0  0  0
   -1.8738   27.3936    0.0000 C   0  0  0  0  0  0  0  0  0  0  0  0
   -3.3669   27.2504    0.0000 C   0  0  0  0  0  0  0  0  0  0  0  0
   -4.8500   27.0259    0.0000 C   0  0  0  0  0  0  0  0  0  0  0  0
   -6.3187   26.7207    0.0000 C   0  0  0  0  0  0  0  0  0  0  0  0
   -7.7684   26.3358    0.0000 C   0  0  0  0  0  0  0  0  0  0  0  0
   -9.1950   25.8723    0.0000 C   0  0  0  0  0  0  0  0  0  0  0  0
  -10.5941   25.3315    0.0000 C   0  0  0  0  0  0  0  0  0  0  0  0
  -11.9617   24.7152    0.0000 C   0  0  0  0  0  0  0  0  0  0  0  0
  -13.2935   24.0251    0.0000 C   0  0  0  0  0  0  0  0  0  0  0  0
  -14.5857   23.2633    0.0000 C   0  0  0  0  0  0  0  0  0  0  0  0
  -15.8343   22.4321    0.0000 C   0  0  0  0  0  0  0  0  0  0  0  0
  -17.0357   21.5339    0.0000 C   0  0  0  0  0  0  0  0  0  0  0  0
  -18.1862   20.5715    0.0000 C   0  0  0  0  0  0  0  0  0  0  0  0
  -19.2824   19.5476    0.0000 C   0  0  0  0  0  0  0  0  0  0  0  0
  -20.3211   18.4655    0.0000 C   0  0  0  0  0  0  0  0  0  0  0  0
  -21.2992   17.3282    0.0000 C   0  0  0  0  0  0  0  0  0  0  0  0
  -22.2137   16.1392    0.0000 C   0  0  0  0  0  0  0  0  0  0  0  0
  -23.0619   14.9020    0.0000 C   0  0  0  0  0  0  0  0  0  0  0  0
  -23.8413   13.6204    0.0000 C   0  0  0  0  0  0  0  0  0  0  0  0
  -24.5495   12.2981    0.0000 C   0  0  0  0  0  0  0  0  0  0  0  0
  -25.1845   10.9392    0.0000 C   0  0  0  0  0  0  0  0  0  0  0  0
  -25.7443    9.5475    0.0000 C   0  0  0  0  0  0  0  0  0  0  0  0
  -26.2272    8.1274    0.0000 C   0  0  0  0  0  0  0  0  0  0  0  0
  -26.6319    6.6830    0.0000 C   0  0  0  0  0  0  0  0  0  0  0  0
  -26.9571    5.2187    0.0000 C   0  0  0  0  0  0  0  0  0  0  0  0
  -27.2019    3.7388    0.0000 C   0  0  0  0  0  0  0  0  0  0  0  0
  -27.3655    2.2478    0.0000 C   0  0  0  0  0  0  0  0  0  0  0  0
  -27.4474    0.7500    0.0000 C   0  0  0  0  0  0  0  0  0  0  0  0
  -27.4474   -0.7500    0.0000 C   0  0  0  0  0  0  0  0  0  0  0  0
  -27.3655   -2.2478    0.0000 C   0  0  0  0  0  0  0  0  0  0  0  0
  -27.2019   -3.7388    0.0000 C   0  0  0  0  0  0  0  0  0  0  0  0
  -26.9571   -5.2187    0.0000 C   0  0  0  0  0  0  0  0  0  0  0  0
  -26.6319   -6.6830    0.0000 C   0  0  0  0  0  0  0  0  0  0  0  0
  -26.2272   -8.1274    0.0000 C   0  0  0  0  0  0  0  0  0  0  0  0
  -25.7443   -9.5475    0.0000 C   0  0  0  0  0  0  0  0  0  0  0  0
  -25.1845  -10.9392    0.0000 C   0  0  0  0  0  0  0  0  0  0  0  0
  -24.5495  -12.2981    0.0000 C   0  0  0  0  0  0  0  0  0  0  0  0
  -23.8413  -13.6204    0.0000 C   0  0  0  0  0  0  0  0  0  0  0  0
  -23.0619  -14.9020    0.0000 C   0  0  0  0  0  0  0  0  0  0  0  0
  -22.2137  -16.1392    0.0000 C   0  0  0  0  0  0  0  0  0  0  0  0
  -21.2992  -17.3282    0.0000 C   0  0  0  0  0  0  0  0  0  0  0  0
  -20.3211  -18.4655    0.0000 C   0  0  0  0  0  0  0  0  0  0  0  0
  -19.2824  -19.5476    0.0000 C   0  0  0  0  0  0  0  0  0  0  0  0
  -18.1862  -20.5715    0.0000 C   0  0  0  0  0  0  0  0  0  0  0  0
  -17.0357  -21.5339    0.0000 C   0  0  0  0  0  0  0  0  0  0  0  0
  -15.8343  -22.4321    0.0000 C   0  0  0  0  0  0  0  0  0  0  0  0
  -14.5857  -23.2633    0.0000 C   0  0  0  0  0  0  0  0  0  0  0  0
  -13.2935  -24.0251    0.0000 C   0  0  0  0  0  0  0  0  0  0  0  0
  -11.9617  -24.7152    0.0000 C   0  0  0  0  0  0  0  0  0  0  0  0
  -10.5941  -25.3315    0.0000 C   0  0  0  0  0  0  0  0  0  0  0  0
   -9.1950  -25.8723    0.0000 C   0  0  0  0  0  0  0  0  0  0  0  0
   -7.7684  -26.3358    0.0000 C   0  0  0  0  0  0  0  0  0  0  0  0
   -6.3187  -26.7207    0.0000 C   0  0  0  0  0  0  0  0  0  0  0  0
   -4.8500  -27.0259    0.0000 C   0  0  0  0  0  0  0  0  0  0  0  0
   -3.3669  -27.2504    0.0000 C   0  0  0  0  0  0  0  0  0  0  0  0
   -1.8738  -27.3936    0.0000 C   0  0  0  0  0  0  0  0  0  0  0  0
   -0.3750  -27.4551    0.0000 C   0  0  0  0  0  0  0  0  0  0  0  0
    1.1248  -27.4346    0.0000 C   0  0  0  0  0  0  0  0  0  0  0  0
    2.6213  -27.3322    0.0000 C   0  0  0  0  0  0  0  0  0  0  0  0
    4.1100  -27.1483    0.0000 C   0  0  0  0  0  0  0  0  0  0  0  0
    5.5864  -26.8833    0.0000 C   0  0  0  0  0  0  0  0  0  0  0  0
    7.0462  -26.5382    0.0000 C   0  0  0  0  0  0  0  0  0  0  0  0
    8.4849  -26.1138    0.0000 C   0  0  0  0  0  0  0  0  0  0  0  0
    9.8983  -25.6115    0.0000 C   0  0  0  0  0  0  0  0  0  0  0  0
   11.2821  -25.0327    0.0000 C   0  0  0  0  0  0  0  0  0  0  0  0
   12.6323  -24.3792    0.0000 C   0  0  0  0  0  0  0  0  0  0  0  0
   13.9448  -23.6530    0.0000 C   0  0  0  0  0  0  0  0  0  0  0  0
   15.2156  -22.8562    0.0000 C   0  0  0  0  0  0  0  0  0  0  0  0
   16.4411  -21.9912    0.0000 C   0  0  0  0  0  0  0  0  0  0  0  0
   17.6175  -21.0605    0.0000 C   0  0  0  0  0  0  0  0  0  0  0  0
   18.7413  -20.0670    0.0000 C   0  0  0  0  0  0  0  0  0  0  0  0
   19.8092  -19.0136    0.0000 C   0  0  0  0  0  0  0  0  0  0  0  0
   20.8179  -17.9035    0.0000 C   0  0  0  0  0  0  0  0  0  0  0  0
   21.7646  -16.7399    0.0000 C   0  0  0  0  0  0  0  0  0  0  0  0
   22.6463  -15.5264    0.0000 C   0  0  0  0  0  0  0  0  0  0  0  0
   23.4603  -14.2666    0.0000 C   0  0  0  0  0  0  0  0  0  0  0  0
   24.2044  -12.9641    0.0000 C   0  0  0  0  0  0  0  0  0  0  0  0
   24.8763  -11.6230    0.0000 C   0  0  0  0  0  0  0  0  0  0  0  0
   25.4739  -10.2472    0.0000 C   0  0  0  0  0  0  0  0  0  0  0  0
   25.9954   -8.8408    0.0000 C   0  0  0  0  0  0  0  0  0  0  0  0
   26.4394   -7.4080    0.0000 C   0  0  0  0  0  0  0  0  0  0  0  0
   26.8045   -5.9531    0.0000 C   0  0  0  0  0  0  0  0  0  0  0  0
   27.0896   -4.4804    0.0000 C   0  0  0  0  0  0  0  0  0  0  0  0
   27.2939   -2.9944    0.0000 C   0  0  0  0  0  0  0  0  0  0  0  0
   27.4167   -1.4994    0.0000 C   0  0  0  0  0  0  0  0  0  0  0  0
  1  2  1  0
  2  3  1  0
  3  4  1  0
  4  5  1  0
  5  6  1  0
  6  7  1  0
  7  8  1  0
  8  9  1  0
  9 10  1  0
 10 11  1  0
 11 12  1  0
 12 13  1  0
 13 14  1  0
 14 15  1  0
 15 16  1  0
 16 17  1  0
 17 18  1  0
 18 19  1  0
 19 20  1  0
 20 21  1  0
 21 22  1  0
 22 23  1  0
 23 24  1  0
 24 25  1  0
 25 26  1  0
 26 27  1  0
 27 28  1  0
 28 29  1  0
 29 30  1  0
 30 31  1  0
 31 32  1  0
 32 33  1  0
 33 34  1  0
 34 35  1  0
 35 36  1  0
 36 37  1  0
 37 38  1  0
 38 39  1  0
 39 40  1  0
 40 41  1  0
 41 42  1  0
 42 43  1  0
 43 44  1  0
 44 45  1  0
 45 46  1  0
 46 47  1  0
 47 48  1  0
 48 49  1  0
 49 50  1  0
 50 51  1  0
 51 52  1  0
 52 53  1  0
 53 54  1  0
 54 55  1  0
 55 56  1  0
 56 57  1  0
 57 58  1  0
 58 59  1  0
 59 60  1  0
 60 61  1  0
 61 62  1  0
 62 63  1  0
 63 64  1  0
 64 65  1  0
 65 66  1  0
 66 67  1  0
 67 68  1  0
 68 69  1  0
 69 70  1  0
 70 71  1  0
 71 72  1  0
 72 73  1  0
 73 74  1  0
 74 75  1  0
 75 76  1  0
 76 77  1  0
 77 78  1  0
 78 79  1  0
 79 80  1  0
 80 81  1  0
 81 82  1  0
 82 83  1  0
 83 84  1  0
 84 85  1  0
 85 86  1  0
 86 87  1  0
 87 88  1  0
 88 89  1  0
 89 90  1  0
 90 91  1  0
 91 92  1  0
 92 93  1  0
 93 94  1  0
 94 95  1  0
 95 96  1  0
 96 97  1  0
 97 98  1  0
 98 99  1  0
 99100  1  0
100101  1  0
101102  1  0
102103  1  0
103104  1  0
104105  1  0
105106  1  0
106107  1  0
107108  1  0
108109  1  0
109110  1  0
110111  1  0
111112  1  0
112113  1  0
113114  1  0
114115  1  0
115116  1  0
116  2  1  0
M  END
>  <Title>  (628) 
idAAWJgen7

$$$$

     RDKit          2D

 18 18  0  0  0  0  0  0  0  0999 V2000
    4.3191    0.0000    0.0000 C   0  0  0  0  0  0  0  0  0  0  0  0
    4.0586   -1.4772    0.0000 C   0  0  0  0  0  0  0  0  0  0  0  0
    3.3086   -2.7762    0.0000 C   0  0  0  0  0  0  0  0  0  0  0  0
    2.1595   -3.7404    0.0000 C   0  0  0  0  0  0  0  0  0  0  0  0
    0.7500   -4.2535    0.0000 C   0  0  0  0  0  0  0  0  0  0  0  0
   -0.7500   -4.2535    0.0000 C   0  0  0  0  0  0  0  0  0  0  0  0
   -2.1595   -3.7404    0.0000 C   0  0  0  0  0  0  0  0  0  0  0  0
   -3.3086   -2.7762    0.0000 C   0  0  0  0  0  0  0  0  0  0  0  0
   -4.0586   -1.4772    0.0000 C   0  0  0  0  0  0  0  0  0  0  0  0
   -4.3191    0.0000    0.0000 C   0  0  0  0  0  0  0  0  0  0  0  0
   -4.0586    1.4772    0.0000 C   0  0  0  0  0  0  0  0  0  0  0  0
   -3.3086    2.7762    0.0000 C   0  0  0  0  0  0  0  0  0  0  0  0
   -2.1595    3.7404    0.0000 C   0  0  0  0  0  0  0  0  0  0  0  0
   -0.7500    4.2535    0.0000 C   0  0  0  0  0  0  0  0  0  0  0  0
    0.7500    4.2535    0.0000 C   0  0  0  0  0  0  0  0  0  0  0  0
    2.1595    3.7404    0.0000 C   0  0  0  0  0  0  0  0  0  0  0  0
    3.3086    2.7762    0.0000 C   0  0  0  0  0  0  0  0  0  0  0  0
    4.0586    1.4772    0.0000 C   0  0  0  0  0  0  0  0  0  0  0  0
  1  2  1  0
  2  3  1  0
  3  4  1  0
  4  5  1  0
  5  6  1  0
  6  7  1  0
  7  8  1  0
  8  9  1  0
  9 10  1  0
 10 11  1  0
 11 12  1  0
 12 13  1  0
 13 14  1  0
 14 15  1  0
 15 16  1  0
 16 17  1  0
 17 18  1  0
 18  1  1  0
M  END
>  <Title>  (629) 
idAAWKgen7

$$$$

     RDKit          2D

 15 16  0  0  0  0  0  0  0  0999 V2000
    1.8478   -9.0619    0.0000 C   0  0  0  0  0  0  0  0  0  0  0  0
    2.0046   -7.5702    0.0000 C   0  0  0  0  0  0  0  0  0  0  0  0
    3.3037   -6.8202    0.0000 C   0  0  0  0  0  0  0  0  0  0  0  0
    2.9918   -5.3529    0.0000 C   0  0  0  0  0  0  0  0  0  0  0  0
    1.5000   -5.1962    0.0000 C   0  0  0  0  0  0  0  0  0  0  0  0
    0.7500   -3.8971    0.0000 C   0  0  0  0  0  0  0  0  0  0  0  0
   -0.7500   -3.8971    0.0000 O   0  0  0  0  0  0  0  0  0  0  0  0
    1.5000   -2.5981    0.0000 N   0  0  0  0  0  0  0  0  0  0  0  0
    0.7500   -1.2990    0.0000 C   0  0  0  0  0  0  0  0  0  0  0  0
    1.5000    0.0000    0.0000 N   0  0  0  0  0  0  0  0  0  0  0  0
    0.7500    1.2990    0.0000 N   0  0  0  0  0  0  0  0  0  0  0  0
   -0.7500    1.2990    0.0000 N   0  0  0  0  0  0  0  0  0  0  0  0
   -1.5000    0.0000    0.0000 N   0  0  0  0  0  0  0  0  0  0  0  0
   -0.7500   -1.2990    0.0000 N   0  0  0  0  0  0  0  0  0  0  0  0
    0.8899   -6.5665    0.0000 C   0  0  0  0  0  0  0  0  0  0  0  0
  1  2  1  0
  2  3  1  0
  3  4  2  0
  4  5  1  0
  5  6  1  0
  6  7  2  0
  6  8  1  0
  8  9  1  0
  9 10  2  0
 10 11  1  0
 11 12  2  0
 12 13  1  0
 13 14  2  0
  5 15  1  0
 15  2  1  0
 14  9  1  0
M  END
>  <Title>  (630) 
idAAWLgen7

$$$$

     RDKit          2D

 48 48  0  0  0  0  0  0  0  0999 V2000
   12.7288    0.0000    0.0000 C   0  0  0  0  0  0  0  0  0  0  0  0
   11.2288    0.0000    0.0000 C   0  0  0  0  0  0  0  0  0  0  0  0
   11.1286    1.4967    0.0000 C   0  0  0  0  0  0  0  0  0  0  0  0
   10.8298    2.9666    0.0000 C   0  0  0  0  0  0  0  0  0  0  0  0
   10.3378    4.3836    0.0000 C   0  0  0  0  0  0  0  0  0  0  0  0
    9.6613    5.7224    0.0000 C   0  0  0  0  0  0  0  0  0  0  0  0
    8.8123    6.9590    0.0000 C   0  0  0  0  0  0  0  0  0  0  0  0
    7.8062    8.0715    0.0000 C   0  0  0  0  0  0  0  0  0  0  0  0
    6.6607    9.0400    0.0000 C   0  0  0  0  0  0  0  0  0  0  0  0
    5.3963    9.8471    0.0000 C   0  0  0  0  0  0  0  0  0  0  0  0
    4.0357   10.4785    0.0000 C   0  0  0  0  0  0  0  0  0  0  0  0
    2.6031   10.9229    0.0000 C   0  0  0  0  0  0  0  0  0  0  0  0
    1.1240   11.1724    0.0000 C   0  0  0  0  0  0  0  0  0  0  0  0
   -0.3752   11.2225    0.0000 C   0  0  0  0  0  0  0  0  0  0  0  0
   -1.8677   11.0724    0.0000 C   0  0  0  0  0  0  0  0  0  0  0  0
   -3.3268   10.7246    0.0000 C   0  0  0  0  0  0  0  0  0  0  0  0
   -4.7266   10.1855    0.0000 C   0  0  0  0  0  0  0  0  0  0  0  0
   -6.0420    9.4647    0.0000 C   0  0  0  0  0  0  0  0  0  0  0  0
   -7.2496    8.5749    0.0000 C   0  0  0  0  0  0  0  0  0  0  0  0
   -8.3279    7.5321    0.0000 C   0  0  0  0  0  0  0  0  0  0  0  0
   -9.2575    6.3549    0.0000 C   0  0  0  0  0  0  0  0  0  0  0  0
  -10.0219    5.0643    0.0000 C   0  0  0  0  0  0  0  0  0  0  0  0
  -10.6075    3.6833    0.0000 C   0  0  0  0  0  0  0  0  0  0  0  0
  -11.0038    2.2366    0.0000 C   0  0  0  0  0  0  0  0  0  0  0  0
  -11.2037    0.7500    0.0000 C   0  0  0  0  0  0  0  0  0  0  0  0
  -11.2037   -0.7500    0.0000 C   0  0  0  0  0  0  0  0  0  0  0  0
  -11.0038   -2.2366    0.0000 C   0  0  0  0  0  0  0  0  0  0  0  0
  -10.6075   -3.6833    0.0000 C   0  0  0  0  0  0  0  0  0  0  0  0
  -10.0219   -5.0643    0.0000 C   0  0  0  0  0  0  0  0  0  0  0  0
   -9.2575   -6.3549    0.0000 C   0  0  0  0  0  0  0  0  0  0  0  0
   -8.3279   -7.5321    0.0000 C   0  0  0  0  0  0  0  0  0  0  0  0
   -7.2496   -8.5749    0.0000 C   0  0  0  0  0  0  0  0  0  0  0  0
   -6.0420   -9.4647    0.0000 C   0  0  0  0  0  0  0  0  0  0  0  0
   -4.7266  -10.1855    0.0000 C   0  0  0  0  0  0  0  0  0  0  0  0
   -3.3268  -10.7246    0.0000 C   0  0  0  0  0  0  0  0  0  0  0  0
   -1.8677  -11.0724    0.0000 C   0  0  0  0  0  0  0  0  0  0  0  0
   -0.3752  -11.2225    0.0000 C   0  0  0  0  0  0  0  0  0  0  0  0
    1.1240  -11.1724    0.0000 C   0  0  0  0  0  0  0  0  0  0  0  0
    2.6031  -10.9229    0.0000 C   0  0  0  0  0  0  0  0  0  0  0  0
    4.0357  -10.4785    0.0000 C   0  0  0  0  0  0  0  0  0  0  0  0
    5.3963   -9.8471    0.0000 C   0  0  0  0  0  0  0  0  0  0  0  0
    6.6607   -9.0400    0.0000 C   0  0  0  0  0  0  0  0  0  0  0  0
    7.8062   -8.0715    0.0000 C   0  0  0  0  0  0  0  0  0  0  0  0
    8.8123   -6.9590    0.0000 C   0  0  0  0  0  0  0  0  0  0  0  0
    9.6613   -5.7224    0.0000 C   0  0  0  0  0  0  0  0  0  0  0  0
   10.3378   -4.3836    0.0000 C   0  0  0  0  0  0  0  0  0  0  0  0
   10.8298   -2.9666    0.0000 C   0  0  0  0  0  0  0  0  0  0  0  0
   11.1286   -1.4967    0.0000 C   0  0  0  0  0  0  0  0  0  0  0  0
  1  2  1  0
  2  3  1  0
  3  4  1  0
  4  5  1  0
  5  6  1  0
  6  7  1  0
  7  8  1  0
  8  9  1  0
  9 10  1  0
 10 11  1  0
 11 12  1  0
 12 13  1  0
 13 14  1  0
 14 15  1  0
 15 16  1  0
 16 17  1  0
 17 18  1  0
 18 19  1  0
 19 20  1  0
 20 21  1  0
 21 22  1  0
 22 23  1  0
 23 24  1  0
 24 25  1  0
 25 26  1  0
 26 27  1  0
 27 28  1  0
 28 29  1  0
 29 30  1  0
 30 31  1  0
 31 32  1  0
 32 33  1  0
 33 34  1  0
 34 35  1  0
 35 36  1  0
 36 37  1  0
 37 38  1  0
 38 39  1  0
 39 40  1  0
 40 41  1  0
 41 42  1  0
 42 43  1  0
 43 44  1  0
 44 45  1  0
 45 46  1  0
 46 47  1  0
 47 48  1  0
 48  2  1  0
M  END
>  <Title>  (631) 
idAAWMgen7

$$$$

     RDKit          2D

 13 13  0  0  0  0  0  0  0  0999 V2000
    4.3978    0.0000    0.0000 C   0  0  0  0  0  0  0  0  0  0  0  0
    2.8978    0.0000    0.0000 C   0  0  0  0  0  0  0  0  0  0  0  0
    2.5095   -1.4489    0.0000 C   0  0  0  0  0  0  0  0  0  0  0  0
    1.4489   -2.5095    0.0000 C   0  0  0  0  0  0  0  0  0  0  0  0
   -0.0000   -2.8978    0.0000 C   0  0  0  0  0  0  0  0  0  0  0  0
   -1.4489   -2.5095    0.0000 C   0  0  0  0  0  0  0  0  0  0  0  0
   -2.5095   -1.4489    0.0000 C   0  0  0  0  0  0  0  0  0  0  0  0
   -2.8978    0.0000    0.0000 C   0  0  0  0  0  0  0  0  0  0  0  0
   -2.5095    1.4489    0.0000 C   0  0  0  0  0  0  0  0  0  0  0  0
   -1.4489    2.5095    0.0000 C   0  0  0  0  0  0  0  0  0  0  0  0
    0.0000    2.8978    0.0000 C   0  0  0  0  0  0  0  0  0  0  0  0
    1.4489    2.5095    0.0000 C   0  0  0  0  0  0  0  0  0  0  0  0
    2.5095    1.4489    0.0000 C   0  0  0  0  0  0  0  0  0  0  0  0
  1  2  1  0
  2  3  2  0
  3  4  1  0
  4  5  2  0
  5  6  1  0
  6  7  2  0
  7  8  1  0
  8  9  2  0
  9 10  1  0
 10 11  2  0
 11 12  1  0
 12 13  2  0
 13  2  1  0
M  END
>  <Title>  (632) 
idAAWNgen7

$$$$

     RDKit          2D

  8  8  0  0  0  0  0  0  0  0999 V2000
    3.0000    0.0000    0.0000 C   0  0  0  0  0  0  0  0  0  0  0  0
    1.5000    0.0000    0.0000 C   0  0  0  0  0  0  0  0  0  0  0  0
    0.7500   -1.2990    0.0000 C   0  0  0  0  0  0  0  0  0  0  0  0
   -0.7500   -1.2990    0.0000 C   0  0  0  0  0  0  0  0  0  0  0  0
   -1.5000    0.0000    0.0000 C   0  0  0  0  0  0  0  0  0  0  0  0
   -0.7500    1.2990    0.0000 C   0  0  0  0  0  0  0  0  0  0  0  0
    0.7500    1.2990    0.0000 C   0  0  0  0  0  0  0  0  0  0  0  0
    1.5000    2.5981    0.0000 C   0  0  0  0  0  0  0  0  0  0  0  0
  1  2  1  0
  2  3  1  0
  3  4  1  0
  4  5  1  0
  5  6  1  0
  6  7  1  0
  7  8  1  0
  7  2  1  0
M  END
>  <Title>  (633) 
idAAWOgen7

$$$$

     RDKit          2D

 82 82  0  0  0  0  0  0  0  0999 V2000
   20.8422    0.0000    0.0000 C   0  0  0  0  0  0  0  0  0  0  0  0
   19.3422    0.0000    0.0000 C   0  0  0  0  0  0  0  0  0  0  0  0
   19.2840    1.4989    0.0000 C   0  0  0  0  0  0  0  0  0  0  0  0
   19.1099    2.9887    0.0000 C   0  0  0  0  0  0  0  0  0  0  0  0
   18.8208    4.4606    0.0000 C   0  0  0  0  0  0  0  0  0  0  0  0
   18.4185    5.9057    0.0000 C   0  0  0  0  0  0  0  0  0  0  0  0
   17.9055    7.3152    0.0000 C   0  0  0  0  0  0  0  0  0  0  0  0
   17.2848    8.6808    0.0000 C   0  0  0  0  0  0  0  0  0  0  0  0
   16.5601    9.9941    0.0000 C   0  0  0  0  0  0  0  0  0  0  0  0
   15.7359   11.2473    0.0000 C   0  0  0  0  0  0  0  0  0  0  0  0
   14.8170   12.4329    0.0000 C   0  0  0  0  0  0  0  0  0  0  0  0
   13.8090   13.5437    0.0000 C   0  0  0  0  0  0  0  0  0  0  0  0
   12.7179   14.5731    0.0000 C   0  0  0  0  0  0  0  0  0  0  0  0
   11.5503   15.5148    0.0000 C   0  0  0  0  0  0  0  0  0  0  0  0
   10.3133   16.3632    0.0000 C   0  0  0  0  0  0  0  0  0  0  0  0
    9.0143   17.1132    0.0000 C   0  0  0  0  0  0  0  0  0  0  0  0
    7.6610   17.7603    0.0000 C   0  0  0  0  0  0  0  0  0  0  0  0
    6.2617   18.3006    0.0000 C   0  0  0  0  0  0  0  0  0  0  0  0
    4.8247   18.7308    0.0000 C   0  0  0  0  0  0  0  0  0  0  0  0
    3.3587   19.0483    0.0000 C   0  0  0  0  0  0  0  0  0  0  0  0
    1.8725   19.2513    0.0000 C   0  0  0  0  0  0  0  0  0  0  0  0
    0.3751   19.3385    0.0000 C   0  0  0  0  0  0  0  0  0  0  0  0
   -1.1246   19.3095    0.0000 C   0  0  0  0  0  0  0  0  0  0  0  0
   -2.6176   19.1642    0.0000 C   0  0  0  0  0  0  0  0  0  0  0  0
   -4.0948   18.9038    0.0000 C   0  0  0  0  0  0  0  0  0  0  0  0
   -5.5474   18.5296    0.0000 C   0  0  0  0  0  0  0  0  0  0  0  0
   -6.9666   18.0440    0.0000 C   0  0  0  0  0  0  0  0  0  0  0  0
   -8.3439   17.4499    0.0000 C   0  0  0  0  0  0  0  0  0  0  0  0
   -9.6711   16.7508    0.0000 C   0  0  0  0  0  0  0  0  0  0  0  0
  -10.9401   15.9510    0.0000 C   0  0  0  0  0  0  0  0  0  0  0  0
  -12.1433   15.0553    0.0000 C   0  0  0  0  0  0  0  0  0  0  0  0
  -13.2734   14.0690    0.0000 C   0  0  0  0  0  0  0  0  0  0  0  0
  -14.3237   12.9981    0.0000 C   0  0  0  0  0  0  0  0  0  0  0  0
  -15.2879   11.8490    0.0000 C   0  0  0  0  0  0  0  0  0  0  0  0
  -16.1602   10.6287    0.0000 C   0  0  0  0  0  0  0  0  0  0  0  0
  -16.9352    9.3444    0.0000 C   0  0  0  0  0  0  0  0  0  0  0  0
  -17.6084    8.0040    0.0000 C   0  0  0  0  0  0  0  0  0  0  0  0
  -18.1757    6.6154    0.0000 C   0  0  0  0  0  0  0  0  0  0  0  0
  -18.6337    5.1870    0.0000 C   0  0  0  0  0  0  0  0  0  0  0  0
  -18.9796    3.7275    0.0000 C   0  0  0  0  0  0  0  0  0  0  0  0
  -19.2114    2.2455    0.0000 C   0  0  0  0  0  0  0  0  0  0  0  0
  -19.3276    0.7500    0.0000 C   0  0  0  0  0  0  0  0  0  0  0  0
  -19.3276   -0.7500    0.0000 C   0  0  0  0  0  0  0  0  0  0  0  0
  -19.2114   -2.2455    0.0000 C   0  0  0  0  0  0  0  0  0  0  0  0
  -18.9796   -3.7275    0.0000 C   0  0  0  0  0  0  0  0  0  0  0  0
  -18.6337   -5.1870    0.0000 C   0  0  0  0  0  0  0  0  0  0  0  0
  -18.1757   -6.6154    0.0000 C   0  0  0  0  0  0  0  0  0  0  0  0
  -17.6084   -8.0040    0.0000 C   0  0  0  0  0  0  0  0  0  0  0  0
  -16.9352   -9.3444    0.0000 C   0  0  0  0  0  0  0  0  0  0  0  0
  -16.1602  -10.6287    0.0000 C   0  0  0  0  0  0  0  0  0  0  0  0
  -15.2879  -11.8490    0.0000 C   0  0  0  0  0  0  0  0  0  0  0  0
  -14.3237  -12.9981    0.0000 C   0  0  0  0  0  0  0  0  0  0  0  0
  -13.2734  -14.0690    0.0000 C   0  0  0  0  0  0  0  0  0  0  0  0
  -12.1433  -15.0553    0.0000 C   0  0  0  0  0  0  0  0  0  0  0  0
  -10.9401  -15.9510    0.0000 C   0  0  0  0  0  0  0  0  0  0  0  0
   -9.6711  -16.7508    0.0000 C   0  0  0  0  0  0  0  0  0  0  0  0
   -8.3439  -17.4499    0.0000 C   0  0  0  0  0  0  0  0  0  0  0  0
   -6.9666  -18.0440    0.0000 C   0  0  0  0  0  0  0  0  0  0  0  0
   -5.5474  -18.5296    0.0000 C   0  0  0  0  0  0  0  0  0  0  0  0
   -4.0948  -18.9038    0.0000 C   0  0  0  0  0  0  0  0  0  0  0  0
   -2.6176  -19.1642    0.0000 C   0  0  0  0  0  0  0  0  0  0  0  0
   -1.1246  -19.3095    0.0000 C   0  0  0  0  0  0  0  0  0  0  0  0
    0.3751  -19.3385    0.0000 C   0  0  0  0  0  0  0  0  0  0  0  0
    1.8725  -19.2513    0.0000 C   0  0  0  0  0  0  0  0  0  0  0  0
    3.3587  -19.0483    0.0000 C   0  0  0  0  0  0  0  0  0  0  0  0
    4.8247  -18.7308    0.0000 C   0  0  0  0  0  0  0  0  0  0  0  0
    6.2617  -18.3006    0.0000 C   0  0  0  0  0  0  0  0  0  0  0  0
    7.6610  -17.7603    0.0000 C   0  0  0  0  0  0  0  0  0  0  0  0
    9.0143  -17.1132    0.0000 C   0  0  0  0  0  0  0  0  0  0  0  0
   10.3133  -16.3632    0.0000 C   0  0  0  0  0  0  0  0  0  0  0  0
   11.5503  -15.5148    0.0000 C   0  0  0  0  0  0  0  0  0  0  0  0
   12.7179  -14.5731    0.0000 C   0  0  0  0  0  0  0  0  0  0  0  0
   13.8090  -13.5437    0.0000 C   0  0  0  0  0  0  0  0  0  0  0  0
   14.8170  -12.4329    0.0000 C   0  0  0  0  0  0  0  0  0  0  0  0
   15.7359  -11.2473    0.0000 C   0  0  0  0  0  0  0  0  0  0  0  0
   16.5601   -9.9941    0.0000 C   0  0  0  0  0  0  0  0  0  0  0  0
   17.2848   -8.6808    0.0000 C   0  0  0  0  0  0  0  0  0  0  0  0
   17.9055   -7.3152    0.0000 C   0  0  0  0  0  0  0  0  0  0  0  0
   18.4185   -5.9057    0.0000 C   0  0  0  0  0  0  0  0  0  0  0  0
   18.8208   -4.4606    0.0000 C   0  0  0  0  0  0  0  0  0  0  0  0
   19.1099   -2.9887    0.0000 C   0  0  0  0  0  0  0  0  0  0  0  0
   19.2840   -1.4989    0.0000 C   0  0  0  0  0  0  0  0  0  0  0  0
  1  2  1  0
  2  3  1  0
  3  4  1  0
  4  5  1  0
  5  6  1  0
  6  7  1  0
  7  8  1  0
  8  9  1  0
  9 10  1  0
 10 11  1  0
 11 12  1  0
 12 13  1  0
 13 14  1  0
 14 15  1  0
 15 16  1  0
 16 17  1  0
 17 18  1  0
 18 19  1  0
 19 20  1  0
 20 21  1  0
 21 22  1  0
 22 23  1  0
 23 24  1  0
 24 25  1  0
 25 26  1  0
 26 27  1  0
 27 28  1  0
 28 29  1  0
 29 30  1  0
 30 31  1  0
 31 32  1  0
 32 33  1  0
 33 34  1  0
 34 35  1  0
 35 36  1  0
 36 37  1  0
 37 38  1  0
 38 39  1  0
 39 40  1  0
 40 41  1  0
 41 42  1  0
 42 43  1  0
 43 44  1  0
 44 45  1  0
 45 46  1  0
 46 47  1  0
 47 48  1  0
 48 49  1  0
 49 50  1  0
 50 51  1  0
 51 52  1  0
 52 53  1  0
 53 54  1  0
 54 55  1  0
 55 56  1  0
 56 57  1  0
 57 58  1  0
 58 59  1  0
 59 60  1  0
 60 61  1  0
 61 62  1  0
 62 63  1  0
 63 64  1  0
 64 65  1  0
 65 66  1  0
 66 67  1  0
 67 68  1  0
 68 69  1  0
 69 70  1  0
 70 71  1  0
 71 72  1  0
 72 73  1  0
 73 74  1  0
 74 75  1  0
 75 76  1  0
 76 77  1  0
 77 78  1  0
 78 79  1  0
 79 80  1  0
 80 81  1  0
 81 82  1  0
 82  2  1  0
M  END
>  <Title>  (634) 
idAAWPgen7

$$$$

     RDKit          2D

 91 91  0  0  0  0  0  0  0  0999 V2000
   22.9903   -0.0000    0.0000 C   0  0  0  0  0  0  0  0  0  0  0  0
   21.4903    0.0000    0.0000 C   0  0  0  0  0  0  0  0  0  0  0  0
   21.4379   -1.4991    0.0000 C   0  0  0  0  0  0  0  0  0  0  0  0
   21.2811   -2.9909    0.0000 C   0  0  0  0  0  0  0  0  0  0  0  0
   21.0207   -4.4681    0.0000 C   0  0  0  0  0  0  0  0  0  0  0  0
   20.6578   -5.9235    0.0000 C   0  0  0  0  0  0  0  0  0  0  0  0
   20.1943   -7.3501    0.0000 C   0  0  0  0  0  0  0  0  0  0  0  0
   19.6323   -8.7409    0.0000 C   0  0  0  0  0  0  0  0  0  0  0  0
   18.9748  -10.0891    0.0000 C   0  0  0  0  0  0  0  0  0  0  0  0
   18.2248  -11.3881    0.0000 C   0  0  0  0  0  0  0  0  0  0  0  0
   17.3860  -12.6317    0.0000 C   0  0  0  0  0  0  0  0  0  0  0  0
   16.4625  -13.8137    0.0000 C   0  0  0  0  0  0  0  0  0  0  0  0
   15.4588  -14.9284    0.0000 C   0  0  0  0  0  0  0  0  0  0  0  0
   14.3798  -15.9704    0.0000 C   0  0  0  0  0  0  0  0  0  0  0  0
   13.2307  -16.9346    0.0000 C   0  0  0  0  0  0  0  0  0  0  0  0
   12.0172  -17.8163    0.0000 C   0  0  0  0  0  0  0  0  0  0  0  0
   10.7451  -18.6111    0.0000 C   0  0  0  0  0  0  0  0  0  0  0  0
    9.4207  -19.3153    0.0000 C   0  0  0  0  0  0  0  0  0  0  0  0
    8.0504  -19.9254    0.0000 C   0  0  0  0  0  0  0  0  0  0  0  0
    6.6409  -20.4385    0.0000 C   0  0  0  0  0  0  0  0  0  0  0  0
    5.1990  -20.8519    0.0000 C   0  0  0  0  0  0  0  0  0  0  0  0
    3.7317  -21.1638    0.0000 C   0  0  0  0  0  0  0  0  0  0  0  0
    2.2463  -21.3726    0.0000 C   0  0  0  0  0  0  0  0  0  0  0  0
    0.7500  -21.4772    0.0000 C   0  0  0  0  0  0  0  0  0  0  0  0
   -0.7500  -21.4772    0.0000 C   0  0  0  0  0  0  0  0  0  0  0  0
   -2.2463  -21.3726    0.0000 C   0  0  0  0  0  0  0  0  0  0  0  0
   -3.7317  -21.1638    0.0000 C   0  0  0  0  0  0  0  0  0  0  0  0
   -5.1990  -20.8519    0.0000 C   0  0  0  0  0  0  0  0  0  0  0  0
   -6.6409  -20.4385    0.0000 C   0  0  0  0  0  0  0  0  0  0  0  0
   -8.0504  -19.9254    0.0000 C   0  0  0  0  0  0  0  0  0  0  0  0
   -9.4207  -19.3153    0.0000 C   0  0  0  0  0  0  0  0  0  0  0  0
  -10.7451  -18.6111    0.0000 C   0  0  0  0  0  0  0  0  0  0  0  0
  -12.0172  -17.8163    0.0000 C   0  0  0  0  0  0  0  0  0  0  0  0
  -13.2307  -16.9346    0.0000 C   0  0  0  0  0  0  0  0  0  0  0  0
  -14.3798  -15.9704    0.0000 C   0  0  0  0  0  0  0  0  0  0  0  0
  -15.4588  -14.9284    0.0000 C   0  0  0  0  0  0  0  0  0  0  0  0
  -16.4625  -13.8137    0.0000 C   0  0  0  0  0  0  0  0  0  0  0  0
  -17.3860  -12.6317    0.0000 C   0  0  0  0  0  0  0  0  0  0  0  0
  -18.2248  -11.3881    0.0000 C   0  0  0  0  0  0  0  0  0  0  0  0
  -18.9748  -10.0891    0.0000 C   0  0  0  0  0  0  0  0  0  0  0  0
  -19.6323   -8.7409    0.0000 C   0  0  0  0  0  0  0  0  0  0  0  0
  -20.1943   -7.3501    0.0000 C   0  0  0  0  0  0  0  0  0  0  0  0
  -20.6578   -5.9235    0.0000 C   0  0  0  0  0  0  0  0  0  0  0  0
  -21.0207   -4.4681    0.0000 C   0  0  0  0  0  0  0  0  0  0  0  0
  -21.2811   -2.9909    0.0000 C   0  0  0  0  0  0  0  0  0  0  0  0
  -21.4379   -1.4991    0.0000 C   0  0  0  0  0  0  0  0  0  0  0  0
  -21.4903    0.0000    0.0000 C   0  0  0  0  0  0  0  0  0  0  0  0
  -21.4379    1.4991    0.0000 C   0  0  0  0  0  0  0  0  0  0  0  0
  -21.2811    2.9909    0.0000 C   0  0  0  0  0  0  0  0  0  0  0  0
  -21.0207    4.4681    0.0000 C   0  0  0  0  0  0  0  0  0  0  0  0
  -20.6578    5.9235    0.0000 C   0  0  0  0  0  0  0  0  0  0  0  0
  -20.1943    7.3501    0.0000 C   0  0  0  0  0  0  0  0  0  0  0  0
  -19.6323    8.7409    0.0000 C   0  0  0  0  0  0  0  0  0  0  0  0
  -18.9748   10.0891    0.0000 C   0  0  0  0  0  0  0  0  0  0  0  0
  -18.2248   11.3881    0.0000 C   0  0  0  0  0  0  0  0  0  0  0  0
  -17.3860   12.6317    0.0000 C   0  0  0  0  0  0  0  0  0  0  0  0
  -16.4625   13.8137    0.0000 C   0  0  0  0  0  0  0  0  0  0  0  0
  -15.4588   14.9284    0.0000 C   0  0  0  0  0  0  0  0  0  0  0  0
  -14.3798   15.9704    0.0000 C   0  0  0  0  0  0  0  0  0  0  0  0
  -13.2307   16.9346    0.0000 C   0  0  0  0  0  0  0  0  0  0  0  0
  -12.0172   17.8163    0.0000 C   0  0  0  0  0  0  0  0  0  0  0  0
  -10.7451   18.6111    0.0000 C   0  0  0  0  0  0  0  0  0  0  0  0
   -9.4207   19.3153    0.0000 C   0  0  0  0  0  0  0  0  0  0  0  0
   -8.0504   19.9254    0.0000 C   0  0  0  0  0  0  0  0  0  0  0  0
   -6.6409   20.4385    0.0000 C   0  0  0  0  0  0  0  0  0  0  0  0
   -5.1990   20.8519    0.0000 C   0  0  0  0  0  0  0  0  0  0  0  0
   -3.7317   21.1638    0.0000 C   0  0  0  0  0  0  0  0  0  0  0  0
   -2.2463   21.3726    0.0000 C   0  0  0  0  0  0  0  0  0  0  0  0
   -0.7500   21.4772    0.0000 C   0  0  0  0  0  0  0  0  0  0  0  0
    0.7500   21.4772    0.0000 C   0  0  0  0  0  0  0  0  0  0  0  0
    2.2463   21.3726    0.0000 C   0  0  0  0  0  0  0  0  0  0  0  0
    3.7317   21.1638    0.0000 C   0  0  0  0  0  0  0  0  0  0  0  0
    5.1990   20.8519    0.0000 C   0  0  0  0  0  0  0  0  0  0  0  0
    6.6409   20.4385    0.0000 C   0  0  0  0  0  0  0  0  0  0  0  0
    8.0504   19.9254    0.0000 C   0  0  0  0  0  0  0  0  0  0  0  0
    9.4207   19.3153    0.0000 C   0  0  0  0  0  0  0  0  0  0  0  0
   10.7451   18.6111    0.0000 C   0  0  0  0  0  0  0  0  0  0  0  0
   12.0172   17.8163    0.0000 C   0  0  0  0  0  0  0  0  0  0  0  0
   13.2307   16.9346    0.0000 C   0  0  0  0  0  0  0  0  0  0  0  0
   14.3798   15.9704    0.0000 C   0  0  0  0  0  0  0  0  0  0  0  0
   15.4588   14.9284    0.0000 C   0  0  0  0  0  0  0  0  0  0  0  0
   16.4625   13.8137    0.0000 C   0  0  0  0  0  0  0  0  0  0  0  0
   17.3860   12.6317    0.0000 C   0  0  0  0  0  0  0  0  0  0  0  0
   18.2248   11.3881    0.0000 C   0  0  0  0  0  0  0  0  0  0  0  0
   18.9748   10.0891    0.0000 C   0  0  0  0  0  0  0  0  0  0  0  0
   19.6323    8.7409    0.0000 C   0  0  0  0  0  0  0  0  0  0  0  0
   20.1943    7.3501    0.0000 C   0  0  0  0  0  0  0  0  0  0  0  0
   20.6578    5.9235    0.0000 C   0  0  0  0  0  0  0  0  0  0  0  0
   21.0207    4.4681    0.0000 C   0  0  0  0  0  0  0  0  0  0  0  0
   21.2811    2.9909    0.0000 C   0  0  0  0  0  0  0  0  0  0  0  0
   21.4379    1.4991    0.0000 C   0  0  0  0  0  0  0  0  0  0  0  0
  1  2  1  0
  2  3  1  0
  3  4  2  0
  4  5  1  0
  5  6  2  0
  6  7  1  0
  7  8  2  0
  8  9  1  0
  9 10  2  0
 10 11  1  0
 11 12  2  0
 12 13  1  0
 13 14  2  0
 14 15  1  0
 15 16  2  0
 16 17  1  0
 17 18  2  0
 18 19  1  0
 19 20  2  0
 20 21  1  0
 21 22  1  0
 22 23  1  0
 23 24  1  0
 24 25  1  0
 25 26  1  0
 26 27  1  0
 27 28  1  0
 28 29  1  0
 29 30  1  0
 30 31  1  0
 31 32  1  0
 32 33  1  0
 33 34  1  0
 34 35  1  0
 35 36  1  0
 36 37  1  0
 37 38  1  0
 38 39  1  0
 39 40  1  0
 40 41  1  0
 41 42  1  0
 42 43  1  0
 43 44  1  0
 44 45  1  0
 45 46  1  0
 46 47  1  0
 47 48  1  0
 48 49  1  0
 49 50  1  0
 50 51  1  0
 51 52  1  0
 52 53  1  0
 53 54  1  0
 54 55  1  0
 55 56  1  0
 56 57  1  0
 57 58  1  0
 58 59  1  0
 59 60  1  0
 60 61  1  0
 61 62  1  0
 62 63  1  0
 63 64  1  0
 64 65  1  0
 65 66  1  0
 66 67  1  0
 67 68  1  0
 68 69  1  0
 69 70  1  0
 70 71  1  0
 71 72  1  0
 72 73  1  0
 73 74  1  0
 74 75  1  0
 75 76  1  0
 76 77  1  0
 77 78  1  0
 78 79  1  0
 79 80  1  0
 80 81  1  0
 81 82  1  0
 82 83  1  0
 83 84  1  0
 84 85  1  0
 85 86  1  0
 86 87  1  0
 87 88  1  0
 88 89  1  0
 89 90  2  0
 90 91  1  0
 91  2  1  0
M  END
>  <Title>  (635) 
idAAWQgen7

$$$$

     RDKit          2D

 60 60  0  0  0  0  0  0  0  0999 V2000
   15.5919    0.0000    0.0000 O   0  0  0  0  0  0  0  0  0  0  0  0
   14.0919    0.0000    0.0000 C   0  0  0  0  0  0  0  0  0  0  0  0
   14.0120    1.4979    0.0000 C   0  0  0  0  0  0  0  0  0  0  0  0
   13.7734    2.9788    0.0000 C   0  0  0  0  0  0  0  0  0  0  0  0
   13.3788    4.4259    0.0000 C   0  0  0  0  0  0  0  0  0  0  0  0
   12.8325    5.8229    0.0000 C   0  0  0  0  0  0  0  0  0  0  0  0
   12.1409    7.1540    0.0000 C   0  0  0  0  0  0  0  0  0  0  0  0
   11.3117    8.4039    0.0000 C   0  0  0  0  0  0  0  0  0  0  0  0
   10.3543    9.5587    0.0000 C   0  0  0  0  0  0  0  0  0  0  0  0
    9.2797   10.6051    0.0000 C   0  0  0  0  0  0  0  0  0  0  0  0
    8.0998   11.5314    0.0000 C   0  0  0  0  0  0  0  0  0  0  0  0
    6.8282   12.3270    0.0000 C   0  0  0  0  0  0  0  0  0  0  0  0
    5.4793   12.9830    0.0000 C   0  0  0  0  0  0  0  0  0  0  0  0
    4.0682   13.4919    0.0000 C   0  0  0  0  0  0  0  0  0  0  0  0
    2.6111   13.8479    0.0000 C   0  0  0  0  0  0  0  0  0  0  0  0
    1.1243   14.0469    0.0000 C   0  0  0  0  0  0  0  0  0  0  0  0
   -0.3751   14.0869    0.0000 C   0  0  0  0  0  0  0  0  0  0  0  0
   -1.8704   13.9672    0.0000 C   0  0  0  0  0  0  0  0  0  0  0  0
   -3.3444   13.6893    0.0000 C   0  0  0  0  0  0  0  0  0  0  0  0
   -4.7805   13.2562    0.0000 C   0  0  0  0  0  0  0  0  0  0  0  0
   -6.1625   12.6730    0.0000 C   0  0  0  0  0  0  0  0  0  0  0  0
   -7.4746   11.9462    0.0000 C   0  0  0  0  0  0  0  0  0  0  0  0
   -8.7021   11.0840    0.0000 C   0  0  0  0  0  0  0  0  0  0  0  0
   -9.8309   10.0962    0.0000 C   0  0  0  0  0  0  0  0  0  0  0  0
  -10.8484    8.9941    0.0000 C   0  0  0  0  0  0  0  0  0  0  0  0
  -11.7430    7.7900    0.0000 C   0  0  0  0  0  0  0  0  0  0  0  0
  -12.5045    6.4977    0.0000 C   0  0  0  0  0  0  0  0  0  0  0  0
  -13.1243    5.1317    0.0000 C   0  0  0  0  0  0  0  0  0  0  0  0
  -13.5954    3.7076    0.0000 C   0  0  0  0  0  0  0  0  0  0  0  0
  -13.9125    2.2415    0.0000 C   0  0  0  0  0  0  0  0  0  0  0  0
  -14.0719    0.7500    0.0000 C   0  0  0  0  0  0  0  0  0  0  0  0
  -14.0719   -0.7500    0.0000 C   0  0  0  0  0  0  0  0  0  0  0  0
  -13.9125   -2.2415    0.0000 C   0  0  0  0  0  0  0  0  0  0  0  0
  -13.5954   -3.7076    0.0000 C   0  0  0  0  0  0  0  0  0  0  0  0
  -13.1243   -5.1317    0.0000 C   0  0  0  0  0  0  0  0  0  0  0  0
  -12.5045   -6.4977    0.0000 C   0  0  0  0  0  0  0  0  0  0  0  0
  -11.7430   -7.7900    0.0000 C   0  0  0  0  0  0  0  0  0  0  0  0
  -10.8484   -8.9941    0.0000 C   0  0  0  0  0  0  0  0  0  0  0  0
   -9.8309  -10.0962    0.0000 C   0  0  0  0  0  0  0  0  0  0  0  0
   -8.7021  -11.0840    0.0000 C   0  0  0  0  0  0  0  0  0  0  0  0
   -7.4746  -11.9462    0.0000 C   0  0  0  0  0  0  0  0  0  0  0  0
   -6.1625  -12.6730    0.0000 C   0  0  0  0  0  0  0  0  0  0  0  0
   -4.7805  -13.2562    0.0000 C   0  0  0  0  0  0  0  0  0  0  0  0
   -3.3444  -13.6893    0.0000 C   0  0  0  0  0  0  0  0  0  0  0  0
   -1.8704  -13.9672    0.0000 C   0  0  0  0  0  0  0  0  0  0  0  0
   -0.3751  -14.0869    0.0000 C   0  0  0  0  0  0  0  0  0  0  0  0
    1.1243  -14.0469    0.0000 C   0  0  0  0  0  0  0  0  0  0  0  0
    2.6111  -13.8479    0.0000 C   0  0  0  0  0  0  0  0  0  0  0  0
    4.0682  -13.4919    0.0000 C   0  0  0  0  0  0  0  0  0  0  0  0
    5.4793  -12.9830    0.0000 C   0  0  0  0  0  0  0  0  0  0  0  0
    6.8282  -12.3270    0.0000 C   0  0  0  0  0  0  0  0  0  0  0  0
    8.0998  -11.5314    0.0000 C   0  0  0  0  0  0  0  0  0  0  0  0
    9.2797  -10.6051    0.0000 C   0  0  0  0  0  0  0  0  0  0  0  0
   10.3543   -9.5587    0.0000 C   0  0  0  0  0  0  0  0  0  0  0  0
   11.3117   -8.4039    0.0000 C   0  0  0  0  0  0  0  0  0  0  0  0
   12.1409   -7.1540    0.0000 C   0  0  0  0  0  0  0  0  0  0  0  0
   12.8325   -5.8229    0.0000 C   0  0  0  0  0  0  0  0  0  0  0  0
   13.3788   -4.4259    0.0000 C   0  0  0  0  0  0  0  0  0  0  0  0
   13.7734   -2.9788    0.0000 C   0  0  0  0  0  0  0  0  0  0  0  0
   14.0120   -1.4979    0.0000 C   0  0  0  0  0  0  0  0  0  0  0  0
  1  2  1  0
  2  3  1  0
  3  4  1  0
  4  5  1  0
  5  6  1  0
  6  7  1  0
  7  8  1  0
  8  9  1  0
  9 10  1  0
 10 11  1  0
 11 12  1  0
 12 13  1  0
 13 14  1  0
 14 15  1  0
 15 16  1  0
 16 17  1  0
 17 18  1  0
 18 19  1  0
 19 20  1  0
 20 21  1  0
 21 22  1  0
 22 23  1  0
 23 24  1  0
 24 25  1  0
 25 26  1  0
 26 27  1  0
 27 28  1  0
 28 29  1  0
 29 30  1  0
 30 31  1  0
 31 32  1  0
 32 33  1  0
 33 34  1  0
 34 35  1  0
 35 36  1  0
 36 37  1  0
 37 38  1  0
 38 39  1  0
 39 40  1  0
 40 41  1  0
 41 42  1  0
 42 43  1  0
 43 44  1  0
 44 45  1  0
 45 46  1  0
 46 47  1  0
 47 48  1  0
 48 49  1  0
 49 50  1  0
 50 51  1  0
 51 52  1  0
 52 53  1  0
 53 54  1  0
 54 55  1  0
 55 56  1  0
 56 57  1  0
 57 58  1  0
 58 59  1  0
 59 60  1  0
 60  2  1  0
M  END
>  <Title>  (636) 
idAAWRgen7

$$$$

     RDKit          2D

 23 26  0  0  0  0  0  0  0  0999 V2000
   -2.3737   -6.1885    0.0000 C   0  0  0  0  0  0  0  0  0  0  0  0
   -1.4095   -5.0395    0.0000 C   0  0  0  0  0  0  0  0  0  0  0  0
   -0.0000   -5.5525    0.0000 C   0  0  0  0  0  0  0  0  0  0  0  0
    1.4095   -5.0395    0.0000 C   0  0  0  0  0  0  0  0  0  0  0  0
    2.1595   -3.7404    0.0000 C   0  0  0  0  0  0  0  0  0  0  0  0
    3.6449   -3.9492    0.0000 C   0  0  0  0  0  0  0  0  0  0  0  0
    4.3491   -5.2736    0.0000 C   0  0  0  0  0  0  0  0  0  0  0  0
    5.0534   -6.5980    0.0000 N   0  0  0  0  0  0  0  0  0  0  0  0
    4.3025   -2.6010    0.0000 C   0  0  0  0  0  0  0  0  0  0  0  0
    3.2235   -1.5590    0.0000 C   0  0  0  0  0  0  0  0  0  0  0  0
    1.8991   -2.2632    0.0000 C   0  0  0  0  0  0  0  0  0  0  0  0
    0.7500   -1.2990    0.0000 C   0  0  0  0  0  0  0  0  0  0  0  0
    1.5000    0.0000    0.0000 C   0  0  0  0  0  0  0  0  0  0  0  0
    0.7500    1.2990    0.0000 C   0  0  0  0  0  0  0  0  0  0  0  0
   -0.7500    1.2990    0.0000 C   0  0  0  0  0  0  0  0  0  0  0  0
   -1.5000    0.0000    0.0000 C   0  0  0  0  0  0  0  0  0  0  0  0
   -0.7500   -1.2990    0.0000 C   0  0  0  0  0  0  0  0  0  0  0  0
   -1.8991   -2.2632    0.0000 C   0  0  0  0  0  0  0  0  0  0  0  0
   -3.0481   -1.2990    0.0000 C   0  0  0  0  0  0  0  0  0  0  0  0
   -4.4577   -1.8121    0.0000 C   0  0  0  0  0  0  0  0  0  0  0  0
   -4.7181   -3.2893    0.0000 C   0  0  0  0  0  0  0  0  0  0  0  0
   -3.5691   -4.2535    0.0000 C   0  0  0  0  0  0  0  0  0  0  0  0
   -2.1595   -3.7404    0.0000 C   0  0  0  0  0  0  0  0  0  0  0  0
  1  2  1  0
  2  3  2  0
  3  4  1  0
  4  5  2  0
  5  6  1  0
  6  7  1  0
  7  8  3  0
  6  9  2  0
  9 10  1  0
 10 11  2  0
 11 12  1  0
 12 13  2  0
 13 14  1  0
 14 15  2  0
 15 16  1  0
 16 17  2  0
 17 18  1  0
 18 19  2  0
 19 20  1  0
 20 21  2  0
 21 22  1  0
 22 23  2  0
 23  2  1  0
 11  5  1  0
 17 12  1  0
 23 18  1  0
M  END
>  <Title>  (637) 
idAAWSgen7

$$$$

     RDKit          2D

 18 19  0  0  0  0  0  0  0  0999 V2000
    7.9030    5.2095    0.0000 C   0  0  0  0  0  0  0  0  0  0  0  0
    6.4570    4.8104    0.0000 C   0  0  0  0  0  0  0  0  0  0  0  0
    5.2843    5.7457    0.0000 C   0  0  0  0  0  0  0  0  0  0  0  0
    4.0324    4.9193    0.0000 C   0  0  0  0  0  0  0  0  0  0  0  0
    4.4315    3.4734    0.0000 C   0  0  0  0  0  0  0  0  0  0  0  0
    3.4962    2.3006    0.0000 C   0  0  0  0  0  0  0  0  0  0  0  0
    4.0442    0.9043    0.0000 O   0  0  0  0  0  0  0  0  0  0  0  0
    2.0130    2.5242    0.0000 N   0  0  0  0  0  0  0  0  0  0  0  0
    1.0777    1.3515    0.0000 C   0  0  0  0  0  0  0  0  0  0  0  0
    1.7286    0.0000    0.0000 N   0  0  0  0  0  0  0  0  0  0  0  0
    1.0777   -1.3515    0.0000 N   0  0  0  0  0  0  0  0  0  0  0  0
   -0.3846   -1.6852    0.0000 N   0  0  0  0  0  0  0  0  0  0  0  0
   -1.5574   -0.7500    0.0000 N   0  0  0  0  0  0  0  0  0  0  0  0
   -2.9088   -1.4008    0.0000 N   0  0  0  0  0  0  0  0  0  0  0  0
   -1.5574    0.7500    0.0000 C   0  0  0  0  0  0  0  0  0  0  0  0
   -0.3846    1.6852    0.0000 C   0  0  0  0  0  0  0  0  0  0  0  0
    5.9300    3.4061    0.0000 C   0  0  0  0  0  0  0  0  0  0  0  0
    6.7563    2.1542    0.0000 O   0  0  0  0  0  0  0  0  0  0  0  0
  1  2  1  0
  2  3  1  0
  3  4  1  0
  4  5  1  0
  5  6  1  0
  6  7  2  0
  6  8  1  0
  8  9  1  0
  9 10  2  0
 10 11  1  0
 11 12  2  0
 12 13  1  0
 13 14  1  0
 13 15  1  0
 15 16  2  0
  5 17  1  0
 17 18  2  0
 17  2  1  0
 16  9  1  0
M  END
>  <Title>  (638) 
idAAWTgen7

$$$$

     RDKit          2D

 38 43  0  0  0  0  0  0  0  0999 V2000
    3.1097   -7.2078    0.0000 C   0  0  0  0  0  0  0  0  0  0  0  0
    2.0490   -6.1471    0.0000 C   0  0  0  0  0  0  0  0  0  0  0  0
    2.7990   -4.8481    0.0000 C   0  0  0  0  0  0  0  0  0  0  0  0
    2.7990   -3.3481    0.0000 C   0  0  0  0  0  0  0  0  0  0  0  0
    2.0490   -2.0490    0.0000 C   0  0  0  0  0  0  0  0  0  0  0  0
    3.1097   -0.9884    0.0000 C   0  0  0  0  0  0  0  0  0  0  0  0
    2.7215    0.4605    0.0000 O   0  0  0  0  0  0  0  0  0  0  0  0
    4.5586   -1.3766    0.0000 N   0  0  0  0  0  0  0  0  0  0  0  0
    5.6192   -0.3159    0.0000 C   0  0  0  0  0  0  0  0  0  0  0  0
    7.0681   -0.7042    0.0000 N   0  0  0  0  0  0  0  0  0  0  0  0
    8.1288    0.3565    0.0000 N   0  0  0  0  0  0  0  0  0  0  0  0
    7.7406    1.8054    0.0000 N   0  0  0  0  0  0  0  0  0  0  0  0
    6.2917    2.1936    0.0000 N   0  0  0  0  0  0  0  0  0  0  0  0
    5.2310    1.1329    0.0000 N   0  0  0  0  0  0  0  0  0  0  0  0
    0.7500   -1.2990    0.0000 C   0  0  0  0  0  0  0  0  0  0  0  0
    1.5000    0.0000    0.0000 C   0  0  0  0  0  0  0  0  0  0  0  0
    0.7500    1.2990    0.0000 C   0  0  0  0  0  0  0  0  0  0  0  0
   -0.7500    1.2990    0.0000 C   0  0  0  0  0  0  0  0  0  0  0  0
   -1.5000    0.0000    0.0000 N   0  0  0  0  0  0  0  0  0  0  0  0
   -0.7500   -1.2990    0.0000 C   0  0  0  0  0  0  0  0  0  0  0  0
   -2.0490   -2.0490    0.0000 C   0  0  0  0  0  0  0  0  0  0  0  0
   -2.7990   -0.7500    0.0000 C   0  0  0  0  0  0  0  0  0  0  0  0
   -4.2990   -0.7500    0.0000 C   0  0  0  0  0  0  0  0  0  0  0  0
   -5.0490   -2.0490    0.0000 C   0  0  0  0  0  0  0  0  0  0  0  0
   -4.2990   -3.3481    0.0000 C   0  0  0  0  0  0  0  0  0  0  0  0
   -2.7990   -3.3481    0.0000 C   0  0  0  0  0  0  0  0  0  0  0  0
   -2.7990   -4.8481    0.0000 C   0  0  0  0  0  0  0  0  0  0  0  0
   -4.2990   -4.8481    0.0000 C   0  0  0  0  0  0  0  0  0  0  0  0
   -5.0490   -6.1471    0.0000 C   0  0  0  0  0  0  0  0  0  0  0  0
   -4.2990   -7.4462    0.0000 C   0  0  0  0  0  0  0  0  0  0  0  0
   -2.7990   -7.4462    0.0000 C   0  0  0  0  0  0  0  0  0  0  0  0
   -2.0490   -6.1471    0.0000 C   0  0  0  0  0  0  0  0  0  0  0  0
   -0.7500   -6.8971    0.0000 C   0  0  0  0  0  0  0  0  0  0  0  0
   -1.5000   -8.1962    0.0000 C   0  0  0  0  0  0  0  0  0  0  0  0
   -0.7500   -9.4952    0.0000 C   0  0  0  0  0  0  0  0  0  0  0  0
    0.7500   -9.4952    0.0000 C   0  0  0  0  0  0  0  0  0  0  0  0
    1.5000   -8.1962    0.0000 C   0  0  0  0  0  0  0  0  0  0  0  0
    0.7500   -6.8971    0.0000 C   0  0  0  0  0  0  0  0  0  0  0  0
  1  2  1  0
  2  3  1  0
  3  4  1  0
  4  5  1  0
  5  6  1  0
  6  7  2  0
  6  8  1  0
  8  9  1  0
  9 10  2  0
 10 11  1  0
 11 12  2  0
 12 13  1  0
 13 14  2  0
  5 15  1  0
 15 16  2  0
 16 17  1  0
 17 18  2  0
 18 19  1  0
 19 20  2  0
 20 21  1  0
 21 22  2  0
 22 23  1  0
 23 24  2  0
 24 25  1  0
 25 26  2  0
 26 27  1  0
 27 28  2  0
 28 29  1  0
 29 30  2  0
 30 31  1  0
 31 32  2  0
 32 33  1  0
 33 34  2  0
 34 35  1  0
 35 36  2  0
 36 37  1  0
 37 38  2  0
 38  2  1  0
 14  9  1  0
 20 15  1  0
 26 21  1  0
 32 27  1  0
 38 33  1  0
M  END
>  <Title>  (639) 
idAAWUgen7

$$$$

     RDKit          2D

 31 34  0  0  0  0  0  0  0  0999 V2000
   -2.9187    6.3021    0.0000 C   0  0  0  0  0  0  0  0  0  0  0  0
   -1.5926    5.6012    0.0000 C   0  0  0  0  0  0  0  0  0  0  0  0
   -0.5723    6.7008    0.0000 C   0  0  0  0  0  0  0  0  0  0  0  0
    0.8610    7.1430    0.0000 C   0  0  0  0  0  0  0  0  0  0  0  0
    2.3234    6.8092    0.0000 C   0  0  0  0  0  0  0  0  0  0  0  0
    3.0243    8.1353    0.0000 C   0  0  0  0  0  0  0  0  0  0  0  0
    2.2263    9.4054    0.0000 O   0  0  0  0  0  0  0  0  0  0  0  0
    4.5233    8.1914    0.0000 N   0  0  0  0  0  0  0  0  0  0  0  0
    5.2242    9.5176    0.0000 C   0  0  0  0  0  0  0  0  0  0  0  0
    6.7231    9.5737    0.0000 C   0  0  0  0  0  0  0  0  0  0  0  0
    7.4240   10.8999    0.0000 N   0  0  0  0  0  0  0  0  0  0  0  0
    6.6260   12.1700    0.0000 N   0  0  0  0  0  0  0  0  0  0  0  0
    5.1270   12.1139    0.0000 N   0  0  0  0  0  0  0  0  0  0  0  0
    4.4261   10.7877    0.0000 N   0  0  0  0  0  0  0  0  0  0  0  0
    3.4230    5.7889    0.0000 C   0  0  0  0  0  0  0  0  0  0  0  0
    3.8651    4.3556    0.0000 C   0  0  0  0  0  0  0  0  0  0  0  0
    3.5314    2.8932    0.0000 C   0  0  0  0  0  0  0  0  0  0  0  0
    2.5111    1.7936    0.0000 C   0  0  0  0  0  0  0  0  0  0  0  0
    1.0777    1.3515    0.0000 C   0  0  0  0  0  0  0  0  0  0  0  0
    1.7286    0.0000    0.0000 C   0  0  0  0  0  0  0  0  0  0  0  0
    1.0777   -1.3515    0.0000 N   0  0  0  0  0  0  0  0  0  0  0  0
   -0.3846   -1.6852    0.0000 C   0  0  0  0  0  0  0  0  0  0  0  0
   -1.5574   -0.7500    0.0000 C   0  0  0  0  0  0  0  0  0  0  0  0
   -1.5574    0.7500    0.0000 C   0  0  0  0  0  0  0  0  0  0  0  0
   -0.3846    1.6852    0.0000 C   0  0  0  0  0  0  0  0  0  0  0  0
   -1.4842    2.7055    0.0000 C   0  0  0  0  0  0  0  0  0  0  0  0
   -2.5045    1.6059    0.0000 C   0  0  0  0  0  0  0  0  0  0  0  0
   -3.9669    1.9397    0.0000 C   0  0  0  0  0  0  0  0  0  0  0  0
   -4.4090    3.3731    0.0000 C   0  0  0  0  0  0  0  0  0  0  0  0
   -3.3887    4.4726    0.0000 C   0  0  0  0  0  0  0  0  0  0  0  0
   -1.9264    4.1389    0.0000 C   0  0  0  0  0  0  0  0  0  0  0  0
  1  2  1  0
  2  3  1  0
  3  4  1  0
  4  5  1  0
  5  6  1  0
  6  7  2  0
  6  8  1  0
  8  9  1  0
  9 10  2  0
 10 11  1  0
 11 12  2  0
 12 13  1  0
 13 14  2  0
  5 15  2  0
 15 16  1  0
 16 17  2  0
 17 18  1  0
 18 19  2  0
 19 20  1  0
 20 21  2  0
 21 22  1  0
 22 23  2  0
 23 24  1  0
 24 25  2  0
 25 26  1  0
 26 27  2  0
 27 28  1  0
 28 29  2  0
 29 30  1  0
 30 31  2  0
 31  2  1  0
 14  9  1  0
 25 19  1  0
 31 26  1  0
M  END
>  <Title>  (640) 
idAAWVgen7

$$$$

     RDKit          2D

 16 17  0  0  0  0  0  0  0  0999 V2000
    3.0000    0.0000    0.0000 C   0  0  0  0  0  0  0  0  0  0  0  0
    1.5000    0.0000    0.0000 C   0  0  0  0  0  0  0  0  0  0  0  0
    0.7500   -1.2990    0.0000 C   0  0  0  0  0  0  0  0  0  0  0  0
   -0.7500   -1.2990    0.0000 C   0  0  0  0  0  0  0  0  0  0  0  0
   -1.5000    0.0000    0.0000 C   0  0  0  0  0  0  0  0  0  0  0  0
   -3.0000    0.0000    0.0000 C   0  0  0  0  0  0  0  0  0  0  0  0
   -3.7500   -1.2990    0.0000 O   0  0  0  0  0  0  0  0  0  0  0  0
   -3.7500    1.2990    0.0000 O   0  0  0  0  0  0  0  0  0  0  0  0
   -5.2500    1.2990    0.0000 C   0  0  0  0  0  0  0  0  0  0  0  0
   -6.0000    2.5981    0.0000 N   0  0  0  0  0  0  0  0  0  0  0  0
   -7.5000    2.5981    0.0000 N   0  0  0  0  0  0  0  0  0  0  0  0
   -8.2500    1.2990    0.0000 N   0  0  0  0  0  0  0  0  0  0  0  0
   -7.5000    0.0000    0.0000 N   0  0  0  0  0  0  0  0  0  0  0  0
   -6.0000    0.0000    0.0000 N   0  0  0  0  0  0  0  0  0  0  0  0
   -0.7500    1.2990    0.0000 C   0  0  0  0  0  0  0  0  0  0  0  0
    0.7500    1.2990    0.0000 C   0  0  0  0  0  0  0  0  0  0  0  0
  1  2  1  0
  2  3  1  0
  3  4  1  0
  4  5  1  0
  5  6  1  0
  6  7  2  0
  6  8  1  0
  8  9  1  0
  9 10  2  0
 10 11  1  0
 11 12  2  0
 12 13  1  0
 13 14  2  0
  5 15  1  0
 15 16  1  0
 16  2  1  0
 14  9  1  0
M  END
>  <Title>  (641) 
idAAWWgen7

$$$$

     RDKit          2D

 15 15  0  0  0  0  0  0  0  0999 V2000
    4.8705    0.0000    0.0000 C   0  0  0  0  0  0  0  0  0  0  0  0
    3.3705    0.0000    0.0000 C   0  0  0  0  0  0  0  0  0  0  0  0
    3.0367   -1.4624    0.0000 C   0  0  0  0  0  0  0  0  0  0  0  0
    2.1015   -2.6351    0.0000 C   0  0  0  0  0  0  0  0  0  0  0  0
    0.7500   -3.2860    0.0000 C   0  0  0  0  0  0  0  0  0  0  0  0
   -0.7500   -3.2860    0.0000 C   0  0  0  0  0  0  0  0  0  0  0  0
   -2.1015   -2.6351    0.0000 C   0  0  0  0  0  0  0  0  0  0  0  0
   -3.0367   -1.4624    0.0000 C   0  0  0  0  0  0  0  0  0  0  0  0
   -3.3705    0.0000    0.0000 C   0  0  0  0  0  0  0  0  0  0  0  0
   -3.0367    1.4624    0.0000 C   0  0  0  0  0  0  0  0  0  0  0  0
   -2.1015    2.6351    0.0000 C   0  0  0  0  0  0  0  0  0  0  0  0
   -0.7500    3.2860    0.0000 C   0  0  0  0  0  0  0  0  0  0  0  0
    0.7500    3.2860    0.0000 C   0  0  0  0  0  0  0  0  0  0  0  0
    2.1015    2.6351    0.0000 C   0  0  0  0  0  0  0  0  0  0  0  0
    3.0367    1.4624    0.0000 C   0  0  0  0  0  0  0  0  0  0  0  0
  1  2  1  0
  2  3  1  0
  3  4  2  0
  4  5  1  0
  5  6  2  0
  6  7  1  0
  7  8  2  0
  8  9  1  0
  9 10  1  0
 10 11  1  0
 11 12  1  0
 12 13  1  0
 13 14  1  0
 14 15  1  0
 15  2  1  0
M  END
>  <Title>  (642) 
idAAWXgen7

$$$$

     RDKit          2D

  7  7  0  0  0  0  0  0  0  0999 V2000
    3.0000    0.0000    0.0000 O   0  0  0  0  0  0  0  0  0  0  0  0
    1.5000    0.0000    0.0000 C   0  0  0  0  0  0  0  0  0  0  0  0
    0.7500   -1.2990    0.0000 C   0  0  0  0  0  0  0  0  0  0  0  0
   -0.7500   -1.2990    0.0000 C   0  0  0  0  0  0  0  0  0  0  0  0
   -1.5000    0.0000    0.0000 C   0  0  0  0  0  0  0  0  0  0  0  0
   -0.7500    1.2990    0.0000 C   0  0  0  0  0  0  0  0  0  0  0  0
    0.7500    1.2990    0.0000 C   0  0  0  0  0  0  0  0  0  0  0  0
  1  2  1  0
  2  3  1  0
  3  4  1  0
  4  5  1  0
  5  6  1  0
  6  7  1  0
  7  2  1  0
M  END
>  <Title>  (643) 
idAAWYgen7

$$$$

     RDKit          2D

 21 21  0  0  0  0  0  0  0  0999 V2000
   17.0260   -9.0933    0.0000 C   0  0  0  0  0  0  0  0  0  0  0  0
   16.2760   -7.7942    0.0000 C   0  0  0  0  0  0  0  0  0  0  0  0
   17.0260   -6.4952    0.0000 C   0  0  0  0  0  0  0  0  0  0  0  0
   18.5260   -6.4952    0.0000 O   0  0  0  0  0  0  0  0  0  0  0  0
   14.7760   -7.7942    0.0000 C   0  0  0  0  0  0  0  0  0  0  0  0
   14.0260   -6.4952    0.0000 C   0  0  0  0  0  0  0  0  0  0  0  0
   12.5260   -6.4952    0.0000 C   0  0  0  0  0  0  0  0  0  0  0  0
   11.7760   -5.1962    0.0000 C   0  0  0  0  0  0  0  0  0  0  0  0
   10.2760   -5.1962    0.0000 C   0  0  0  0  0  0  0  0  0  0  0  0
    9.5260   -3.8971    0.0000 C   0  0  0  0  0  0  0  0  0  0  0  0
    8.0260   -3.8971    0.0000 C   0  0  0  0  0  0  0  0  0  0  0  0
    7.2760   -2.5981    0.0000 C   0  0  0  0  0  0  0  0  0  0  0  0
    5.7760   -2.5981    0.0000 C   0  0  0  0  0  0  0  0  0  0  0  0
    5.0260   -1.2990    0.0000 C   0  0  0  0  0  0  0  0  0  0  0  0
    3.5260   -1.2990    0.0000 C   0  0  0  0  0  0  0  0  0  0  0  0
    2.7760    0.0000    0.0000 C   0  0  0  0  0  0  0  0  0  0  0  0
    1.2760    0.0000    0.0000 C   0  0  0  0  0  0  0  0  0  0  0  0
    0.3943    1.2135    0.0000 C   0  0  0  0  0  0  0  0  0  0  0  0
   -1.0323    0.7500    0.0000 C   0  0  0  0  0  0  0  0  0  0  0  0
   -1.0323   -0.7500    0.0000 C   0  0  0  0  0  0  0  0  0  0  0  0
    0.3943   -1.2135    0.0000 C   0  0  0  0  0  0  0  0  0  0  0  0
  1  2  1  0
  2  3  1  0
  3  4  1  0
  2  5  1  0
  5  6  1  0
  6  7  2  3
  7  8  1  0
  8  9  1  0
  9 10  1  0
 10 11  1  0
 11 12  1  0
 12 13  1  0
 13 14  2  3
 14 15  1  0
 15 16  2  3
 16 17  1  0
 17 18  1  0
 18 19  1  0
 19 20  1  0
 20 21  1  0
 21 17  1  0
M  END
>  <Title>  (644) 
idAAWZgen7

$$$$

     RDKit          2D

  9  9  0  0  0  0  0  0  0  0999 V2000
    5.0260   -1.2990    0.0000 C   0  0  0  0  0  0  0  0  0  0  0  0
    3.5260   -1.2990    0.0000 C   0  0  0  0  0  0  0  0  0  0  0  0
    2.7760   -2.5981    0.0000 O   0  0  0  0  0  0  0  0  0  0  0  0
    2.7760    0.0000    0.0000 N   0  0  0  0  0  0  0  0  0  0  0  0
    1.2760    0.0000    0.0000 C   0  0  0  0  0  0  0  0  0  0  0  0
    0.3943    1.2135    0.0000 C   0  0  0  0  0  0  0  0  0  0  0  0
   -1.0323    0.7500    0.0000 C   0  0  0  0  0  0  0  0  0  0  0  0
   -1.0323   -0.7500    0.0000 C   0  0  0  0  0  0  0  0  0  0  0  0
    0.3943   -1.2135    0.0000 C   0  0  0  0  0  0  0  0  0  0  0  0
  1  2  1  0
  2  3  2  0
  2  4  1  0
  4  5  1  0
  5  6  2  0
  6  7  1  0
  7  8  2  0
  8  9  1  0
  9  5  1  0
M  END
>  <Title>  (645) 
idAAXAgen7

$$$$

     RDKit          2D

  9  9  0  0  0  0  0  0  0  0999 V2000
    3.5260   -1.2990    0.0000 C   0  0  0  0  0  0  0  0  0  0  0  0
    2.7760    0.0000    0.0000 O   0  0  0  0  0  0  0  0  0  0  0  0
    1.2760    0.0000    0.0000 C   0  0  0  0  0  0  0  0  0  0  0  0
    0.3943    1.2135    0.0000 C   0  0  0  0  0  0  0  0  0  0  0  0
   -1.0323    0.7500    0.0000 C   0  0  0  0  0  0  0  0  0  0  0  0
   -1.0323   -0.7500    0.0000 C   0  0  0  0  0  0  0  0  0  0  0  0
   -2.2458   -1.6317    0.0000 C   0  0  0  0  0  0  0  0  0  0  0  0
   -3.4593   -2.5134    0.0000 N   0  0  0  0  0  0  0  0  0  0  0  0
    0.3943   -1.2135    0.0000 C   0  0  0  0  0  0  0  0  0  0  0  0
  1  2  1  0
  2  3  1  0
  3  4  2  0
  4  5  1  0
  5  6  1  0
  6  7  1  0
  7  8  3  0
  6  9  2  0
  9  3  1  0
M  END
>  <Title>  (646) 
idAAXBgen7

$$$$

     RDKit          2D

  9  9  0  0  0  0  0  0  0  0999 V2000
    3.2286   -0.0000    0.0000 C   0  0  0  0  0  0  0  0  0  0  0  0
    1.7286    0.0000    0.0000 C   0  0  0  0  0  0  0  0  0  0  0  0
    1.0777    1.3515    0.0000 C   0  0  0  0  0  0  0  0  0  0  0  0
   -0.3846    1.6852    0.0000 C   0  0  0  0  0  0  0  0  0  0  0  0
   -1.5574    0.7500    0.0000 C   0  0  0  0  0  0  0  0  0  0  0  0
   -1.5574   -0.7500    0.0000 C   0  0  0  0  0  0  0  0  0  0  0  0
   -0.3846   -1.6852    0.0000 C   0  0  0  0  0  0  0  0  0  0  0  0
    1.0777   -1.3515    0.0000 C   0  0  0  0  0  0  0  0  0  0  0  0
    2.0130   -2.5242    0.0000 N   0  0  0  0  0  0  0  0  0  0  0  0
  1  2  1  0
  2  3  2  0
  3  4  1  0
  4  5  1  0
  5  6  2  0
  6  7  1  0
  7  8  2  0
  8  9  1  0
  8  2  1  0
M  END
>  <Title>  (647) 
idAAXCgen7

$$$$

     RDKit          2D

 14 14  0  0  0  0  0  0  0  0999 V2000
    4.6339    0.0000    0.0000 C   0  0  0  0  0  0  0  0  0  0  0  0
    3.1339    0.0000    0.0000 C   0  0  0  0  0  0  0  0  0  0  0  0
    2.7750    1.4564    0.0000 C   0  0  0  0  0  0  0  0  0  0  0  0
    1.7803    2.5792    0.0000 C   0  0  0  0  0  0  0  0  0  0  0  0
    0.3778    3.1111    0.0000 C   0  0  0  0  0  0  0  0  0  0  0  0
   -1.1113    2.9303    0.0000 C   0  0  0  0  0  0  0  0  0  0  0  0
   -2.3458    2.0782    0.0000 C   0  0  0  0  0  0  0  0  0  0  0  0
   -3.0429    0.7500    0.0000 C   0  0  0  0  0  0  0  0  0  0  0  0
   -3.0429   -0.7500    0.0000 C   0  0  0  0  0  0  0  0  0  0  0  0
   -2.3458   -2.0782    0.0000 C   0  0  0  0  0  0  0  0  0  0  0  0
   -1.1113   -2.9303    0.0000 C   0  0  0  0  0  0  0  0  0  0  0  0
    0.3778   -3.1111    0.0000 C   0  0  0  0  0  0  0  0  0  0  0  0
    1.7803   -2.5792    0.0000 C   0  0  0  0  0  0  0  0  0  0  0  0
    2.7750   -1.4564    0.0000 C   0  0  0  0  0  0  0  0  0  0  0  0
  1  2  1  0
  2  3  1  0
  3  4  1  0
  4  5  1  0
  5  6  1  0
  6  7  1  0
  7  8  1  0
  8  9  1  0
  9 10  1  0
 10 11  1  0
 11 12  1  0
 12 13  1  0
 13 14  1  0
 14  2  1  0
M  END
>  <Title>  (648) 
idAAXDgen7

$$$$

     RDKit          2D

 21 23  0  0  0  0  0  0  0  0999 V2000
  -10.5561    4.2841    0.0000 O   0  0  0  0  0  0  0  0  0  0  0  0
   -9.1858    4.8942    0.0000 C   0  0  0  0  0  0  0  0  0  0  0  0
   -9.0290    6.3860    0.0000 O   0  0  0  0  0  0  0  0  0  0  0  0
   -7.9722    4.0126    0.0000 C   0  0  0  0  0  0  0  0  0  0  0  0
   -7.9722    2.5126    0.0000 C   0  0  0  0  0  0  0  0  0  0  0  0
   -6.5456    2.0490    0.0000 C   0  0  0  0  0  0  0  0  0  0  0  0
   -5.6640    3.2626    0.0000 N   0  0  0  0  0  0  0  0  0  0  0  0
   -4.1640    3.2626    0.0000 C   0  0  0  0  0  0  0  0  0  0  0  0
   -3.4140    4.5616    0.0000 O   0  0  0  0  0  0  0  0  0  0  0  0
   -3.4140    1.9635    0.0000 C   0  0  0  0  0  0  0  0  0  0  0  0
   -4.1640    0.6645    0.0000 O   0  0  0  0  0  0  0  0  0  0  0  0
   -1.9140    1.9635    0.0000 N   0  0  0  0  0  0  0  0  0  0  0  0
   -1.0323    3.1771    0.0000 C   0  0  0  0  0  0  0  0  0  0  0  0
    0.3943    2.7135    0.0000 C   0  0  0  0  0  0  0  0  0  0  0  0
    0.3943    1.2135    0.0000 C   0  0  0  0  0  0  0  0  0  0  0  0
    1.2760    0.0000    0.0000 C   0  0  0  0  0  0  0  0  0  0  0  0
    0.3943   -1.2135    0.0000 C   0  0  0  0  0  0  0  0  0  0  0  0
   -1.0323   -0.7500    0.0000 C   0  0  0  0  0  0  0  0  0  0  0  0
   -1.0323    0.7500    0.0000 C   0  0  0  0  0  0  0  0  0  0  0  0
   -6.5456    4.4761    0.0000 C   0  0  0  0  0  0  0  0  0  0  0  0
   -6.0821    5.9027    0.0000 O   0  0  0  0  0  0  0  0  0  0  0  0
  1  2  2  0
  2  3  1  0
  2  4  1  0
  4  5  1  0
  5  6  1  0
  6  7  1  0
  7  8  1  0
  8  9  2  0
  8 10  1  0
 10 11  2  0
 10 12  1  0
 12 13  1  0
 13 14  1  0
 14 15  1  0
 15 16  1  0
 16 17  1  0
 17 18  1  0
 18 19  1  0
  7 20  1  0
 20 21  2  0
 20  4  1  0
 19 12  1  0
 19 15  1  0
M  END
>  <Title>  (649) 
idAAXEgen7

$$$$

     RDKit          2D

 90 92  0  0  0  0  0  0  0  0999 V2000
   18.6942    0.0000    0.0000 C   0  0  0  0  0  0  0  0  0  0  0  0
   17.1942    0.0000    0.0000 C   0  0  0  0  0  0  0  0  0  0  0  0
   17.1288   -1.4986    0.0000 C   0  0  0  0  0  0  0  0  0  0  0  0
   16.9330   -2.9857    0.0000 C   0  0  0  0  0  0  0  0  0  0  0  0
   16.6083   -4.4502    0.0000 C   0  0  0  0  0  0  0  0  0  0  0  0
   16.1573   -5.8808    0.0000 C   0  0  0  0  0  0  0  0  0  0  0  0
   15.5832   -7.2666    0.0000 C   0  0  0  0  0  0  0  0  0  0  0  0
   14.8906   -8.5971    0.0000 C   0  0  0  0  0  0  0  0  0  0  0  0
   16.3892   -8.6625    0.0000 O   0  0  0  0  0  0  0  0  0  0  0  0
   17.0818   -9.9930    0.0000 C   0  0  0  0  0  0  0  0  0  0  0  0
   18.5804  -10.0585    0.0000 O   0  0  0  0  0  0  0  0  0  0  0  0
   16.2759  -11.2581    0.0000 C   0  0  0  0  0  0  0  0  0  0  0  0
   16.9685  -12.5886    0.0000 C   0  0  0  0  0  0  0  0  0  0  0  0
   18.4670  -12.6541    0.0000 O   0  0  0  0  0  0  0  0  0  0  0  0
   16.1625  -13.8537    0.0000 N   0  0  0  0  0  0  0  0  0  0  0  0
   16.8551  -15.1842    0.0000 C   0  0  0  0  0  0  0  0  0  0  0  0
   16.0492  -16.4493    0.0000 N   0  0  0  0  0  0  0  0  0  0  0  0
   16.7418  -17.7799    0.0000 N   0  0  0  0  0  0  0  0  0  0  0  0
   18.2404  -17.8453    0.0000 N   0  0  0  0  0  0  0  0  0  0  0  0
   19.0463  -16.5802    0.0000 N   0  0  0  0  0  0  0  0  0  0  0  0
   18.3537  -15.2497    0.0000 N   0  0  0  0  0  0  0  0  0  0  0  0
   14.7773  -11.1927    0.0000 C   0  0  0  0  0  0  0  0  0  0  0  0
   14.0847   -9.8622    0.0000 C   0  0  0  0  0  0  0  0  0  0  0  0
   13.1715  -11.0522    0.0000 C   0  0  0  0  0  0  0  0  0  0  0  0
   12.1581  -12.1581    0.0000 C   0  0  0  0  0  0  0  0  0  0  0  0
   11.0522  -13.1715    0.0000 C   0  0  0  0  0  0  0  0  0  0  0  0
    9.8622  -14.0847    0.0000 C   0  0  0  0  0  0  0  0  0  0  0  0
    8.5971  -14.8906    0.0000 C   0  0  0  0  0  0  0  0  0  0  0  0
    7.2666  -15.5832    0.0000 C   0  0  0  0  0  0  0  0  0  0  0  0
    5.8808  -16.1573    0.0000 C   0  0  0  0  0  0  0  0  0  0  0  0
    4.4502  -16.6083    0.0000 C   0  0  0  0  0  0  0  0  0  0  0  0
    2.9857  -16.9330    0.0000 C   0  0  0  0  0  0  0  0  0  0  0  0
    1.4986  -17.1288    0.0000 C   0  0  0  0  0  0  0  0  0  0  0  0
   -0.0000  -17.1942    0.0000 C   0  0  0  0  0  0  0  0  0  0  0  0
   -1.4986  -17.1288    0.0000 C   0  0  0  0  0  0  0  0  0  0  0  0
   -2.9857  -16.9330    0.0000 C   0  0  0  0  0  0  0  0  0  0  0  0
   -4.4502  -16.6083    0.0000 C   0  0  0  0  0  0  0  0  0  0  0  0
   -5.8808  -16.1573    0.0000 C   0  0  0  0  0  0  0  0  0  0  0  0
   -6.3938  -17.5668    0.0000 C   0  0  0  0  0  0  0  0  0  0  0  0
   -7.8710  -17.8273    0.0000 C   0  0  0  0  0  0  0  0  0  0  0  0
   -5.4296  -18.7159    0.0000 C   0  0  0  0  0  0  0  0  0  0  0  0
   -7.2666  -15.5832    0.0000 C   0  0  0  0  0  0  0  0  0  0  0  0
   -8.5971  -14.8906    0.0000 C   0  0  0  0  0  0  0  0  0  0  0  0
   -9.8622  -14.0847    0.0000 C   0  0  0  0  0  0  0  0  0  0  0  0
  -11.0522  -13.1715    0.0000 C   0  0  0  0  0  0  0  0  0  0  0  0
  -12.1581  -12.1581    0.0000 C   0  0  0  0  0  0  0  0  0  0  0  0
  -13.1715  -11.0522    0.0000 C   0  0  0  0  0  0  0  0  0  0  0  0
  -14.0847   -9.8622    0.0000 C   0  0  0  0  0  0  0  0  0  0  0  0
  -14.8906   -8.5971    0.0000 C   0  0  0  0  0  0  0  0  0  0  0  0
  -15.5832   -7.2666    0.0000 C   0  0  0  0  0  0  0  0  0  0  0  0
  -16.1573   -5.8808    0.0000 C   0  0  0  0  0  0  0  0  0  0  0  0
  -16.6083   -4.4502    0.0000 C   0  0  0  0  0  0  0  0  0  0  0  0
  -16.9330   -2.9857    0.0000 C   0  0  0  0  0  0  0  0  0  0  0  0
  -17.1288   -1.4986    0.0000 C   0  0  0  0  0  0  0  0  0  0  0  0
  -17.1942    0.0000    0.0000 C   0  0  0  0  0  0  0  0  0  0  0  0
  -17.1288    1.4986    0.0000 C   0  0  0  0  0  0  0  0  0  0  0  0
  -16.9330    2.9857    0.0000 C   0  0  0  0  0  0  0  0  0  0  0  0
  -16.6083    4.4502    0.0000 C   0  0  0  0  0  0  0  0  0  0  0  0
  -16.1573    5.8808    0.0000 C   0  0  0  0  0  0  0  0  0  0  0  0
  -15.5832    7.2666    0.0000 C   0  0  0  0  0  0  0  0  0  0  0  0
  -14.8906    8.5971    0.0000 C   0  0  0  0  0  0  0  0  0  0  0  0
  -14.0847    9.8622    0.0000 C   0  0  0  0  0  0  0  0  0  0  0  0
  -13.1715   11.0522    0.0000 C   0  0  0  0  0  0  0  0  0  0  0  0
  -12.1581   12.1581    0.0000 C   0  0  0  0  0  0  0  0  0  0  0  0
  -11.0522   13.1715    0.0000 C   0  0  0  0  0  0  0  0  0  0  0  0
   -9.8622   14.0847    0.0000 C   0  0  0  0  0  0  0  0  0  0  0  0
   -8.5971   14.8906    0.0000 C   0  0  0  0  0  0  0  0  0  0  0  0
   -7.2666   15.5832    0.0000 C   0  0  0  0  0  0  0  0  0  0  0  0
   -5.8808   16.1573    0.0000 C   0  0  0  0  0  0  0  0  0  0  0  0
   -4.4502   16.6083    0.0000 C   0  0  0  0  0  0  0  0  0  0  0  0
   -2.9857   16.9330    0.0000 C   0  0  0  0  0  0  0  0  0  0  0  0
   -1.4986   17.1288    0.0000 C   0  0  0  0  0  0  0  0  0  0  0  0
    0.0000   17.1942    0.0000 C   0  0  0  0  0  0  0  0  0  0  0  0
    1.4986   17.1288    0.0000 C   0  0  0  0  0  0  0  0  0  0  0  0
    2.9857   16.9330    0.0000 C   0  0  0  0  0  0  0  0  0  0  0  0
    4.4502   16.6083    0.0000 C   0  0  0  0  0  0  0  0  0  0  0  0
    5.8808   16.1573    0.0000 C   0  0  0  0  0  0  0  0  0  0  0  0
    7.2666   15.5832    0.0000 C   0  0  0  0  0  0  0  0  0  0  0  0
    8.5971   14.8906    0.0000 C   0  0  0  0  0  0  0  0  0  0  0  0
    9.8622   14.0847    0.0000 C   0  0  0  0  0  0  0  0  0  0  0  0
   11.0522   13.1715    0.0000 C   0  0  0  0  0  0  0  0  0  0  0  0
   12.1581   12.1581    0.0000 C   0  0  0  0  0  0  0  0  0  0  0  0
   13.1715   11.0522    0.0000 C   0  0  0  0  0  0  0  0  0  0  0  0
   14.0847    9.8622    0.0000 C   0  0  0  0  0  0  0  0  0  0  0  0
   14.8906    8.5971    0.0000 C   0  0  0  0  0  0  0  0  0  0  0  0
   15.5832    7.2666    0.0000 C   0  0  0  0  0  0  0  0  0  0  0  0
   16.1573    5.8808    0.0000 C   0  0  0  0  0  0  0  0  0  0  0  0
   16.6083    4.4502    0.0000 C   0  0  0  0  0  0  0  0  0  0  0  0
   16.9330    2.9857    0.0000 C   0  0  0  0  0  0  0  0  0  0  0  0
   17.1288    1.4986    0.0000 C   0  0  0  0  0  0  0  0  0  0  0  0
  1  2  1  0
  2  3  1  0
  3  4  2  0
  4  5  1  0
  5  6  2  0
  6  7  1  0
  7  8  2  0
  8  9  1  0
  9 10  1  0
 10 11  2  0
 10 12  1  0
 12 13  1  0
 13 14  2  0
 13 15  1  0
 15 16  1  0
 16 17  2  0
 17 18  1  0
 18 19  2  0
 19 20  1  0
 20 21  2  0
 12 22  2  0
 22 23  1  0
 23 24  2  0
 24 25  1  0
 25 26  2  0
 26 27  1  0
 27 28  2  0
 28 29  1  0
 29 30  1  0
 30 31  1  0
 31 32  1  0
 32 33  1  0
 33 34  1  0
 34 35  1  0
 35 36  1  0
 36 37  1  0
 37 38  1  0
 38 39  1  0
 39 40  1  0
 39 41  1  0
 38 42  1  0
 42 43  1  0
 43 44  1  0
 44 45  2  0
 45 46  1  0
 46 47  2  0
 47 48  1  0
 48 49  2  0
 49 50  1  0
 50 51  1  0
 51 52  1  0
 52 53  1  0
 53 54  1  0
 54 55  1  0
 55 56  1  0
 56 57  1  0
 57 58  1  0
 58 59  1  0
 59 60  1  0
 60 61  1  0
 61 62  1  0
 62 63  1  0
 63 64  1  0
 64 65  1  0
 65 66  1  0
 66 67  1  0
 67 68  1  0
 68 69  1  0
 69 70  1  0
 70 71  1  0
 71 72  1  0
 72 73  1  0
 73 74  1  0
 74 75  1  0
 75 76  1  0
 76 77  1  0
 77 78  1  0
 78 79  1  0
 79 80  1  0
 80 81  1  0
 81 82  1  0
 82 83  1  0
 83 84  1  0
 84 85  1  0
 85 86  1  0
 86 87  1  0
 87 88  1  0
 88 89  1  0
 89 90  1  0
 90  2  1  0
 23  8  1  0
 21 16  1  0
M  END
>  <Title>  (650) 
idAAXFgen7

$$$$

     RDKit          2D

  9  9  0  0  0  0  0  0  0  0999 V2000
    3.7500    1.2990    0.0000 O   0  0  0  0  0  0  0  0  0  0  0  0
    3.0000    0.0000    0.0000 C   0  0  0  0  0  0  0  0  0  0  0  0
    3.7500   -1.2990    0.0000 O   0  0  0  0  0  0  0  0  0  0  0  0
    1.5000    0.0000    0.0000 C   0  0  0  0  0  0  0  0  0  0  0  0
    0.7500   -1.2990    0.0000 C   0  0  0  0  0  0  0  0  0  0  0  0
   -0.7500   -1.2990    0.0000 C   0  0  0  0  0  0  0  0  0  0  0  0
   -1.5000    0.0000    0.0000 C   0  0  0  0  0  0  0  0  0  0  0  0
   -0.7500    1.2990    0.0000 C   0  0  0  0  0  0  0  0  0  0  0  0
    0.7500    1.2990    0.0000 C   0  0  0  0  0  0  0  0  0  0  0  0
  1  2  2  0
  2  3  1  0
  2  4  1  0
  4  5  2  0
  5  6  1  0
  6  7  2  0
  7  8  1  0
  8  9  2  0
  9  4  1  0
M  END
>  <Title>  (651) 
idAAXGgen7

$$$$

     RDKit          2D

 80 80  0  0  0  0  0  0  0  0999 V2000
   20.3648    0.0000    0.0000 C   0  0  0  0  0  0  0  0  0  0  0  0
   18.8648    0.0000    0.0000 C   0  0  0  0  0  0  0  0  0  0  0  0
   18.8052    1.4988    0.0000 C   0  0  0  0  0  0  0  0  0  0  0  0
   18.6267    2.9882    0.0000 C   0  0  0  0  0  0  0  0  0  0  0  0
   18.3304    4.4586    0.0000 C   0  0  0  0  0  0  0  0  0  0  0  0
   17.9182    5.9009    0.0000 C   0  0  0  0  0  0  0  0  0  0  0  0
   17.3927    7.3058    0.0000 C   0  0  0  0  0  0  0  0  0  0  0  0
   16.7573    8.6646    0.0000 C   0  0  0  0  0  0  0  0  0  0  0  0
   16.0159    9.9685    0.0000 C   0  0  0  0  0  0  0  0  0  0  0  0
   15.1733   11.2095    0.0000 C   0  0  0  0  0  0  0  0  0  0  0  0
   14.2347   12.3796    0.0000 C   0  0  0  0  0  0  0  0  0  0  0  0
   13.2062   13.4714    0.0000 C   0  0  0  0  0  0  0  0  0  0  0  0
   12.0941   14.4781    0.0000 C   0  0  0  0  0  0  0  0  0  0  0  0
   10.9056   15.3932    0.0000 C   0  0  0  0  0  0  0  0  0  0  0  0
    9.6481   16.2110    0.0000 C   0  0  0  0  0  0  0  0  0  0  0  0
    8.3297   16.9263    0.0000 C   0  0  0  0  0  0  0  0  0  0  0  0
    6.9586   17.5345    0.0000 C   0  0  0  0  0  0  0  0  0  0  0  0
    5.5434   18.0320    0.0000 C   0  0  0  0  0  0  0  0  0  0  0  0
    4.0933   18.4154    0.0000 C   0  0  0  0  0  0  0  0  0  0  0  0
    2.6172   18.6824    0.0000 C   0  0  0  0  0  0  0  0  0  0  0  0
    1.1246   18.8313    0.0000 C   0  0  0  0  0  0  0  0  0  0  0  0
   -0.3751   18.8611    0.0000 C   0  0  0  0  0  0  0  0  0  0  0  0
   -1.8724   18.7717    0.0000 C   0  0  0  0  0  0  0  0  0  0  0  0
   -3.3579   18.5636    0.0000 C   0  0  0  0  0  0  0  0  0  0  0  0
   -4.8222   18.2381    0.0000 C   0  0  0  0  0  0  0  0  0  0  0  0
   -6.2559   17.7973    0.0000 C   0  0  0  0  0  0  0  0  0  0  0  0
   -7.6502   17.2440    0.0000 C   0  0  0  0  0  0  0  0  0  0  0  0
   -8.9960   16.5817    0.0000 C   0  0  0  0  0  0  0  0  0  0  0  0
  -10.2850   15.8146    0.0000 C   0  0  0  0  0  0  0  0  0  0  0  0
  -11.5090   14.9474    0.0000 C   0  0  0  0  0  0  0  0  0  0  0  0
  -12.6602   13.9858    0.0000 C   0  0  0  0  0  0  0  0  0  0  0  0
  -13.7313   12.9357    0.0000 C   0  0  0  0  0  0  0  0  0  0  0  0
  -14.7157   11.8039    0.0000 C   0  0  0  0  0  0  0  0  0  0  0  0
  -15.6070   10.5974    0.0000 C   0  0  0  0  0  0  0  0  0  0  0  0
  -16.3996    9.3239    0.0000 C   0  0  0  0  0  0  0  0  0  0  0  0
  -17.0885    7.9915    0.0000 C   0  0  0  0  0  0  0  0  0  0  0  0
  -17.6694    6.6086    0.0000 C   0  0  0  0  0  0  0  0  0  0  0  0
  -18.1386    5.1838    0.0000 C   0  0  0  0  0  0  0  0  0  0  0  0
  -18.4931    3.7263    0.0000 C   0  0  0  0  0  0  0  0  0  0  0  0
  -18.7307    2.2453    0.0000 C   0  0  0  0  0  0  0  0  0  0  0  0
  -18.8499    0.7500    0.0000 C   0  0  0  0  0  0  0  0  0  0  0  0
  -18.8499   -0.7500    0.0000 C   0  0  0  0  0  0  0  0  0  0  0  0
  -18.7307   -2.2453    0.0000 C   0  0  0  0  0  0  0  0  0  0  0  0
  -18.4931   -3.7263    0.0000 C   0  0  0  0  0  0  0  0  0  0  0  0
  -18.1386   -5.1838    0.0000 C   0  0  0  0  0  0  0  0  0  0  0  0
  -17.6694   -6.6086    0.0000 C   0  0  0  0  0  0  0  0  0  0  0  0
  -17.0885   -7.9915    0.0000 C   0  0  0  0  0  0  0  0  0  0  0  0
  -16.3996   -9.3239    0.0000 C   0  0  0  0  0  0  0  0  0  0  0  0
  -15.6070  -10.5974    0.0000 C   0  0  0  0  0  0  0  0  0  0  0  0
  -14.7157  -11.8039    0.0000 C   0  0  0  0  0  0  0  0  0  0  0  0
  -13.7313  -12.9357    0.0000 C   0  0  0  0  0  0  0  0  0  0  0  0
  -12.6602  -13.9858    0.0000 C   0  0  0  0  0  0  0  0  0  0  0  0
  -11.5090  -14.9474    0.0000 C   0  0  0  0  0  0  0  0  0  0  0  0
  -10.2850  -15.8146    0.0000 C   0  0  0  0  0  0  0  0  0  0  0  0
   -8.9960  -16.5817    0.0000 C   0  0  0  0  0  0  0  0  0  0  0  0
   -7.6502  -17.2440    0.0000 C   0  0  0  0  0  0  0  0  0  0  0  0
   -6.2559  -17.7973    0.0000 C   0  0  0  0  0  0  0  0  0  0  0  0
   -4.8222  -18.2381    0.0000 C   0  0  0  0  0  0  0  0  0  0  0  0
   -3.3579  -18.5636    0.0000 C   0  0  0  0  0  0  0  0  0  0  0  0
   -1.8724  -18.7717    0.0000 C   0  0  0  0  0  0  0  0  0  0  0  0
   -0.3751  -18.8611    0.0000 C   0  0  0  0  0  0  0  0  0  0  0  0
    1.1246  -18.8313    0.0000 C   0  0  0  0  0  0  0  0  0  0  0  0
    2.6172  -18.6824    0.0000 C   0  0  0  0  0  0  0  0  0  0  0  0
    4.0933  -18.4154    0.0000 C   0  0  0  0  0  0  0  0  0  0  0  0
    5.5434  -18.0320    0.0000 C   0  0  0  0  0  0  0  0  0  0  0  0
    6.9586  -17.5345    0.0000 C   0  0  0  0  0  0  0  0  0  0  0  0
    8.3297  -16.9263    0.0000 C   0  0  0  0  0  0  0  0  0  0  0  0
    9.6481  -16.2110    0.0000 C   0  0  0  0  0  0  0  0  0  0  0  0
   10.9056  -15.3932    0.0000 C   0  0  0  0  0  0  0  0  0  0  0  0
   12.0941  -14.4781    0.0000 C   0  0  0  0  0  0  0  0  0  0  0  0
   13.2062  -13.4714    0.0000 C   0  0  0  0  0  0  0  0  0  0  0  0
   14.2347  -12.3796    0.0000 C   0  0  0  0  0  0  0  0  0  0  0  0
   15.1733  -11.2095    0.0000 C   0  0  0  0  0  0  0  0  0  0  0  0
   16.0159   -9.9685    0.0000 C   0  0  0  0  0  0  0  0  0  0  0  0
   16.7573   -8.6646    0.0000 C   0  0  0  0  0  0  0  0  0  0  0  0
   17.3927   -7.3058    0.0000 C   0  0  0  0  0  0  0  0  0  0  0  0
   17.9182   -5.9009    0.0000 C   0  0  0  0  0  0  0  0  0  0  0  0
   18.3304   -4.4586    0.0000 C   0  0  0  0  0  0  0  0  0  0  0  0
   18.6267   -2.9882    0.0000 C   0  0  0  0  0  0  0  0  0  0  0  0
   18.8052   -1.4988    0.0000 C   0  0  0  0  0  0  0  0  0  0  0  0
  1  2  1  0
  2  3  1  0
  3  4  1  0
  4  5  1  0
  5  6  1  0
  6  7  1  0
  7  8  1  0
  8  9  1  0
  9 10  1  0
 10 11  1  0
 11 12  1  0
 12 13  1  0
 13 14  1  0
 14 15  1  0
 15 16  1  0
 16 17  1  0
 17 18  1  0
 18 19  1  0
 19 20  1  0
 20 21  1  0
 21 22  1  0
 22 23  1  0
 23 24  1  0
 24 25  1  0
 25 26  1  0
 26 27  1  0
 27 28  1  0
 28 29  1  0
 29 30  1  0
 30 31  1  0
 31 32  1  0
 32 33  1  0
 33 34  1  0
 34 35  1  0
 35 36  1  0
 36 37  1  0
 37 38  1  0
 38 39  1  0
 39 40  1  0
 40 41  1  0
 41 42  1  0
 42 43  1  0
 43 44  1  0
 44 45  1  0
 45 46  1  0
 46 47  1  0
 47 48  1  0
 48 49  1  0
 49 50  1  0
 50 51  1  0
 51 52  1  0
 52 53  1  0
 53 54  1  0
 54 55  1  0
 55 56  1  0
 56 57  1  0
 57 58  1  0
 58 59  1  0
 59 60  1  0
 60 61  1  0
 61 62  1  0
 62 63  1  0
 63 64  1  0
 64 65  1  0
 65 66  1  0
 66 67  1  0
 67 68  1  0
 68 69  1  0
 69 70  1  0
 70 71  1  0
 71 72  1  0
 72 73  1  0
 73 74  1  0
 74 75  1  0
 75 76  1  0
 76 77  1  0
 77 78  1  0
 78 79  1  0
 79 80  1  0
 80  2  1  0
M  END
>  <Title>  (652) 
idAAXHgen7

$$$$

     RDKit          2D

  8  8  0  0  0  0  0  0  0  0999 V2000
    3.0000    0.0000    0.0000 C   0  0  0  0  0  0  0  0  0  0  0  0
    1.5000    0.0000    0.0000 C   0  0  0  0  0  0  0  0  0  0  0  0
    0.7500   -1.2990    0.0000 C   0  0  0  0  0  0  0  0  0  0  0  0
   -0.7500   -1.2990    0.0000 C   0  0  0  0  0  0  0  0  0  0  0  0
   -1.5000    0.0000    0.0000 C   0  0  0  0  0  0  0  0  0  0  0  0
   -3.0000    0.0000    0.0000 O   0  0  0  0  0  0  0  0  0  0  0  0
   -0.7500    1.2990    0.0000 C   0  0  0  0  0  0  0  0  0  0  0  0
    0.7500    1.2990    0.0000 C   0  0  0  0  0  0  0  0  0  0  0  0
  1  2  1  0
  2  3  2  0
  3  4  1  0
  4  5  2  0
  5  6  1  0
  5  7  1  0
  7  8  1  0
  8  2  1  0
M  END
>  <Title>  (653) 
idAAXIgen7

$$$$

     RDKit          2D

  7  7  0  0  0  0  0  0  0  0999 V2000
    3.0000    0.0000    0.0000 C   0  0  0  0  0  0  0  0  0  0  0  0
    1.5000    0.0000    0.0000 C   0  0  0  0  0  0  0  0  0  0  0  0
    0.7500   -1.2990    0.0000 C   0  0  0  0  0  0  0  0  0  0  0  0
   -0.7500   -1.2990    0.0000 C   0  0  0  0  0  0  0  0  0  0  0  0
   -1.5000    0.0000    0.0000 C   0  0  0  0  0  0  0  0  0  0  0  0
   -0.7500    1.2990    0.0000 C   0  0  0  0  0  0  0  0  0  0  0  0
    0.7500    1.2990    0.0000 C   0  0  0  0  0  0  0  0  0  0  0  0
  1  2  1  0
  2  3  1  0
  3  4  2  0
  4  5  1  0
  5  6  2  0
  6  7  1  0
  7  2  1  0
M  END
>  <Title>  (654) 
idAAXJgen7

$$$$

     RDKit          2D

  8  8  0  0  0  0  0  0  0  0999 V2000
    4.5000    0.0000    0.0000 N   0  0  0  0  0  0  0  0  0  0  0  0
    3.0000    0.0000    0.0000 C   0  0  0  0  0  0  0  0  0  0  0  0
    1.5000    0.0000    0.0000 C   0  0  0  0  0  0  0  0  0  0  0  0
    0.7500   -1.2990    0.0000 C   0  0  0  0  0  0  0  0  0  0  0  0
   -0.7500   -1.2990    0.0000 C   0  0  0  0  0  0  0  0  0  0  0  0
   -1.5000    0.0000    0.0000 C   0  0  0  0  0  0  0  0  0  0  0  0
   -0.7500    1.2990    0.0000 C   0  0  0  0  0  0  0  0  0  0  0  0
    0.7500    1.2990    0.0000 C   0  0  0  0  0  0  0  0  0  0  0  0
  1  2  3  0
  2  3  1  0
  3  4  1  0
  4  5  2  0
  5  6  1  0
  6  7  1  0
  7  8  1  0
  8  3  1  0
M  END
>  <Title>  (655) 
idAAXKgen7

$$$$

     RDKit          2D

 22 24  0  0  0  0  0  0  0  0999 V2000
   -0.7500   -3.8971    0.0000 O   0  0  0  0  0  0  0  0  0  0  0  0
    0.7500   -3.8971    0.0000 C   0  0  0  0  0  0  0  0  0  0  0  0
    1.5000   -2.5981    0.0000 N   0  0  0  0  0  0  0  0  0  0  0  0
    0.7500   -1.2990    0.0000 C   0  0  0  0  0  0  0  0  0  0  0  0
    1.5000    0.0000    0.0000 N   0  0  0  0  0  0  0  0  0  0  0  0
    0.7500    1.2990    0.0000 N   0  0  0  0  0  0  0  0  0  0  0  0
   -0.7500    1.2990    0.0000 N   0  0  0  0  0  0  0  0  0  0  0  0
   -1.5000    0.0000    0.0000 N   0  0  0  0  0  0  0  0  0  0  0  0
   -0.7500   -1.2990    0.0000 N   0  0  0  0  0  0  0  0  0  0  0  0
    1.5000   -5.1962    0.0000 C   0  0  0  0  0  0  0  0  0  0  0  0
    2.9918   -5.3529    0.0000 C   0  0  0  0  0  0  0  0  0  0  0  0
    3.3037   -6.8202    0.0000 C   0  0  0  0  0  0  0  0  0  0  0  0
    2.0046   -7.5702    0.0000 N   0  0  0  0  0  0  0  0  0  0  0  0
    1.8478   -9.0619    0.0000 C   0  0  0  0  0  0  0  0  0  0  0  0
    3.0613   -9.9436    0.0000 O   0  0  0  0  0  0  0  0  0  0  0  0
    0.4775   -9.6721    0.0000 C   0  0  0  0  0  0  0  0  0  0  0  0
    0.1656  -11.1393    0.0000 C   0  0  0  0  0  0  0  0  0  0  0  0
   -1.3261  -11.2961    0.0000 C   0  0  0  0  0  0  0  0  0  0  0  0
   -1.9363   -9.9258    0.0000 C   0  0  0  0  0  0  0  0  0  0  0  0
   -0.8215   -8.9221    0.0000 C   0  0  0  0  0  0  0  0  0  0  0  0
    0.8899   -6.5665    0.0000 C   0  0  0  0  0  0  0  0  0  0  0  0
   -0.5773   -6.8783    0.0000 O   0  0  0  0  0  0  0  0  0  0  0  0
  1  2  2  0
  2  3  1  0
  3  4  1  0
  4  5  2  0
  5  6  1  0
  6  7  2  0
  7  8  1  0
  8  9  2  0
  2 10  1  0
 10 11  1  0
 11 12  1  0
 12 13  1  0
 13 14  1  0
 14 15  2  0
 14 16  1  0
 16 17  2  0
 17 18  1  0
 18 19  1  0
 19 20  2  0
 13 21  1  0
 21 22  2  0
  9  4  1  0
 21 10  1  0
 20 16  1  0
M  END
>  <Title>  (656) 
idAAXLgen7

$$$$

     RDKit          2D

  9  9  0  0  0  0  0  0  0  0999 V2000
    5.0260   -1.2990    0.0000 C   0  0  0  0  0  0  0  0  0  0  0  0
    3.5260   -1.2990    0.0000 C   0  0  0  0  0  0  0  0  0  0  0  0
    2.7760   -2.5981    0.0000 O   0  0  0  0  0  0  0  0  0  0  0  0
    2.7760    0.0000    0.0000 C   0  0  0  0  0  0  0  0  0  0  0  0
    1.2760    0.0000    0.0000 C   0  0  0  0  0  0  0  0  0  0  0  0
    0.3943    1.2135    0.0000 C   0  0  0  0  0  0  0  0  0  0  0  0
   -1.0323    0.7500    0.0000 C   0  0  0  0  0  0  0  0  0  0  0  0
   -1.0323   -0.7500    0.0000 C   0  0  0  0  0  0  0  0  0  0  0  0
    0.3943   -1.2135    0.0000 C   0  0  0  0  0  0  0  0  0  0  0  0
  1  2  2  0
  2  3  1  0
  2  4  1  0
  4  5  1  0
  5  6  2  0
  6  7  1  0
  7  8  1  0
  8  9  1  0
  9  5  1  0
M  END
>  <Title>  (657) 
idAAXMgen7

$$$$

     RDKit          2D

  5  4  0  0  0  0  0  0  0  0999 V2000
   -0.0000   -1.5000    0.0000 N   0  0  0  0  0  0  0  0  0  0  0  0
    0.0000    0.0000    0.0000 C   0  0  0  0  0  0  0  0  0  0  0  0
    0.0000    1.5000    0.0000 C   0  0  0  0  0  0  0  0  0  0  0  0
   -1.2990    2.2500    0.0000 O   0  0  0  0  0  0  0  0  0  0  0  0
    1.2990    2.2500    0.0000 O   0  0  0  0  0  0  0  0  0  0  0  0
  1  2  3  0
  2  3  1  0
  3  4  2  0
  3  5  1  0
M  END
>  <Title>  (658) 
idAAXNgen7

$$$$

     RDKit          2D

 33 37  0  0  0  0  0  0  0  0999 V2000
    1.2135   -7.3421    0.0000 C   0  0  0  0  0  0  0  0  0  0  0  0
    0.7500   -5.9156    0.0000 C   0  0  0  0  0  0  0  0  0  0  0  0
    1.9635   -5.0339    0.0000 C   0  0  0  0  0  0  0  0  0  0  0  0
    2.4271   -3.6073    0.0000 C   0  0  0  0  0  0  0  0  0  0  0  0
    1.9635   -2.1807    0.0000 C   0  0  0  0  0  0  0  0  0  0  0  0
    3.1771   -1.2990    0.0000 C   0  0  0  0  0  0  0  0  0  0  0  0
    3.0203    0.1927    0.0000 O   0  0  0  0  0  0  0  0  0  0  0  0
    4.5474   -1.9091    0.0000 N   0  0  0  0  0  0  0  0  0  0  0  0
    5.7609   -1.0275    0.0000 C   0  0  0  0  0  0  0  0  0  0  0  0
    7.1312   -1.6376    0.0000 N   0  0  0  0  0  0  0  0  0  0  0  0
    8.3447   -0.7559    0.0000 N   0  0  0  0  0  0  0  0  0  0  0  0
    8.1879    0.7359    0.0000 N   0  0  0  0  0  0  0  0  0  0  0  0
    6.8176    1.3460    0.0000 N   0  0  0  0  0  0  0  0  0  0  0  0
    5.6041    0.4643    0.0000 N   0  0  0  0  0  0  0  0  0  0  0  0
    0.7500   -1.2990    0.0000 C   0  0  0  0  0  0  0  0  0  0  0  0
    1.5000    0.0000    0.0000 C   0  0  0  0  0  0  0  0  0  0  0  0
    0.7500    1.2990    0.0000 C   0  0  0  0  0  0  0  0  0  0  0  0
   -0.7500    1.2990    0.0000 C   0  0  0  0  0  0  0  0  0  0  0  0
   -1.5000    0.0000    0.0000 C   0  0  0  0  0  0  0  0  0  0  0  0
   -0.7500   -1.2990    0.0000 C   0  0  0  0  0  0  0  0  0  0  0  0
   -1.9635   -2.1807    0.0000 C   0  0  0  0  0  0  0  0  0  0  0  0
   -2.9672   -1.0660    0.0000 C   0  0  0  0  0  0  0  0  0  0  0  0
   -4.4344   -1.3779    0.0000 C   0  0  0  0  0  0  0  0  0  0  0  0
   -4.8980   -2.8045    0.0000 C   0  0  0  0  0  0  0  0  0  0  0  0
   -3.8943   -3.9192    0.0000 C   0  0  0  0  0  0  0  0  0  0  0  0
   -2.4271   -3.6073    0.0000 C   0  0  0  0  0  0  0  0  0  0  0  0
   -1.9635   -5.0339    0.0000 C   0  0  0  0  0  0  0  0  0  0  0  0
   -3.3338   -5.6440    0.0000 C   0  0  0  0  0  0  0  0  0  0  0  0
   -3.4906   -7.1358    0.0000 C   0  0  0  0  0  0  0  0  0  0  0  0
   -2.2771   -8.0175    0.0000 C   0  0  0  0  0  0  0  0  0  0  0  0
   -2.4339   -9.5092    0.0000 O   0  0  0  0  0  0  0  0  0  0  0  0
   -0.9068   -7.4073    0.0000 C   0  0  0  0  0  0  0  0  0  0  0  0
   -0.7500   -5.9156    0.0000 C   0  0  0  0  0  0  0  0  0  0  0  0
  1  2  1  0
  2  3  1  0
  3  4  1  0
  4  5  1  0
  5  6  1  0
  6  7  2  0
  6  8  1  0
  8  9  1  0
  9 10  2  0
 10 11  1  0
 11 12  2  0
 12 13  1  0
 13 14  2  0
  5 15  1  0
 15 16  2  0
 16 17  1  0
 17 18  2  0
 18 19  1  0
 19 20  2  0
 20 21  1  0
 21 22  2  0
 22 23  1  0
 23 24  2  0
 24 25  1  0
 25 26  2  0
 26 27  1  0
 27 28  2  0
 28 29  1  0
 29 30  2  0
 30 31  1  0
 30 32  1  0
 32 33  2  0
 33  2  1  0
 14  9  1  0
 20 15  1  0
 26 21  1  0
 33 27  1  0
M  END
>  <Title>  (659) 
idAAXOgen7

$$$$

     RDKit          2D

 50 57  0  0  0  0  0  0  0  0999 V2000
    5.2417   -6.1122    0.0000 C   0  0  0  0  0  0  0  0  0  0  0  0
    3.7705   -5.8195    0.0000 C   0  0  0  0  0  0  0  0  0  0  0  0
    3.7705   -4.3195    0.0000 C   0  0  0  0  0  0  0  0  0  0  0  0
    3.1965   -2.9337    0.0000 C   0  0  0  0  0  0  0  0  0  0  0  0
    2.1358   -1.8731    0.0000 C   0  0  0  0  0  0  0  0  0  0  0  0
    2.9692   -0.6259    0.0000 C   0  0  0  0  0  0  0  0  0  0  0  0
    2.3057    0.7195    0.0000 O   0  0  0  0  0  0  0  0  0  0  0  0
    4.4660   -0.7240    0.0000 N   0  0  0  0  0  0  0  0  0  0  0  0
    5.2993    0.5232    0.0000 C   0  0  0  0  0  0  0  0  0  0  0  0
    6.7961    0.4251    0.0000 N   0  0  0  0  0  0  0  0  0  0  0  0
    7.6295    1.6723    0.0000 N   0  0  0  0  0  0  0  0  0  0  0  0
    6.9660    3.0176    0.0000 N   0  0  0  0  0  0  0  0  0  0  0  0
    5.4692    3.1158    0.0000 N   0  0  0  0  0  0  0  0  0  0  0  0
    4.6359    1.8686    0.0000 N   0  0  0  0  0  0  0  0  0  0  0  0
    0.7500   -1.2990    0.0000 C   0  0  0  0  0  0  0  0  0  0  0  0
    1.5000    0.0000    0.0000 C   0  0  0  0  0  0  0  0  0  0  0  0
    0.7500    1.2990    0.0000 C   0  0  0  0  0  0  0  0  0  0  0  0
   -0.7500    1.2990    0.0000 C   0  0  0  0  0  0  0  0  0  0  0  0
   -1.5000    0.0000    0.0000 C   0  0  0  0  0  0  0  0  0  0  0  0
   -0.7500   -1.2990    0.0000 C   0  0  0  0  0  0  0  0  0  0  0  0
   -2.1358   -1.8731    0.0000 C   0  0  0  0  0  0  0  0  0  0  0  0
   -2.5240   -0.4242    0.0000 C   0  0  0  0  0  0  0  0  0  0  0  0
   -3.9729   -0.0359    0.0000 C   0  0  0  0  0  0  0  0  0  0  0  0
   -5.0336   -1.0966    0.0000 C   0  0  0  0  0  0  0  0  0  0  0  0
   -4.6454   -2.5455    0.0000 C   0  0  0  0  0  0  0  0  0  0  0  0
   -3.1965   -2.9337    0.0000 C   0  0  0  0  0  0  0  0  0  0  0  0
   -3.7705   -4.3195    0.0000 C   0  0  0  0  0  0  0  0  0  0  0  0
   -5.0695   -3.5695    0.0000 C   0  0  0  0  0  0  0  0  0  0  0  0
   -6.3686   -4.3195    0.0000 C   0  0  0  0  0  0  0  0  0  0  0  0
   -6.3686   -5.8195    0.0000 C   0  0  0  0  0  0  0  0  0  0  0  0
   -5.0695   -6.5695    0.0000 C   0  0  0  0  0  0  0  0  0  0  0  0
   -3.7705   -5.8195    0.0000 C   0  0  0  0  0  0  0  0  0  0  0  0
   -3.1965   -7.2054    0.0000 C   0  0  0  0  0  0  0  0  0  0  0  0
   -4.6454   -7.5936    0.0000 C   0  0  0  0  0  0  0  0  0  0  0  0
   -5.0336   -9.0425    0.0000 C   0  0  0  0  0  0  0  0  0  0  0  0
   -3.9729  -10.1031    0.0000 C   0  0  0  0  0  0  0  0  0  0  0  0
   -2.5240   -9.7149    0.0000 C   0  0  0  0  0  0  0  0  0  0  0  0
   -2.1358   -8.2660    0.0000 C   0  0  0  0  0  0  0  0  0  0  0  0
   -0.7500   -8.8400    0.0000 C   0  0  0  0  0  0  0  0  0  0  0  0
   -1.5000  -10.1391    0.0000 C   0  0  0  0  0  0  0  0  0  0  0  0
   -0.7500  -11.4381    0.0000 C   0  0  0  0  0  0  0  0  0  0  0  0
    0.7500  -11.4381    0.0000 C   0  0  0  0  0  0  0  0  0  0  0  0
    1.5000  -10.1391    0.0000 C   0  0  0  0  0  0  0  0  0  0  0  0
    0.7500   -8.8400    0.0000 C   0  0  0  0  0  0  0  0  0  0  0  0
    2.1358   -8.2660    0.0000 C   0  0  0  0  0  0  0  0  0  0  0  0
    2.5240   -9.7149    0.0000 C   0  0  0  0  0  0  0  0  0  0  0  0
    3.9729  -10.1031    0.0000 C   0  0  0  0  0  0  0  0  0  0  0  0
    5.0336   -9.0425    0.0000 C   0  0  0  0  0  0  0  0  0  0  0  0
    4.6454   -7.5936    0.0000 C   0  0  0  0  0  0  0  0  0  0  0  0
    3.1965   -7.2054    0.0000 C   0  0  0  0  0  0  0  0  0  0  0  0
  1  2  1  0
  2  3  2  0
  3  4  1  0
  4  5  2  0
  5  6  1  0
  6  7  2  0
  6  8  1  0
  8  9  1  0
  9 10  2  0
 10 11  1  0
 11 12  2  0
 12 13  1  0
 13 14  2  0
  5 15  1  0
 15 16  2  0
 16 17  1  0
 17 18  2  0
 18 19  1  0
 19 20  2  0
 20 21  1  0
 21 22  2  0
 22 23  1  0
 23 24  2  0
 24 25  1  0
 25 26  2  0
 26 27  1  0
 27 28  2  0
 28 29  1  0
 29 30  2  0
 30 31  1  0
 31 32  2  0
 32 33  1  0
 33 34  2  0
 34 35  1  0
 35 36  2  0
 36 37  1  0
 37 38  2  0
 38 39  1  0
 39 40  2  0
 40 41  1  0
 41 42  2  0
 42 43  1  0
 43 44  2  0
 44 45  1  0
 45 46  2  0
 46 47  1  0
 47 48  2  0
 48 49  1  0
 49 50  2  0
 50  2  1  0
 14  9  1  0
 20 15  1  0
 26 21  1  0
 32 27  1  0
 38 33  1  0
 44 39  1  0
 50 45  1  0
M  END
>  <Title>  (660) 
idAAXPgen7

$$$$

     RDKit          2D

  9  9  0  0  0  0  0  0  0  0999 V2000
    3.2286   -0.0000    0.0000 C   0  0  0  0  0  0  0  0  0  0  0  0
    1.7286    0.0000    0.0000 C   0  0  0  0  0  0  0  0  0  0  0  0
    1.0777    1.3515    0.0000 C   0  0  0  0  0  0  0  0  0  0  0  0
   -0.3846    1.6852    0.0000 C   0  0  0  0  0  0  0  0  0  0  0  0
   -1.5574    0.7500    0.0000 C   0  0  0  0  0  0  0  0  0  0  0  0
   -1.5574   -0.7500    0.0000 C   0  0  0  0  0  0  0  0  0  0  0  0
   -0.3846   -1.6852    0.0000 C   0  0  0  0  0  0  0  0  0  0  0  0
   -0.7184   -3.1476    0.0000 C   0  0  0  0  0  0  0  0  0  0  0  0
    1.0777   -1.3515    0.0000 C   0  0  0  0  0  0  0  0  0  0  0  0
  1  2  1  0
  2  3  1  0
  3  4  1  0
  4  5  1  0
  5  6  1  0
  6  7  1  0
  7  8  1  0
  7  9  1  0
  9  2  1  0
M  END
>  <Title>  (661) 
idAAXQgen7

$$$$

     RDKit          2D

  7  7  0  0  0  0  0  0  0  0999 V2000
    3.0000    0.0000    0.0000 C   0  0  0  0  0  0  0  0  0  0  0  0
    1.5000    0.0000    0.0000 C   0  0  0  0  0  0  0  0  0  0  0  0
    0.7500   -1.2990    0.0000 C   0  0  0  0  0  0  0  0  0  0  0  0
   -0.7500   -1.2990    0.0000 C   0  0  0  0  0  0  0  0  0  0  0  0
   -1.5000    0.0000    0.0000 C   0  0  0  0  0  0  0  0  0  0  0  0
   -0.7500    1.2990    0.0000 C   0  0  0  0  0  0  0  0  0  0  0  0
    0.7500    1.2990    0.0000 C   0  0  0  0  0  0  0  0  0  0  0  0
  1  2  1  0
  2  3  1  0
  3  4  1  0
  4  5  1  0
  5  6  1  0
  6  7  1  0
  7  2  1  0
M  END
>  <Title>  (662) 
idAAXRgen7

$$$$

     RDKit          2D

 42 47  0  0  0  0  0  0  0  0999 V2000
    9.5745   -4.2069    0.0000 C   0  0  0  0  0  0  0  0  0  0  0  0
    8.0766   -4.2854    0.0000 C   0  0  0  0  0  0  0  0  0  0  0  0
    7.6884   -2.8365    0.0000 C   0  0  0  0  0  0  0  0  0  0  0  0
    6.7444   -1.6708    0.0000 C   0  0  0  0  0  0  0  0  0  0  0  0
    5.4079   -0.9898    0.0000 C   0  0  0  0  0  0  0  0  0  0  0  0
    3.9099   -0.9113    0.0000 C   0  0  0  0  0  0  0  0  0  0  0  0
    2.5095   -1.4489    0.0000 C   0  0  0  0  0  0  0  0  0  0  0  0
    2.8978    0.0000    0.0000 C   0  0  0  0  0  0  0  0  0  0  0  0
    2.5095    1.4489    0.0000 C   0  0  0  0  0  0  0  0  0  0  0  0
    1.4489    2.5095    0.0000 C   0  0  0  0  0  0  0  0  0  0  0  0
    0.0000    2.8978    0.0000 C   0  0  0  0  0  0  0  0  0  0  0  0
   -1.4489    2.5095    0.0000 C   0  0  0  0  0  0  0  0  0  0  0  0
   -2.5095    1.4489    0.0000 C   0  0  0  0  0  0  0  0  0  0  0  0
   -2.8978    0.0000    0.0000 C   0  0  0  0  0  0  0  0  0  0  0  0
   -2.5095   -1.4489    0.0000 C   0  0  0  0  0  0  0  0  0  0  0  0
   -1.4489   -2.5095    0.0000 C   0  0  0  0  0  0  0  0  0  0  0  0
   -0.0000   -2.8978    0.0000 C   0  0  0  0  0  0  0  0  0  0  0  0
    1.4489   -2.5095    0.0000 C   0  0  0  0  0  0  0  0  0  0  0  0
    0.9113   -3.9099    0.0000 C   0  0  0  0  0  0  0  0  0  0  0  0
   -0.3885   -3.9280    0.0000 C   0  0  0  0  0  0  0  0  0  0  0  0
   -1.0595   -4.3637    0.0000 C   0  0  0  0  0  0  0  0  0  0  0  0
   -1.0176   -5.1626    0.0000 C   0  0  0  0  0  0  0  0  0  0  0  0
   -0.3048   -5.5258    0.0000 C   0  0  0  0  0  0  0  0  0  0  0  0
    0.9898   -5.4079    0.0000 C   0  0  0  0  0  0  0  0  0  0  0  0
    1.6708   -6.7444    0.0000 C   0  0  0  0  0  0  0  0  0  0  0  0
    0.2705   -7.2819    0.0000 C   0  0  0  0  0  0  0  0  0  0  0  0
    0.0358   -8.7635    0.0000 C   0  0  0  0  0  0  0  0  0  0  0  0
    1.2015   -9.7074    0.0000 C   0  0  0  0  0  0  0  0  0  0  0  0
    2.6019   -9.1699    0.0000 C   0  0  0  0  0  0  0  0  0  0  0  0
    2.8365   -7.6884    0.0000 C   0  0  0  0  0  0  0  0  0  0  0  0
    4.2854   -8.0766    0.0000 C   0  0  0  0  0  0  0  0  0  0  0  0
    3.7479   -9.4770    0.0000 C   0  0  0  0  0  0  0  0  0  0  0  0
    4.6919  -10.6427    0.0000 C   0  0  0  0  0  0  0  0  0  0  0  0
    6.1734  -10.4080    0.0000 C   0  0  0  0  0  0  0  0  0  0  0  0
    6.7109   -9.0077    0.0000 C   0  0  0  0  0  0  0  0  0  0  0  0
    5.7670   -7.8419    0.0000 C   0  0  0  0  0  0  0  0  0  0  0  0
    7.0250   -7.0250    0.0000 C   0  0  0  0  0  0  0  0  0  0  0  0
    7.7060   -8.3615    0.0000 C   0  0  0  0  0  0  0  0  0  0  0  0
    9.2039   -8.4400    0.0000 C   0  0  0  0  0  0  0  0  0  0  0  0
   10.0209   -7.1820    0.0000 C   0  0  0  0  0  0  0  0  0  0  0  0
    9.3399   -5.8455    0.0000 C   0  0  0  0  0  0  0  0  0  0  0  0
    7.8419   -5.7670    0.0000 C   0  0  0  0  0  0  0  0  0  0  0  0
  1  2  1  0
  2  3  1  0
  3  4  2  0
  4  5  1  0
  5  6  1  0
  6  7  2  0
  7  8  1  0
  8  9  1  0
  9 10  1  0
 10 11  1  0
 11 12  1  0
 12 13  1  0
 13 14  2  0
 14 15  1  0
 15 16  2  0
 16 17  1  0
 17 18  2  0
 18 19  1  0
 19 20  2  0
 20 21  1  0
 21 22  2  0
 22 23  1  0
 23 24  2  0
 24 25  1  0
 25 26  2  0
 26 27  1  0
 27 28  2  0
 28 29  1  0
 29 30  2  0
 30 31  1  0
 31 32  2  0
 32 33  1  0
 33 34  2  0
 34 35  1  0
 35 36  2  0
 36 37  1  0
 37 38  2  0
 38 39  1  0
 39 40  2  0
 40 41  1  0
 41 42  2  0
 42  2  1  0
 18  7  1  0
 24 19  1  0
 30 25  1  0
 36 31  1  0
 42 37  1  0
M  END
>  <Title>  (663) 
idAAXSgen7

$$$$

     RDKit          2D

  6  6  0  0  0  0  0  0  0  0999 V2000
    1.5000    0.0000    0.0000 C   0  0  0  0  0  0  0  0  0  0  0  0
    0.7500   -1.2990    0.0000 C   0  0  0  0  0  0  0  0  0  0  0  0
   -0.7500   -1.2990    0.0000 C   0  0  0  0  0  0  0  0  0  0  0  0
   -1.5000    0.0000    0.0000 C   0  0  0  0  0  0  0  0  0  0  0  0
   -0.7500    1.2990    0.0000 C   0  0  0  0  0  0  0  0  0  0  0  0
    0.7500    1.2990    0.0000 C   0  0  0  0  0  0  0  0  0  0  0  0
  1  2  2  0
  2  3  1  0
  3  4  1  0
  4  5  2  0
  5  6  1  0
  6  1  1  0
M  END
>  <Title>  (664) 
idAAXTgen7

$$$$

     RDKit          2D

  9  9  0  0  0  0  0  0  0  0999 V2000
    3.9786   -1.2990    0.0000 C   0  0  0  0  0  0  0  0  0  0  0  0
    3.2286   -0.0000    0.0000 O   0  0  0  0  0  0  0  0  0  0  0  0
    1.7286    0.0000    0.0000 C   0  0  0  0  0  0  0  0  0  0  0  0
    1.0777    1.3515    0.0000 C   0  0  0  0  0  0  0  0  0  0  0  0
   -0.3846    1.6852    0.0000 C   0  0  0  0  0  0  0  0  0  0  0  0
   -1.5574    0.7500    0.0000 C   0  0  0  0  0  0  0  0  0  0  0  0
   -1.5574   -0.7500    0.0000 C   0  0  0  0  0  0  0  0  0  0  0  0
   -0.3846   -1.6852    0.0000 C   0  0  0  0  0  0  0  0  0  0  0  0
    1.0777   -1.3515    0.0000 C   0  0  0  0  0  0  0  0  0  0  0  0
  1  2  1  0
  2  3  1  0
  3  4  2  0
  4  5  1  0
  5  6  1  0
  6  7  1  0
  7  8  1  0
  8  9  1  0
  9  3  1  0
M  END
>  <Title>  (665) 
idAAXUgen7

$$$$

     RDKit          2D

 30 32  0  0  0  0  0  0  0  0999 V2000
    3.0000    0.0000    0.0000 C   0  0  0  0  0  0  0  0  0  0  0  0
    1.5000    0.0000    0.0000 C   0  0  0  0  0  0  0  0  0  0  0  0
    0.7500   -1.2990    0.0000 C   0  0  0  0  0  0  0  0  0  0  0  0
   -0.7500   -1.2990    0.0000 C   0  0  0  0  0  0  0  0  0  0  0  0
   -1.5000    0.0000    0.0000 C   0  0  0  0  0  0  0  0  0  0  0  0
   -3.0000    0.0000    0.0000 C   0  0  0  0  0  0  0  0  0  0  0  0
   -3.7500   -1.2990    0.0000 O   0  0  0  0  0  0  0  0  0  0  0  0
   -3.7500    1.2990    0.0000 N   0  0  0  0  0  0  0  0  0  0  0  0
   -5.2500    1.2990    0.0000 C   0  0  0  0  0  0  0  0  0  0  0  0
   -6.0000    2.5981    0.0000 C   0  0  0  0  0  0  0  0  0  0  0  0
   -7.5000    2.5981    0.0000 C   0  0  0  0  0  0  0  0  0  0  0  0
   -8.2500    3.8971    0.0000 C   0  0  0  0  0  0  0  0  0  0  0  0
   -9.7500    3.8971    0.0000 C   0  0  0  0  0  0  0  0  0  0  0  0
  -10.5000    2.5981    0.0000 C   0  0  0  0  0  0  0  0  0  0  0  0
   -9.7500    1.2990    0.0000 O   0  0  0  0  0  0  0  0  0  0  0  0
  -12.0000    2.5981    0.0000 N   0  0  0  0  0  0  0  0  0  0  0  0
  -12.7500    1.2990    0.0000 C   0  0  0  0  0  0  0  0  0  0  0  0
  -14.2500    1.2990    0.0000 N   0  0  0  0  0  0  0  0  0  0  0  0
  -15.0000   -0.0000    0.0000 N   0  0  0  0  0  0  0  0  0  0  0  0
  -14.2500   -1.2990    0.0000 N   0  0  0  0  0  0  0  0  0  0  0  0
  -12.7500   -1.2990    0.0000 N   0  0  0  0  0  0  0  0  0  0  0  0
  -12.0000   -0.0000    0.0000 N   0  0  0  0  0  0  0  0  0  0  0  0
  -10.5000    5.1962    0.0000 C   0  0  0  0  0  0  0  0  0  0  0  0
   -9.7500    6.4952    0.0000 C   0  0  0  0  0  0  0  0  0  0  0  0
  -10.5000    7.7942    0.0000 C   0  0  0  0  0  0  0  0  0  0  0  0
  -12.0000    7.7942    0.0000 C   0  0  0  0  0  0  0  0  0  0  0  0
  -12.7500    6.4952    0.0000 C   0  0  0  0  0  0  0  0  0  0  0  0
  -12.0000    5.1962    0.0000 C   0  0  0  0  0  0  0  0  0  0  0  0
   -0.7500    1.2990    0.0000 C   0  0  0  0  0  0  0  0  0  0  0  0
    0.7500    1.2990    0.0000 C   0  0  0  0  0  0  0  0  0  0  0  0
  1  2  1  0
  2  3  1  0
  3  4  1  0
  4  5  1  0
  5  6  1  0
  6  7  2  0
  6  8  1  0
  8  9  1  0
  9 10  1  0
 10 11  2  3
 11 12  1  0
 12 13  2  3
 13 14  1  0
 14 15  2  0
 14 16  1  0
 16 17  1  0
 17 18  2  0
 18 19  1  0
 19 20  2  0
 20 21  1  0
 21 22  2  0
 13 23  1  0
 23 24  2  0
 24 25  1  0
 25 26  2  0
 26 27  1  0
 27 28  2  0
  5 29  1  0
 29 30  1  0
 30  2  1  0
 22 17  1  0
 28 23  1  0
M  END
>  <Title>  (666) 
idAAXVgen7

$$$$

     RDKit          2D

  5  4  0  0  0  0  0  0  0  0999 V2000
    0.0000    0.0000    0.0000 C   0  0  0  0  0  0  0  0  0  0  0  0
    1.2990    0.7500    0.0000 C   0  0  0  0  0  0  0  0  0  0  0  0
    2.5981    1.5000    0.0000 C   0  0  0  0  0  0  0  0  0  0  0  0
    2.0490   -0.5490    0.0000 C   0  0  0  0  0  0  0  0  0  0  0  0
    0.5490    2.0490    0.0000 O   0  0  0  0  0  0  0  0  0  0  0  0
  1  2  1  0
  2  3  1  0
  2  4  1  0
  2  5  1  0
M  END
>  <Title>  (667) 
idAAXWgen7

$$$$

     RDKit          2D

  6  6  0  0  0  0  0  0  0  0999 V2000
    2.7760    0.0000    0.0000 C   0  0  0  0  0  0  0  0  0  0  0  0
    1.2760    0.0000    0.0000 C   0  0  0  0  0  0  0  0  0  0  0  0
    0.3943    1.2135    0.0000 C   0  0  0  0  0  0  0  0  0  0  0  0
   -1.0323    0.7500    0.0000 C   0  0  0  0  0  0  0  0  0  0  0  0
   -1.0323   -0.7500    0.0000 C   0  0  0  0  0  0  0  0  0  0  0  0
    0.3943   -1.2135    0.0000 C   0  0  0  0  0  0  0  0  0  0  0  0
  1  2  1  0
  2  3  1  0
  3  4  2  0
  4  5  1  0
  5  6  1  0
  6  2  1  0
M  END
>  <Title>  (668) 
idAAXXgen7

$$$$

     RDKit          2D

 95 96  0  0  0  0  0  0  0  0999 V2000
   -5.5676   -0.4850    0.0000 C   0  0  0  0  0  0  0  0  0  0  0  0
   -5.1966   -1.9384    0.0000 C   0  0  0  0  0  0  0  0  0  0  0  0
   -6.6359   -2.3610    0.0000 C   0  0  0  0  0  0  0  0  0  0  0  0
   -8.0413   -2.8852    0.0000 C   0  0  0  0  0  0  0  0  0  0  0  0
   -9.4057   -3.5083    0.0000 C   0  0  0  0  0  0  0  0  0  0  0  0
  -10.7223   -4.2272    0.0000 C   0  0  0  0  0  0  0  0  0  0  0  0
  -11.9841   -5.0381    0.0000 C   0  0  0  0  0  0  0  0  0  0  0  0
  -13.1850   -5.9370    0.0000 C   0  0  0  0  0  0  0  0  0  0  0  0
  -14.3186   -6.9193    0.0000 C   0  0  0  0  0  0  0  0  0  0  0  0
  -15.3792   -7.9800    0.0000 C   0  0  0  0  0  0  0  0  0  0  0  0
  -16.3615   -9.1136    0.0000 C   0  0  0  0  0  0  0  0  0  0  0  0
  -17.2604  -10.3144    0.0000 C   0  0  0  0  0  0  0  0  0  0  0  0
  -18.0714  -11.5763    0.0000 C   0  0  0  0  0  0  0  0  0  0  0  0
  -18.7903  -12.8928    0.0000 C   0  0  0  0  0  0  0  0  0  0  0  0
  -19.4134  -14.2573    0.0000 C   0  0  0  0  0  0  0  0  0  0  0  0
  -19.9376  -15.6627    0.0000 C   0  0  0  0  0  0  0  0  0  0  0  0
  -20.3602  -17.1019    0.0000 C   0  0  0  0  0  0  0  0  0  0  0  0
  -20.6790  -18.5677    0.0000 C   0  0  0  0  0  0  0  0  0  0  0  0
  -20.8925  -20.0524    0.0000 C   0  0  0  0  0  0  0  0  0  0  0  0
  -20.9995  -21.5486    0.0000 C   0  0  0  0  0  0  0  0  0  0  0  0
  -20.9995  -23.0486    0.0000 C   0  0  0  0  0  0  0  0  0  0  0  0
  -20.8925  -24.5447    0.0000 C   0  0  0  0  0  0  0  0  0  0  0  0
  -20.6790  -26.0295    0.0000 C   0  0  0  0  0  0  0  0  0  0  0  0
  -20.3602  -27.4952    0.0000 C   0  0  0  0  0  0  0  0  0  0  0  0
  -19.9376  -28.9344    0.0000 C   0  0  0  0  0  0  0  0  0  0  0  0
  -19.4134  -30.3399    0.0000 C   0  0  0  0  0  0  0  0  0  0  0  0
  -18.7903  -31.7043    0.0000 C   0  0  0  0  0  0  0  0  0  0  0  0
  -18.0714  -33.0208    0.0000 C   0  0  0  0  0  0  0  0  0  0  0  0
  -17.2604  -34.2827    0.0000 C   0  0  0  0  0  0  0  0  0  0  0  0
  -16.3615  -35.4835    0.0000 C   0  0  0  0  0  0  0  0  0  0  0  0
  -15.3792  -36.6171    0.0000 C   0  0  0  0  0  0  0  0  0  0  0  0
  -14.3186  -37.6778    0.0000 C   0  0  0  0  0  0  0  0  0  0  0  0
  -13.1850  -38.6601    0.0000 C   0  0  0  0  0  0  0  0  0  0  0  0
  -11.9841  -39.5590    0.0000 C   0  0  0  0  0  0  0  0  0  0  0  0
  -10.7223  -40.3700    0.0000 C   0  0  0  0  0  0  0  0  0  0  0  0
   -9.4057  -41.0888    0.0000 C   0  0  0  0  0  0  0  0  0  0  0  0
   -8.0413  -41.7120    0.0000 C   0  0  0  0  0  0  0  0  0  0  0  0
   -6.6359  -42.2362    0.0000 C   0  0  0  0  0  0  0  0  0  0  0  0
   -5.1966  -42.6588    0.0000 C   0  0  0  0  0  0  0  0  0  0  0  0
   -3.7309  -42.9776    0.0000 C   0  0  0  0  0  0  0  0  0  0  0  0
   -2.2462  -43.1911    0.0000 C   0  0  0  0  0  0  0  0  0  0  0  0
   -0.7500  -43.2981    0.0000 C   0  0  0  0  0  0  0  0  0  0  0  0
    0.7500  -43.2981    0.0000 C   0  0  0  0  0  0  0  0  0  0  0  0
    2.2462  -43.1911    0.0000 C   0  0  0  0  0  0  0  0  0  0  0  0
    3.7309  -42.9776    0.0000 C   0  0  0  0  0  0  0  0  0  0  0  0
    5.1966  -42.6588    0.0000 C   0  0  0  0  0  0  0  0  0  0  0  0
    6.6359  -42.2362    0.0000 C   0  0  0  0  0  0  0  0  0  0  0  0
    8.0413  -41.7120    0.0000 C   0  0  0  0  0  0  0  0  0  0  0  0
    9.4057  -41.0888    0.0000 C   0  0  0  0  0  0  0  0  0  0  0  0
   10.7223  -40.3700    0.0000 C   0  0  0  0  0  0  0  0  0  0  0  0
   11.9841  -39.5590    0.0000 C   0  0  0  0  0  0  0  0  0  0  0  0
   13.1850  -38.6601    0.0000 C   0  0  0  0  0  0  0  0  0  0  0  0
   14.3186  -37.6778    0.0000 C   0  0  0  0  0  0  0  0  0  0  0  0
   15.3792  -36.6171    0.0000 C   0  0  0  0  0  0  0  0  0  0  0  0
   16.3615  -35.4835    0.0000 C   0  0  0  0  0  0  0  0  0  0  0  0
   17.2604  -34.2827    0.0000 C   0  0  0  0  0  0  0  0  0  0  0  0
   18.0714  -33.0208    0.0000 C   0  0  0  0  0  0  0  0  0  0  0  0
   18.7903  -31.7043    0.0000 C   0  0  0  0  0  0  0  0  0  0  0  0
   19.4134  -30.3399    0.0000 C   0  0  0  0  0  0  0  0  0  0  0  0
   19.9376  -28.9344    0.0000 C   0  0  0  0  0  0  0  0  0  0  0  0
   20.3602  -27.4952    0.0000 C   0  0  0  0  0  0  0  0  0  0  0  0
   20.6790  -26.0295    0.0000 C   0  0  0  0  0  0  0  0  0  0  0  0
   20.8925  -24.5447    0.0000 C   0  0  0  0  0  0  0  0  0  0  0  0
   20.9995  -23.0486    0.0000 C   0  0  0  0  0  0  0  0  0  0  0  0
   20.9995  -21.5486    0.0000 C   0  0  0  0  0  0  0  0  0  0  0  0
   20.8925  -20.0524    0.0000 C   0  0  0  0  0  0  0  0  0  0  0  0
   20.6790  -18.5677    0.0000 C   0  0  0  0  0  0  0  0  0  0  0  0
   20.3602  -17.1019    0.0000 C   0  0  0  0  0  0  0  0  0  0  0  0
   19.9376  -15.6627    0.0000 C   0  0  0  0  0  0  0  0  0  0  0  0
   19.4134  -14.2573    0.0000 C   0  0  0  0  0  0  0  0  0  0  0  0
   18.7903  -12.8928    0.0000 C   0  0  0  0  0  0  0  0  0  0  0  0
   18.0714  -11.5763    0.0000 C   0  0  0  0  0  0  0  0  0  0  0  0
   17.2604  -10.3144    0.0000 C   0  0  0  0  0  0  0  0  0  0  0  0
   16.3615   -9.1136    0.0000 C   0  0  0  0  0  0  0  0  0  0  0  0
   15.3792   -7.9800    0.0000 C   0  0  0  0  0  0  0  0  0  0  0  0
   14.3186   -6.9193    0.0000 C   0  0  0  0  0  0  0  0  0  0  0  0
   13.1850   -5.9370    0.0000 C   0  0  0  0  0  0  0  0  0  0  0  0
   11.9841   -5.0381    0.0000 C   0  0  0  0  0  0  0  0  0  0  0  0
   10.7223   -4.2272    0.0000 C   0  0  0  0  0  0  0  0  0  0  0  0
    9.4057   -3.5083    0.0000 C   0  0  0  0  0  0  0  0  0  0  0  0
    8.0413   -2.8852    0.0000 C   0  0  0  0  0  0  0  0  0  0  0  0
    6.6359   -2.3610    0.0000 C   0  0  0  0  0  0  0  0  0  0  0  0
    5.1966   -1.9384    0.0000 C   0  0  0  0  0  0  0  0  0  0  0  0
    3.7309   -1.6195    0.0000 C   0  0  0  0  0  0  0  0  0  0  0  0
    2.2462   -1.4060    0.0000 C   0  0  0  0  0  0  0  0  0  0  0  0
    2.4065    0.0854    0.0000 C   0  0  0  0  0  0  0  0  0  0  0  0
    0.7500   -1.2990    0.0000 C   0  0  0  0  0  0  0  0  0  0  0  0
    1.5000    0.0000    0.0000 C   0  0  0  0  0  0  0  0  0  0  0  0
    0.7500    1.2990    0.0000 C   0  0  0  0  0  0  0  0  0  0  0  0
   -0.7500    1.2990    0.0000 C   0  0  0  0  0  0  0  0  0  0  0  0
   -1.5000    0.0000    0.0000 C   0  0  0  0  0  0  0  0  0  0  0  0
   -0.7500   -1.2990    0.0000 C   0  0  0  0  0  0  0  0  0  0  0  0
   -2.2462   -1.4060    0.0000 O   0  0  0  0  0  0  0  0  0  0  0  0
   -3.7309   -1.6195    0.0000 C   0  0  0  0  0  0  0  0  0  0  0  0
   -3.9972   -0.1434    0.0000 O   0  0  0  0  0  0  0  0  0  0  0  0
  1  2  1  0
  2  3  2  0
  3  4  1  0
  4  5  2  0
  5  6  1  0
  6  7  2  0
  7  8  1  0
  8  9  2  0
  9 10  1  0
 10 11  2  0
 11 12  1  0
 12 13  2  0
 13 14  1  0
 14 15  2  0
 15 16  1  0
 16 17  2  0
 17 18  1  0
 18 19  2  0
 19 20  1  0
 20 21  2  0
 21 22  1  0
 22 23  2  0
 23 24  1  0
 24 25  1  0
 25 26  1  0
 26 27  1  0
 27 28  1  0
 28 29  1  0
 29 30  1  0
 30 31  1  0
 31 32  1  0
 32 33  1  0
 33 34  1  0
 34 35  1  0
 35 36  1  0
 36 37  1  0
 37 38  1  0
 38 39  1  0
 39 40  1  0
 40 41  1  0
 41 42  1  0
 42 43  1  0
 43 44  1  0
 44 45  1  0
 45 46  1  0
 46 47  1  0
 47 48  1  0
 48 49  1  0
 49 50  1  0
 50 51  1  0
 51 52  1  0
 52 53  1  0
 53 54  1  0
 54 55  1  0
 55 56  1  0
 56 57  1  0
 57 58  1  0
 58 59  1  0
 59 60  1  0
 60 61  1  0
 61 62  1  0
 62 63  1  0
 63 64  1  0
 64 65  1  0
 65 66  1  0
 66 67  1  0
 67 68  1  0
 68 69  1  0
 69 70  1  0
 70 71  1  0
 71 72  1  0
 72 73  1  0
 73 74  1  0
 74 75  1  0
 75 76  1  0
 76 77  1  0
 77 78  1  0
 78 79  1  0
 79 80  1  0
 80 81  1  0
 81 82  1  0
 82 83  1  0
 83 84  1  0
 84 85  1  0
 85 86  1  0
 85 87  1  0
 87 88  2  0
 88 89  1  0
 89 90  2  0
 90 91  1  0
 91 92  2  0
 92 93  1  0
 93 94  1  0
 94 95  2  0
 94  2  1  0
 92 87  1  0
M  END
>  <Title>  (669) 
idAAXYgen7

$$$$

     RDKit          2D

  5  4  0  0  0  0  0  0  0  0999 V2000
    0.0000    0.0000    0.0000 C   0  0  0  0  0  0  0  0  0  0  0  0
    1.2990    0.7500    0.0000 C   0  0  0  0  0  0  0  0  0  0  0  0
    2.5981    1.5000    0.0000 C   0  0  0  0  0  0  0  0  0  0  0  0
    2.0490   -0.5490    0.0000 C   0  0  0  0  0  0  0  0  0  0  0  0
    0.5490    2.0490    0.0000 C   0  0  0  0  0  0  0  0  0  0  0  0
  1  2  1  0
  2  3  1  0
  2  4  1  0
  2  5  1  0
M  END
>  <Title>  (670) 
idAAXZgen7

$$$$

     RDKit          2D

 97 99  0  0  0  0  0  0  0  0999 V2000
   -2.4176    0.0762    0.0000 C   0  0  0  0  0  0  0  0  0  0  0  0
   -2.2456   -1.4139    0.0000 C   0  0  0  0  0  0  0  0  0  0  0  0
   -3.7280   -1.6428    0.0000 C   0  0  0  0  0  0  0  0  0  0  0  0
   -5.1886   -1.9846    0.0000 C   0  0  0  0  0  0  0  0  0  0  0  0
   -6.6187   -2.4372    0.0000 C   0  0  0  0  0  0  0  0  0  0  0  0
   -8.0099   -2.9979    0.0000 C   0  0  0  0  0  0  0  0  0  0  0  0
   -9.3542   -3.6635    0.0000 C   0  0  0  0  0  0  0  0  0  0  0  0
  -10.6435   -4.4300    0.0000 C   0  0  0  0  0  0  0  0  0  0  0  0
  -11.8704   -5.2930    0.0000 C   0  0  0  0  0  0  0  0  0  0  0  0
  -13.0276   -6.2474    0.0000 C   0  0  0  0  0  0  0  0  0  0  0  0
  -14.1084   -7.2875    0.0000 C   0  0  0  0  0  0  0  0  0  0  0  0
  -15.1064   -8.4074    0.0000 C   0  0  0  0  0  0  0  0  0  0  0  0
  -16.0158   -9.6003    0.0000 C   0  0  0  0  0  0  0  0  0  0  0  0
  -16.8311  -10.8593    0.0000 C   0  0  0  0  0  0  0  0  0  0  0  0
  -17.5477  -12.1771    0.0000 C   0  0  0  0  0  0  0  0  0  0  0  0
  -18.1613  -13.5459    0.0000 C   0  0  0  0  0  0  0  0  0  0  0  0
  -18.6683  -14.9576    0.0000 C   0  0  0  0  0  0  0  0  0  0  0  0
  -19.0658  -16.4040    0.0000 C   0  0  0  0  0  0  0  0  0  0  0  0
  -19.3514  -17.8765    0.0000 C   0  0  0  0  0  0  0  0  0  0  0  0
  -19.5234  -19.3666    0.0000 C   0  0  0  0  0  0  0  0  0  0  0  0
  -19.5808  -20.8655    0.0000 C   0  0  0  0  0  0  0  0  0  0  0  0
  -19.5234  -22.3644    0.0000 C   0  0  0  0  0  0  0  0  0  0  0  0
  -19.3514  -23.8545    0.0000 C   0  0  0  0  0  0  0  0  0  0  0  0
  -19.0658  -25.3271    0.0000 C   0  0  0  0  0  0  0  0  0  0  0  0
  -18.6683  -26.7735    0.0000 C   0  0  0  0  0  0  0  0  0  0  0  0
  -18.1613  -28.1852    0.0000 C   0  0  0  0  0  0  0  0  0  0  0  0
  -17.5477  -29.5539    0.0000 C   0  0  0  0  0  0  0  0  0  0  0  0
  -16.8311  -30.8717    0.0000 C   0  0  0  0  0  0  0  0  0  0  0  0
  -16.0158  -32.1307    0.0000 C   0  0  0  0  0  0  0  0  0  0  0  0
  -15.1064  -33.3237    0.0000 C   0  0  0  0  0  0  0  0  0  0  0  0
  -14.1084  -34.4435    0.0000 C   0  0  0  0  0  0  0  0  0  0  0  0
  -13.0276  -35.4837    0.0000 C   0  0  0  0  0  0  0  0  0  0  0  0
  -11.8704  -36.4380    0.0000 C   0  0  0  0  0  0  0  0  0  0  0  0
  -10.6435  -37.3010    0.0000 C   0  0  0  0  0  0  0  0  0  0  0  0
   -9.3542  -38.0675    0.0000 C   0  0  0  0  0  0  0  0  0  0  0  0
   -8.0099  -38.7331    0.0000 C   0  0  0  0  0  0  0  0  0  0  0  0
   -6.6187  -39.2938    0.0000 C   0  0  0  0  0  0  0  0  0  0  0  0
   -5.1886  -39.7464    0.0000 C   0  0  0  0  0  0  0  0  0  0  0  0
   -3.7280  -40.0882    0.0000 C   0  0  0  0  0  0  0  0  0  0  0  0
   -2.2456  -40.3172    0.0000 C   0  0  0  0  0  0  0  0  0  0  0  0
   -0.7500  -40.4320    0.0000 C   0  0  0  0  0  0  0  0  0  0  0  0
    0.7500  -40.4320    0.0000 C   0  0  0  0  0  0  0  0  0  0  0  0
    2.2456  -40.3172    0.0000 C   0  0  0  0  0  0  0  0  0  0  0  0
    3.7280  -40.0882    0.0000 C   0  0  0  0  0  0  0  0  0  0  0  0
    5.1886  -39.7464    0.0000 C   0  0  0  0  0  0  0  0  0  0  0  0
    6.6187  -39.2938    0.0000 C   0  0  0  0  0  0  0  0  0  0  0  0
    8.0099  -38.7331    0.0000 C   0  0  0  0  0  0  0  0  0  0  0  0
    9.3542  -38.0675    0.0000 C   0  0  0  0  0  0  0  0  0  0  0  0
   10.6435  -37.3010    0.0000 C   0  0  0  0  0  0  0  0  0  0  0  0
   11.8704  -36.4380    0.0000 C   0  0  0  0  0  0  0  0  0  0  0  0
   13.0276  -35.4837    0.0000 C   0  0  0  0  0  0  0  0  0  0  0  0
   14.1084  -34.4435    0.0000 C   0  0  0  0  0  0  0  0  0  0  0  0
   15.1064  -33.3237    0.0000 C   0  0  0  0  0  0  0  0  0  0  0  0
   16.0158  -32.1307    0.0000 C   0  0  0  0  0  0  0  0  0  0  0  0
   16.8311  -30.8717    0.0000 C   0  0  0  0  0  0  0  0  0  0  0  0
   17.5477  -29.5539    0.0000 C   0  0  0  0  0  0  0  0  0  0  0  0
   18.1613  -28.1852    0.0000 C   0  0  0  0  0  0  0  0  0  0  0  0
   18.6683  -26.7735    0.0000 C   0  0  0  0  0  0  0  0  0  0  0  0
   19.0658  -25.3271    0.0000 C   0  0  0  0  0  0  0  0  0  0  0  0
   19.3514  -23.8545    0.0000 C   0  0  0  0  0  0  0  0  0  0  0  0
   19.5234  -22.3644    0.0000 C   0  0  0  0  0  0  0  0  0  0  0  0
   19.5808  -20.8655    0.0000 C   0  0  0  0  0  0  0  0  0  0  0  0
   19.5234  -19.3666    0.0000 C   0  0  0  0  0  0  0  0  0  0  0  0
   19.3514  -17.8765    0.0000 C   0  0  0  0  0  0  0  0  0  0  0  0
   19.0658  -16.4040    0.0000 C   0  0  0  0  0  0  0  0  0  0  0  0
   18.6683  -14.9576    0.0000 C   0  0  0  0  0  0  0  0  0  0  0  0
   18.1613  -13.5459    0.0000 C   0  0  0  0  0  0  0  0  0  0  0  0
   17.5477  -12.1771    0.0000 C   0  0  0  0  0  0  0  0  0  0  0  0
   16.8311  -10.8593    0.0000 C   0  0  0  0  0  0  0  0  0  0  0  0
   16.0158   -9.6003    0.0000 C   0  0  0  0  0  0  0  0  0  0  0  0
   15.1064   -8.4074    0.0000 C   0  0  0  0  0  0  0  0  0  0  0  0
   14.1084   -7.2875    0.0000 C   0  0  0  0  0  0  0  0  0  0  0  0
   13.0276   -6.2474    0.0000 C   0  0  0  0  0  0  0  0  0  0  0  0
   11.8704   -5.2930    0.0000 C   0  0  0  0  0  0  0  0  0  0  0  0
   10.6435   -4.4300    0.0000 C   0  0  0  0  0  0  0  0  0  0  0  0
    9.3542   -3.6635    0.0000 C   0  0  0  0  0  0  0  0  0  0  0  0
    8.0099   -2.9979    0.0000 C   0  0  0  0  0  0  0  0  0  0  0  0
    6.6187   -2.4372    0.0000 C   0  0  0  0  0  0  0  0  0  0  0  0
    5.1886   -1.9846    0.0000 C   0  0  0  0  0  0  0  0  0  0  0  0
    3.7280   -1.6428    0.0000 C   0  0  0  0  0  0  0  0  0  0  0  0
    2.2456   -1.4139    0.0000 C   0  0  0  0  0  0  0  0  0  0  0  0
    2.4176    0.0762    0.0000 C   0  0  0  0  0  0  0  0  0  0  0  0
    3.7941    0.6723    0.0000 C   0  0  0  0  0  0  0  0  0  0  0  0
    4.9986   -0.2217    0.0000 O   0  0  0  0  0  0  0  0  0  0  0  0
    3.9661    2.1624    0.0000 N   0  0  0  0  0  0  0  0  0  0  0  0
    5.3426    2.7585    0.0000 C   0  0  0  0  0  0  0  0  0  0  0  0
    6.5471    1.8645    0.0000 N   0  0  0  0  0  0  0  0  0  0  0  0
    7.9235    2.4605    0.0000 N   0  0  0  0  0  0  0  0  0  0  0  0
    8.0956    3.9506    0.0000 N   0  0  0  0  0  0  0  0  0  0  0  0
    6.8911    4.8447    0.0000 N   0  0  0  0  0  0  0  0  0  0  0  0
    5.5146    4.2486    0.0000 N   0  0  0  0  0  0  0  0  0  0  0  0
    0.7500   -1.2990    0.0000 C   0  0  0  0  0  0  0  0  0  0  0  0
    1.5000    0.0000    0.0000 C   0  0  0  0  0  0  0  0  0  0  0  0
    0.7500    1.2990    0.0000 C   0  0  0  0  0  0  0  0  0  0  0  0
   -0.7500    1.2990    0.0000 C   0  0  0  0  0  0  0  0  0  0  0  0
   -1.5000    0.0000    0.0000 C   0  0  0  0  0  0  0  0  0  0  0  0
   -0.7500   -1.2990    0.0000 C   0  0  0  0  0  0  0  0  0  0  0  0
  1  2  1  0
  2  3  1  0
  3  4  1  0
  4  5  1  0
  5  6  1  0
  6  7  1  0
  7  8  1  0
  8  9  1  0
  9 10  1  0
 10 11  1  0
 11 12  1  0
 12 13  1  0
 13 14  1  0
 14 15  1  0
 15 16  1  0
 16 17  1  0
 17 18  1  0
 18 19  1  0
 19 20  1  0
 20 21  1  0
 21 22  1  0
 22 23  1  0
 23 24  1  0
 24 25  1  0
 25 26  1  0
 26 27  1  0
 27 28  1  0
 28 29  1  0
 29 30  1  0
 30 31  1  0
 31 32  1  0
 32 33  1  0
 33 34  1  0
 34 35  1  0
 35 36  1  0
 36 37  1  0
 37 38  1  0
 38 39  1  0
 39 40  1  0
 40 41  1  0
 41 42  1  0
 42 43  1  0
 43 44  1  0
 44 45  1  0
 45 46  1  0
 46 47  1  0
 47 48  1  0
 48 49  1  0
 49 50  1  0
 50 51  1  0
 51 52  1  0
 52 53  1  0
 53 54  1  0
 54 55  1  0
 55 56  1  0
 56 57  1  0
 57 58  1  0
 58 59  1  0
 59 60  1  0
 60 61  1  0
 61 62  1  0
 62 63  1  0
 63 64  1  0
 64 65  1  0
 65 66  1  0
 66 67  1  0
 67 68  1  0
 68 69  1  0
 69 70  1  0
 70 71  1  0
 71 72  1  0
 72 73  1  0
 73 74  1  0
 74 75  1  0
 75 76  1  0
 76 77  1  0
 77 78  1  0
 78 79  1  0
 79 80  1  0
 80 81  1  0
 81 82  1  0
 82 83  1  0
 83 84  2  0
 83 85  1  0
 85 86  1  0
 86 87  2  0
 87 88  1  0
 88 89  2  0
 89 90  1  0
 90 91  2  0
 81 92  1  0
 92 93  2  0
 93 94  1  0
 94 95  2  0
 95 96  1  0
 96 97  2  0
 97  2  1  0
 91 86  1  0
 97 92  1  0
M  END
>  <Title>  (671) 
idAAYAgen7

$$$$

     RDKit          2D

 10 10  0  0  0  0  0  0  0  0999 V2000
    3.9786   -1.2990    0.0000 C   0  0  0  0  0  0  0  0  0  0  0  0
    3.2286   -0.0000    0.0000 O   0  0  0  0  0  0  0  0  0  0  0  0
    1.7286    0.0000    0.0000 C   0  0  0  0  0  0  0  0  0  0  0  0
    1.0777    1.3515    0.0000 C   0  0  0  0  0  0  0  0  0  0  0  0
   -0.3846    1.6852    0.0000 C   0  0  0  0  0  0  0  0  0  0  0  0
   -1.5574    0.7500    0.0000 C   0  0  0  0  0  0  0  0  0  0  0  0
   -1.5574   -0.7500    0.0000 C   0  0  0  0  0  0  0  0  0  0  0  0
   -0.3846   -1.6852    0.0000 C   0  0  0  0  0  0  0  0  0  0  0  0
   -0.7184   -3.1476    0.0000 C   0  0  0  0  0  0  0  0  0  0  0  0
    1.0777   -1.3515    0.0000 C   0  0  0  0  0  0  0  0  0  0  0  0
  1  2  1  0
  2  3  1  0
  3  4  2  0
  4  5  1  0
  5  6  1  0
  6  7  1  0
  7  8  1  0
  8  9  1  0
  8 10  1  0
 10  3  1  0
M  END
>  <Title>  (672) 
idAAYBgen7

$$$$

     RDKit          2D

  9  9  0  0  0  0  0  0  0  0999 V2000
    4.7286   -0.0000    0.0000 N   0  0  0  0  0  0  0  0  0  0  0  0
    3.2286   -0.0000    0.0000 C   0  0  0  0  0  0  0  0  0  0  0  0
    1.7286    0.0000    0.0000 C   0  0  0  0  0  0  0  0  0  0  0  0
    1.0777    1.3515    0.0000 C   0  0  0  0  0  0  0  0  0  0  0  0
   -0.3846    1.6852    0.0000 C   0  0  0  0  0  0  0  0  0  0  0  0
   -1.5574    0.7500    0.0000 C   0  0  0  0  0  0  0  0  0  0  0  0
   -1.5574   -0.7500    0.0000 C   0  0  0  0  0  0  0  0  0  0  0  0
   -0.3846   -1.6852    0.0000 C   0  0  0  0  0  0  0  0  0  0  0  0
    1.0777   -1.3515    0.0000 C   0  0  0  0  0  0  0  0  0  0  0  0
  1  2  3  0
  2  3  1  0
  3  4  1  0
  4  5  1  0
  5  6  2  0
  6  7  1  0
  7  8  1  0
  8  9  1  0
  9  3  1  0
M  END
>  <Title>  (673) 
idAAYCgen7

$$$$

     RDKit          2D

 20 21  0  0  0  0  0  0  0  0999 V2000
   -1.0496  -11.7739    0.0000 C   0  0  0  0  0  0  0  0  0  0  0  0
    0.3207  -11.1638    0.0000 C   0  0  0  0  0  0  0  0  0  0  0  0
    0.4775   -9.6721    0.0000 C   0  0  0  0  0  0  0  0  0  0  0  0
    1.8478   -9.0619    0.0000 C   0  0  0  0  0  0  0  0  0  0  0  0
    3.0613   -9.9436    0.0000 O   0  0  0  0  0  0  0  0  0  0  0  0
    2.0046   -7.5702    0.0000 N   0  0  0  0  0  0  0  0  0  0  0  0
    3.3037   -6.8202    0.0000 C   0  0  0  0  0  0  0  0  0  0  0  0
    2.9918   -5.3529    0.0000 C   0  0  0  0  0  0  0  0  0  0  0  0
    1.5000   -5.1962    0.0000 C   0  0  0  0  0  0  0  0  0  0  0  0
    0.7500   -3.8971    0.0000 C   0  0  0  0  0  0  0  0  0  0  0  0
   -0.7500   -3.8971    0.0000 O   0  0  0  0  0  0  0  0  0  0  0  0
    1.5000   -2.5981    0.0000 N   0  0  0  0  0  0  0  0  0  0  0  0
    0.7500   -1.2990    0.0000 C   0  0  0  0  0  0  0  0  0  0  0  0
    1.5000    0.0000    0.0000 N   0  0  0  0  0  0  0  0  0  0  0  0
    0.7500    1.2990    0.0000 N   0  0  0  0  0  0  0  0  0  0  0  0
   -0.7500    1.2990    0.0000 N   0  0  0  0  0  0  0  0  0  0  0  0
   -1.5000    0.0000    0.0000 N   0  0  0  0  0  0  0  0  0  0  0  0
   -0.7500   -1.2990    0.0000 N   0  0  0  0  0  0  0  0  0  0  0  0
    0.8899   -6.5665    0.0000 C   0  0  0  0  0  0  0  0  0  0  0  0
   -0.5773   -6.8783    0.0000 O   0  0  0  0  0  0  0  0  0  0  0  0
  1  2  2  0
  2  3  1  0
  3  4  1  0
  4  5  2  0
  4  6  1  0
  6  7  1  0
  7  8  1  0
  8  9  1  0
  9 10  1  0
 10 11  2  0
 10 12  1  0
 12 13  1  0
 13 14  2  0
 14 15  1  0
 15 16  2  0
 16 17  1  0
 17 18  2  0
  9 19  1  0
 19 20  2  0
 19  6  1  0
 18 13  1  0
M  END
>  <Title>  (674) 
idAAYDgen7

$$$$

     RDKit          2D

 12 11  0  0  0  0  0  0  0  0999 V2000
    0.0000    0.0000    0.0000 C   0  0  0  0  0  0  0  0  0  0  0  0
    1.2990    0.7500    0.0000 C   0  0  0  0  0  0  0  0  0  0  0  0
    2.5981   -0.0000    0.0000 C   0  0  0  0  0  0  0  0  0  0  0  0
    3.8971    0.7500    0.0000 C   0  0  0  0  0  0  0  0  0  0  0  0
    5.1962   -0.0000    0.0000 C   0  0  0  0  0  0  0  0  0  0  0  0
    6.4952    0.7500    0.0000 C   0  0  0  0  0  0  0  0  0  0  0  0
    7.7942   -0.0000    0.0000 C   0  0  0  0  0  0  0  0  0  0  0  0
    9.0933    0.7500    0.0000 C   0  0  0  0  0  0  0  0  0  0  0  0
   10.3923   -0.0000    0.0000 C   0  0  0  0  0  0  0  0  0  0  0  0
   11.6913    0.7500    0.0000 C   0  0  0  0  0  0  0  0  0  0  0  0
   12.9904   -0.0000    0.0000 C   0  0  0  0  0  0  0  0  0  0  0  0
   14.2894    0.7500    0.0000 C   0  0  0  0  0  0  0  0  0  0  0  0
  1  2  1  0
  2  3  2  3
  3  4  1  0
  4  5  1  0
  5  6  1  0
  6  7  1  0
  7  8  1  0
  8  9  1  0
  9 10  1  0
 10 11  1  0
 11 12  1  0
M  END
>  <Title>  (675) 
idAAYEgen7

$$$$

     RDKit          2D

 71 73  0  0  0  0  0  0  0  0999 V2000
    3.3792    7.5359    0.0000 C   0  0  0  0  0  0  0  0  0  0  0  0
    4.8656    7.3348    0.0000 C   0  0  0  0  0  0  0  0  0  0  0  0
    5.1747    8.8027    0.0000 C   0  0  0  0  0  0  0  0  0  0  0  0
    5.6941   10.2098    0.0000 C   0  0  0  0  0  0  0  0  0  0  0  0
    6.4129   11.5264    0.0000 C   0  0  0  0  0  0  0  0  0  0  0  0
    7.3157   12.7243    0.0000 C   0  0  0  0  0  0  0  0  0  0  0  0
    8.3833   13.7780    0.0000 C   0  0  0  0  0  0  0  0  0  0  0  0
    9.5930   14.6649    0.0000 C   0  0  0  0  0  0  0  0  0  0  0  0
   10.9189   15.3664    0.0000 C   0  0  0  0  0  0  0  0  0  0  0  0
   12.3328   15.8672    0.0000 C   0  0  0  0  0  0  0  0  0  0  0  0
   13.8045   16.1569    0.0000 C   0  0  0  0  0  0  0  0  0  0  0  0
   15.3028   16.2292    0.0000 C   0  0  0  0  0  0  0  0  0  0  0  0
   16.7956   16.0826    0.0000 C   0  0  0  0  0  0  0  0  0  0  0  0
   18.2512   15.7202    0.0000 C   0  0  0  0  0  0  0  0  0  0  0  0
   19.6384   15.1497    0.0000 C   0  0  0  0  0  0  0  0  0  0  0  0
   20.9279   14.3833    0.0000 C   0  0  0  0  0  0  0  0  0  0  0  0
   22.0920   13.4374    0.0000 C   0  0  0  0  0  0  0  0  0  0  0  0
   23.1060   12.3320    0.0000 C   0  0  0  0  0  0  0  0  0  0  0  0
   23.9482   11.0907    0.0000 C   0  0  0  0  0  0  0  0  0  0  0  0
   24.6007    9.7401    0.0000 C   0  0  0  0  0  0  0  0  0  0  0  0
   25.0496    8.3089    0.0000 C   0  0  0  0  0  0  0  0  0  0  0  0
   25.2853    6.8275    0.0000 C   0  0  0  0  0  0  0  0  0  0  0  0
   25.3029    5.3276    0.0000 C   0  0  0  0  0  0  0  0  0  0  0  0
   25.1018    3.8411    0.0000 C   0  0  0  0  0  0  0  0  0  0  0  0
   24.6865    2.3998    0.0000 C   0  0  0  0  0  0  0  0  0  0  0  0
   24.0657    1.0343    0.0000 C   0  0  0  0  0  0  0  0  0  0  0  0
   23.2528   -0.2263    0.0000 C   0  0  0  0  0  0  0  0  0  0  0  0
   22.2649   -1.3551    0.0000 C   0  0  0  0  0  0  0  0  0  0  0  0
   21.1232   -2.3280    0.0000 C   0  0  0  0  0  0  0  0  0  0  0  0
   19.8521   -3.1244    0.0000 C   0  0  0  0  0  0  0  0  0  0  0  0
   18.4785   -3.7271    0.0000 C   0  0  0  0  0  0  0  0  0  0  0  0
   17.0318   -4.1235    0.0000 C   0  0  0  0  0  0  0  0  0  0  0  0
   15.5428   -4.3049    0.0000 C   0  0  0  0  0  0  0  0  0  0  0  0
   14.0433   -4.2677    0.0000 C   0  0  0  0  0  0  0  0  0  0  0  0
   12.5652   -4.0125    0.0000 C   0  0  0  0  0  0  0  0  0  0  0  0
   11.1399   -3.5448    0.0000 C   0  0  0  0  0  0  0  0  0  0  0  0
    9.7980   -2.8746    0.0000 C   0  0  0  0  0  0  0  0  0  0  0  0
    8.5679   -2.0161    0.0000 C   0  0  0  0  0  0  0  0  0  0  0  0
    7.4760   -0.9877    0.0000 C   0  0  0  0  0  0  0  0  0  0  0  0
    6.5454    0.1888    0.0000 C   0  0  0  0  0  0  0  0  0  0  0  0
    5.7960    1.4882    0.0000 C   0  0  0  0  0  0  0  0  0  0  0  0
    5.2840    0.0000    0.0000 C   0  0  0  0  0  0  0  0  0  0  0  0
    5.1180   -1.3141    0.0000 C   0  0  0  0  0  0  0  0  0  0  0  0
    4.6304   -2.5456    0.0000 C   0  0  0  0  0  0  0  0  0  0  0  0
    3.8519   -3.6172    0.0000 C   0  0  0  0  0  0  0  0  0  0  0  0
    2.8313   -4.4615    0.0000 C   0  0  0  0  0  0  0  0  0  0  0  0
    1.6329   -5.0254    0.0000 C   0  0  0  0  0  0  0  0  0  0  0  0
    0.3318   -5.2736    0.0000 C   0  0  0  0  0  0  0  0  0  0  0  0
   -0.9901   -5.1905    0.0000 C   0  0  0  0  0  0  0  0  0  0  0  0
   -2.2498   -4.7811    0.0000 C   0  0  0  0  0  0  0  0  0  0  0  0
   -3.3682   -4.0714    0.0000 C   0  0  0  0  0  0  0  0  0  0  0  0
   -4.2749   -3.1059    0.0000 C   0  0  0  0  0  0  0  0  0  0  0  0
   -4.9130   -1.9452    0.0000 C   0  0  0  0  0  0  0  0  0  0  0  0
   -5.2424   -0.6623    0.0000 C   0  0  0  0  0  0  0  0  0  0  0  0
   -5.2424    0.6623    0.0000 C   0  0  0  0  0  0  0  0  0  0  0  0
   -4.9130    1.9452    0.0000 C   0  0  0  0  0  0  0  0  0  0  0  0
   -4.2749    3.1059    0.0000 C   0  0  0  0  0  0  0  0  0  0  0  0
   -3.3682    4.0714    0.0000 C   0  0  0  0  0  0  0  0  0  0  0  0
   -2.2498    4.7811    0.0000 C   0  0  0  0  0  0  0  0  0  0  0  0
   -0.9901    5.1905    0.0000 C   0  0  0  0  0  0  0  0  0  0  0  0
    0.3318    5.2736    0.0000 C   0  0  0  0  0  0  0  0  0  0  0  0
    1.6329    5.0254    0.0000 C   0  0  0  0  0  0  0  0  0  0  0  0
    2.8313    4.4615    0.0000 C   0  0  0  0  0  0  0  0  0  0  0  0
    3.8519    3.6172    0.0000 C   0  0  0  0  0  0  0  0  0  0  0  0
    5.2439    2.8828    0.0000 C   0  0  0  0  0  0  0  0  0  0  0  0
    4.9006    4.3430    0.0000 C   0  0  0  0  0  0  0  0  0  0  0  0
    6.2585    3.7057    0.0000 C   0  0  0  0  0  0  0  0  0  0  0  0
    7.4894    4.5630    0.0000 C   0  0  0  0  0  0  0  0  0  0  0  0
    7.3624    6.0576    0.0000 C   0  0  0  0  0  0  0  0  0  0  0  0
    6.0045    6.6949    0.0000 C   0  0  0  0  0  0  0  0  0  0  0  0
    4.7737    5.8377    0.0000 C   0  0  0  0  0  0  0  0  0  0  0  0
  1  2  1  0
  2  3  1  0
  3  4  1  0
  4  5  1  0
  5  6  1  0
  6  7  1  0
  7  8  1  0
  8  9  1  0
  9 10  1  0
 10 11  1  0
 11 12  1  0
 12 13  1  0
 13 14  1  0
 14 15  1  0
 15 16  1  0
 16 17  1  0
 17 18  1  0
 18 19  1  0
 19 20  1  0
 20 21  1  0
 21 22  1  0
 22 23  1  0
 23 24  1  0
 24 25  1  0
 25 26  1  0
 26 27  2  0
 27 28  1  0
 28 29  1  0
 29 30  1  0
 30 31  1  0
 31 32  1  0
 32 33  1  0
 33 34  1  0
 34 35  1  0
 35 36  1  0
 36 37  1  0
 37 38  1  0
 38 39  1  0
 39 40  1  0
 40 41  1  0
 41 42  1  0
 42 43  2  0
 43 44  1  0
 44 45  2  0
 45 46  1  0
 46 47  2  0
 47 48  1  0
 48 49  2  0
 49 50  1  0
 50 51  2  0
 51 52  1  0
 52 53  2  0
 53 54  1  0
 54 55  2  0
 55 56  1  0
 56 57  2  0
 57 58  1  0
 58 59  2  0
 59 60  1  0
 60 61  2  0
 61 62  1  0
 62 63  2  0
 63 64  1  0
 64 65  2  0
 65 66  1  0
 66 67  2  0
 67 68  1  0
 68 69  2  0
 69 70  1  0
 70 71  2  0
 71  2  1  0
 65 41  1  0
 71 66  1  0
M  END
>  <Title>  (676) 
idAAYFgen7

$$$$

     RDKit          2D

 52 59  0  0  0  0  0  0  0  0999 V2000
   -2.6615    2.7041    0.0000 C   0  0  0  0  0  0  0  0  0  0  0  0
   -1.1827    2.9553    0.0000 C   0  0  0  0  0  0  0  0  0  0  0  0
   -0.8489    4.4177    0.0000 C   0  0  0  0  0  0  0  0  0  0  0  0
    0.4212    5.2158    0.0000 C   0  0  0  0  0  0  0  0  0  0  0  0
    1.8836    4.8820    0.0000 C   0  0  0  0  0  0  0  0  0  0  0  0
    2.7516    6.1053    0.0000 N   0  0  0  0  0  0  0  0  0  0  0  0
    2.1261    7.4687    0.0000 C   0  0  0  0  0  0  0  0  0  0  0  0
    0.6327    7.6088    0.0000 O   0  0  0  0  0  0  0  0  0  0  0  0
    2.9941    8.6920    0.0000 N   0  0  0  0  0  0  0  0  0  0  0  0
    2.3687   10.0554    0.0000 C   0  0  0  0  0  0  0  0  0  0  0  0
    0.8981   10.3508    0.0000 N   0  0  0  0  0  0  0  0  0  0  0  0
    0.7246   11.8408    0.0000 N   0  0  0  0  0  0  0  0  0  0  0  0
    2.0879   12.4662    0.0000 N   0  0  0  0  0  0  0  0  0  0  0  0
    3.1041   11.3628    0.0000 N   0  0  0  0  0  0  0  0  0  0  0  0
    4.5940   11.5363    0.0000 C   0  0  0  0  0  0  0  0  0  0  0  0
    5.4892   10.3328    0.0000 C   0  0  0  0  0  0  0  0  0  0  0  0
    6.9792   10.5063    0.0000 C   0  0  0  0  0  0  0  0  0  0  0  0
    7.5739   11.8834    0.0000 C   0  0  0  0  0  0  0  0  0  0  0  0
    6.6786   13.0869    0.0000 C   0  0  0  0  0  0  0  0  0  0  0  0
    5.1887   12.9134    0.0000 C   0  0  0  0  0  0  0  0  0  0  0  0
    4.2935   14.1170    0.0000 C   0  0  0  0  0  0  0  0  0  0  0  0
    2.8035   13.9434    0.0000 C   0  0  0  0  0  0  0  0  0  0  0  0
    1.9083   15.1470    0.0000 C   0  0  0  0  0  0  0  0  0  0  0  0
    2.5030   16.5241    0.0000 C   0  0  0  0  0  0  0  0  0  0  0  0
    3.9929   16.6976    0.0000 C   0  0  0  0  0  0  0  0  0  0  0  0
    4.8882   15.4940    0.0000 C   0  0  0  0  0  0  0  0  0  0  0  0
    6.3781   15.6676    0.0000 C   0  0  0  0  0  0  0  0  0  0  0  0
    7.2733   14.4640    0.0000 C   0  0  0  0  0  0  0  0  0  0  0  0
    8.7633   14.6375    0.0000 C   0  0  0  0  0  0  0  0  0  0  0  0
    9.3579   16.0146    0.0000 C   0  0  0  0  0  0  0  0  0  0  0  0
    8.4627   17.2182    0.0000 C   0  0  0  0  0  0  0  0  0  0  0  0
    6.9728   17.0446    0.0000 C   0  0  0  0  0  0  0  0  0  0  0  0
    6.0775   18.2482    0.0000 C   0  0  0  0  0  0  0  0  0  0  0  0
    4.5876   18.0747    0.0000 C   0  0  0  0  0  0  0  0  0  0  0  0
    3.6924   19.2782    0.0000 C   0  0  0  0  0  0  0  0  0  0  0  0
    4.2871   20.6553    0.0000 C   0  0  0  0  0  0  0  0  0  0  0  0
    5.7770   20.8288    0.0000 C   0  0  0  0  0  0  0  0  0  0  0  0
    6.6722   19.6253    0.0000 C   0  0  0  0  0  0  0  0  0  0  0  0
    8.1622   19.7988    0.0000 O   0  0  0  0  0  0  0  0  0  0  0  0
    2.6816    3.6119    0.0000 C   0  0  0  0  0  0  0  0  0  0  0  0
    4.1150    4.0540    0.0000 C   0  0  0  0  0  0  0  0  0  0  0  0
    5.2146    3.0338    0.0000 C   0  0  0  0  0  0  0  0  0  0  0  0
    4.8808    1.5714    0.0000 C   0  0  0  0  0  0  0  0  0  0  0  0
    3.4474    1.1292    0.0000 C   0  0  0  0  0  0  0  0  0  0  0  0
    2.3478    2.1495    0.0000 C   0  0  0  0  0  0  0  0  0  0  0  0
    1.0777    1.3515    0.0000 C   0  0  0  0  0  0  0  0  0  0  0  0
    1.7286    0.0000    0.0000 C   0  0  0  0  0  0  0  0  0  0  0  0
    1.0777   -1.3515    0.0000 C   0  0  0  0  0  0  0  0  0  0  0  0
   -0.3846   -1.6852    0.0000 C   0  0  0  0  0  0  0  0  0  0  0  0
   -1.5574   -0.7500    0.0000 C   0  0  0  0  0  0  0  0  0  0  0  0
   -1.5574    0.7500    0.0000 C   0  0  0  0  0  0  0  0  0  0  0  0
   -0.3846    1.6852    0.0000 C   0  0  0  0  0  0  0  0  0  0  0  0
  1  2  1  0
  2  3  1  0
  3  4  1  0
  4  5  1  0
  5  6  1  0
  6  7  1  0
  7  8  2  0
  7  9  1  0
  9 10  1  0
 10 11  2  0
 11 12  1  0
 12 13  2  0
 13 14  1  0
 14 15  1  0
 15 16  2  0
 16 17  1  0
 17 18  2  0
 18 19  1  0
 19 20  2  0
 20 21  1  0
 21 22  2  0
 22 23  1  0
 23 24  2  0
 24 25  1  0
 25 26  2  0
 26 27  1  0
 27 28  2  0
 28 29  1  0
 29 30  2  0
 30 31  1  0
 31 32  2  0
 32 33  1  0
 33 34  2  0
 34 35  1  0
 35 36  2  0
 36 37  1  0
 37 38  2  0
 38 39  1  0
  5 40  1  0
 40 41  2  0
 41 42  1  0
 42 43  2  0
 43 44  1  0
 44 45  2  0
 45 46  1  0
 46 47  2  0
 47 48  1  0
 48 49  1  0
 49 50  1  0
 50 51  1  0
 51 52  2  0
 52  2  1  0
 14 10  1  0
 20 15  1  0
 26 21  1  0
 32 27  1  0
 38 33  1  0
 45 40  1  0
 52 46  1  0
M  END
>  <Title>  (677) 
idAAYGgen7

$$$$

     RDKit          2D

  9  9  0  0  0  0  0  0  0  0999 V2000
    3.0000    0.0000    0.0000 C   0  0  0  0  0  0  0  0  0  0  0  0
    1.5000    0.0000    0.0000 C   0  0  0  0  0  0  0  0  0  0  0  0
    0.7500   -1.2990    0.0000 C   0  0  0  0  0  0  0  0  0  0  0  0
   -0.7500   -1.2990    0.0000 C   0  0  0  0  0  0  0  0  0  0  0  0
   -1.5000    0.0000    0.0000 C   0  0  0  0  0  0  0  0  0  0  0  0
   -0.7500    1.2990    0.0000 C   0  0  0  0  0  0  0  0  0  0  0  0
   -1.5000    2.5981    0.0000 C   0  0  0  0  0  0  0  0  0  0  0  0
   -2.2500    3.8971    0.0000 N   0  0  0  0  0  0  0  0  0  0  0  0
    0.7500    1.2990    0.0000 C   0  0  0  0  0  0  0  0  0  0  0  0
  1  2  1  0
  2  3  1  0
  3  4  2  0
  4  5  1  0
  5  6  1  0
  6  7  1  0
  7  8  3  0
  6  9  2  0
  9  2  1  0
M  END
>  <Title>  (678) 
idAAYHgen7

$$$$

     RDKit          2D

 10 10  0  0  0  0  0  0  0  0999 V2000
    3.7500   -1.2990    0.0000 C   0  0  0  0  0  0  0  0  0  0  0  0
    3.0000    0.0000    0.0000 C   0  0  0  0  0  0  0  0  0  0  0  0
    3.7500    1.2990    0.0000 N   0  0  0  0  0  0  0  0  0  0  0  0
    1.5000    0.0000    0.0000 C   0  0  0  0  0  0  0  0  0  0  0  0
    0.7500   -1.2990    0.0000 C   0  0  0  0  0  0  0  0  0  0  0  0
   -0.7500   -1.2990    0.0000 C   0  0  0  0  0  0  0  0  0  0  0  0
   -1.5000    0.0000    0.0000 C   0  0  0  0  0  0  0  0  0  0  0  0
   -0.7500    1.2990    0.0000 C   0  0  0  0  0  0  0  0  0  0  0  0
   -1.5000    2.5981    0.0000 O   0  0  0  0  0  0  0  0  0  0  0  0
    0.7500    1.2990    0.0000 C   0  0  0  0  0  0  0  0  0  0  0  0
  1  2  1  0
  2  3  2  0
  2  4  1  0
  4  5  1  0
  5  6  1  0
  6  7  1  0
  7  8  2  0
  8  9  1  0
  8 10  1  0
 10  4  1  0
M  END
>  <Title>  (679) 
idAAYIgen7

$$$$

     RDKit          2D

 29 32  0  0  0  0  0  0  0  0999 V2000
   -3.1771   -5.9156    0.0000 C   0  0  0  0  0  0  0  0  0  0  0  0
   -1.9635   -5.0339    0.0000 C   0  0  0  0  0  0  0  0  0  0  0  0
   -0.7500   -5.9156    0.0000 C   0  0  0  0  0  0  0  0  0  0  0  0
    0.7500   -5.9156    0.0000 C   0  0  0  0  0  0  0  0  0  0  0  0
    1.9635   -5.0339    0.0000 C   0  0  0  0  0  0  0  0  0  0  0  0
    2.4271   -3.6073    0.0000 C   0  0  0  0  0  0  0  0  0  0  0  0
    3.9271   -3.6073    0.0000 C   0  0  0  0  0  0  0  0  0  0  0  0
    4.6771   -2.3083    0.0000 O   0  0  0  0  0  0  0  0  0  0  0  0
    4.6771   -4.9063    0.0000 N   0  0  0  0  0  0  0  0  0  0  0  0
    6.1771   -4.9063    0.0000 C   0  0  0  0  0  0  0  0  0  0  0  0
    6.9271   -6.2054    0.0000 N   0  0  0  0  0  0  0  0  0  0  0  0
    8.4271   -6.2054    0.0000 N   0  0  0  0  0  0  0  0  0  0  0  0
    9.1771   -4.9063    0.0000 N   0  0  0  0  0  0  0  0  0  0  0  0
    8.4271   -3.6073    0.0000 N   0  0  0  0  0  0  0  0  0  0  0  0
    6.9271   -3.6073    0.0000 N   0  0  0  0  0  0  0  0  0  0  0  0
    1.9635   -2.1807    0.0000 C   0  0  0  0  0  0  0  0  0  0  0  0
    3.1771   -1.2990    0.0000 O   0  0  0  0  0  0  0  0  0  0  0  0
    0.7500   -1.2990    0.0000 C   0  0  0  0  0  0  0  0  0  0  0  0
    1.5000    0.0000    0.0000 C   0  0  0  0  0  0  0  0  0  0  0  0
    0.7500    1.2990    0.0000 C   0  0  0  0  0  0  0  0  0  0  0  0
   -0.7500    1.2990    0.0000 O   0  0  0  0  0  0  0  0  0  0  0  0
   -1.5000    0.0000    0.0000 C   0  0  0  0  0  0  0  0  0  0  0  0
   -0.7500   -1.2990    0.0000 C   0  0  0  0  0  0  0  0  0  0  0  0
   -1.9635   -2.1807    0.0000 C   0  0  0  0  0  0  0  0  0  0  0  0
   -2.9672   -1.0660    0.0000 C   0  0  0  0  0  0  0  0  0  0  0  0
   -4.4344   -1.3779    0.0000 C   0  0  0  0  0  0  0  0  0  0  0  0
   -4.8980   -2.8045    0.0000 C   0  0  0  0  0  0  0  0  0  0  0  0
   -3.8943   -3.9192    0.0000 C   0  0  0  0  0  0  0  0  0  0  0  0
   -2.4271   -3.6073    0.0000 C   0  0  0  0  0  0  0  0  0  0  0  0
  1  2  1  0
  2  3  2  0
  3  4  1  0
  4  5  1  0
  5  6  1  0
  6  7  1  0
  7  8  2  0
  7  9  1  0
  9 10  1  0
 10 11  2  0
 11 12  1  0
 12 13  2  0
 13 14  1  0
 14 15  2  0
  6 16  1  0
 16 17  2  0
 16 18  1  0
 18 19  1  0
 19 20  1  0
 20 21  1  0
 21 22  1  0
 22 23  2  0
 23 24  1  0
 24 25  2  0
 25 26  1  0
 26 27  2  0
 27 28  1  0
 28 29  2  0
 29  2  1  0
 15 10  1  0
 23 18  1  0
 29 24  1  0
M  END
>  <Title>  (680) 
idAAYJgen7

$$$$

     RDKit          2D

  7  7  0  0  0  0  0  0  0  0999 V2000
    4.2760   -0.0000    0.0000 N   0  0  0  0  0  0  0  0  0  0  0  0
    2.7760    0.0000    0.0000 C   0  0  0  0  0  0  0  0  0  0  0  0
    1.2760    0.0000    0.0000 C   0  0  0  0  0  0  0  0  0  0  0  0
    0.3943    1.2135    0.0000 C   0  0  0  0  0  0  0  0  0  0  0  0
   -1.0323    0.7500    0.0000 C   0  0  0  0  0  0  0  0  0  0  0  0
   -1.0323   -0.7500    0.0000 C   0  0  0  0  0  0  0  0  0  0  0  0
    0.3943   -1.2135    0.0000 C   0  0  0  0  0  0  0  0  0  0  0  0
  1  2  3  0
  2  3  1  0
  3  4  1  0
  4  5  2  0
  5  6  1  0
  6  7  2  0
  7  3  1  0
M  END
>  <Title>  (681) 
idAAYKgen7

$$$$

     RDKit          2D

 38 38  0  0  0  0  0  0  0  0999 V2000
   11.6053   -0.0000    0.0000 N   0  0  0  0  0  0  0  0  0  0  0  0
   10.1053    0.0000    0.0000 C   0  0  0  0  0  0  0  0  0  0  0  0
    8.6053    0.0000    0.0000 C   0  0  0  0  0  0  0  0  0  0  0  0
    8.4746   -1.4943    0.0000 C   0  0  0  0  0  0  0  0  0  0  0  0
    8.0863   -2.9432    0.0000 C   0  0  0  0  0  0  0  0  0  0  0  0
    7.4524   -4.3026    0.0000 C   0  0  0  0  0  0  0  0  0  0  0  0
    6.5920   -5.5314    0.0000 C   0  0  0  0  0  0  0  0  0  0  0  0
    5.5314   -6.5920    0.0000 C   0  0  0  0  0  0  0  0  0  0  0  0
    4.3026   -7.4524    0.0000 C   0  0  0  0  0  0  0  0  0  0  0  0
    2.9432   -8.0863    0.0000 C   0  0  0  0  0  0  0  0  0  0  0  0
    1.4943   -8.4746    0.0000 C   0  0  0  0  0  0  0  0  0  0  0  0
   -0.0000   -8.6053    0.0000 C   0  0  0  0  0  0  0  0  0  0  0  0
   -1.4943   -8.4746    0.0000 C   0  0  0  0  0  0  0  0  0  0  0  0
   -2.9432   -8.0863    0.0000 C   0  0  0  0  0  0  0  0  0  0  0  0
   -4.3026   -7.4524    0.0000 C   0  0  0  0  0  0  0  0  0  0  0  0
   -5.5314   -6.5920    0.0000 C   0  0  0  0  0  0  0  0  0  0  0  0
   -6.5920   -5.5314    0.0000 C   0  0  0  0  0  0  0  0  0  0  0  0
   -7.4524   -4.3026    0.0000 C   0  0  0  0  0  0  0  0  0  0  0  0
   -8.0863   -2.9432    0.0000 C   0  0  0  0  0  0  0  0  0  0  0  0
   -8.4746   -1.4943    0.0000 C   0  0  0  0  0  0  0  0  0  0  0  0
   -8.6053    0.0000    0.0000 C   0  0  0  0  0  0  0  0  0  0  0  0
   -8.4746    1.4943    0.0000 C   0  0  0  0  0  0  0  0  0  0  0  0
   -8.0863    2.9432    0.0000 C   0  0  0  0  0  0  0  0  0  0  0  0
   -7.4524    4.3026    0.0000 C   0  0  0  0  0  0  0  0  0  0  0  0
   -6.5920    5.5314    0.0000 C   0  0  0  0  0  0  0  0  0  0  0  0
   -5.5314    6.5920    0.0000 C   0  0  0  0  0  0  0  0  0  0  0  0
   -4.3026    7.4524    0.0000 C   0  0  0  0  0  0  0  0  0  0  0  0
   -2.9432    8.0863    0.0000 C   0  0  0  0  0  0  0  0  0  0  0  0
   -1.4943    8.4746    0.0000 C   0  0  0  0  0  0  0  0  0  0  0  0
    0.0000    8.6053    0.0000 C   0  0  0  0  0  0  0  0  0  0  0  0
    1.4943    8.4746    0.0000 C   0  0  0  0  0  0  0  0  0  0  0  0
    2.9432    8.0863    0.0000 C   0  0  0  0  0  0  0  0  0  0  0  0
    4.3026    7.4524    0.0000 C   0  0  0  0  0  0  0  0  0  0  0  0
    5.5314    6.5920    0.0000 C   0  0  0  0  0  0  0  0  0  0  0  0
    6.5920    5.5314    0.0000 C   0  0  0  0  0  0  0  0  0  0  0  0
    7.4524    4.3026    0.0000 C   0  0  0  0  0  0  0  0  0  0  0  0
    8.0863    2.9432    0.0000 C   0  0  0  0  0  0  0  0  0  0  0  0
    8.4746    1.4943    0.0000 C   0  0  0  0  0  0  0  0  0  0  0  0
  1  2  3  0
  2  3  1  0
  3  4  1  0
  4  5  1  0
  5  6  2  0
  6  7  1  0
  7  8  2  0
  8  9  1  0
  9 10  1  0
 10 11  1  0
 11 12  1  0
 12 13  1  0
 13 14  1  0
 14 15  1  0
 15 16  1  0
 16 17  1  0
 17 18  1  0
 18 19  1  0
 19 20  1  0
 20 21  1  0
 21 22  1  0
 22 23  1  0
 23 24  1  0
 24 25  1  0
 25 26  1  0
 26 27  1  0
 27 28  1  0
 28 29  1  0
 29 30  1  0
 30 31  1  0
 31 32  1  0
 32 33  1  0
 33 34  1  0
 34 35  1  0
 35 36  1  0
 36 37  1  0
 37 38  1  0
 38  3  1  0
M  END
>  <Title>  (682) 
idAAYLgen7

$$$$

     RDKit          2D

  6  6  0  0  0  0  0  0  0  0999 V2000
    2.7760    0.0000    0.0000 C   0  0  0  0  0  0  0  0  0  0  0  0
    1.2760    0.0000    0.0000 C   0  0  0  0  0  0  0  0  0  0  0  0
    0.3943    1.2135    0.0000 C   0  0  0  0  0  0  0  0  0  0  0  0
   -1.0323    0.7500    0.0000 C   0  0  0  0  0  0  0  0  0  0  0  0
   -1.0323   -0.7500    0.0000 C   0  0  0  0  0  0  0  0  0  0  0  0
    0.3943   -1.2135    0.0000 C   0  0  0  0  0  0  0  0  0  0  0  0
  1  2  1  0
  2  3  2  0
  3  4  1  0
  4  5  1  0
  5  6  1  0
  6  2  1  0
M  END
>  <Title>  (683) 
idAAYMgen7

$$$$

     RDKit          2D

 16 17  0  0  0  0  0  0  0  0999 V2000
    3.0000    0.0000    0.0000 C   0  0  0  0  0  0  0  0  0  0  0  0
    1.5000    0.0000    0.0000 C   0  0  0  0  0  0  0  0  0  0  0  0
    0.7500   -1.2990    0.0000 C   0  0  0  0  0  0  0  0  0  0  0  0
   -0.7500   -1.2990    0.0000 C   0  0  0  0  0  0  0  0  0  0  0  0
   -1.5000    0.0000    0.0000 C   0  0  0  0  0  0  0  0  0  0  0  0
   -3.0000    0.0000    0.0000 C   0  0  0  0  0  0  0  0  0  0  0  0
   -3.7500   -1.2990    0.0000 O   0  0  0  0  0  0  0  0  0  0  0  0
   -3.7500    1.2990    0.0000 N   0  0  0  0  0  0  0  0  0  0  0  0
   -5.2500    1.2990    0.0000 C   0  0  0  0  0  0  0  0  0  0  0  0
   -6.0000    2.5981    0.0000 N   0  0  0  0  0  0  0  0  0  0  0  0
   -7.5000    2.5981    0.0000 N   0  0  0  0  0  0  0  0  0  0  0  0
   -8.2500    1.2990    0.0000 N   0  0  0  0  0  0  0  0  0  0  0  0
   -7.5000    0.0000    0.0000 N   0  0  0  0  0  0  0  0  0  0  0  0
   -6.0000    0.0000    0.0000 N   0  0  0  0  0  0  0  0  0  0  0  0
   -0.7500    1.2990    0.0000 C   0  0  0  0  0  0  0  0  0  0  0  0
    0.7500    1.2990    0.0000 C   0  0  0  0  0  0  0  0  0  0  0  0
  1  2  1  0
  2  3  1  0
  3  4  2  0
  4  5  1  0
  5  6  1  0
  6  7  2  0
  6  8  1  0
  8  9  1  0
  9 10  2  0
 10 11  1  0
 11 12  2  0
 12 13  1  0
 13 14  2  0
  5 15  1  0
 15 16  1  0
 16  2  1  0
 14  9  1  0
M  END
>  <Title>  (684) 
idAAYNgen7

$$$$

     RDKit          2D

 53 55  0  0  0  0  0  0  0  0999 V2000
   -5.2763    2.7804    0.0000 C   0  0  0  0  0  0  0  0  0  0  0  0
   -4.2695    3.8923    0.0000 C   0  0  0  0  0  0  0  0  0  0  0  0
   -5.3050    4.9775    0.0000 C   0  0  0  0  0  0  0  0  0  0  0  0
   -6.1714    6.2020    0.0000 C   0  0  0  0  0  0  0  0  0  0  0  0
   -6.8503    7.5396    0.0000 C   0  0  0  0  0  0  0  0  0  0  0  0
   -7.3272    8.9618    0.0000 C   0  0  0  0  0  0  0  0  0  0  0  0
   -7.5919   10.4382    0.0000 C   0  0  0  0  0  0  0  0  0  0  0  0
   -7.6389   11.9375    0.0000 C   0  0  0  0  0  0  0  0  0  0  0  0
   -7.4671   13.4276    0.0000 C   0  0  0  0  0  0  0  0  0  0  0  0
   -7.0801   14.8768    0.0000 C   0  0  0  0  0  0  0  0  0  0  0  0
   -6.4862   16.2543    0.0000 C   0  0  0  0  0  0  0  0  0  0  0  0
   -5.6982   17.5306    0.0000 C   0  0  0  0  0  0  0  0  0  0  0  0
   -4.7327   18.6785    0.0000 C   0  0  0  0  0  0  0  0  0  0  0  0
   -3.6103   19.6736    0.0000 C   0  0  0  0  0  0  0  0  0  0  0  0
   -2.3550   20.4948    0.0000 C   0  0  0  0  0  0  0  0  0  0  0  0
   -0.9935   21.1243    0.0000 C   0  0  0  0  0  0  0  0  0  0  0  0
    0.4451   21.5490    0.0000 C   0  0  0  0  0  0  0  0  0  0  0  0
    1.9303   21.7596    0.0000 C   0  0  0  0  0  0  0  0  0  0  0  0
    3.4302   21.7518    0.0000 C   0  0  0  0  0  0  0  0  0  0  0  0
    4.9131   21.5257    0.0000 C   0  0  0  0  0  0  0  0  0  0  0  0
    6.3472   21.0860    0.0000 C   0  0  0  0  0  0  0  0  0  0  0  0
    7.7021   20.4423    0.0000 C   0  0  0  0  0  0  0  0  0  0  0  0
    8.9487   19.6081    0.0000 C   0  0  0  0  0  0  0  0  0  0  0  0
   10.0606   18.6013    0.0000 C   0  0  0  0  0  0  0  0  0  0  0  0
   11.0141   17.4433    0.0000 C   0  0  0  0  0  0  0  0  0  0  0  0
   11.7888   16.1589    0.0000 C   0  0  0  0  0  0  0  0  0  0  0  0
   12.3683   14.7753    0.0000 C   0  0  0  0  0  0  0  0  0  0  0  0
   12.7401   13.3221    0.0000 C   0  0  0  0  0  0  0  0  0  0  0  0
   12.8964   11.8303    0.0000 C   0  0  0  0  0  0  0  0  0  0  0  0
   12.8338   10.3316    0.0000 C   0  0  0  0  0  0  0  0  0  0  0  0
   12.5536    8.8580    0.0000 C   0  0  0  0  0  0  0  0  0  0  0  0
   12.0619    7.4409    0.0000 C   0  0  0  0  0  0  0  0  0  0  0  0
   11.3691    6.1105    0.0000 C   0  0  0  0  0  0  0  0  0  0  0  0
   10.4899    4.8951    0.0000 C   0  0  0  0  0  0  0  0  0  0  0  0
    9.4432    3.8207    0.0000 C   0  0  0  0  0  0  0  0  0  0  0  0
    8.2512    2.9102    0.0000 C   0  0  0  0  0  0  0  0  0  0  0  0
    6.9393    2.1829    0.0000 C   0  0  0  0  0  0  0  0  0  0  0  0
    5.5355    1.6543    0.0000 C   0  0  0  0  0  0  0  0  0  0  0  0
    4.0697    1.3358    0.0000 N   0  0  0  0  0  0  0  0  0  0  0  0
    2.5732    1.2342    0.0000 N   0  0  0  0  0  0  0  0  0  0  0  0
    1.0777    1.3515    0.0000 C   0  0  0  0  0  0  0  0  0  0  0  0
    1.7286    0.0000    0.0000 C   0  0  0  0  0  0  0  0  0  0  0  0
    1.0777   -1.3515    0.0000 C   0  0  0  0  0  0  0  0  0  0  0  0
   -0.3846   -1.6852    0.0000 N   0  0  0  0  0  0  0  0  0  0  0  0
   -1.5574   -0.7500    0.0000 N   0  0  0  0  0  0  0  0  0  0  0  0
   -1.5574    0.7500    0.0000 N   0  0  0  0  0  0  0  0  0  0  0  0
   -0.3846    1.6852    0.0000 N   0  0  0  0  0  0  0  0  0  0  0  0
   -1.7829    2.2284    0.0000 C   0  0  0  0  0  0  0  0  0  0  0  0
   -0.4891    2.9874    0.0000 C   0  0  0  0  0  0  0  0  0  0  0  0
   -0.4995    4.4874    0.0000 C   0  0  0  0  0  0  0  0  0  0  0  0
   -1.8037    5.2283    0.0000 C   0  0  0  0  0  0  0  0  0  0  0  0
   -3.0975    4.4693    0.0000 C   0  0  0  0  0  0  0  0  0  0  0  0
   -3.0871    2.9693    0.0000 C   0  0  0  0  0  0  0  0  0  0  0  0
  1  2  1  0
  2  3  1  0
  3  4  1  0
  4  5  1  0
  5  6  1  0
  6  7  1  0
  7  8  1  0
  8  9  1  0
  9 10  1  0
 10 11  1  0
 11 12  1  0
 12 13  1  0
 13 14  1  0
 14 15  1  0
 15 16  1  0
 16 17  1  0
 17 18  1  0
 18 19  1  0
 19 20  1  0
 20 21  1  0
 21 22  1  0
 22 23  1  0
 23 24  1  0
 24 25  1  0
 25 26  1  0
 26 27  1  0
 27 28  1  0
 28 29  1  0
 29 30  1  0
 30 31  1  0
 31 32  1  0
 32 33  1  0
 33 34  1  0
 34 35  1  0
 35 36  1  0
 36 37  1  0
 37 38  1  0
 38 39  2  0
 39 40  1  0
 40 41  2  0
 41 42  1  0
 42 43  1  0
 43 44  2  0
 44 45  1  0
 45 46  2  0
 46 47  1  0
 47 48  1  0
 48 49  2  0
 49 50  1  0
 50 51  2  0
 51 52  1  0
 52 53  2  0
 53  2  1  0
 47 41  1  0
 53 48  1  0
M  END
>  <Title>  (685) 
idAAYOgen7

$$$$

     RDKit          2D

 93 93  0  0  0  0  0  0  0  0999 V2000
   23.4677   -0.0000    0.0000 C   0  0  0  0  0  0  0  0  0  0  0  0
   21.9677    0.0000    0.0000 C   0  0  0  0  0  0  0  0  0  0  0  0
   21.9164   -1.4991    0.0000 C   0  0  0  0  0  0  0  0  0  0  0  0
   21.7630   -2.9913    0.0000 C   0  0  0  0  0  0  0  0  0  0  0  0
   21.5082   -4.4695    0.0000 C   0  0  0  0  0  0  0  0  0  0  0  0
   21.1530   -5.9268    0.0000 C   0  0  0  0  0  0  0  0  0  0  0  0
   20.6993   -7.3565    0.0000 C   0  0  0  0  0  0  0  0  0  0  0  0
   20.1490   -8.7519    0.0000 C   0  0  0  0  0  0  0  0  0  0  0  0
   19.5048  -10.1065    0.0000 C   0  0  0  0  0  0  0  0  0  0  0  0
   18.7696  -11.4140    0.0000 C   0  0  0  0  0  0  0  0  0  0  0  0
   17.9469  -12.6683    0.0000 C   0  0  0  0  0  0  0  0  0  0  0  0
   17.0406  -13.8635    0.0000 C   0  0  0  0  0  0  0  0  0  0  0  0
   16.0547  -14.9941    0.0000 C   0  0  0  0  0  0  0  0  0  0  0  0
   14.9941  -16.0547    0.0000 C   0  0  0  0  0  0  0  0  0  0  0  0
   13.8635  -17.0406    0.0000 C   0  0  0  0  0  0  0  0  0  0  0  0
   12.6683  -17.9469    0.0000 C   0  0  0  0  0  0  0  0  0  0  0  0
   11.4140  -18.7696    0.0000 C   0  0  0  0  0  0  0  0  0  0  0  0
   10.1065  -19.5048    0.0000 C   0  0  0  0  0  0  0  0  0  0  0  0
    8.7519  -20.1490    0.0000 C   0  0  0  0  0  0  0  0  0  0  0  0
    7.3565  -20.6993    0.0000 C   0  0  0  0  0  0  0  0  0  0  0  0
    5.9268  -21.1530    0.0000 C   0  0  0  0  0  0  0  0  0  0  0  0
    4.4695  -21.5082    0.0000 C   0  0  0  0  0  0  0  0  0  0  0  0
    2.9913  -21.7630    0.0000 C   0  0  0  0  0  0  0  0  0  0  0  0
    1.4991  -21.9164    0.0000 C   0  0  0  0  0  0  0  0  0  0  0  0
   -0.0000  -21.9677    0.0000 C   0  0  0  0  0  0  0  0  0  0  0  0
   -1.4991  -21.9164    0.0000 C   0  0  0  0  0  0  0  0  0  0  0  0
   -2.9913  -21.7630    0.0000 C   0  0  0  0  0  0  0  0  0  0  0  0
   -4.4695  -21.5082    0.0000 C   0  0  0  0  0  0  0  0  0  0  0  0
   -5.9268  -21.1530    0.0000 C   0  0  0  0  0  0  0  0  0  0  0  0
   -7.3565  -20.6993    0.0000 C   0  0  0  0  0  0  0  0  0  0  0  0
   -8.7519  -20.1490    0.0000 C   0  0  0  0  0  0  0  0  0  0  0  0
  -10.1065  -19.5048    0.0000 C   0  0  0  0  0  0  0  0  0  0  0  0
  -11.4140  -18.7696    0.0000 C   0  0  0  0  0  0  0  0  0  0  0  0
  -12.6683  -17.9469    0.0000 C   0  0  0  0  0  0  0  0  0  0  0  0
  -13.8635  -17.0406    0.0000 C   0  0  0  0  0  0  0  0  0  0  0  0
  -14.9941  -16.0547    0.0000 C   0  0  0  0  0  0  0  0  0  0  0  0
  -16.0547  -14.9941    0.0000 C   0  0  0  0  0  0  0  0  0  0  0  0
  -17.0406  -13.8635    0.0000 C   0  0  0  0  0  0  0  0  0  0  0  0
  -17.9469  -12.6683    0.0000 C   0  0  0  0  0  0  0  0  0  0  0  0
  -18.7696  -11.4140    0.0000 C   0  0  0  0  0  0  0  0  0  0  0  0
  -19.5048  -10.1065    0.0000 C   0  0  0  0  0  0  0  0  0  0  0  0
  -20.1490   -8.7519    0.0000 C   0  0  0  0  0  0  0  0  0  0  0  0
  -20.6993   -7.3565    0.0000 C   0  0  0  0  0  0  0  0  0  0  0  0
  -21.1530   -5.9268    0.0000 C   0  0  0  0  0  0  0  0  0  0  0  0
  -21.5082   -4.4695    0.0000 C   0  0  0  0  0  0  0  0  0  0  0  0
  -21.7630   -2.9913    0.0000 C   0  0  0  0  0  0  0  0  0  0  0  0
  -21.9164   -1.4991    0.0000 C   0  0  0  0  0  0  0  0  0  0  0  0
  -21.9677    0.0000    0.0000 C   0  0  0  0  0  0  0  0  0  0  0  0
  -21.9164    1.4991    0.0000 C   0  0  0  0  0  0  0  0  0  0  0  0
  -21.7630    2.9913    0.0000 C   0  0  0  0  0  0  0  0  0  0  0  0
  -21.5082    4.4695    0.0000 C   0  0  0  0  0  0  0  0  0  0  0  0
  -21.1530    5.9268    0.0000 C   0  0  0  0  0  0  0  0  0  0  0  0
  -20.6993    7.3565    0.0000 C   0  0  0  0  0  0  0  0  0  0  0  0
  -20.1490    8.7519    0.0000 C   0  0  0  0  0  0  0  0  0  0  0  0
  -19.5048   10.1065    0.0000 C   0  0  0  0  0  0  0  0  0  0  0  0
  -18.7696   11.4140    0.0000 C   0  0  0  0  0  0  0  0  0  0  0  0
  -17.9469   12.6683    0.0000 C   0  0  0  0  0  0  0  0  0  0  0  0
  -17.0406   13.8635    0.0000 C   0  0  0  0  0  0  0  0  0  0  0  0
  -16.0547   14.9941    0.0000 C   0  0  0  0  0  0  0  0  0  0  0  0
  -14.9941   16.0547    0.0000 C   0  0  0  0  0  0  0  0  0  0  0  0
  -13.8635   17.0406    0.0000 C   0  0  0  0  0  0  0  0  0  0  0  0
  -12.6683   17.9469    0.0000 C   0  0  0  0  0  0  0  0  0  0  0  0
  -11.4140   18.7696    0.0000 C   0  0  0  0  0  0  0  0  0  0  0  0
  -10.1065   19.5048    0.0000 C   0  0  0  0  0  0  0  0  0  0  0  0
   -8.7519   20.1490    0.0000 C   0  0  0  0  0  0  0  0  0  0  0  0
   -7.3565   20.6993    0.0000 C   0  0  0  0  0  0  0  0  0  0  0  0
   -5.9268   21.1530    0.0000 C   0  0  0  0  0  0  0  0  0  0  0  0
   -4.4695   21.5082    0.0000 C   0  0  0  0  0  0  0  0  0  0  0  0
   -2.9913   21.7630    0.0000 C   0  0  0  0  0  0  0  0  0  0  0  0
   -1.4991   21.9164    0.0000 C   0  0  0  0  0  0  0  0  0  0  0  0
    0.0000   21.9677    0.0000 C   0  0  0  0  0  0  0  0  0  0  0  0
    1.4991   21.9164    0.0000 C   0  0  0  0  0  0  0  0  0  0  0  0
    2.9913   21.7630    0.0000 C   0  0  0  0  0  0  0  0  0  0  0  0
    4.4695   21.5082    0.0000 C   0  0  0  0  0  0  0  0  0  0  0  0
    5.9268   21.1530    0.0000 C   0  0  0  0  0  0  0  0  0  0  0  0
    7.3565   20.6993    0.0000 C   0  0  0  0  0  0  0  0  0  0  0  0
    8.7519   20.1490    0.0000 C   0  0  0  0  0  0  0  0  0  0  0  0
   10.1065   19.5048    0.0000 C   0  0  0  0  0  0  0  0  0  0  0  0
   11.4140   18.7696    0.0000 C   0  0  0  0  0  0  0  0  0  0  0  0
   12.6683   17.9469    0.0000 C   0  0  0  0  0  0  0  0  0  0  0  0
   13.8635   17.0406    0.0000 C   0  0  0  0  0  0  0  0  0  0  0  0
   14.9941   16.0547    0.0000 C   0  0  0  0  0  0  0  0  0  0  0  0
   16.0547   14.9941    0.0000 C   0  0  0  0  0  0  0  0  0  0  0  0
   17.0406   13.8635    0.0000 C   0  0  0  0  0  0  0  0  0  0  0  0
   17.9469   12.6683    0.0000 C   0  0  0  0  0  0  0  0  0  0  0  0
   18.7696   11.4140    0.0000 C   0  0  0  0  0  0  0  0  0  0  0  0
   19.5048   10.1065    0.0000 C   0  0  0  0  0  0  0  0  0  0  0  0
   20.1490    8.7519    0.0000 C   0  0  0  0  0  0  0  0  0  0  0  0
   20.6993    7.3565    0.0000 C   0  0  0  0  0  0  0  0  0  0  0  0
   21.1530    5.9268    0.0000 C   0  0  0  0  0  0  0  0  0  0  0  0
   21.5082    4.4695    0.0000 C   0  0  0  0  0  0  0  0  0  0  0  0
   21.7630    2.9913    0.0000 C   0  0  0  0  0  0  0  0  0  0  0  0
   21.9164    1.4991    0.0000 C   0  0  0  0  0  0  0  0  0  0  0  0
  1  2  1  0
  2  3  1  0
  3  4  1  0
  4  5  2  0
  5  6  1  0
  6  7  2  0
  7  8  1  0
  8  9  2  0
  9 10  1  0
 10 11  2  0
 11 12  1  0
 12 13  2  0
 13 14  1  0
 14 15  2  0
 15 16  1  0
 16 17  2  0
 17 18  1  0
 18 19  2  0
 19 20  1  0
 20 21  2  0
 21 22  1  0
 22 23  1  0
 23 24  1  0
 24 25  1  0
 25 26  1  0
 26 27  1  0
 27 28  1  0
 28 29  1  0
 29 30  1  0
 30 31  1  0
 31 32  1  0
 32 33  1  0
 33 34  1  0
 34 35  1  0
 35 36  1  0
 36 37  1  0
 37 38  1  0
 38 39  1  0
 39 40  1  0
 40 41  1  0
 41 42  1  0
 42 43  1  0
 43 44  1  0
 44 45  1  0
 45 46  1  0
 46 47  1  0
 47 48  1  0
 48 49  1  0
 49 50  1  0
 50 51  1  0
 51 52  1  0
 52 53  1  0
 53 54  1  0
 54 55  1  0
 55 56  1  0
 56 57  1  0
 57 58  1  0
 58 59  1  0
 59 60  1  0
 60 61  1  0
 61 62  1  0
 62 63  1  0
 63 64  1  0
 64 65  1  0
 65 66  1  0
 66 67  1  0
 67 68  1  0
 68 69  1  0
 69 70  1  0
 70 71  1  0
 71 72  1  0
 72 73  1  0
 73 74  1  0
 74 75  1  0
 75 76  1  0
 76 77  1  0
 77 78  1  0
 78 79  1  0
 79 80  1  0
 80 81  1  0
 81 82  1  0
 82 83  1  0
 83 84  1  0
 84 85  1  0
 85 86  1  0
 86 87  1  0
 87 88  1  0
 88 89  1  0
 89 90  1  0
 90 91  1  0
 91 92  1  0
 92 93  1  0
 93  2  1  0
M  END
>  <Title>  (686) 
idAAYPgen7

$$$$

     RDKit          2D

 70 77  0  0  0  0  0  0  0  0999 V2000
   -5.4401   18.5408    0.0000 C   0  0  0  0  0  0  0  0  0  0  0  0
   -4.3676   17.4921    0.0000 C   0  0  0  0  0  0  0  0  0  0  0  0
   -3.2380   18.4790    0.0000 C   0  0  0  0  0  0  0  0  0  0  0  0
   -1.9679   19.2771    0.0000 C   0  0  0  0  0  0  0  0  0  0  0  0
   -0.5886   19.8666    0.0000 C   0  0  0  0  0  0  0  0  0  0  0  0
    0.8659   20.2331    0.0000 C   0  0  0  0  0  0  0  0  0  0  0  0
    2.3598   20.3676    0.0000 C   0  0  0  0  0  0  0  0  0  0  0  0
    3.8565   20.2667    0.0000 C   0  0  0  0  0  0  0  0  0  0  0  0
    5.3188   19.9329    0.0000 C   0  0  0  0  0  0  0  0  0  0  0  0
    6.7110   19.3745    0.0000 C   0  0  0  0  0  0  0  0  0  0  0  0
    7.9987   18.6051    0.0000 C   0  0  0  0  0  0  0  0  0  0  0  0
    9.1502   17.6438    0.0000 C   0  0  0  0  0  0  0  0  0  0  0  0
   10.1371   16.5142    0.0000 C   0  0  0  0  0  0  0  0  0  0  0  0
   10.9351   15.2441    0.0000 C   0  0  0  0  0  0  0  0  0  0  0  0
   11.5246   13.8648    0.0000 C   0  0  0  0  0  0  0  0  0  0  0  0
   11.8912   12.4103    0.0000 C   0  0  0  0  0  0  0  0  0  0  0  0
   12.0256   10.9163    0.0000 C   0  0  0  0  0  0  0  0  0  0  0  0
   11.9247    9.4197    0.0000 C   0  0  0  0  0  0  0  0  0  0  0  0
   11.5909    7.9573    0.0000 C   0  0  0  0  0  0  0  0  0  0  0  0
   11.0325    6.5652    0.0000 C   0  0  0  0  0  0  0  0  0  0  0  0
   10.2631    5.2775    0.0000 C   0  0  0  0  0  0  0  0  0  0  0  0
    9.3018    4.1260    0.0000 C   0  0  0  0  0  0  0  0  0  0  0  0
    8.1722    3.1391    0.0000 C   0  0  0  0  0  0  0  0  0  0  0  0
    6.9021    2.3411    0.0000 C   0  0  0  0  0  0  0  0  0  0  0  0
    5.5228    1.7515    0.0000 C   0  0  0  0  0  0  0  0  0  0  0  0
    4.0683    1.3850    0.0000 C   0  0  0  0  0  0  0  0  0  0  0  0
    2.5744    1.2505    0.0000 N   0  0  0  0  0  0  0  0  0  0  0  0
    1.0777    1.3515    0.0000 C   0  0  0  0  0  0  0  0  0  0  0  0
    1.7286    0.0000    0.0000 N   0  0  0  0  0  0  0  0  0  0  0  0
    1.0777   -1.3515    0.0000 N   0  0  0  0  0  0  0  0  0  0  0  0
   -0.3846   -1.6852    0.0000 N   0  0  0  0  0  0  0  0  0  0  0  0
   -1.5574   -0.7500    0.0000 N   0  0  0  0  0  0  0  0  0  0  0  0
   -1.5574    0.7500    0.0000 N   0  0  0  0  0  0  0  0  0  0  0  0
   -0.3846    1.6852    0.0000 N   0  0  0  0  0  0  0  0  0  0  0  0
   -1.7768    2.2437    0.0000 C   0  0  0  0  0  0  0  0  0  0  0  0
   -0.4667    2.9742    0.0000 C   0  0  0  0  0  0  0  0  0  0  0  0
   -0.4443    4.4740    0.0000 C   0  0  0  0  0  0  0  0  0  0  0  0
   -1.7319    5.2433    0.0000 C   0  0  0  0  0  0  0  0  0  0  0  0
   -3.0421    4.5129    0.0000 C   0  0  0  0  0  0  0  0  0  0  0  0
   -3.0645    3.0130    0.0000 C   0  0  0  0  0  0  0  0  0  0  0  0
   -4.2160    3.9743    0.0000 C   0  0  0  0  0  0  0  0  0  0  0  0
   -4.7008    2.5548    0.0000 C   0  0  0  0  0  0  0  0  0  0  0  0
   -6.1725    2.2650    0.0000 C   0  0  0  0  0  0  0  0  0  0  0  0
   -7.1594    3.3946    0.0000 C   0  0  0  0  0  0  0  0  0  0  0  0
   -6.6746    4.8141    0.0000 C   0  0  0  0  0  0  0  0  0  0  0  0
   -5.2029    5.1039    0.0000 C   0  0  0  0  0  0  0  0  0  0  0  0
   -6.0009    6.3740    0.0000 C   0  0  0  0  0  0  0  0  0  0  0  0
   -7.1758    5.8175    0.0000 C   0  0  0  0  0  0  0  0  0  0  0  0
   -7.9700    5.9130    0.0000 C   0  0  0  0  0  0  0  0  0  0  0  0
   -8.2845    6.6486    0.0000 C   0  0  0  0  0  0  0  0  0  0  0  0
   -7.8046    7.2887    0.0000 C   0  0  0  0  0  0  0  0  0  0  0  0
   -6.5905    7.7533    0.0000 C   0  0  0  0  0  0  0  0  0  0  0  0
   -6.9570    9.2079    0.0000 C   0  0  0  0  0  0  0  0  0  0  0  0
   -8.1835    8.3444    0.0000 C   0  0  0  0  0  0  0  0  0  0  0  0
   -9.5446    8.9750    0.0000 C   0  0  0  0  0  0  0  0  0  0  0  0
   -9.6790   10.4689    0.0000 C   0  0  0  0  0  0  0  0  0  0  0  0
   -8.4525   11.3324    0.0000 C   0  0  0  0  0  0  0  0  0  0  0  0
   -7.0914   10.7018    0.0000 C   0  0  0  0  0  0  0  0  0  0  0  0
   -6.9905   12.1984    0.0000 C   0  0  0  0  0  0  0  0  0  0  0  0
   -8.2681   12.4387    0.0000 C   0  0  0  0  0  0  0  0  0  0  0  0
   -8.8546   12.9829    0.0000 C   0  0  0  0  0  0  0  0  0  0  0  0
   -8.6765   13.7628    0.0000 C   0  0  0  0  0  0  0  0  0  0  0  0
   -7.9121   13.9986    0.0000 C   0  0  0  0  0  0  0  0  0  0  0  0
   -6.6567   13.6608    0.0000 C   0  0  0  0  0  0  0  0  0  0  0  0
   -6.0983   15.0530    0.0000 C   0  0  0  0  0  0  0  0  0  0  0  0
   -7.5981   15.0754    0.0000 C   0  0  0  0  0  0  0  0  0  0  0  0
   -8.3286   16.3855    0.0000 C   0  0  0  0  0  0  0  0  0  0  0  0
   -7.5593   17.6732    0.0000 C   0  0  0  0  0  0  0  0  0  0  0  0
   -6.0594   17.6508    0.0000 C   0  0  0  0  0  0  0  0  0  0  0  0
   -5.3289   16.3407    0.0000 C   0  0  0  0  0  0  0  0  0  0  0  0
  1  2  1  0
  2  3  1  0
  3  4  1  0
  4  5  1  0
  5  6  1  0
  6  7  1  0
  7  8  1  0
  8  9  1  0
  9 10  2  0
 10 11  1  0
 11 12  2  0
 12 13  1  0
 13 14  1  0
 14 15  1  0
 15 16  1  0
 16 17  1  0
 17 18  1  0
 18 19  2  0
 19 20  1  0
 20 21  2  0
 21 22  1  0
 22 23  2  0
 23 24  1  0
 24 25  2  0
 25 26  1  0
 26 27  2  0
 27 28  1  0
 28 29  2  0
 29 30  1  0
 30 31  2  0
 31 32  1  0
 32 33  2  0
 33 34  1  0
 34 35  1  0
 35 36  2  0
 36 37  1  0
 37 38  2  0
 38 39  1  0
 39 40  2  0
 40 41  1  0
 41 42  2  0
 42 43  1  0
 43 44  2  0
 44 45  1  0
 45 46  2  0
 46 47  1  0
 47 48  2  0
 48 49  1  0
 49 50  2  0
 50 51  1  0
 51 52  2  0
 52 53  1  0
 53 54  2  0
 54 55  1  0
 55 56  2  0
 56 57  1  0
 57 58  2  0
 58 59  1  0
 59 60  2  0
 60 61  1  0
 61 62  2  0
 62 63  1  0
 63 64  2  0
 64 65  1  0
 65 66  2  0
 66 67  1  0
 67 68  2  0
 68 69  1  0
 69 70  2  0
 70  2  1  0
 34 28  1  0
 40 35  1  0
 46 41  1  0
 52 47  1  0
 58 53  1  0
 64 59  1  0
 70 65  1  0
M  END
>  <Title>  (687) 
idAAYQgen7

$$$$

     RDKit          2D

 12 12  0  0  0  0  0  0  0  0999 V2000
    4.4429   -1.2990    0.0000 C   0  0  0  0  0  0  0  0  0  0  0  0
    3.6929    0.0000    0.0000 O   0  0  0  0  0  0  0  0  0  0  0  0
    2.1929    0.0000    0.0000 C   0  0  0  0  0  0  0  0  0  0  0  0
    1.6798    1.4095    0.0000 C   0  0  0  0  0  0  0  0  0  0  0  0
    0.3808    2.1595    0.0000 C   0  0  0  0  0  0  0  0  0  0  0  0
   -1.0964    1.8991    0.0000 C   0  0  0  0  0  0  0  0  0  0  0  0
   -2.0606    0.7500    0.0000 C   0  0  0  0  0  0  0  0  0  0  0  0
   -2.0606   -0.7500    0.0000 C   0  0  0  0  0  0  0  0  0  0  0  0
   -1.0964   -1.8991    0.0000 C   0  0  0  0  0  0  0  0  0  0  0  0
    0.3808   -2.1595    0.0000 C   0  0  0  0  0  0  0  0  0  0  0  0
    0.6413   -3.6368    0.0000 C   0  0  0  0  0  0  0  0  0  0  0  0
    1.6798   -1.4095    0.0000 C   0  0  0  0  0  0  0  0  0  0  0  0
  1  2  1  0
  2  3  1  0
  3  4  1  0
  4  5  1  0
  5  6  1  0
  6  7  1  0
  7  8  1  0
  8  9  1  0
  9 10  1  0
 10 11  1  0
 10 12  1  0
 12  3  1  0
M  END
>  <Title>  (688) 
idAAYRgen7

$$$$

     RDKit          2D

 31 34  0  0  0  0  0  0  0  0999 V2000
   -3.1455   -1.1277    0.0000 C   0  0  0  0  0  0  0  0  0  0  0  0
   -2.0119   -2.1100    0.0000 C   0  0  0  0  0  0  0  0  0  0  0  0
   -2.6350   -3.4744    0.0000 C   0  0  0  0  0  0  0  0  0  0  0  0
   -2.4215   -4.9592    0.0000 C   0  0  0  0  0  0  0  0  0  0  0  0
   -1.4392   -6.0928    0.0000 C   0  0  0  0  0  0  0  0  0  0  0  0
   -2.2859   -7.3310    0.0000 C   0  0  0  0  0  0  0  0  0  0  0  0
   -1.3699   -8.5189    0.0000 C   0  0  0  0  0  0  0  0  0  0  0  0
    0.0428   -8.0148    0.0000 C   0  0  0  0  0  0  0  0  0  0  0  0
   -0.0000   -6.5154    0.0000 C   0  0  0  0  0  0  0  0  0  0  0  0
    1.4392   -6.0928    0.0000 C   0  0  0  0  0  0  0  0  0  0  0  0
    2.4215   -4.9592    0.0000 C   0  0  0  0  0  0  0  0  0  0  0  0
    3.7860   -5.5823    0.0000 N   0  0  0  0  0  0  0  0  0  0  0  0
    3.9286   -7.0755    0.0000 C   0  0  0  0  0  0  0  0  0  0  0  0
    2.7067   -7.9456    0.0000 O   0  0  0  0  0  0  0  0  0  0  0  0
    5.2930   -7.6986    0.0000 C   0  0  0  0  0  0  0  0  0  0  0  0
    6.5149   -6.8285    0.0000 O   0  0  0  0  0  0  0  0  0  0  0  0
    5.4356   -9.1918    0.0000 C   0  0  0  0  0  0  0  0  0  0  0  0
    4.2137  -10.0619    0.0000 C   0  0  0  0  0  0  0  0  0  0  0  0
    4.3563  -11.5551    0.0000 C   0  0  0  0  0  0  0  0  0  0  0  0
    5.7208  -12.1783    0.0000 C   0  0  0  0  0  0  0  0  0  0  0  0
    6.9426  -11.3082    0.0000 C   0  0  0  0  0  0  0  0  0  0  0  0
    6.8000   -9.8150    0.0000 C   0  0  0  0  0  0  0  0  0  0  0  0
    2.6350   -3.4744    0.0000 C   0  0  0  0  0  0  0  0  0  0  0  0
    4.1197   -3.2610    0.0000 O   0  0  0  0  0  0  0  0  0  0  0  0
    2.0119   -2.1100    0.0000 O   0  0  0  0  0  0  0  0  0  0  0  0
    0.7500   -1.2990    0.0000 C   0  0  0  0  0  0  0  0  0  0  0  0
    1.5000    0.0000    0.0000 C   0  0  0  0  0  0  0  0  0  0  0  0
    0.7500    1.2990    0.0000 C   0  0  0  0  0  0  0  0  0  0  0  0
   -0.7500    1.2990    0.0000 C   0  0  0  0  0  0  0  0  0  0  0  0
   -1.5000    0.0000    0.0000 C   0  0  0  0  0  0  0  0  0  0  0  0
   -0.7500   -1.2990    0.0000 C   0  0  0  0  0  0  0  0  0  0  0  0
  1  2  1  0
  2  3  2  0
  3  4  1  0
  4  5  2  0
  5  6  1  0
  6  7  2  0
  7  8  1  0
  8  9  2  0
  9 10  1  0
 10 11  1  0
 11 12  1  0
 12 13  1  0
 13 14  2  0
 13 15  1  0
 15 16  2  0
 15 17  1  0
 17 18  2  0
 18 19  1  0
 19 20  2  0
 20 21  1  0
 21 22  2  0
 11 23  1  0
 23 24  2  0
 23 25  1  0
 25 26  1  0
 26 27  2  0
 27 28  1  0
 28 29  2  0
 29 30  1  0
 30 31  2  0
 31  2  1  0
  9  5  1  0
 22 17  1  0
 31 26  1  0
M  END
>  <Title>  (689) 
idAAYSgen7

$$$$

     RDKit          2D

 34 38  0  0  0  0  0  0  0  0999 V2000
   -3.0000   -2.5981    0.0000 C   0  0  0  0  0  0  0  0  0  0  0  0
   -1.5000   -2.5981    0.0000 C   0  0  0  0  0  0  0  0  0  0  0  0
   -0.7500   -3.8971    0.0000 C   0  0  0  0  0  0  0  0  0  0  0  0
    0.7500   -3.8971    0.0000 C   0  0  0  0  0  0  0  0  0  0  0  0
    1.5000   -2.5981    0.0000 C   0  0  0  0  0  0  0  0  0  0  0  0
    3.0000   -2.5981    0.0000 C   0  0  0  0  0  0  0  0  0  0  0  0
    3.7500   -1.2990    0.0000 O   0  0  0  0  0  0  0  0  0  0  0  0
    3.7500   -3.8971    0.0000 N   0  0  0  0  0  0  0  0  0  0  0  0
    5.2500   -3.8971    0.0000 C   0  0  0  0  0  0  0  0  0  0  0  0
    6.1317   -2.6836    0.0000 N   0  0  0  0  0  0  0  0  0  0  0  0
    7.5583   -3.1471    0.0000 N   0  0  0  0  0  0  0  0  0  0  0  0
    7.5583   -4.6471    0.0000 N   0  0  0  0  0  0  0  0  0  0  0  0
    6.1317   -5.1106    0.0000 N   0  0  0  0  0  0  0  0  0  0  0  0
    5.6682   -6.5372    0.0000 N   0  0  0  0  0  0  0  0  0  0  0  0
    4.2009   -6.8491    0.0000 C   0  0  0  0  0  0  0  0  0  0  0  0
    3.7374   -8.2757    0.0000 C   0  0  0  0  0  0  0  0  0  0  0  0
    4.7411   -9.3904    0.0000 C   0  0  0  0  0  0  0  0  0  0  0  0
    4.2776  -10.8170    0.0000 C   0  0  0  0  0  0  0  0  0  0  0  0
    5.2813  -11.9317    0.0000 O   0  0  0  0  0  0  0  0  0  0  0  0
    2.8104  -11.1288    0.0000 N   0  0  0  0  0  0  0  0  0  0  0  0
    2.3468  -12.5554    0.0000 C   0  0  0  0  0  0  0  0  0  0  0  0
    0.8796  -12.8673    0.0000 C   0  0  0  0  0  0  0  0  0  0  0  0
    0.4161  -14.2939    0.0000 C   0  0  0  0  0  0  0  0  0  0  0  0
    1.4198  -15.4086    0.0000 C   0  0  0  0  0  0  0  0  0  0  0  0
    2.8870  -15.0967    0.0000 C   0  0  0  0  0  0  0  0  0  0  0  0
    3.3505  -13.6701    0.0000 C   0  0  0  0  0  0  0  0  0  0  0  0
    6.2083   -9.0785    0.0000 C   0  0  0  0  0  0  0  0  0  0  0  0
    6.6718   -7.6519    0.0000 C   0  0  0  0  0  0  0  0  0  0  0  0
    0.7500   -1.2990    0.0000 C   0  0  0  0  0  0  0  0  0  0  0  0
    1.5000    0.0000    0.0000 C   0  0  0  0  0  0  0  0  0  0  0  0
    0.7500    1.2990    0.0000 C   0  0  0  0  0  0  0  0  0  0  0  0
   -0.7500    1.2990    0.0000 C   0  0  0  0  0  0  0  0  0  0  0  0
   -1.5000    0.0000    0.0000 C   0  0  0  0  0  0  0  0  0  0  0  0
   -0.7500   -1.2990    0.0000 C   0  0  0  0  0  0  0  0  0  0  0  0
  1  2  1  0
  2  3  1  0
  3  4  1  0
  4  5  1  0
  5  6  1  0
  6  7  2  0
  6  8  1  0
  8  9  1  0
  9 10  2  0
 10 11  1  0
 11 12  2  0
 12 13  1  0
 13 14  1  0
 14 15  1  0
 15 16  1  0
 16 17  1  0
 17 18  1  0
 18 19  2  0
 18 20  1  0
 20 21  1  0
 21 22  2  0
 22 23  1  0
 23 24  2  0
 24 25  1  0
 25 26  2  0
 17 27  1  0
 27 28  1  0
  5 29  1  0
 29 30  2  0
 30 31  1  0
 31 32  2  0
 32 33  1  0
 33 34  2  0
 34  2  1  0
 13  9  1  0
 28 14  1  0
 34 29  1  0
 26 21  1  0
M  END
>  <Title>  (690) 
idAAYTgen7

$$$$

     RDKit          2D

  7  7  0  0  0  0  0  0  0  0999 V2000
    3.5260   -1.2990    0.0000 C   0  0  0  0  0  0  0  0  0  0  0  0
    2.7760    0.0000    0.0000 O   0  0  0  0  0  0  0  0  0  0  0  0
    1.2760    0.0000    0.0000 C   0  0  0  0  0  0  0  0  0  0  0  0
    0.3943    1.2135    0.0000 C   0  0  0  0  0  0  0  0  0  0  0  0
   -1.0323    0.7500    0.0000 C   0  0  0  0  0  0  0  0  0  0  0  0
   -1.0323   -0.7500    0.0000 C   0  0  0  0  0  0  0  0  0  0  0  0
    0.3943   -1.2135    0.0000 C   0  0  0  0  0  0  0  0  0  0  0  0
  1  2  1  0
  2  3  1  0
  3  4  2  0
  4  5  1  0
  5  6  2  0
  6  7  1  0
  7  3  1  0
M  END
>  <Title>  (691) 
idAAYUgen7

$$$$

     RDKit          2D

 41 46  0  0  0  0  0  0  0  0999 V2000
   -0.0000   -9.9348    0.0000 C   0  0  0  0  0  0  0  0  0  0  0  0
   -0.0000   -8.4348    0.0000 C   0  0  0  0  0  0  0  0  0  0  0  0
    1.4672   -8.1229    0.0000 C   0  0  0  0  0  0  0  0  0  0  0  0
    2.6807   -7.2413    0.0000 C   0  0  0  0  0  0  0  0  0  0  0  0
    3.4307   -5.9422    0.0000 C   0  0  0  0  0  0  0  0  0  0  0  0
    3.5875   -4.4504    0.0000 C   0  0  0  0  0  0  0  0  0  0  0  0
    3.1240   -3.0239    0.0000 C   0  0  0  0  0  0  0  0  0  0  0  0
    2.1203   -1.9091    0.0000 C   0  0  0  0  0  0  0  0  0  0  0  0
    3.0020   -0.6956    0.0000 C   0  0  0  0  0  0  0  0  0  0  0  0
    2.3919    0.6747    0.0000 O   0  0  0  0  0  0  0  0  0  0  0  0
    4.4938   -0.8524    0.0000 N   0  0  0  0  0  0  0  0  0  0  0  0
    5.3755    0.3611    0.0000 C   0  0  0  0  0  0  0  0  0  0  0  0
    6.8672    0.2043    0.0000 N   0  0  0  0  0  0  0  0  0  0  0  0
    7.7489    1.4178    0.0000 N   0  0  0  0  0  0  0  0  0  0  0  0
    7.1388    2.7882    0.0000 N   0  0  0  0  0  0  0  0  0  0  0  0
    5.6470    2.9450    0.0000 N   0  0  0  0  0  0  0  0  0  0  0  0
    4.7654    1.7314    0.0000 N   0  0  0  0  0  0  0  0  0  0  0  0
    0.7500   -1.2990    0.0000 C   0  0  0  0  0  0  0  0  0  0  0  0
    1.5000    0.0000    0.0000 C   0  0  0  0  0  0  0  0  0  0  0  0
    0.7500    1.2990    0.0000 C   0  0  0  0  0  0  0  0  0  0  0  0
   -0.7500    1.2990    0.0000 C   0  0  0  0  0  0  0  0  0  0  0  0
   -1.5000    0.0000    0.0000 C   0  0  0  0  0  0  0  0  0  0  0  0
   -0.7500   -1.2990    0.0000 C   0  0  0  0  0  0  0  0  0  0  0  0
   -2.1203   -1.9091    0.0000 C   0  0  0  0  0  0  0  0  0  0  0  0
   -2.5838   -0.4826    0.0000 C   0  0  0  0  0  0  0  0  0  0  0  0
   -4.0511   -0.1707    0.0000 C   0  0  0  0  0  0  0  0  0  0  0  0
   -5.0548   -1.2854    0.0000 C   0  0  0  0  0  0  0  0  0  0  0  0
   -4.5912   -2.7120    0.0000 C   0  0  0  0  0  0  0  0  0  0  0  0
   -3.1240   -3.0239    0.0000 C   0  0  0  0  0  0  0  0  0  0  0  0
   -3.5875   -4.4504    0.0000 C   0  0  0  0  0  0  0  0  0  0  0  0
   -4.9579   -3.8403    0.0000 C   0  0  0  0  0  0  0  0  0  0  0  0
   -6.1714   -4.7220    0.0000 C   0  0  0  0  0  0  0  0  0  0  0  0
   -6.0146   -6.2138    0.0000 C   0  0  0  0  0  0  0  0  0  0  0  0
   -4.6443   -6.8239    0.0000 C   0  0  0  0  0  0  0  0  0  0  0  0
   -3.4307   -5.9422    0.0000 C   0  0  0  0  0  0  0  0  0  0  0  0
   -2.6807   -7.2413    0.0000 C   0  0  0  0  0  0  0  0  0  0  0  0
   -4.0511   -7.8514    0.0000 C   0  0  0  0  0  0  0  0  0  0  0  0
   -4.2079   -9.3432    0.0000 C   0  0  0  0  0  0  0  0  0  0  0  0
   -2.9943  -10.2248    0.0000 C   0  0  0  0  0  0  0  0  0  0  0  0
   -1.6240   -9.6147    0.0000 C   0  0  0  0  0  0  0  0  0  0  0  0
   -1.4672   -8.1229    0.0000 C   0  0  0  0  0  0  0  0  0  0  0  0
  1  2  1  0
  2  3  1  0
  3  4  1  0
  4  5  1  0
  5  6  1  0
  6  7  1  0
  7  8  1  0
  8  9  1  0
  9 10  2  0
  9 11  1  0
 11 12  1  0
 12 13  2  0
 13 14  1  0
 14 15  2  0
 15 16  1  0
 16 17  2  0
  8 18  1  0
 18 19  2  0
 19 20  1  0
 20 21  2  0
 21 22  1  0
 22 23  2  0
 23 24  1  0
 24 25  2  0
 25 26  1  0
 26 27  2  0
 27 28  1  0
 28 29  2  0
 29 30  1  0
 30 31  2  0
 31 32  1  0
 32 33  2  0
 33 34  1  0
 34 35  2  0
 35 36  1  0
 36 37  2  0
 37 38  1  0
 38 39  2  0
 39 40  1  0
 40 41  2  0
 41  2  1  0
 17 12  1  0
 23 18  1  0
 29 24  1  0
 35 30  1  0
 41 36  1  0
M  END
>  <Title>  (692) 
idAAYVgen7

$$$$

     RDKit          2D

  7  7  0  0  0  0  0  0  0  0999 V2000
    3.0000    0.0000    0.0000 O   0  0  0  0  0  0  0  0  0  0  0  0
    1.5000    0.0000    0.0000 C   0  0  0  0  0  0  0  0  0  0  0  0
    0.7500   -1.2990    0.0000 C   0  0  0  0  0  0  0  0  0  0  0  0
   -0.7500   -1.2990    0.0000 C   0  0  0  0  0  0  0  0  0  0  0  0
   -1.5000    0.0000    0.0000 C   0  0  0  0  0  0  0  0  0  0  0  0
   -0.7500    1.2990    0.0000 C   0  0  0  0  0  0  0  0  0  0  0  0
    0.7500    1.2990    0.0000 O   0  0  0  0  0  0  0  0  0  0  0  0
  1  2  1  0
  2  3  1  0
  3  4  1  0
  4  5  1  0
  5  6  1  0
  6  7  1  0
  7  2  1  0
M  END
>  <Title>  (693) 
idAAYWgen7

$$$$

     RDKit          2D

 16 17  0  0  0  0  0  0  0  0999 V2000
    0.4775   -9.6721    0.0000 C   0  0  0  0  0  0  0  0  0  0  0  0
    1.8478   -9.0619    0.0000 C   0  0  0  0  0  0  0  0  0  0  0  0
    2.0046   -7.5702    0.0000 C   0  0  0  0  0  0  0  0  0  0  0  0
    3.3037   -6.8202    0.0000 C   0  0  0  0  0  0  0  0  0  0  0  0
    2.9918   -5.3529    0.0000 C   0  0  0  0  0  0  0  0  0  0  0  0
    1.5000   -5.1962    0.0000 C   0  0  0  0  0  0  0  0  0  0  0  0
    0.7500   -3.8971    0.0000 C   0  0  0  0  0  0  0  0  0  0  0  0
   -0.7500   -3.8971    0.0000 O   0  0  0  0  0  0  0  0  0  0  0  0
    1.5000   -2.5981    0.0000 N   0  0  0  0  0  0  0  0  0  0  0  0
    0.7500   -1.2990    0.0000 C   0  0  0  0  0  0  0  0  0  0  0  0
    1.5000    0.0000    0.0000 N   0  0  0  0  0  0  0  0  0  0  0  0
    0.7500    1.2990    0.0000 N   0  0  0  0  0  0  0  0  0  0  0  0
   -0.7500    1.2990    0.0000 N   0  0  0  0  0  0  0  0  0  0  0  0
   -1.5000    0.0000    0.0000 N   0  0  0  0  0  0  0  0  0  0  0  0
   -0.7500   -1.2990    0.0000 N   0  0  0  0  0  0  0  0  0  0  0  0
    0.8899   -6.5665    0.0000 C   0  0  0  0  0  0  0  0  0  0  0  0
  1  2  1  0
  2  3  1  0
  3  4  2  0
  4  5  1  0
  5  6  2  0
  6  7  1  0
  7  8  2  0
  7  9  1  0
  9 10  1  0
 10 11  2  0
 11 12  1  0
 12 13  2  0
 13 14  1  0
 14 15  2  0
  6 16  1  0
 16  3  1  0
 15 10  1  0
M  END
>  <Title>  (694) 
idAAYXgen7

$$$$

     RDKit          2D

  4  3  0  0  0  0  0  0  0  0999 V2000
   -0.0000   -1.5000    0.0000 O   0  0  0  0  0  0  0  0  0  0  0  0
    0.0000    0.0000    0.0000 C   0  0  0  0  0  0  0  0  0  0  0  0
    1.2990    0.7500    0.0000 O   0  0  0  0  0  0  0  0  0  0  0  0
   -1.2990    0.7500    0.0000 O   0  0  0  0  0  0  0  0  0  0  0  0
  1  2  2  0
  2  3  1  0
  2  4  1  0
M  END
>  <Title>  (695) 
idAAYYgen7

$$$$

     RDKit          2D

 86 89  0  0  0  0  0  0  0  0999 V2000
   -5.6139   -0.6235    0.0000 C   0  0  0  0  0  0  0  0  0  0  0  0
   -5.1746   -2.0577    0.0000 C   0  0  0  0  0  0  0  0  0  0  0  0
   -6.5889   -2.5574    0.0000 C   0  0  0  0  0  0  0  0  0  0  0  0
   -7.9558   -3.1753    0.0000 C   0  0  0  0  0  0  0  0  0  0  0  0
   -9.2653   -3.9068    0.0000 C   0  0  0  0  0  0  0  0  0  0  0  0
  -10.5081   -4.7468    0.0000 C   0  0  0  0  0  0  0  0  0  0  0  0
  -11.6751   -5.6891    0.0000 C   0  0  0  0  0  0  0  0  0  0  0  0
  -12.7581   -6.7270    0.0000 C   0  0  0  0  0  0  0  0  0  0  0  0
  -13.7491   -7.8530    0.0000 C   0  0  0  0  0  0  0  0  0  0  0  0
  -14.6410   -9.0590    0.0000 C   0  0  0  0  0  0  0  0  0  0  0  0
  -15.4275  -10.3363    0.0000 C   0  0  0  0  0  0  0  0  0  0  0  0
  -16.1028  -11.6757    0.0000 C   0  0  0  0  0  0  0  0  0  0  0  0
  -16.6621  -13.0675    0.0000 C   0  0  0  0  0  0  0  0  0  0  0  0
  -17.1013  -14.5018    0.0000 C   0  0  0  0  0  0  0  0  0  0  0  0
  -17.4173  -15.9681    0.0000 C   0  0  0  0  0  0  0  0  0  0  0  0
  -17.6078  -17.4560    0.0000 C   0  0  0  0  0  0  0  0  0  0  0  0
  -17.6715  -18.9546    0.0000 C   0  0  0  0  0  0  0  0  0  0  0  0
  -17.6078  -20.4533    0.0000 C   0  0  0  0  0  0  0  0  0  0  0  0
  -17.4173  -21.9411    0.0000 C   0  0  0  0  0  0  0  0  0  0  0  0
  -17.1013  -23.4075    0.0000 C   0  0  0  0  0  0  0  0  0  0  0  0
  -16.6621  -24.8417    0.0000 C   0  0  0  0  0  0  0  0  0  0  0  0
  -16.1028  -26.2335    0.0000 C   0  0  0  0  0  0  0  0  0  0  0  0
  -15.4275  -27.5729    0.0000 C   0  0  0  0  0  0  0  0  0  0  0  0
  -14.6410  -28.8502    0.0000 C   0  0  0  0  0  0  0  0  0  0  0  0
  -13.7491  -30.0562    0.0000 C   0  0  0  0  0  0  0  0  0  0  0  0
  -12.7581  -31.1822    0.0000 C   0  0  0  0  0  0  0  0  0  0  0  0
  -11.6751  -32.2201    0.0000 C   0  0  0  0  0  0  0  0  0  0  0  0
  -10.5081  -33.1625    0.0000 C   0  0  0  0  0  0  0  0  0  0  0  0
   -9.2653  -34.0024    0.0000 C   0  0  0  0  0  0  0  0  0  0  0  0
   -7.9558  -34.7340    0.0000 C   0  0  0  0  0  0  0  0  0  0  0  0
   -6.5889  -35.3518    0.0000 C   0  0  0  0  0  0  0  0  0  0  0  0
   -5.1746  -35.8515    0.0000 C   0  0  0  0  0  0  0  0  0  0  0  0
   -3.7230  -36.2295    0.0000 C   0  0  0  0  0  0  0  0  0  0  0  0
   -2.2446  -36.4830    0.0000 C   0  0  0  0  0  0  0  0  0  0  0  0
   -0.7500  -36.6102    0.0000 C   0  0  0  0  0  0  0  0  0  0  0  0
    0.7500  -36.6102    0.0000 C   0  0  0  0  0  0  0  0  0  0  0  0
    2.2446  -36.4830    0.0000 C   0  0  0  0  0  0  0  0  0  0  0  0
    3.7230  -36.2295    0.0000 C   0  0  0  0  0  0  0  0  0  0  0  0
    5.1746  -35.8515    0.0000 C   0  0  0  0  0  0  0  0  0  0  0  0
    6.5889  -35.3518    0.0000 C   0  0  0  0  0  0  0  0  0  0  0  0
    7.9558  -34.7340    0.0000 C   0  0  0  0  0  0  0  0  0  0  0  0
    9.2653  -34.0024    0.0000 C   0  0  0  0  0  0  0  0  0  0  0  0
   10.5081  -33.1625    0.0000 C   0  0  0  0  0  0  0  0  0  0  0  0
   11.6751  -32.2201    0.0000 C   0  0  0  0  0  0  0  0  0  0  0  0
   12.7581  -31.1822    0.0000 C   0  0  0  0  0  0  0  0  0  0  0  0
   13.7491  -30.0562    0.0000 C   0  0  0  0  0  0  0  0  0  0  0  0
   14.6410  -28.8502    0.0000 C   0  0  0  0  0  0  0  0  0  0  0  0
   15.4275  -27.5729    0.0000 C   0  0  0  0  0  0  0  0  0  0  0  0
   16.1028  -26.2335    0.0000 C   0  0  0  0  0  0  0  0  0  0  0  0
   16.6621  -24.8417    0.0000 C   0  0  0  0  0  0  0  0  0  0  0  0
   17.1013  -23.4075    0.0000 C   0  0  0  0  0  0  0  0  0  0  0  0
   17.4173  -21.9411    0.0000 C   0  0  0  0  0  0  0  0  0  0  0  0
   17.6078  -20.4533    0.0000 C   0  0  0  0  0  0  0  0  0  0  0  0
   17.6715  -18.9546    0.0000 C   0  0  0  0  0  0  0  0  0  0  0  0
   17.6078  -17.4560    0.0000 C   0  0  0  0  0  0  0  0  0  0  0  0
   17.4173  -15.9681    0.0000 C   0  0  0  0  0  0  0  0  0  0  0  0
   17.1013  -14.5018    0.0000 C   0  0  0  0  0  0  0  0  0  0  0  0
   16.6621  -13.0675    0.0000 C   0  0  0  0  0  0  0  0  0  0  0  0
   16.1028  -11.6757    0.0000 C   0  0  0  0  0  0  0  0  0  0  0  0
   15.4275  -10.3363    0.0000 C   0  0  0  0  0  0  0  0  0  0  0  0
   14.6410   -9.0590    0.0000 C   0  0  0  0  0  0  0  0  0  0  0  0
   13.7491   -7.8530    0.0000 C   0  0  0  0  0  0  0  0  0  0  0  0
   12.7581   -6.7270    0.0000 C   0  0  0  0  0  0  0  0  0  0  0  0
   11.6751   -5.6891    0.0000 C   0  0  0  0  0  0  0  0  0  0  0  0
   10.5081   -4.7468    0.0000 C   0  0  0  0  0  0  0  0  0  0  0  0
    9.2653   -3.9068    0.0000 C   0  0  0  0  0  0  0  0  0  0  0  0
    7.9558   -3.1753    0.0000 C   0  0  0  0  0  0  0  0  0  0  0  0
    6.5889   -2.5574    0.0000 C   0  0  0  0  0  0  0  0  0  0  0  0
    5.1746   -2.0577    0.0000 C   0  0  0  0  0  0  0  0  0  0  0  0
    3.7230   -1.6797    0.0000 C   0  0  0  0  0  0  0  0  0  0  0  0
    3.9388   -3.1641    0.0000 C   0  0  0  0  0  0  0  0  0  0  0  0
    2.5937   -3.8281    0.0000 C   0  0  0  0  0  0  0  0  0  0  0  0
    1.5466   -2.7540    0.0000 C   0  0  0  0  0  0  0  0  0  0  0  0
    2.2446   -1.4262    0.0000 C   0  0  0  0  0  0  0  0  0  0  0  0
    0.7500   -1.2990    0.0000 C   0  0  0  0  0  0  0  0  0  0  0  0
    1.5000    0.0000    0.0000 C   0  0  0  0  0  0  0  0  0  0  0  0
    0.7500    1.2990    0.0000 C   0  0  0  0  0  0  0  0  0  0  0  0
   -0.7500    1.2990    0.0000 C   0  0  0  0  0  0  0  0  0  0  0  0
   -1.5000    0.0000    0.0000 C   0  0  0  0  0  0  0  0  0  0  0  0
   -0.7500   -1.2990    0.0000 C   0  0  0  0  0  0  0  0  0  0  0  0
   -2.2446   -1.4262    0.0000 C   0  0  0  0  0  0  0  0  0  0  0  0
   -1.2858   -2.5798    0.0000 C   0  0  0  0  0  0  0  0  0  0  0  0
   -1.8055   -3.9870    0.0000 C   0  0  0  0  0  0  0  0  0  0  0  0
   -3.2839   -4.2405    0.0000 C   0  0  0  0  0  0  0  0  0  0  0  0
   -4.2427   -3.0869    0.0000 C   0  0  0  0  0  0  0  0  0  0  0  0
   -3.7230   -1.6797    0.0000 C   0  0  0  0  0  0  0  0  0  0  0  0
  1  2  1  0
  2  3  1  0
  3  4  1  0
  4  5  1  0
  5  6  1  0
  6  7  1  0
  7  8  1  0
  8  9  1  0
  9 10  1  0
 10 11  1  0
 11 12  1  0
 12 13  1  0
 13 14  1  0
 14 15  1  0
 15 16  1  0
 16 17  1  0
 17 18  2  0
 18 19  1  0
 19 20  2  0
 20 21  1  0
 21 22  1  0
 22 23  1  0
 23 24  1  0
 24 25  1  0
 25 26  1  0
 26 27  1  0
 27 28  1  0
 28 29  1  0
 29 30  1  0
 30 31  1  0
 31 32  1  0
 32 33  1  0
 33 34  1  0
 34 35  2  0
 35 36  1  0
 36 37  2  0
 37 38  1  0
 38 39  1  0
 39 40  1  0
 40 41  1  0
 41 42  1  0
 42 43  1  0
 43 44  1  0
 44 45  1  0
 45 46  1  0
 46 47  1  0
 47 48  1  0
 48 49  1  0
 49 50  1  0
 50 51  1  0
 51 52  1  0
 52 53  1  0
 53 54  2  0
 54 55  1  0
 55 56  2  0
 56 57  1  0
 57 58  2  0
 58 59  1  0
 59 60  2  0
 60 61  1  0
 61 62  2  0
 62 63  1  0
 63 64  2  0
 64 65  1  0
 65 66  2  0
 66 67  1  0
 67 68  2  0
 68 69  1  0
 69 70  2  0
 70 71  1  0
 71 72  2  0
 72 73  1  0
 73 74  2  0
 74 75  1  0
 75 76  2  0
 76 77  1  0
 77 78  2  0
 78 79  1  0
 79 80  2  0
 80 81  1  0
 81 82  2  0
 82 83  1  0
 83 84  2  0
 84 85  1  0
 85 86  2  0
 86  2  1  0
 74 70  1  0
 80 75  1  0
 86 81  1  0
M  END
>  <Title>  (696) 
idAAYZgen7

$$$$

     RDKit          2D

 15 15  0  0  0  0  0  0  0  0999 V2000
    6.5260    1.2990    0.0000 N   0  0  0  0  0  0  0  0  0  0  0  0
    5.0260    1.2990    0.0000 C   0  0  0  0  0  0  0  0  0  0  0  0
    3.5260    1.2990    0.0000 C   0  0  0  0  0  0  0  0  0  0  0  0
    2.7760    2.5981    0.0000 O   0  0  0  0  0  0  0  0  0  0  0  0
    2.7760    0.0000    0.0000 C   0  0  0  0  0  0  0  0  0  0  0  0
    3.5260   -1.2990    0.0000 O   0  0  0  0  0  0  0  0  0  0  0  0
    1.2760    0.0000    0.0000 N   0  0  0  0  0  0  0  0  0  0  0  0
    0.3943    1.2135    0.0000 C   0  0  0  0  0  0  0  0  0  0  0  0
   -1.0323    0.7500    0.0000 C   0  0  0  0  0  0  0  0  0  0  0  0
   -1.0323   -0.7500    0.0000 C   0  0  0  0  0  0  0  0  0  0  0  0
   -2.2458   -1.6317    0.0000 C   0  0  0  0  0  0  0  0  0  0  0  0
   -2.0890   -3.1235    0.0000 O   0  0  0  0  0  0  0  0  0  0  0  0
   -3.6161   -1.0216    0.0000 O   0  0  0  0  0  0  0  0  0  0  0  0
    0.3943   -1.2135    0.0000 C   0  0  0  0  0  0  0  0  0  0  0  0
    0.8578   -2.6401    0.0000 O   0  0  0  0  0  0  0  0  0  0  0  0
  1  2  3  0
  2  3  1  0
  3  4  2  0
  3  5  1  0
  5  6  2  0
  5  7  1  0
  7  8  1  0
  8  9  1  0
  9 10  1  0
 10 11  1  0
 11 12  2  0
 11 13  1  0
 10 14  1  0
 14 15  2  0
 14  7  1  0
M  END
>  <Title>  (697) 
idAAZAgen7

$$$$

     RDKit          2D

  2  1  0  0  0  0  0  0  0  0999 V2000
    0.0000    0.0000    0.0000 C   0  0  0  0  0  0  0  0  0  0  0  0
    1.2990    0.7500    0.0000 C   0  0  0  0  0  0  0  0  0  0  0  0
  1  2  2  0
M  END
>  <Title>  (698) 
idAAZBgen7

$$$$

     RDKit          2D

 18 19  0  0  0  0  0  0  0  0999 V2000
    2.7760    0.0000    0.0000 C   0  0  0  0  0  0  0  0  0  0  0  0
    1.2760    0.0000    0.0000 C   0  0  0  0  0  0  0  0  0  0  0  0
    0.3943    1.2135    0.0000 C   0  0  0  0  0  0  0  0  0  0  0  0
   -1.0323    0.7500    0.0000 C   0  0  0  0  0  0  0  0  0  0  0  0
   -1.0323   -0.7500    0.0000 C   0  0  0  0  0  0  0  0  0  0  0  0
    0.3943   -1.2135    0.0000 C   0  0  0  0  0  0  0  0  0  0  0  0
    0.8578   -2.6401    0.0000 N   0  0  0  0  0  0  0  0  0  0  0  0
   -0.1459   -3.7548    0.0000 C   0  0  0  0  0  0  0  0  0  0  0  0
   -1.6131   -3.4430    0.0000 O   0  0  0  0  0  0  0  0  0  0  0  0
    0.3177   -5.1814    0.0000 C   0  0  0  0  0  0  0  0  0  0  0  0
   -0.6860   -6.2961    0.0000 C   0  0  0  0  0  0  0  0  0  0  0  0
   -1.6897   -7.4108    0.0000 N   0  0  0  0  0  0  0  0  0  0  0  0
    1.7849   -5.4933    0.0000 C   0  0  0  0  0  0  0  0  0  0  0  0
    2.8996   -4.4896    0.0000 C   0  0  0  0  0  0  0  0  0  0  0  0
    4.1986   -5.2396    0.0000 C   0  0  0  0  0  0  0  0  0  0  0  0
    3.8868   -6.7068    0.0000 C   0  0  0  0  0  0  0  0  0  0  0  0
    4.8905   -7.8215    0.0000 O   0  0  0  0  0  0  0  0  0  0  0  0
    2.3950   -6.8636    0.0000 O   0  0  0  0  0  0  0  0  0  0  0  0
  1  2  1  0
  2  3  2  0
  3  4  1  0
  4  5  1  0
  5  6  2  0
  6  7  1  0
  7  8  1  0
  8  9  2  0
  8 10  1  0
 10 11  1  0
 11 12  3  0
 10 13  1  0
 13 14  1  0
 14 15  1  0
 15 16  1  0
 16 17  2  0
 16 18  1  0
  6  2  1  0
 18 13  1  0
M  END
>  <Title>  (699) 
idAAZCgen7

$$$$

     RDKit          2D

  7  7  0  0  0  0  0  0  0  0999 V2000
    3.0000    0.0000    0.0000 C   0  0  0  0  0  0  0  0  0  0  0  0
    1.5000    0.0000    0.0000 C   0  0  0  0  0  0  0  0  0  0  0  0
    0.7500   -1.2990    0.0000 C   0  0  0  0  0  0  0  0  0  0  0  0
   -0.7500   -1.2990    0.0000 C   0  0  0  0  0  0  0  0  0  0  0  0
   -1.5000    0.0000    0.0000 C   0  0  0  0  0  0  0  0  0  0  0  0
   -0.7500    1.2990    0.0000 C   0  0  0  0  0  0  0  0  0  0  0  0
    0.7500    1.2990    0.0000 C   0  0  0  0  0  0  0  0  0  0  0  0
  1  2  1  0
  2  3  2  0
  3  4  1  0
  4  5  2  0
  5  6  1  0
  6  7  1  0
  7  2  1  0
M  END
>  <Title>  (700) 
idAAZDgen7

$$$$

     RDKit          2D

 15 15  0  0  0  0  0  0  0  0999 V2000
    3.6073    0.0000    0.0000 C   0  0  0  0  0  0  0  0  0  0  0  0
    3.2954    1.4672    0.0000 C   0  0  0  0  0  0  0  0  0  0  0  0
    2.4138    2.6807    0.0000 C   0  0  0  0  0  0  0  0  0  0  0  0
    1.1147    3.4307    0.0000 C   0  0  0  0  0  0  0  0  0  0  0  0
   -0.3771    3.5875    0.0000 C   0  0  0  0  0  0  0  0  0  0  0  0
   -1.8037    3.1240    0.0000 C   0  0  0  0  0  0  0  0  0  0  0  0
   -2.9184    2.1203    0.0000 C   0  0  0  0  0  0  0  0  0  0  0  0
   -3.5285    0.7500    0.0000 C   0  0  0  0  0  0  0  0  0  0  0  0
   -3.5285   -0.7500    0.0000 C   0  0  0  0  0  0  0  0  0  0  0  0
   -2.9184   -2.1203    0.0000 C   0  0  0  0  0  0  0  0  0  0  0  0
   -1.8037   -3.1240    0.0000 C   0  0  0  0  0  0  0  0  0  0  0  0
   -0.3771   -3.5875    0.0000 C   0  0  0  0  0  0  0  0  0  0  0  0
    1.1147   -3.4307    0.0000 C   0  0  0  0  0  0  0  0  0  0  0  0
    2.4138   -2.6807    0.0000 C   0  0  0  0  0  0  0  0  0  0  0  0
    3.2954   -1.4672    0.0000 C   0  0  0  0  0  0  0  0  0  0  0  0
  1  2  1  0
  2  3  1  0
  3  4  1  0
  4  5  1  0
  5  6  1  0
  6  7  1  0
  7  8  1  0
  8  9  1  0
  9 10  1  0
 10 11  1  0
 11 12  1  0
 12 13  1  0
 13 14  1  0
 14 15  1  0
 15  1  1  0
M  END
>  <Title>  (701) 
idAAZEgen7

$$$$

     RDKit          2D

  7  7  0  0  0  0  0  0  0  0999 V2000
    2.7760    0.0000    0.0000 C   0  0  0  0  0  0  0  0  0  0  0  0
    1.2760    0.0000    0.0000 C   0  0  0  0  0  0  0  0  0  0  0  0
    0.3943    1.2135    0.0000 C   0  0  0  0  0  0  0  0  0  0  0  0
   -1.0323    0.7500    0.0000 C   0  0  0  0  0  0  0  0  0  0  0  0
   -1.0323   -0.7500    0.0000 C   0  0  0  0  0  0  0  0  0  0  0  0
   -2.2458   -1.6317    0.0000 C   0  0  0  0  0  0  0  0  0  0  0  0
    0.3943   -1.2135    0.0000 C   0  0  0  0  0  0  0  0  0  0  0  0
  1  2  1  0
  2  3  1  0
  3  4  1  0
  4  5  1  0
  5  6  1  0
  5  7  1  0
  7  2  1  0
M  END
>  <Title>  (702) 
idAAZFgen7

$$$$

     RDKit          2D

 16 17  0  0  0  0  0  0  0  0999 V2000
   -0.7500   -3.8971    0.0000 O   0  0  0  0  0  0  0  0  0  0  0  0
    0.7500   -3.8971    0.0000 C   0  0  0  0  0  0  0  0  0  0  0  0
    1.5000   -2.5981    0.0000 N   0  0  0  0  0  0  0  0  0  0  0  0
    0.7500   -1.2990    0.0000 C   0  0  0  0  0  0  0  0  0  0  0  0
    1.5000    0.0000    0.0000 C   0  0  0  0  0  0  0  0  0  0  0  0
    0.7500    1.2990    0.0000 N   0  0  0  0  0  0  0  0  0  0  0  0
   -0.7500    1.2990    0.0000 N   0  0  0  0  0  0  0  0  0  0  0  0
   -1.5000    0.0000    0.0000 N   0  0  0  0  0  0  0  0  0  0  0  0
   -0.7500   -1.2990    0.0000 N   0  0  0  0  0  0  0  0  0  0  0  0
    1.5000   -5.1962    0.0000 C   0  0  0  0  0  0  0  0  0  0  0  0
    0.7500   -6.4952    0.0000 C   0  0  0  0  0  0  0  0  0  0  0  0
    1.5000   -7.7942    0.0000 C   0  0  0  0  0  0  0  0  0  0  0  0
    3.0000   -7.7942    0.0000 C   0  0  0  0  0  0  0  0  0  0  0  0
    3.7500   -6.4952    0.0000 C   0  0  0  0  0  0  0  0  0  0  0  0
    5.2500   -6.4952    0.0000 O   0  0  0  0  0  0  0  0  0  0  0  0
    3.0000   -5.1962    0.0000 C   0  0  0  0  0  0  0  0  0  0  0  0
  1  2  2  0
  2  3  1  0
  3  4  1  0
  4  5  2  0
  5  6  1  0
  6  7  2  0
  7  8  1  0
  8  9  2  0
  2 10  1  0
 10 11  1  0
 11 12  1  0
 12 13  1  0
 13 14  2  0
 14 15  1  0
 14 16  1  0
  9  4  1  0
 16 10  1  0
M  END
>  <Title>  (703) 
idAAZGgen7

$$$$

     RDKit          2D

 98 98  0  0  0  0  0  0  0  0999 V2000
   24.6611    0.0000    0.0000 C   0  0  0  0  0  0  0  0  0  0  0  0
   23.1611    0.0000    0.0000 C   0  0  0  0  0  0  0  0  0  0  0  0
   23.1125    1.4992    0.0000 C   0  0  0  0  0  0  0  0  0  0  0  0
   22.9670    2.9921    0.0000 C   0  0  0  0  0  0  0  0  0  0  0  0
   22.7252    4.4725    0.0000 C   0  0  0  0  0  0  0  0  0  0  0  0
   22.3880    5.9341    0.0000 C   0  0  0  0  0  0  0  0  0  0  0  0
   21.9569    7.3709    0.0000 C   0  0  0  0  0  0  0  0  0  0  0  0
   21.4338    8.7767    0.0000 C   0  0  0  0  0  0  0  0  0  0  0  0
   20.8207   10.1457    0.0000 C   0  0  0  0  0  0  0  0  0  0  0  0
   20.1203   11.4721    0.0000 C   0  0  0  0  0  0  0  0  0  0  0  0
   19.3355   12.7504    0.0000 C   0  0  0  0  0  0  0  0  0  0  0  0
   18.4696   13.9753    0.0000 C   0  0  0  0  0  0  0  0  0  0  0  0
   17.5263   15.1415    0.0000 C   0  0  0  0  0  0  0  0  0  0  0  0
   16.5094   16.2442    0.0000 C   0  0  0  0  0  0  0  0  0  0  0  0
   15.4233   17.2788    0.0000 C   0  0  0  0  0  0  0  0  0  0  0  0
   14.2725   18.2409    0.0000 C   0  0  0  0  0  0  0  0  0  0  0  0
   13.0619   19.1265    0.0000 C   0  0  0  0  0  0  0  0  0  0  0  0
   11.7964   19.9319    0.0000 C   0  0  0  0  0  0  0  0  0  0  0  0
   10.4815   20.6537    0.0000 C   0  0  0  0  0  0  0  0  0  0  0  0
    9.1226   21.2888    0.0000 C   0  0  0  0  0  0  0  0  0  0  0  0
    7.7254   21.8347    0.0000 C   0  0  0  0  0  0  0  0  0  0  0  0
    6.2959   22.2890    0.0000 C   0  0  0  0  0  0  0  0  0  0  0  0
    4.8399   22.6498    0.0000 C   0  0  0  0  0  0  0  0  0  0  0  0
    3.3637   22.9155    0.0000 C   0  0  0  0  0  0  0  0  0  0  0  0
    1.8733   23.0852    0.0000 C   0  0  0  0  0  0  0  0  0  0  0  0
    0.3750   23.1581    0.0000 C   0  0  0  0  0  0  0  0  0  0  0  0
   -1.1248   23.1338    0.0000 C   0  0  0  0  0  0  0  0  0  0  0  0
   -2.6198   23.0124    0.0000 C   0  0  0  0  0  0  0  0  0  0  0  0
   -4.1039   22.7946    0.0000 C   0  0  0  0  0  0  0  0  0  0  0  0
   -5.5708   22.4812    0.0000 C   0  0  0  0  0  0  0  0  0  0  0  0
   -7.0143   22.0734    0.0000 C   0  0  0  0  0  0  0  0  0  0  0  0
   -8.4284   21.5731    0.0000 C   0  0  0  0  0  0  0  0  0  0  0  0
   -9.8072   20.9823    0.0000 C   0  0  0  0  0  0  0  0  0  0  0  0
  -11.1448   20.3034    0.0000 C   0  0  0  0  0  0  0  0  0  0  0  0
  -12.4357   19.5395    0.0000 C   0  0  0  0  0  0  0  0  0  0  0  0
  -13.6744   18.6935    0.0000 C   0  0  0  0  0  0  0  0  0  0  0  0
  -14.8557   17.7692    0.0000 C   0  0  0  0  0  0  0  0  0  0  0  0
  -15.9748   16.7703    0.0000 C   0  0  0  0  0  0  0  0  0  0  0  0
  -17.0268   15.7011    0.0000 C   0  0  0  0  0  0  0  0  0  0  0  0
  -18.0074   14.5660    0.0000 C   0  0  0  0  0  0  0  0  0  0  0  0
  -18.9125   13.3699    0.0000 C   0  0  0  0  0  0  0  0  0  0  0  0
  -19.7383   12.1176    0.0000 C   0  0  0  0  0  0  0  0  0  0  0  0
  -20.4813   10.8146    0.0000 C   0  0  0  0  0  0  0  0  0  0  0  0
  -21.1383    9.4661    0.0000 C   0  0  0  0  0  0  0  0  0  0  0  0
  -21.7067    8.0780    0.0000 C   0  0  0  0  0  0  0  0  0  0  0  0
  -22.1841    6.6560    0.0000 C   0  0  0  0  0  0  0  0  0  0  0  0
  -22.5684    5.2061    0.0000 C   0  0  0  0  0  0  0  0  0  0  0  0
  -22.8581    3.7343    0.0000 C   0  0  0  0  0  0  0  0  0  0  0  0
  -23.0519    2.2469    0.0000 C   0  0  0  0  0  0  0  0  0  0  0  0
  -23.1489    0.7500    0.0000 C   0  0  0  0  0  0  0  0  0  0  0  0
  -23.1489   -0.7500    0.0000 C   0  0  0  0  0  0  0  0  0  0  0  0
  -23.0519   -2.2469    0.0000 C   0  0  0  0  0  0  0  0  0  0  0  0
  -22.8581   -3.7343    0.0000 C   0  0  0  0  0  0  0  0  0  0  0  0
  -22.5684   -5.2061    0.0000 C   0  0  0  0  0  0  0  0  0  0  0  0
  -22.1841   -6.6560    0.0000 C   0  0  0  0  0  0  0  0  0  0  0  0
  -21.7067   -8.0780    0.0000 C   0  0  0  0  0  0  0  0  0  0  0  0
  -21.1383   -9.4661    0.0000 C   0  0  0  0  0  0  0  0  0  0  0  0
  -20.4813  -10.8146    0.0000 C   0  0  0  0  0  0  0  0  0  0  0  0
  -19.7383  -12.1176    0.0000 C   0  0  0  0  0  0  0  0  0  0  0  0
  -18.9125  -13.3699    0.0000 C   0  0  0  0  0  0  0  0  0  0  0  0
  -18.0074  -14.5660    0.0000 C   0  0  0  0  0  0  0  0  0  0  0  0
  -17.0268  -15.7011    0.0000 C   0  0  0  0  0  0  0  0  0  0  0  0
  -15.9748  -16.7703    0.0000 C   0  0  0  0  0  0  0  0  0  0  0  0
  -14.8557  -17.7692    0.0000 C   0  0  0  0  0  0  0  0  0  0  0  0
  -13.6744  -18.6935    0.0000 C   0  0  0  0  0  0  0  0  0  0  0  0
  -12.4357  -19.5395    0.0000 C   0  0  0  0  0  0  0  0  0  0  0  0
  -11.1448  -20.3034    0.0000 C   0  0  0  0  0  0  0  0  0  0  0  0
   -9.8072  -20.9823    0.0000 C   0  0  0  0  0  0  0  0  0  0  0  0
   -8.4284  -21.5731    0.0000 C   0  0  0  0  0  0  0  0  0  0  0  0
   -7.0143  -22.0734    0.0000 C   0  0  0  0  0  0  0  0  0  0  0  0
   -5.5708  -22.4812    0.0000 C   0  0  0  0  0  0  0  0  0  0  0  0
   -4.1039  -22.7946    0.0000 C   0  0  0  0  0  0  0  0  0  0  0  0
   -2.6198  -23.0124    0.0000 C   0  0  0  0  0  0  0  0  0  0  0  0
   -1.1248  -23.1338    0.0000 C   0  0  0  0  0  0  0  0  0  0  0  0
    0.3750  -23.1581    0.0000 C   0  0  0  0  0  0  0  0  0  0  0  0
    1.8733  -23.0852    0.0000 C   0  0  0  0  0  0  0  0  0  0  0  0
    3.3637  -22.9155    0.0000 C   0  0  0  0  0  0  0  0  0  0  0  0
    4.8399  -22.6498    0.0000 C   0  0  0  0  0  0  0  0  0  0  0  0
    6.2959  -22.2890    0.0000 C   0  0  0  0  0  0  0  0  0  0  0  0
    7.7254  -21.8347    0.0000 C   0  0  0  0  0  0  0  0  0  0  0  0
    9.1226  -21.2888    0.0000 C   0  0  0  0  0  0  0  0  0  0  0  0
   10.4815  -20.6537    0.0000 C   0  0  0  0  0  0  0  0  0  0  0  0
   11.7964  -19.9319    0.0000 C   0  0  0  0  0  0  0  0  0  0  0  0
   13.0619  -19.1265    0.0000 C   0  0  0  0  0  0  0  0  0  0  0  0
   14.2725  -18.2409    0.0000 C   0  0  0  0  0  0  0  0  0  0  0  0
   15.4233  -17.2788    0.0000 C   0  0  0  0  0  0  0  0  0  0  0  0
   16.5094  -16.2442    0.0000 C   0  0  0  0  0  0  0  0  0  0  0  0
   17.5263  -15.1415    0.0000 C   0  0  0  0  0  0  0  0  0  0  0  0
   18.4696  -13.9753    0.0000 C   0  0  0  0  0  0  0  0  0  0  0  0
   19.3355  -12.7504    0.0000 C   0  0  0  0  0  0  0  0  0  0  0  0
   20.1203  -11.4721    0.0000 C   0  0  0  0  0  0  0  0  0  0  0  0
   20.8207  -10.1457    0.0000 C   0  0  0  0  0  0  0  0  0  0  0  0
   21.4338   -8.7767    0.0000 C   0  0  0  0  0  0  0  0  0  0  0  0
   21.9569   -7.3709    0.0000 C   0  0  0  0  0  0  0  0  0  0  0  0
   22.3880   -5.9341    0.0000 C   0  0  0  0  0  0  0  0  0  0  0  0
   22.7252   -4.4725    0.0000 C   0  0  0  0  0  0  0  0  0  0  0  0
   22.9670   -2.9921    0.0000 C   0  0  0  0  0  0  0  0  0  0  0  0
   23.1125   -1.4992    0.0000 C   0  0  0  0  0  0  0  0  0  0  0  0
  1  2  1  0
  2  3  1  0
  3  4  1  0
  4  5  1  0
  5  6  1  0
  6  7  1  0
  7  8  1  0
  8  9  1  0
  9 10  1  0
 10 11  1  0
 11 12  2  0
 12 13  1  0
 13 14  1  0
 14 15  1  0
 15 16  1  0
 16 17  1  0
 17 18  1  0
 18 19  1  0
 19 20  1  0
 20 21  1  0
 21 22  1  0
 22 23  1  0
 23 24  1  0
 24 25  1  0
 25 26  1  0
 26 27  1  0
 27 28  1  0
 28 29  1  0
 29 30  1  0
 30 31  1  0
 31 32  1  0
 32 33  1  0
 33 34  1  0
 34 35  1  0
 35 36  1  0
 36 37  1  0
 37 38  1  0
 38 39  1  0
 39 40  1  0
 40 41  1  0
 41 42  1  0
 42 43  1  0
 43 44  1  0
 44 45  1  0
 45 46  1  0
 46 47  1  0
 47 48  1  0
 48 49  1  0
 49 50  1  0
 50 51  1  0
 51 52  1  0
 52 53  1  0
 53 54  1  0
 54 55  1  0
 55 56  1  0
 56 57  1  0
 57 58  1  0
 58 59  1  0
 59 60  1  0
 60 61  1  0
 61 62  1  0
 62 63  1  0
 63 64  1  0
 64 65  1  0
 65 66  1  0
 66 67  1  0
 67 68  1  0
 68 69  1  0
 69 70  1  0
 70 71  1  0
 71 72  1  0
 72 73  1  0
 73 74  1  0
 74 75  1  0
 75 76  1  0
 76 77  1  0
 77 78  1  0
 78 79  1  0
 79 80  1  0
 80 81  1  0
 81 82  1  0
 82 83  1  0
 83 84  1  0
 84 85  1  0
 85 86  1  0
 86 87  1  0
 87 88  1  0
 88 89  1  0
 89 90  1  0
 90 91  1  0
 91 92  1  0
 92 93  1  0
 93 94  1  0
 94 95  1  0
 95 96  1  0
 96 97  1  0
 97 98  1  0
 98  2  1  0
M  END
>  <Title>  (704) 
idAAZHgen7

$$$$

     RDKit          2D

 63 63  0  0  0  0  0  0  0  0999 V2000
   16.3077   -0.0000    0.0000 O   0  0  0  0  0  0  0  0  0  0  0  0
   14.8077    0.0000    0.0000 C   0  0  0  0  0  0  0  0  0  0  0  0
   14.7318   -1.4981    0.0000 C   0  0  0  0  0  0  0  0  0  0  0  0
   14.5046   -2.9808    0.0000 C   0  0  0  0  0  0  0  0  0  0  0  0
   14.1287   -4.4329    0.0000 C   0  0  0  0  0  0  0  0  0  0  0  0
   13.6077   -5.8395    0.0000 C   0  0  0  0  0  0  0  0  0  0  0  0
   12.9471   -7.1862    0.0000 C   0  0  0  0  0  0  0  0  0  0  0  0
   12.1537   -8.4592    0.0000 C   0  0  0  0  0  0  0  0  0  0  0  0
   11.2355   -9.6454    0.0000 C   0  0  0  0  0  0  0  0  0  0  0  0
   10.2020  -10.7325    0.0000 C   0  0  0  0  0  0  0  0  0  0  0  0
    9.0639  -11.7096    0.0000 C   0  0  0  0  0  0  0  0  0  0  0  0
    7.8328  -12.5665    0.0000 C   0  0  0  0  0  0  0  0  0  0  0  0
    6.5212  -13.2945    0.0000 C   0  0  0  0  0  0  0  0  0  0  0  0
    5.1428  -13.8860    0.0000 C   0  0  0  0  0  0  0  0  0  0  0  0
    3.7116  -14.3350    0.0000 C   0  0  0  0  0  0  0  0  0  0  0  0
    2.2423  -14.6370    0.0000 C   0  0  0  0  0  0  0  0  0  0  0  0
    0.7500  -14.7887    0.0000 C   0  0  0  0  0  0  0  0  0  0  0  0
   -0.7500  -14.7887    0.0000 C   0  0  0  0  0  0  0  0  0  0  0  0
   -2.2423  -14.6370    0.0000 C   0  0  0  0  0  0  0  0  0  0  0  0
   -3.7116  -14.3350    0.0000 C   0  0  0  0  0  0  0  0  0  0  0  0
   -5.1428  -13.8860    0.0000 C   0  0  0  0  0  0  0  0  0  0  0  0
   -6.5212  -13.2945    0.0000 C   0  0  0  0  0  0  0  0  0  0  0  0
   -7.8328  -12.5665    0.0000 C   0  0  0  0  0  0  0  0  0  0  0  0
   -9.0639  -11.7096    0.0000 C   0  0  0  0  0  0  0  0  0  0  0  0
  -10.2020  -10.7325    0.0000 C   0  0  0  0  0  0  0  0  0  0  0  0
  -11.2355   -9.6454    0.0000 C   0  0  0  0  0  0  0  0  0  0  0  0
  -12.1537   -8.4592    0.0000 C   0  0  0  0  0  0  0  0  0  0  0  0
  -12.9471   -7.1862    0.0000 C   0  0  0  0  0  0  0  0  0  0  0  0
  -13.6077   -5.8395    0.0000 C   0  0  0  0  0  0  0  0  0  0  0  0
  -14.1287   -4.4329    0.0000 C   0  0  0  0  0  0  0  0  0  0  0  0
  -14.5046   -2.9808    0.0000 C   0  0  0  0  0  0  0  0  0  0  0  0
  -14.7318   -1.4981    0.0000 C   0  0  0  0  0  0  0  0  0  0  0  0
  -14.8077    0.0000    0.0000 C   0  0  0  0  0  0  0  0  0  0  0  0
  -14.7318    1.4981    0.0000 C   0  0  0  0  0  0  0  0  0  0  0  0
  -14.5046    2.9808    0.0000 C   0  0  0  0  0  0  0  0  0  0  0  0
  -14.1287    4.4329    0.0000 C   0  0  0  0  0  0  0  0  0  0  0  0
  -13.6077    5.8395    0.0000 C   0  0  0  0  0  0  0  0  0  0  0  0
  -12.9471    7.1862    0.0000 C   0  0  0  0  0  0  0  0  0  0  0  0
  -12.1537    8.4592    0.0000 C   0  0  0  0  0  0  0  0  0  0  0  0
  -11.2355    9.6454    0.0000 C   0  0  0  0  0  0  0  0  0  0  0  0
  -10.2020   10.7325    0.0000 C   0  0  0  0  0  0  0  0  0  0  0  0
   -9.0639   11.7096    0.0000 C   0  0  0  0  0  0  0  0  0  0  0  0
   -7.8328   12.5665    0.0000 C   0  0  0  0  0  0  0  0  0  0  0  0
   -6.5212   13.2945    0.0000 C   0  0  0  0  0  0  0  0  0  0  0  0
   -5.1428   13.8860    0.0000 C   0  0  0  0  0  0  0  0  0  0  0  0
   -3.7116   14.3350    0.0000 C   0  0  0  0  0  0  0  0  0  0  0  0
   -2.2423   14.6370    0.0000 C   0  0  0  0  0  0  0  0  0  0  0  0
   -0.7500   14.7887    0.0000 C   0  0  0  0  0  0  0  0  0  0  0  0
    0.7500   14.7887    0.0000 C   0  0  0  0  0  0  0  0  0  0  0  0
    2.2423   14.6370    0.0000 C   0  0  0  0  0  0  0  0  0  0  0  0
    3.7116   14.3350    0.0000 C   0  0  0  0  0  0  0  0  0  0  0  0
    5.1428   13.8860    0.0000 C   0  0  0  0  0  0  0  0  0  0  0  0
    6.5212   13.2945    0.0000 C   0  0  0  0  0  0  0  0  0  0  0  0
    7.8328   12.5665    0.0000 C   0  0  0  0  0  0  0  0  0  0  0  0
    9.0639   11.7096    0.0000 C   0  0  0  0  0  0  0  0  0  0  0  0
   10.2020   10.7325    0.0000 C   0  0  0  0  0  0  0  0  0  0  0  0
   11.2355    9.6454    0.0000 C   0  0  0  0  0  0  0  0  0  0  0  0
   12.1537    8.4592    0.0000 C   0  0  0  0  0  0  0  0  0  0  0  0
   12.9471    7.1862    0.0000 C   0  0  0  0  0  0  0  0  0  0  0  0
   13.6077    5.8395    0.0000 C   0  0  0  0  0  0  0  0  0  0  0  0
   14.1287    4.4329    0.0000 C   0  0  0  0  0  0  0  0  0  0  0  0
   14.5046    2.9808    0.0000 C   0  0  0  0  0  0  0  0  0  0  0  0
   14.7318    1.4981    0.0000 C   0  0  0  0  0  0  0  0  0  0  0  0
  1  2  1  0
  2  3  1  0
  3  4  1  0
  4  5  1  0
  5  6  1  0
  6  7  1  0
  7  8  1  0
  8  9  1  0
  9 10  1  0
 10 11  1  0
 11 12  1  0
 12 13  1  0
 13 14  1  0
 14 15  1  0
 15 16  1  0
 16 17  1  0
 17 18  1  0
 18 19  1  0
 19 20  1  0
 20 21  1  0
 21 22  1  0
 22 23  1  0
 23 24  1  0
 24 25  1  0
 25 26  1  0
 26 27  1  0
 27 28  1  0
 28 29  1  0
 29 30  1  0
 30 31  1  0
 31 32  1  0
 32 33  1  0
 33 34  1  0
 34 35  1  0
 35 36  1  0
 36 37  1  0
 37 38  1  0
 38 39  1  0
 39 40  1  0
 40 41  1  0
 41 42  1  0
 42 43  1  0
 43 44  1  0
 44 45  1  0
 45 46  1  0
 46 47  1  0
 47 48  1  0
 48 49  1  0
 49 50  1  0
 50 51  1  0
 51 52  1  0
 52 53  1  0
 53 54  1  0
 54 55  1  0
 55 56  1  0
 56 57  1  0
 57 58  1  0
 58 59  1  0
 59 60  1  0
 60 61  1  0
 61 62  1  0
 62 63  1  0
 63  2  1  0
M  END
>  <Title>  (705) 
idAAZIgen7

$$$$

     RDKit          2D

 66 66  0  0  0  0  0  0  0  0999 V2000
   15.7623    0.0000    0.0000 C   0  0  0  0  0  0  0  0  0  0  0  0
   15.6909   -1.4983    0.0000 C   0  0  0  0  0  0  0  0  0  0  0  0
   15.4774   -2.9830    0.0000 C   0  0  0  0  0  0  0  0  0  0  0  0
   15.1238   -4.4408    0.0000 C   0  0  0  0  0  0  0  0  0  0  0  0
   14.6332   -5.8583    0.0000 C   0  0  0  0  0  0  0  0  0  0  0  0
   14.0101   -7.2227    0.0000 C   0  0  0  0  0  0  0  0  0  0  0  0
   13.2601   -8.5217    0.0000 C   0  0  0  0  0  0  0  0  0  0  0  0
   12.3900   -9.7436    0.0000 C   0  0  0  0  0  0  0  0  0  0  0  0
   11.4077  -10.8772    0.0000 C   0  0  0  0  0  0  0  0  0  0  0  0
   10.3221  -11.9123    0.0000 C   0  0  0  0  0  0  0  0  0  0  0  0
    9.1430  -12.8396    0.0000 C   0  0  0  0  0  0  0  0  0  0  0  0
    7.8811  -13.6505    0.0000 C   0  0  0  0  0  0  0  0  0  0  0  0
    6.5479  -14.3379    0.0000 C   0  0  0  0  0  0  0  0  0  0  0  0
    5.1553  -14.8954    0.0000 C   0  0  0  0  0  0  0  0  0  0  0  0
    3.7161  -15.3180    0.0000 C   0  0  0  0  0  0  0  0  0  0  0  0
    2.2432  -15.6019    0.0000 C   0  0  0  0  0  0  0  0  0  0  0  0
    0.7500  -15.7444    0.0000 C   0  0  0  0  0  0  0  0  0  0  0  0
   -0.7500  -15.7444    0.0000 C   0  0  0  0  0  0  0  0  0  0  0  0
   -2.2432  -15.6019    0.0000 C   0  0  0  0  0  0  0  0  0  0  0  0
   -3.7161  -15.3180    0.0000 C   0  0  0  0  0  0  0  0  0  0  0  0
   -5.1553  -14.8954    0.0000 C   0  0  0  0  0  0  0  0  0  0  0  0
   -6.5479  -14.3379    0.0000 C   0  0  0  0  0  0  0  0  0  0  0  0
   -7.8811  -13.6505    0.0000 C   0  0  0  0  0  0  0  0  0  0  0  0
   -9.1430  -12.8396    0.0000 C   0  0  0  0  0  0  0  0  0  0  0  0
  -10.3221  -11.9123    0.0000 C   0  0  0  0  0  0  0  0  0  0  0  0
  -11.4077  -10.8772    0.0000 C   0  0  0  0  0  0  0  0  0  0  0  0
  -12.3900   -9.7436    0.0000 C   0  0  0  0  0  0  0  0  0  0  0  0
  -13.2601   -8.5217    0.0000 C   0  0  0  0  0  0  0  0  0  0  0  0
  -14.0101   -7.2227    0.0000 C   0  0  0  0  0  0  0  0  0  0  0  0
  -14.6332   -5.8583    0.0000 C   0  0  0  0  0  0  0  0  0  0  0  0
  -15.1238   -4.4408    0.0000 C   0  0  0  0  0  0  0  0  0  0  0  0
  -15.4774   -2.9830    0.0000 C   0  0  0  0  0  0  0  0  0  0  0  0
  -15.6909   -1.4983    0.0000 C   0  0  0  0  0  0  0  0  0  0  0  0
  -15.7623    0.0000    0.0000 C   0  0  0  0  0  0  0  0  0  0  0  0
  -15.6909    1.4983    0.0000 C   0  0  0  0  0  0  0  0  0  0  0  0
  -15.4774    2.9830    0.0000 C   0  0  0  0  0  0  0  0  0  0  0  0
  -15.1238    4.4408    0.0000 C   0  0  0  0  0  0  0  0  0  0  0  0
  -14.6332    5.8583    0.0000 C   0  0  0  0  0  0  0  0  0  0  0  0
  -14.0101    7.2227    0.0000 C   0  0  0  0  0  0  0  0  0  0  0  0
  -13.2601    8.5217    0.0000 C   0  0  0  0  0  0  0  0  0  0  0  0
  -12.3900    9.7436    0.0000 C   0  0  0  0  0  0  0  0  0  0  0  0
  -11.4077   10.8772    0.0000 C   0  0  0  0  0  0  0  0  0  0  0  0
  -10.3221   11.9123    0.0000 C   0  0  0  0  0  0  0  0  0  0  0  0
   -9.1430   12.8396    0.0000 C   0  0  0  0  0  0  0  0  0  0  0  0
   -7.8811   13.6505    0.0000 C   0  0  0  0  0  0  0  0  0  0  0  0
   -6.5479   14.3379    0.0000 C   0  0  0  0  0  0  0  0  0  0  0  0
   -5.1553   14.8954    0.0000 C   0  0  0  0  0  0  0  0  0  0  0  0
   -3.7161   15.3180    0.0000 C   0  0  0  0  0  0  0  0  0  0  0  0
   -2.2432   15.6019    0.0000 C   0  0  0  0  0  0  0  0  0  0  0  0
   -0.7500   15.7444    0.0000 C   0  0  0  0  0  0  0  0  0  0  0  0
    0.7500   15.7444    0.0000 C   0  0  0  0  0  0  0  0  0  0  0  0
    2.2432   15.6019    0.0000 C   0  0  0  0  0  0  0  0  0  0  0  0
    3.7161   15.3180    0.0000 C   0  0  0  0  0  0  0  0  0  0  0  0
    5.1553   14.8954    0.0000 C   0  0  0  0  0  0  0  0  0  0  0  0
    6.5479   14.3379    0.0000 C   0  0  0  0  0  0  0  0  0  0  0  0
    7.8811   13.6505    0.0000 C   0  0  0  0  0  0  0  0  0  0  0  0
    9.1430   12.8396    0.0000 C   0  0  0  0  0  0  0  0  0  0  0  0
   10.3221   11.9123    0.0000 C   0  0  0  0  0  0  0  0  0  0  0  0
   11.4077   10.8772    0.0000 C   0  0  0  0  0  0  0  0  0  0  0  0
   12.3900    9.7436    0.0000 C   0  0  0  0  0  0  0  0  0  0  0  0
   13.2601    8.5217    0.0000 C   0  0  0  0  0  0  0  0  0  0  0  0
   14.0101    7.2227    0.0000 C   0  0  0  0  0  0  0  0  0  0  0  0
   14.6332    5.8583    0.0000 C   0  0  0  0  0  0  0  0  0  0  0  0
   15.1238    4.4408    0.0000 C   0  0  0  0  0  0  0  0  0  0  0  0
   15.4774    2.9830    0.0000 C   0  0  0  0  0  0  0  0  0  0  0  0
   15.6909    1.4983    0.0000 C   0  0  0  0  0  0  0  0  0  0  0  0
  1  2  1  0
  2  3  1  0
  3  4  1  0
  4  5  1  0
  5  6  1  0
  6  7  1  0
  7  8  1  0
  8  9  1  0
  9 10  1  0
 10 11  1  0
 11 12  1  0
 12 13  1  0
 13 14  1  0
 14 15  1  0
 15 16  1  0
 16 17  1  0
 17 18  1  0
 18 19  1  0
 19 20  1  0
 20 21  1  0
 21 22  1  0
 22 23  1  0
 23 24  1  0
 24 25  1  0
 25 26  1  0
 26 27  1  0
 27 28  1  0
 28 29  1  0
 29 30  1  0
 30 31  1  0
 31 32  1  0
 32 33  1  0
 33 34  1  0
 34 35  1  0
 35 36  1  0
 36 37  1  0
 37 38  1  0
 38 39  1  0
 39 40  1  0
 40 41  1  0
 41 42  1  0
 42 43  1  0
 43 44  1  0
 44 45  1  0
 45 46  1  0
 46 47  1  0
 47 48  1  0
 48 49  1  0
 49 50  1  0
 50 51  1  0
 51 52  1  0
 52 53  1  0
 53 54  1  0
 54 55  1  0
 55 56  1  0
 56 57  1  0
 57 58  1  0
 58 59  1  0
 59 60  1  0
 60 61  1  0
 61 62  1  0
 62 63  1  0
 63 64  1  0
 64 65  1  0
 65 66  1  0
 66  1  1  0
M  END
>  <Title>  (706) 
idAAZJgen7

$$$$

     RDKit          2D

 62 62  0  0  0  0  0  0  0  0999 V2000
   16.0691    0.0000    0.0000 C   0  0  0  0  0  0  0  0  0  0  0  0
   14.5691    0.0000    0.0000 C   0  0  0  0  0  0  0  0  0  0  0  0
   14.4919    1.4980    0.0000 C   0  0  0  0  0  0  0  0  0  0  0  0
   14.2611    2.9801    0.0000 C   0  0  0  0  0  0  0  0  0  0  0  0
   13.8791    4.4307    0.0000 C   0  0  0  0  0  0  0  0  0  0  0  0
   13.3499    5.8343    0.0000 C   0  0  0  0  0  0  0  0  0  0  0  0
   12.6793    7.1760    0.0000 C   0  0  0  0  0  0  0  0  0  0  0  0
   11.8742    8.4417    0.0000 C   0  0  0  0  0  0  0  0  0  0  0  0
   10.9433    9.6178    0.0000 C   0  0  0  0  0  0  0  0  0  0  0  0
    9.8964   10.6921    0.0000 C   0  0  0  0  0  0  0  0  0  0  0  0
    8.7446   11.6530    0.0000 C   0  0  0  0  0  0  0  0  0  0  0  0
    7.5001   12.4903    0.0000 C   0  0  0  0  0  0  0  0  0  0  0  0
    6.1761   13.1953    0.0000 C   0  0  0  0  0  0  0  0  0  0  0  0
    4.7866   13.7604    0.0000 C   0  0  0  0  0  0  0  0  0  0  0  0
    3.3463   14.1796    0.0000 C   0  0  0  0  0  0  0  0  0  0  0  0
    1.8707   14.4485    0.0000 C   0  0  0  0  0  0  0  0  0  0  0  0
    0.3751   14.5643    0.0000 C   0  0  0  0  0  0  0  0  0  0  0  0
   -1.1244   14.5257    0.0000 C   0  0  0  0  0  0  0  0  0  0  0  0
   -2.6120   14.3331    0.0000 C   0  0  0  0  0  0  0  0  0  0  0  0
   -4.0719   13.9885    0.0000 C   0  0  0  0  0  0  0  0  0  0  0  0
   -5.4886   13.4957    0.0000 C   0  0  0  0  0  0  0  0  0  0  0  0
   -6.8471   12.8599    0.0000 C   0  0  0  0  0  0  0  0  0  0  0  0
   -8.1331   12.0877    0.0000 C   0  0  0  0  0  0  0  0  0  0  0  0
   -9.3329   11.1873    0.0000 C   0  0  0  0  0  0  0  0  0  0  0  0
  -10.4337   10.1684    0.0000 C   0  0  0  0  0  0  0  0  0  0  0  0
  -11.4239    9.0417    0.0000 C   0  0  0  0  0  0  0  0  0  0  0  0
  -12.2931    7.8192    0.0000 C   0  0  0  0  0  0  0  0  0  0  0  0
  -13.0319    6.5138    0.0000 C   0  0  0  0  0  0  0  0  0  0  0  0
  -13.6326    5.1393    0.0000 C   0  0  0  0  0  0  0  0  0  0  0  0
  -14.0887    3.7103    0.0000 C   0  0  0  0  0  0  0  0  0  0  0  0
  -14.3956    2.2420    0.0000 C   0  0  0  0  0  0  0  0  0  0  0  0
  -14.5498    0.7500    0.0000 C   0  0  0  0  0  0  0  0  0  0  0  0
  -14.5498   -0.7500    0.0000 C   0  0  0  0  0  0  0  0  0  0  0  0
  -14.3956   -2.2420    0.0000 C   0  0  0  0  0  0  0  0  0  0  0  0
  -14.0887   -3.7103    0.0000 C   0  0  0  0  0  0  0  0  0  0  0  0
  -13.6326   -5.1393    0.0000 C   0  0  0  0  0  0  0  0  0  0  0  0
  -13.0319   -6.5138    0.0000 C   0  0  0  0  0  0  0  0  0  0  0  0
  -12.2931   -7.8192    0.0000 C   0  0  0  0  0  0  0  0  0  0  0  0
  -11.4239   -9.0417    0.0000 C   0  0  0  0  0  0  0  0  0  0  0  0
  -10.4337  -10.1684    0.0000 C   0  0  0  0  0  0  0  0  0  0  0  0
   -9.3329  -11.1873    0.0000 C   0  0  0  0  0  0  0  0  0  0  0  0
   -8.1331  -12.0877    0.0000 C   0  0  0  0  0  0  0  0  0  0  0  0
   -6.8471  -12.8599    0.0000 C   0  0  0  0  0  0  0  0  0  0  0  0
   -5.4886  -13.4957    0.0000 C   0  0  0  0  0  0  0  0  0  0  0  0
   -4.0719  -13.9885    0.0000 C   0  0  0  0  0  0  0  0  0  0  0  0
   -2.6120  -14.3331    0.0000 C   0  0  0  0  0  0  0  0  0  0  0  0
   -1.1244  -14.5257    0.0000 C   0  0  0  0  0  0  0  0  0  0  0  0
    0.3751  -14.5643    0.0000 C   0  0  0  0  0  0  0  0  0  0  0  0
    1.8707  -14.4485    0.0000 C   0  0  0  0  0  0  0  0  0  0  0  0
    3.3463  -14.1796    0.0000 C   0  0  0  0  0  0  0  0  0  0  0  0
    4.7866  -13.7604    0.0000 C   0  0  0  0  0  0  0  0  0  0  0  0
    6.1761  -13.1953    0.0000 C   0  0  0  0  0  0  0  0  0  0  0  0
    7.5001  -12.4903    0.0000 C   0  0  0  0  0  0  0  0  0  0  0  0
    8.7446  -11.6530    0.0000 C   0  0  0  0  0  0  0  0  0  0  0  0
    9.8964  -10.6921    0.0000 C   0  0  0  0  0  0  0  0  0  0  0  0
   10.9433   -9.6178    0.0000 C   0  0  0  0  0  0  0  0  0  0  0  0
   11.8742   -8.4417    0.0000 C   0  0  0  0  0  0  0  0  0  0  0  0
   12.6793   -7.1760    0.0000 C   0  0  0  0  0  0  0  0  0  0  0  0
   13.3499   -5.8343    0.0000 C   0  0  0  0  0  0  0  0  0  0  0  0
   13.8791   -4.4307    0.0000 C   0  0  0  0  0  0  0  0  0  0  0  0
   14.2611   -2.9801    0.0000 C   0  0  0  0  0  0  0  0  0  0  0  0
   14.4919   -1.4980    0.0000 C   0  0  0  0  0  0  0  0  0  0  0  0
  1  2  1  0
  2  3  1  0
  3  4  1  0
  4  5  1  0
  5  6  1  0
  6  7  1  0
  7  8  2  0
  8  9  1  0
  9 10  1  0
 10 11  1  0
 11 12  1  0
 12 13  1  0
 13 14  1  0
 14 15  1  0
 15 16  1  0
 16 17  1  0
 17 18  1  0
 18 19  1  0
 19 20  1  0
 20 21  1  0
 21 22  1  0
 22 23  1  0
 23 24  1  0
 24 25  1  0
 25 26  1  0
 26 27  1  0
 27 28  1  0
 28 29  1  0
 29 30  1  0
 30 31  1  0
 31 32  1  0
 32 33  1  0
 33 34  1  0
 34 35  1  0
 35 36  1  0
 36 37  1  0
 37 38  1  0
 38 39  1  0
 39 40  1  0
 40 41  1  0
 41 42  1  0
 42 43  1  0
 43 44  1  0
 44 45  1  0
 45 46  1  0
 46 47  1  0
 47 48  1  0
 48 49  1  0
 49 50  1  0
 50 51  1  0
 51 52  1  0
 52 53  1  0
 53 54  1  0
 54 55  1  0
 55 56  1  0
 56 57  1  0
 57 58  2  0
 58 59  1  0
 59 60  1  0
 60 61  1  0
 61 62  1  0
 62  2  1  0
M  END
>  <Title>  (707) 
idAAZKgen7

$$$$

     RDKit          2D

105105  0  0  0  0  0  0  0  0999 V2000
   25.0706    0.0000    0.0000 C   0  0  0  0  0  0  0  0  0  0  0  0
   25.0258    1.4993    0.0000 C   0  0  0  0  0  0  0  0  0  0  0  0
   24.8913    2.9933    0.0000 C   0  0  0  0  0  0  0  0  0  0  0  0
   24.6677    4.4765    0.0000 C   0  0  0  0  0  0  0  0  0  0  0  0
   24.3559    5.9438    0.0000 C   0  0  0  0  0  0  0  0  0  0  0  0
   23.9568    7.3897    0.0000 C   0  0  0  0  0  0  0  0  0  0  0  0
   23.4720    8.8092    0.0000 C   0  0  0  0  0  0  0  0  0  0  0  0
   22.9032   10.1971    0.0000 C   0  0  0  0  0  0  0  0  0  0  0  0
   22.2523   11.5486    0.0000 C   0  0  0  0  0  0  0  0  0  0  0  0
   21.5219   12.8587    0.0000 C   0  0  0  0  0  0  0  0  0  0  0  0
   20.7143   14.1228    0.0000 C   0  0  0  0  0  0  0  0  0  0  0  0
   19.8327   15.3363    0.0000 C   0  0  0  0  0  0  0  0  0  0  0  0
   18.8800   16.4949    0.0000 C   0  0  0  0  0  0  0  0  0  0  0  0
   17.8597   17.5945    0.0000 C   0  0  0  0  0  0  0  0  0  0  0  0
   16.7755   18.6311    0.0000 C   0  0  0  0  0  0  0  0  0  0  0  0
   15.6313   19.6010    0.0000 C   0  0  0  0  0  0  0  0  0  0  0  0
   14.4311   20.5008    0.0000 C   0  0  0  0  0  0  0  0  0  0  0  0
   13.1792   21.3271    0.0000 C   0  0  0  0  0  0  0  0  0  0  0  0
   11.8802   22.0771    0.0000 C   0  0  0  0  0  0  0  0  0  0  0  0
   10.5386   22.7481    0.0000 C   0  0  0  0  0  0  0  0  0  0  0  0
    9.1593   23.3376    0.0000 C   0  0  0  0  0  0  0  0  0  0  0  0
    7.7473   23.8436    0.0000 C   0  0  0  0  0  0  0  0  0  0  0  0
    6.3074   24.2642    0.0000 C   0  0  0  0  0  0  0  0  0  0  0  0
    4.8451   24.5980    0.0000 C   0  0  0  0  0  0  0  0  0  0  0  0
    3.3653   24.8437    0.0000 C   0  0  0  0  0  0  0  0  0  0  0  0
    1.8735   25.0005    0.0000 C   0  0  0  0  0  0  0  0  0  0  0  0
    0.3750   25.0678    0.0000 C   0  0  0  0  0  0  0  0  0  0  0  0
   -1.1248   25.0454    0.0000 C   0  0  0  0  0  0  0  0  0  0  0  0
   -2.6206   24.9333    0.0000 C   0  0  0  0  0  0  0  0  0  0  0  0
   -4.1070   24.7320    0.0000 C   0  0  0  0  0  0  0  0  0  0  0  0
   -5.5787   24.4421    0.0000 C   0  0  0  0  0  0  0  0  0  0  0  0
   -7.0305   24.0647    0.0000 C   0  0  0  0  0  0  0  0  0  0  0  0
   -8.4571   23.6012    0.0000 C   0  0  0  0  0  0  0  0  0  0  0  0
   -9.8534   23.0532    0.0000 C   0  0  0  0  0  0  0  0  0  0  0  0
  -11.2144   22.4226    0.0000 C   0  0  0  0  0  0  0  0  0  0  0  0
  -12.5353   21.7118    0.0000 C   0  0  0  0  0  0  0  0  0  0  0  0
  -13.8113   20.9233    0.0000 C   0  0  0  0  0  0  0  0  0  0  0  0
  -15.0379   20.0599    0.0000 C   0  0  0  0  0  0  0  0  0  0  0  0
  -16.2107   19.1246    0.0000 C   0  0  0  0  0  0  0  0  0  0  0  0
  -17.3254   18.1209    0.0000 C   0  0  0  0  0  0  0  0  0  0  0  0
  -18.3781   17.0524    0.0000 C   0  0  0  0  0  0  0  0  0  0  0  0
  -19.3650   15.9228    0.0000 C   0  0  0  0  0  0  0  0  0  0  0  0
  -20.2826   14.7362    0.0000 C   0  0  0  0  0  0  0  0  0  0  0  0
  -21.1276   13.4968    0.0000 C   0  0  0  0  0  0  0  0  0  0  0  0
  -21.8969   12.2091    0.0000 C   0  0  0  0  0  0  0  0  0  0  0  0
  -22.5879   10.8777    0.0000 C   0  0  0  0  0  0  0  0  0  0  0  0
  -23.1980    9.5074    0.0000 C   0  0  0  0  0  0  0  0  0  0  0  0
  -23.7250    8.1031    0.0000 C   0  0  0  0  0  0  0  0  0  0  0  0
  -24.1672    6.6697    0.0000 C   0  0  0  0  0  0  0  0  0  0  0  0
  -24.5228    5.2125    0.0000 C   0  0  0  0  0  0  0  0  0  0  0  0
  -24.7906    3.7366    0.0000 C   0  0  0  0  0  0  0  0  0  0  0  0
  -24.9697    2.2473    0.0000 C   0  0  0  0  0  0  0  0  0  0  0  0
  -25.0594    0.7500    0.0000 C   0  0  0  0  0  0  0  0  0  0  0  0
  -25.0594   -0.7500    0.0000 C   0  0  0  0  0  0  0  0  0  0  0  0
  -24.9697   -2.2473    0.0000 C   0  0  0  0  0  0  0  0  0  0  0  0
  -24.7906   -3.7366    0.0000 C   0  0  0  0  0  0  0  0  0  0  0  0
  -24.5228   -5.2125    0.0000 C   0  0  0  0  0  0  0  0  0  0  0  0
  -24.1672   -6.6697    0.0000 C   0  0  0  0  0  0  0  0  0  0  0  0
  -23.7250   -8.1031    0.0000 C   0  0  0  0  0  0  0  0  0  0  0  0
  -23.1980   -9.5074    0.0000 C   0  0  0  0  0  0  0  0  0  0  0  0
  -22.5879  -10.8777    0.0000 C   0  0  0  0  0  0  0  0  0  0  0  0
  -21.8969  -12.2091    0.0000 C   0  0  0  0  0  0  0  0  0  0  0  0
  -21.1276  -13.4968    0.0000 C   0  0  0  0  0  0  0  0  0  0  0  0
  -20.2826  -14.7362    0.0000 C   0  0  0  0  0  0  0  0  0  0  0  0
  -19.3650  -15.9228    0.0000 C   0  0  0  0  0  0  0  0  0  0  0  0
  -18.3781  -17.0524    0.0000 C   0  0  0  0  0  0  0  0  0  0  0  0
  -17.3254  -18.1209    0.0000 C   0  0  0  0  0  0  0  0  0  0  0  0
  -16.2107  -19.1246    0.0000 C   0  0  0  0  0  0  0  0  0  0  0  0
  -15.0379  -20.0599    0.0000 C   0  0  0  0  0  0  0  0  0  0  0  0
  -13.8113  -20.9233    0.0000 C   0  0  0  0  0  0  0  0  0  0  0  0
  -12.5353  -21.7118    0.0000 C   0  0  0  0  0  0  0  0  0  0  0  0
  -11.2144  -22.4226    0.0000 C   0  0  0  0  0  0  0  0  0  0  0  0
   -9.8534  -23.0532    0.0000 C   0  0  0  0  0  0  0  0  0  0  0  0
   -8.4571  -23.6012    0.0000 C   0  0  0  0  0  0  0  0  0  0  0  0
   -7.0305  -24.0647    0.0000 C   0  0  0  0  0  0  0  0  0  0  0  0
   -5.5787  -24.4421    0.0000 C   0  0  0  0  0  0  0  0  0  0  0  0
   -4.1070  -24.7320    0.0000 C   0  0  0  0  0  0  0  0  0  0  0  0
   -2.6206  -24.9333    0.0000 C   0  0  0  0  0  0  0  0  0  0  0  0
   -1.1248  -25.0454    0.0000 C   0  0  0  0  0  0  0  0  0  0  0  0
    0.3750  -25.0678    0.0000 C   0  0  0  0  0  0  0  0  0  0  0  0
    1.8735  -25.0005    0.0000 C   0  0  0  0  0  0  0  0  0  0  0  0
    3.3653  -24.8437    0.0000 C   0  0  0  0  0  0  0  0  0  0  0  0
    4.8451  -24.5980    0.0000 C   0  0  0  0  0  0  0  0  0  0  0  0
    6.3074  -24.2642    0.0000 C   0  0  0  0  0  0  0  0  0  0  0  0
    7.7473  -23.8436    0.0000 C   0  0  0  0  0  0  0  0  0  0  0  0
    9.1593  -23.3376    0.0000 C   0  0  0  0  0  0  0  0  0  0  0  0
   10.5386  -22.7481    0.0000 C   0  0  0  0  0  0  0  0  0  0  0  0
   11.8802  -22.0771    0.0000 C   0  0  0  0  0  0  0  0  0  0  0  0
   13.1792  -21.3271    0.0000 C   0  0  0  0  0  0  0  0  0  0  0  0
   14.4311  -20.5008    0.0000 C   0  0  0  0  0  0  0  0  0  0  0  0
   15.6313  -19.6010    0.0000 C   0  0  0  0  0  0  0  0  0  0  0  0
   16.7755  -18.6311    0.0000 C   0  0  0  0  0  0  0  0  0  0  0  0
   17.8597  -17.5945    0.0000 C   0  0  0  0  0  0  0  0  0  0  0  0
   18.8800  -16.4949    0.0000 C   0  0  0  0  0  0  0  0  0  0  0  0
   19.8327  -15.3363    0.0000 C   0  0  0  0  0  0  0  0  0  0  0  0
   20.7143  -14.1228    0.0000 C   0  0  0  0  0  0  0  0  0  0  0  0
   21.5219  -12.8587    0.0000 C   0  0  0  0  0  0  0  0  0  0  0  0
   22.2523  -11.5486    0.0000 C   0  0  0  0  0  0  0  0  0  0  0  0
   22.9032  -10.1971    0.0000 C   0  0  0  0  0  0  0  0  0  0  0  0
   23.4720   -8.8092    0.0000 C   0  0  0  0  0  0  0  0  0  0  0  0
   23.9568   -7.3897    0.0000 C   0  0  0  0  0  0  0  0  0  0  0  0
   24.3559   -5.9438    0.0000 C   0  0  0  0  0  0  0  0  0  0  0  0
   24.6677   -4.4765    0.0000 C   0  0  0  0  0  0  0  0  0  0  0  0
   24.8913   -2.9933    0.0000 C   0  0  0  0  0  0  0  0  0  0  0  0
   25.0258   -1.4993    0.0000 C   0  0  0  0  0  0  0  0  0  0  0  0
  1  2  1  0
  2  3  1  0
  3  4  1  0
  4  5  1  0
  5  6  1  0
  6  7  1  0
  7  8  1  0
  8  9  1  0
  9 10  1  0
 10 11  1  0
 11 12  1  0
 12 13  1  0
 13 14  1  0
 14 15  1  0
 15 16  1  0
 16 17  1  0
 17 18  1  0
 18 19  1  0
 19 20  1  0
 20 21  1  0
 21 22  1  0
 22 23  1  0
 23 24  1  0
 24 25  1  0
 25 26  1  0
 26 27  1  0
 27 28  1  0
 28 29  1  0
 29 30  1  0
 30 31  1  0
 31 32  1  0
 32 33  1  0
 33 34  1  0
 34 35  1  0
 35 36  1  0
 36 37  1  0
 37 38  1  0
 38 39  1  0
 39 40  1  0
 40 41  1  0
 41 42  1  0
 42 43  1  0
 43 44  1  0
 44 45  1  0
 45 46  1  0
 46 47  1  0
 47 48  1  0
 48 49  1  0
 49 50  1  0
 50 51  1  0
 51 52  1  0
 52 53  1  0
 53 54  1  0
 54 55  1  0
 55 56  1  0
 56 57  1  0
 57 58  1  0
 58 59  1  0
 59 60  1  0
 60 61  1  0
 61 62  1  0
 62 63  1  0
 63 64  1  0
 64 65  1  0
 65 66  1  0
 66 67  1  0
 67 68  1  0
 68 69  1  0
 69 70  1  0
 70 71  1  0
 71 72  1  0
 72 73  1  0
 73 74  1  0
 74 75  1  0
 75 76  1  0
 76 77  1  0
 77 78  1  0
 78 79  1  0
 79 80  1  0
 80 81  1  0
 81 82  1  0
 82 83  1  0
 83 84  1  0
 84 85  1  0
 85 86  1  0
 86 87  1  0
 87 88  1  0
 88 89  1  0
 89 90  1  0
 90 91  1  0
 91 92  1  0
 92 93  1  0
 93 94  1  0
 94 95  1  0
 95 96  1  0
 96 97  1  0
 97 98  1  0
 98 99  1  0
 99100  1  0
100101  1  0
101102  1  0
102103  1  0
103104  1  0
104105  1  0
105  1  1  0
M  END
>  <Title>  (708) 
idAAZLgen7

$$$$

     RDKit          2D

  8  8  0  0  0  0  0  0  0  0999 V2000
    1.9598    0.0000    0.0000 C   0  0  0  0  0  0  0  0  0  0  0  0
    1.3858   -1.3858    0.0000 C   0  0  0  0  0  0  0  0  0  0  0  0
   -0.0000   -1.9598    0.0000 C   0  0  0  0  0  0  0  0  0  0  0  0
   -1.3858   -1.3858    0.0000 C   0  0  0  0  0  0  0  0  0  0  0  0
   -1.9598    0.0000    0.0000 C   0  0  0  0  0  0  0  0  0  0  0  0
   -1.3858    1.3858    0.0000 C   0  0  0  0  0  0  0  0  0  0  0  0
    0.0000    1.9598    0.0000 C   0  0  0  0  0  0  0  0  0  0  0  0
    1.3858    1.3858    0.0000 C   0  0  0  0  0  0  0  0  0  0  0  0
  1  2  1  0
  2  3  1  0
  3  4  1  0
  4  5  1  0
  5  6  1  0
  6  7  1  0
  7  8  1  0
  8  1  1  0
M  END
>  <Title>  (709) 
idAAZMgen7

$$$$

     RDKit          2D

 95 95  0  0  0  0  0  0  0  0999 V2000
   23.9450   -0.0000    0.0000 C   0  0  0  0  0  0  0  0  0  0  0  0
   22.4450    0.0000    0.0000 C   0  0  0  0  0  0  0  0  0  0  0  0
   22.3949   -1.4992    0.0000 C   0  0  0  0  0  0  0  0  0  0  0  0
   22.2448   -2.9916    0.0000 C   0  0  0  0  0  0  0  0  0  0  0  0
   21.9953   -4.4707    0.0000 C   0  0  0  0  0  0  0  0  0  0  0  0
   21.6475   -5.9299    0.0000 C   0  0  0  0  0  0  0  0  0  0  0  0
   21.2031   -7.3625    0.0000 C   0  0  0  0  0  0  0  0  0  0  0  0
   20.6640   -8.7623    0.0000 C   0  0  0  0  0  0  0  0  0  0  0  0
   20.0326  -10.1229    0.0000 C   0  0  0  0  0  0  0  0  0  0  0  0
   19.3117  -11.4384    0.0000 C   0  0  0  0  0  0  0  0  0  0  0  0
   18.5046  -12.7027    0.0000 C   0  0  0  0  0  0  0  0  0  0  0  0
   17.6148  -13.9103    0.0000 C   0  0  0  0  0  0  0  0  0  0  0  0
   16.6464  -15.0558    0.0000 C   0  0  0  0  0  0  0  0  0  0  0  0
   15.6036  -16.1340    0.0000 C   0  0  0  0  0  0  0  0  0  0  0  0
   14.4911  -17.1402    0.0000 C   0  0  0  0  0  0  0  0  0  0  0  0
   13.3139  -18.0698    0.0000 C   0  0  0  0  0  0  0  0  0  0  0  0
   12.0773  -18.9187    0.0000 C   0  0  0  0  0  0  0  0  0  0  0  0
   10.7867  -19.6832    0.0000 C   0  0  0  0  0  0  0  0  0  0  0  0
    9.4479  -20.3597    0.0000 C   0  0  0  0  0  0  0  0  0  0  0  0
    8.0669  -20.9453    0.0000 C   0  0  0  0  0  0  0  0  0  0  0  0
    6.6499  -21.4373    0.0000 C   0  0  0  0  0  0  0  0  0  0  0  0
    5.2032  -21.8336    0.0000 C   0  0  0  0  0  0  0  0  0  0  0  0
    3.7333  -22.1324    0.0000 C   0  0  0  0  0  0  0  0  0  0  0  0
    2.2467  -22.3323    0.0000 C   0  0  0  0  0  0  0  0  0  0  0  0
    0.7500  -22.4325    0.0000 C   0  0  0  0  0  0  0  0  0  0  0  0
   -0.7500  -22.4325    0.0000 C   0  0  0  0  0  0  0  0  0  0  0  0
   -2.2467  -22.3323    0.0000 C   0  0  0  0  0  0  0  0  0  0  0  0
   -3.7333  -22.1324    0.0000 C   0  0  0  0  0  0  0  0  0  0  0  0
   -5.2032  -21.8336    0.0000 C   0  0  0  0  0  0  0  0  0  0  0  0
   -6.6499  -21.4373    0.0000 C   0  0  0  0  0  0  0  0  0  0  0  0
   -8.0669  -20.9453    0.0000 C   0  0  0  0  0  0  0  0  0  0  0  0
   -9.4479  -20.3597    0.0000 C   0  0  0  0  0  0  0  0  0  0  0  0
  -10.7867  -19.6832    0.0000 C   0  0  0  0  0  0  0  0  0  0  0  0
  -12.0773  -18.9187    0.0000 C   0  0  0  0  0  0  0  0  0  0  0  0
  -13.3139  -18.0698    0.0000 C   0  0  0  0  0  0  0  0  0  0  0  0
  -14.4911  -17.1402    0.0000 C   0  0  0  0  0  0  0  0  0  0  0  0
  -15.6036  -16.1340    0.0000 C   0  0  0  0  0  0  0  0  0  0  0  0
  -16.6464  -15.0558    0.0000 C   0  0  0  0  0  0  0  0  0  0  0  0
  -17.6148  -13.9103    0.0000 C   0  0  0  0  0  0  0  0  0  0  0  0
  -18.5046  -12.7027    0.0000 C   0  0  0  0  0  0  0  0  0  0  0  0
  -19.3117  -11.4384    0.0000 C   0  0  0  0  0  0  0  0  0  0  0  0
  -20.0326  -10.1229    0.0000 C   0  0  0  0  0  0  0  0  0  0  0  0
  -20.6640   -8.7623    0.0000 C   0  0  0  0  0  0  0  0  0  0  0  0
  -21.2031   -7.3625    0.0000 C   0  0  0  0  0  0  0  0  0  0  0  0
  -21.6475   -5.9299    0.0000 C   0  0  0  0  0  0  0  0  0  0  0  0
  -21.9953   -4.4707    0.0000 C   0  0  0  0  0  0  0  0  0  0  0  0
  -22.2448   -2.9916    0.0000 C   0  0  0  0  0  0  0  0  0  0  0  0
  -22.3949   -1.4992    0.0000 C   0  0  0  0  0  0  0  0  0  0  0  0
  -22.4450    0.0000    0.0000 C   0  0  0  0  0  0  0  0  0  0  0  0
  -22.3949    1.4992    0.0000 C   0  0  0  0  0  0  0  0  0  0  0  0
  -22.2448    2.9916    0.0000 C   0  0  0  0  0  0  0  0  0  0  0  0
  -21.9953    4.4707    0.0000 C   0  0  0  0  0  0  0  0  0  0  0  0
  -21.6475    5.9299    0.0000 C   0  0  0  0  0  0  0  0  0  0  0  0
  -21.2031    7.3625    0.0000 C   0  0  0  0  0  0  0  0  0  0  0  0
  -20.6640    8.7623    0.0000 C   0  0  0  0  0  0  0  0  0  0  0  0
  -20.0326   10.1229    0.0000 C   0  0  0  0  0  0  0  0  0  0  0  0
  -19.3117   11.4384    0.0000 C   0  0  0  0  0  0  0  0  0  0  0  0
  -18.5046   12.7027    0.0000 C   0  0  0  0  0  0  0  0  0  0  0  0
  -17.6148   13.9103    0.0000 C   0  0  0  0  0  0  0  0  0  0  0  0
  -16.6464   15.0558    0.0000 C   0  0  0  0  0  0  0  0  0  0  0  0
  -15.6036   16.1340    0.0000 C   0  0  0  0  0  0  0  0  0  0  0  0
  -14.4911   17.1402    0.0000 C   0  0  0  0  0  0  0  0  0  0  0  0
  -13.3139   18.0698    0.0000 C   0  0  0  0  0  0  0  0  0  0  0  0
  -12.0773   18.9187    0.0000 C   0  0  0  0  0  0  0  0  0  0  0  0
  -10.7867   19.6832    0.0000 C   0  0  0  0  0  0  0  0  0  0  0  0
   -9.4479   20.3597    0.0000 C   0  0  0  0  0  0  0  0  0  0  0  0
   -8.0669   20.9453    0.0000 C   0  0  0  0  0  0  0  0  0  0  0  0
   -6.6499   21.4373    0.0000 C   0  0  0  0  0  0  0  0  0  0  0  0
   -5.2032   21.8336    0.0000 C   0  0  0  0  0  0  0  0  0  0  0  0
   -3.7333   22.1324    0.0000 C   0  0  0  0  0  0  0  0  0  0  0  0
   -2.2467   22.3323    0.0000 C   0  0  0  0  0  0  0  0  0  0  0  0
   -0.7500   22.4325    0.0000 C   0  0  0  0  0  0  0  0  0  0  0  0
    0.7500   22.4325    0.0000 C   0  0  0  0  0  0  0  0  0  0  0  0
    2.2467   22.3323    0.0000 C   0  0  0  0  0  0  0  0  0  0  0  0
    3.7333   22.1324    0.0000 C   0  0  0  0  0  0  0  0  0  0  0  0
    5.2032   21.8336    0.0000 C   0  0  0  0  0  0  0  0  0  0  0  0
    6.6499   21.4373    0.0000 C   0  0  0  0  0  0  0  0  0  0  0  0
    8.0669   20.9453    0.0000 C   0  0  0  0  0  0  0  0  0  0  0  0
    9.4479   20.3597    0.0000 N   0  0  0  0  0  0  0  0  0  0  0  0
   10.7867   19.6832    0.0000 C   0  0  0  0  0  0  0  0  0  0  0  0
   12.0773   18.9187    0.0000 C   0  0  0  0  0  0  0  0  0  0  0  0
   13.3139   18.0698    0.0000 C   0  0  0  0  0  0  0  0  0  0  0  0
   14.4911   17.1402    0.0000 C   0  0  0  0  0  0  0  0  0  0  0  0
   15.6036   16.1340    0.0000 C   0  0  0  0  0  0  0  0  0  0  0  0
   16.6464   15.0558    0.0000 C   0  0  0  0  0  0  0  0  0  0  0  0
   17.6148   13.9103    0.0000 C   0  0  0  0  0  0  0  0  0  0  0  0
   18.5046   12.7027    0.0000 C   0  0  0  0  0  0  0  0  0  0  0  0
   19.3117   11.4384    0.0000 C   0  0  0  0  0  0  0  0  0  0  0  0
   20.0326   10.1229    0.0000 C   0  0  0  0  0  0  0  0  0  0  0  0
   20.6640    8.7623    0.0000 C   0  0  0  0  0  0  0  0  0  0  0  0
   21.2031    7.3625    0.0000 C   0  0  0  0  0  0  0  0  0  0  0  0
   21.6475    5.9299    0.0000 C   0  0  0  0  0  0  0  0  0  0  0  0
   21.9953    4.4707    0.0000 C   0  0  0  0  0  0  0  0  0  0  0  0
   22.2448    2.9916    0.0000 C   0  0  0  0  0  0  0  0  0  0  0  0
   22.3949    1.4992    0.0000 C   0  0  0  0  0  0  0  0  0  0  0  0
  1  2  1  0
  2  3  1  0
  3  4  2  0
  4  5  1  0
  5  6  2  0
  6  7  1  0
  7  8  1  0
  8  9  1  0
  9 10  1  0
 10 11  1  0
 11 12  1  0
 12 13  1  0
 13 14  1  0
 14 15  1  0
 15 16  1  0
 16 17  1  0
 17 18  1  0
 18 19  1  0
 19 20  1  0
 20 21  1  0
 21 22  1  0
 22 23  1  0
 23 24  1  0
 24 25  1  0
 25 26  1  0
 26 27  1  0
 27 28  1  0
 28 29  1  0
 29 30  1  0
 30 31  1  0
 31 32  1  0
 32 33  1  0
 33 34  1  0
 34 35  1  0
 35 36  1  0
 36 37  1  0
 37 38  1  0
 38 39  1  0
 39 40  1  0
 40 41  1  0
 41 42  1  0
 42 43  1  0
 43 44  1  0
 44 45  1  0
 45 46  1  0
 46 47  1  0
 47 48  1  0
 48 49  1  0
 49 50  1  0
 50 51  1  0
 51 52  1  0
 52 53  1  0
 53 54  1  0
 54 55  1  0
 55 56  1  0
 56 57  1  0
 57 58  1  0
 58 59  1  0
 59 60  1  0
 60 61  1  0
 61 62  1  0
 62 63  1  0
 63 64  1  0
 64 65  1  0
 65 66  1  0
 66 67  1  0
 67 68  1  0
 68 69  1  0
 69 70  1  0
 70 71  1  0
 71 72  1  0
 72 73  1  0
 73 74  1  0
 74 75  1  0
 75 76  1  0
 76 77  1  0
 77 78  1  0
 78 79  1  0
 79 80  1  0
 80 81  1  0
 81 82  1  0
 82 83  1  0
 83 84  1  0
 84 85  1  0
 85 86  1  0
 86 87  1  0
 87 88  1  0
 88 89  1  0
 89 90  1  0
 90 91  1  0
 91 92  1  0
 92 93  1  0
 93 94  1  0
 94 95  1  0
 95  2  1  0
M  END
>  <Title>  (710) 
idAAZNgen7

$$$$

     RDKit          2D

 20 22  0  0  0  0  0  0  0  0999 V2000
   -3.0000   -2.5981    0.0000 C   0  0  0  0  0  0  0  0  0  0  0  0
   -1.5000   -2.5981    0.0000 C   0  0  0  0  0  0  0  0  0  0  0  0
   -0.7500   -3.8971    0.0000 C   0  0  0  0  0  0  0  0  0  0  0  0
    0.7500   -3.8971    0.0000 C   0  0  0  0  0  0  0  0  0  0  0  0
    1.5000   -2.5981    0.0000 C   0  0  0  0  0  0  0  0  0  0  0  0
    3.0000   -2.5981    0.0000 C   0  0  0  0  0  0  0  0  0  0  0  0
    3.7500   -1.2990    0.0000 O   0  0  0  0  0  0  0  0  0  0  0  0
    3.7500   -3.8971    0.0000 N   0  0  0  0  0  0  0  0  0  0  0  0
    5.2500   -3.8971    0.0000 C   0  0  0  0  0  0  0  0  0  0  0  0
    6.0000   -5.1962    0.0000 N   0  0  0  0  0  0  0  0  0  0  0  0
    7.5000   -5.1962    0.0000 N   0  0  0  0  0  0  0  0  0  0  0  0
    8.2500   -3.8971    0.0000 N   0  0  0  0  0  0  0  0  0  0  0  0
    7.5000   -2.5981    0.0000 N   0  0  0  0  0  0  0  0  0  0  0  0
    6.0000   -2.5981    0.0000 N   0  0  0  0  0  0  0  0  0  0  0  0
    0.7500   -1.2990    0.0000 C   0  0  0  0  0  0  0  0  0  0  0  0
    1.5000    0.0000    0.0000 C   0  0  0  0  0  0  0  0  0  0  0  0
    0.7500    1.2990    0.0000 C   0  0  0  0  0  0  0  0  0  0  0  0
   -0.7500    1.2990    0.0000 C   0  0  0  0  0  0  0  0  0  0  0  0
   -1.5000    0.0000    0.0000 C   0  0  0  0  0  0  0  0  0  0  0  0
   -0.7500   -1.2990    0.0000 C   0  0  0  0  0  0  0  0  0  0  0  0
  1  2  1  0
  2  3  1  0
  3  4  1  0
  4  5  2  0
  5  6  1  0
  6  7  2  0
  6  8  1  0
  8  9  1  0
  9 10  2  0
 10 11  1  0
 11 12  2  0
 12 13  1  0
 13 14  2  0
  5 15  1  0
 15 16  2  0
 16 17  1  0
 17 18  2  0
 18 19  1  0
 19 20  2  0
 20  2  1  0
 14  9  1  0
 20 15  1  0
M  END
>  <Title>  (711) 
idAAZOgen7

$$$$

     RDKit          2D

 78 78  0  0  0  0  0  0  0  0999 V2000
   18.6262    0.0000    0.0000 C   0  0  0  0  0  0  0  0  0  0  0  0
   18.5658   -1.4988    0.0000 C   0  0  0  0  0  0  0  0  0  0  0  0
   18.3850   -2.9878    0.0000 C   0  0  0  0  0  0  0  0  0  0  0  0
   18.0849   -4.4575    0.0000 C   0  0  0  0  0  0  0  0  0  0  0  0
   17.6676   -5.8983    0.0000 C   0  0  0  0  0  0  0  0  0  0  0  0
   17.1357   -7.3008    0.0000 C   0  0  0  0  0  0  0  0  0  0  0  0
   16.4926   -8.6560    0.0000 C   0  0  0  0  0  0  0  0  0  0  0  0
   15.7426   -9.9550    0.0000 C   0  0  0  0  0  0  0  0  0  0  0  0
   14.8906  -11.1895    0.0000 C   0  0  0  0  0  0  0  0  0  0  0  0
   13.9419  -12.3514    0.0000 C   0  0  0  0  0  0  0  0  0  0  0  0
   12.9028  -13.4332    0.0000 C   0  0  0  0  0  0  0  0  0  0  0  0
   11.7800  -14.4279    0.0000 C   0  0  0  0  0  0  0  0  0  0  0  0
   10.5809  -15.3290    0.0000 C   0  0  0  0  0  0  0  0  0  0  0  0
    9.3131  -16.1307    0.0000 C   0  0  0  0  0  0  0  0  0  0  0  0
    7.9849  -16.8278    0.0000 C   0  0  0  0  0  0  0  0  0  0  0  0
    6.6049  -17.4158    0.0000 C   0  0  0  0  0  0  0  0  0  0  0  0
    5.1821  -17.8908    0.0000 C   0  0  0  0  0  0  0  0  0  0  0  0
    3.7257  -18.2497    0.0000 C   0  0  0  0  0  0  0  0  0  0  0  0
    2.2451  -18.4904    0.0000 C   0  0  0  0  0  0  0  0  0  0  0  0
    0.7500  -18.6111    0.0000 C   0  0  0  0  0  0  0  0  0  0  0  0
   -0.7500  -18.6111    0.0000 C   0  0  0  0  0  0  0  0  0  0  0  0
   -2.2451  -18.4904    0.0000 C   0  0  0  0  0  0  0  0  0  0  0  0
   -3.7257  -18.2497    0.0000 C   0  0  0  0  0  0  0  0  0  0  0  0
   -5.1821  -17.8908    0.0000 C   0  0  0  0  0  0  0  0  0  0  0  0
   -6.6049  -17.4158    0.0000 C   0  0  0  0  0  0  0  0  0  0  0  0
   -7.9849  -16.8278    0.0000 C   0  0  0  0  0  0  0  0  0  0  0  0
   -9.3131  -16.1307    0.0000 C   0  0  0  0  0  0  0  0  0  0  0  0
  -10.5809  -15.3290    0.0000 C   0  0  0  0  0  0  0  0  0  0  0  0
  -11.7800  -14.4279    0.0000 C   0  0  0  0  0  0  0  0  0  0  0  0
  -12.9028  -13.4332    0.0000 C   0  0  0  0  0  0  0  0  0  0  0  0
  -13.9419  -12.3514    0.0000 C   0  0  0  0  0  0  0  0  0  0  0  0
  -14.8906  -11.1895    0.0000 C   0  0  0  0  0  0  0  0  0  0  0  0
  -15.7426   -9.9550    0.0000 C   0  0  0  0  0  0  0  0  0  0  0  0
  -16.4926   -8.6560    0.0000 C   0  0  0  0  0  0  0  0  0  0  0  0
  -17.1357   -7.3008    0.0000 C   0  0  0  0  0  0  0  0  0  0  0  0
  -17.6676   -5.8983    0.0000 C   0  0  0  0  0  0  0  0  0  0  0  0
  -18.0849   -4.4575    0.0000 C   0  0  0  0  0  0  0  0  0  0  0  0
  -18.3850   -2.9878    0.0000 C   0  0  0  0  0  0  0  0  0  0  0  0
  -18.5658   -1.4988    0.0000 C   0  0  0  0  0  0  0  0  0  0  0  0
  -18.6262    0.0000    0.0000 C   0  0  0  0  0  0  0  0  0  0  0  0
  -18.5658    1.4988    0.0000 C   0  0  0  0  0  0  0  0  0  0  0  0
  -18.3850    2.9878    0.0000 C   0  0  0  0  0  0  0  0  0  0  0  0
  -18.0849    4.4575    0.0000 C   0  0  0  0  0  0  0  0  0  0  0  0
  -17.6676    5.8983    0.0000 C   0  0  0  0  0  0  0  0  0  0  0  0
  -17.1357    7.3008    0.0000 C   0  0  0  0  0  0  0  0  0  0  0  0
  -16.4926    8.6560    0.0000 C   0  0  0  0  0  0  0  0  0  0  0  0
  -15.7426    9.9550    0.0000 C   0  0  0  0  0  0  0  0  0  0  0  0
  -14.8906   11.1895    0.0000 C   0  0  0  0  0  0  0  0  0  0  0  0
  -13.9419   12.3514    0.0000 C   0  0  0  0  0  0  0  0  0  0  0  0
  -12.9028   13.4332    0.0000 C   0  0  0  0  0  0  0  0  0  0  0  0
  -11.7800   14.4279    0.0000 C   0  0  0  0  0  0  0  0  0  0  0  0
  -10.5809   15.3290    0.0000 C   0  0  0  0  0  0  0  0  0  0  0  0
   -9.3131   16.1307    0.0000 C   0  0  0  0  0  0  0  0  0  0  0  0
   -7.9849   16.8278    0.0000 C   0  0  0  0  0  0  0  0  0  0  0  0
   -6.6049   17.4158    0.0000 C   0  0  0  0  0  0  0  0  0  0  0  0
   -5.1821   17.8908    0.0000 C   0  0  0  0  0  0  0  0  0  0  0  0
   -3.7257   18.2497    0.0000 C   0  0  0  0  0  0  0  0  0  0  0  0
   -2.2451   18.4904    0.0000 C   0  0  0  0  0  0  0  0  0  0  0  0
   -0.7500   18.6111    0.0000 C   0  0  0  0  0  0  0  0  0  0  0  0
    0.7500   18.6111    0.0000 C   0  0  0  0  0  0  0  0  0  0  0  0
    2.2451   18.4904    0.0000 C   0  0  0  0  0  0  0  0  0  0  0  0
    3.7257   18.2497    0.0000 C   0  0  0  0  0  0  0  0  0  0  0  0
    5.1821   17.8908    0.0000 C   0  0  0  0  0  0  0  0  0  0  0  0
    6.6049   17.4158    0.0000 C   0  0  0  0  0  0  0  0  0  0  0  0
    7.9849   16.8278    0.0000 C   0  0  0  0  0  0  0  0  0  0  0  0
    9.3131   16.1307    0.0000 C   0  0  0  0  0  0  0  0  0  0  0  0
   10.5809   15.3290    0.0000 C   0  0  0  0  0  0  0  0  0  0  0  0
   11.7800   14.4279    0.0000 C   0  0  0  0  0  0  0  0  0  0  0  0
   12.9028   13.4332    0.0000 C   0  0  0  0  0  0  0  0  0  0  0  0
   13.9419   12.3514    0.0000 C   0  0  0  0  0  0  0  0  0  0  0  0
   14.8906   11.1895    0.0000 C   0  0  0  0  0  0  0  0  0  0  0  0
   15.7426    9.9550    0.0000 C   0  0  0  0  0  0  0  0  0  0  0  0
   16.4926    8.6560    0.0000 C   0  0  0  0  0  0  0  0  0  0  0  0
   17.1357    7.3008    0.0000 C   0  0  0  0  0  0  0  0  0  0  0  0
   17.6676    5.8983    0.0000 C   0  0  0  0  0  0  0  0  0  0  0  0
   18.0849    4.4575    0.0000 C   0  0  0  0  0  0  0  0  0  0  0  0
   18.3850    2.9878    0.0000 C   0  0  0  0  0  0  0  0  0  0  0  0
   18.5658    1.4988    0.0000 C   0  0  0  0  0  0  0  0  0  0  0  0
  1  2  1  0
  2  3  1  0
  3  4  1  0
  4  5  1  0
  5  6  1  0
  6  7  1  0
  7  8  1  0
  8  9  1  0
  9 10  1  0
 10 11  1  0
 11 12  1  0
 12 13  1  0
 13 14  1  0
 14 15  1  0
 15 16  1  0
 16 17  1  0
 17 18  1  0
 18 19  1  0
 19 20  1  0
 20 21  1  0
 21 22  1  0
 22 23  1  0
 23 24  1  0
 24 25  1  0
 25 26  1  0
 26 27  1  0
 27 28  1  0
 28 29  1  0
 29 30  1  0
 30 31  1  0
 31 32  1  0
 32 33  1  0
 33 34  1  0
 34 35  1  0
 35 36  1  0
 36 37  1  0
 37 38  1  0
 38 39  1  0
 39 40  1  0
 40 41  1  0
 41 42  1  0
 42 43  1  0
 43 44  1  0
 44 45  1  0
 45 46  1  0
 46 47  1  0
 47 48  1  0
 48 49  1  0
 49 50  1  0
 50 51  1  0
 51 52  1  0
 52 53  1  0
 53 54  1  0
 54 55  1  0
 55 56  1  0
 56 57  1  0
 57 58  1  0
 58 59  1  0
 59 60  1  0
 60 61  1  0
 61 62  1  0
 62 63  1  0
 63 64  1  0
 64 65  1  0
 65 66  1  0
 66 67  1  0
 67 68  1  0
 68 69  1  0
 69 70  1  0
 70 71  1  0
 71 72  1  0
 72 73  1  0
 73 74  1  0
 74 75  1  0
 75 76  1  0
 76 77  1  0
 77 78  1  0
 78  1  1  0
M  END
>  <Title>  (712) 
idAAZPgen7

$$$$

     RDKit          2D

 27 29  0  0  0  0  0  0  0  0999 V2000
    2.5707   -9.8648    0.0000 C   0  0  0  0  0  0  0  0  0  0  0  0
    2.7275   -8.3730    0.0000 C   0  0  0  0  0  0  0  0  0  0  0  0
    1.5140   -7.4913    0.0000 O   0  0  0  0  0  0  0  0  0  0  0  0
    4.0978   -7.7629    0.0000 C   0  0  0  0  0  0  0  0  0  0  0  0
    5.3113   -8.6446    0.0000 O   0  0  0  0  0  0  0  0  0  0  0  0
    4.2546   -6.2711    0.0000 N   0  0  0  0  0  0  0  0  0  0  0  0
    5.5537   -5.5211    0.0000 C   0  0  0  0  0  0  0  0  0  0  0  0
    5.2418   -4.0539    0.0000 C   0  0  0  0  0  0  0  0  0  0  0  0
    3.7500   -3.8971    0.0000 C   0  0  0  0  0  0  0  0  0  0  0  0
    3.0000   -2.5981    0.0000 C   0  0  0  0  0  0  0  0  0  0  0  0
    3.7500   -1.2990    0.0000 O   0  0  0  0  0  0  0  0  0  0  0  0
    1.5000   -2.5981    0.0000 O   0  0  0  0  0  0  0  0  0  0  0  0
    0.7500   -1.2990    0.0000 C   0  0  0  0  0  0  0  0  0  0  0  0
    1.5000    0.0000    0.0000 C   0  0  0  0  0  0  0  0  0  0  0  0
    0.7500    1.2990    0.0000 C   0  0  0  0  0  0  0  0  0  0  0  0
   -0.7500    1.2990    0.0000 C   0  0  0  0  0  0  0  0  0  0  0  0
   -1.5000    0.0000    0.0000 C   0  0  0  0  0  0  0  0  0  0  0  0
   -0.7500   -1.2990    0.0000 C   0  0  0  0  0  0  0  0  0  0  0  0
   -1.5000   -2.5981    0.0000 C   0  0  0  0  0  0  0  0  0  0  0  0
   -3.0000   -2.5981    0.0000 C   0  0  0  0  0  0  0  0  0  0  0  0
   -3.7500   -3.8971    0.0000 C   0  0  0  0  0  0  0  0  0  0  0  0
   -3.0000   -5.1962    0.0000 C   0  0  0  0  0  0  0  0  0  0  0  0
   -1.5000   -5.1962    0.0000 C   0  0  0  0  0  0  0  0  0  0  0  0
   -0.7500   -3.8971    0.0000 C   0  0  0  0  0  0  0  0  0  0  0  0
    0.7500   -3.8971    0.0000 C   0  0  0  0  0  0  0  0  0  0  0  0
    3.1399   -5.2674    0.0000 C   0  0  0  0  0  0  0  0  0  0  0  0
    1.6727   -5.5793    0.0000 O   0  0  0  0  0  0  0  0  0  0  0  0
  1  2  1  0
  2  3  2  0
  2  4  1  0
  4  5  2  0
  4  6  1  0
  6  7  1  0
  7  8  1  0
  8  9  1  0
  9 10  1  0
 10 11  2  0
 10 12  1  0
 12 13  1  0
 13 14  2  0
 14 15  1  0
 15 16  2  0
 16 17  1  0
 17 18  2  0
 18 19  1  0
 19 20  2  0
 20 21  1  0
 21 22  2  0
 22 23  1  0
 23 24  2  0
 24 25  1  0
  9 26  1  0
 26 27  2  0
 26  6  1  0
 18 13  1  0
 24 19  1  0
M  END
>  <Title>  (713) 
idAAZQgen7

$$$$

     RDKit          2D

 28 31  0  0  0  0  0  0  0  0999 V2000
   -3.1965   -1.7857    0.0000 C   0  0  0  0  0  0  0  0  0  0  0  0
   -1.8107   -2.3597    0.0000 C   0  0  0  0  0  0  0  0  0  0  0  0
   -1.8107   -3.8597    0.0000 C   0  0  0  0  0  0  0  0  0  0  0  0
   -0.7500   -4.9204    0.0000 C   0  0  0  0  0  0  0  0  0  0  0  0
    0.7500   -4.9204    0.0000 C   0  0  0  0  0  0  0  0  0  0  0  0
    1.3240   -6.3062    0.0000 C   0  0  0  0  0  0  0  0  0  0  0  0
    2.8112   -6.5020    0.0000 O   0  0  0  0  0  0  0  0  0  0  0  0
    0.4109   -7.4962    0.0000 N   0  0  0  0  0  0  0  0  0  0  0  0
    0.9849   -8.8820    0.0000 C   0  0  0  0  0  0  0  0  0  0  0  0
    0.0718  -10.0721    0.0000 N   0  0  0  0  0  0  0  0  0  0  0  0
    0.6458  -11.4579    0.0000 N   0  0  0  0  0  0  0  0  0  0  0  0
    2.1330  -11.6537    0.0000 N   0  0  0  0  0  0  0  0  0  0  0  0
    3.0461  -10.4636    0.0000 N   0  0  0  0  0  0  0  0  0  0  0  0
    2.4721   -9.0778    0.0000 N   0  0  0  0  0  0  0  0  0  0  0  0
    1.8107   -3.8597    0.0000 C   0  0  0  0  0  0  0  0  0  0  0  0
    3.1097   -4.6097    0.0000 C   0  0  0  0  0  0  0  0  0  0  0  0
    4.4087   -3.8597    0.0000 C   0  0  0  0  0  0  0  0  0  0  0  0
    4.4087   -2.3597    0.0000 C   0  0  0  0  0  0  0  0  0  0  0  0
    5.7078   -1.6097    0.0000 C   0  0  0  0  0  0  0  0  0  0  0  0
    7.0068   -0.8597    0.0000 N   0  0  0  0  0  0  0  0  0  0  0  0
    3.1097   -1.6097    0.0000 C   0  0  0  0  0  0  0  0  0  0  0  0
    1.8107   -2.3597    0.0000 C   0  0  0  0  0  0  0  0  0  0  0  0
    0.7500   -1.2990    0.0000 C   0  0  0  0  0  0  0  0  0  0  0  0
    1.5000    0.0000    0.0000 C   0  0  0  0  0  0  0  0  0  0  0  0
    0.7500    1.2990    0.0000 C   0  0  0  0  0  0  0  0  0  0  0  0
   -0.7500    1.2990    0.0000 C   0  0  0  0  0  0  0  0  0  0  0  0
   -1.5000    0.0000    0.0000 C   0  0  0  0  0  0  0  0  0  0  0  0
   -0.7500   -1.2990    0.0000 C   0  0  0  0  0  0  0  0  0  0  0  0
  1  2  1  0
  2  3  1  0
  3  4  1  0
  4  5  1  0
  5  6  1  0
  6  7  2  0
  6  8  1  0
  8  9  1  0
  9 10  2  0
 10 11  1  0
 11 12  2  0
 12 13  1  0
 13 14  2  0
  5 15  1  0
 15 16  2  0
 16 17  1  0
 17 18  2  0
 18 19  1  0
 19 20  3  0
 18 21  1  0
 21 22  2  0
 22 23  1  0
 23 24  2  0
 24 25  1  0
 25 26  2  0
 26 27  1  0
 27 28  2  0
 28  2  1  0
 14  9  1  0
 22 15  1  0
 28 23  1  0
M  END
>  <Title>  (714) 
idAAZRgen7

$$$$

     RDKit          2D

  7  7  0  0  0  0  0  0  0  0999 V2000
    2.5607    0.0000    0.0000 C   0  0  0  0  0  0  0  0  0  0  0  0
    1.0607    0.0000    0.0000 C   0  0  0  0  0  0  0  0  0  0  0  0
   -0.0000   -1.0607    0.0000 C   0  0  0  0  0  0  0  0  0  0  0  0
   -1.0607    0.0000    0.0000 C   0  0  0  0  0  0  0  0  0  0  0  0
   -2.5607    0.0000    0.0000 C   0  0  0  0  0  0  0  0  0  0  0  0
   -4.0607    0.0000    0.0000 N   0  0  0  0  0  0  0  0  0  0  0  0
    0.0000    1.0607    0.0000 C   0  0  0  0  0  0  0  0  0  0  0  0
  1  2  1  0
  2  3  2  0
  3  4  1  0
  4  5  1  0
  5  6  3  0
  4  7  2  0
  7  2  1  0
M  END
>  <Title>  (715) 
idAAZSgen7

$$$$

     RDKit          2D

 41 46  0  0  0  0  0  0  0  0999 V2000
   -3.6706    3.6381    0.0000 C   0  0  0  0  0  0  0  0  0  0  0  0
   -2.2082    3.9719    0.0000 C   0  0  0  0  0  0  0  0  0  0  0  0
   -2.2082    5.4719    0.0000 C   0  0  0  0  0  0  0  0  0  0  0  0
   -1.5574    6.8234    0.0000 C   0  0  0  0  0  0  0  0  0  0  0  0
   -0.3846    7.7586    0.0000 C   0  0  0  0  0  0  0  0  0  0  0  0
    1.0777    8.0924    0.0000 C   0  0  0  0  0  0  0  0  0  0  0  0
    1.0777    9.5924    0.0000 C   0  0  0  0  0  0  0  0  0  0  0  0
    2.3768   10.3424    0.0000 O   0  0  0  0  0  0  0  0  0  0  0  0
   -0.2213   10.3424    0.0000 N   0  0  0  0  0  0  0  0  0  0  0  0
   -0.2213   11.8424    0.0000 C   0  0  0  0  0  0  0  0  0  0  0  0
    1.0777   12.5924    0.0000 N   0  0  0  0  0  0  0  0  0  0  0  0
    1.0777   14.0924    0.0000 N   0  0  0  0  0  0  0  0  0  0  0  0
   -0.2213   14.8424    0.0000 N   0  0  0  0  0  0  0  0  0  0  0  0
   -1.5203   14.0924    0.0000 N   0  0  0  0  0  0  0  0  0  0  0  0
   -1.5203   12.5924    0.0000 N   0  0  0  0  0  0  0  0  0  0  0  0
    2.5401    7.7586    0.0000 C   0  0  0  0  0  0  0  0  0  0  0  0
    2.7637    9.2419    0.0000 C   0  0  0  0  0  0  0  0  0  0  0  0
    4.1600    9.7899    0.0000 C   0  0  0  0  0  0  0  0  0  0  0  0
    5.3328    8.8546    0.0000 C   0  0  0  0  0  0  0  0  0  0  0  0
    5.1092    7.3714    0.0000 C   0  0  0  0  0  0  0  0  0  0  0  0
    3.7129    6.8234    0.0000 C   0  0  0  0  0  0  0  0  0  0  0  0
    4.3637    5.4719    0.0000 C   0  0  0  0  0  0  0  0  0  0  0  0
    5.6628    6.2219    0.0000 C   0  0  0  0  0  0  0  0  0  0  0  0
    6.9618    5.4719    0.0000 C   0  0  0  0  0  0  0  0  0  0  0  0
    6.9618    3.9719    0.0000 C   0  0  0  0  0  0  0  0  0  0  0  0
    5.6628    3.2219    0.0000 C   0  0  0  0  0  0  0  0  0  0  0  0
    4.3637    3.9719    0.0000 C   0  0  0  0  0  0  0  0  0  0  0  0
    3.7129    2.6205    0.0000 C   0  0  0  0  0  0  0  0  0  0  0  0
    5.1092    2.0725    0.0000 C   0  0  0  0  0  0  0  0  0  0  0  0
    5.3328    0.5892    0.0000 C   0  0  0  0  0  0  0  0  0  0  0  0
    4.1600   -0.3460    0.0000 C   0  0  0  0  0  0  0  0  0  0  0  0
    2.7637    0.2020    0.0000 C   0  0  0  0  0  0  0  0  0  0  0  0
    2.5401    1.6852    0.0000 C   0  0  0  0  0  0  0  0  0  0  0  0
    1.0777    1.3515    0.0000 C   0  0  0  0  0  0  0  0  0  0  0  0
    1.7286    0.0000    0.0000 C   0  0  0  0  0  0  0  0  0  0  0  0
    1.0777   -1.3515    0.0000 C   0  0  0  0  0  0  0  0  0  0  0  0
   -0.3846   -1.6852    0.0000 C   0  0  0  0  0  0  0  0  0  0  0  0
   -1.5574   -0.7500    0.0000 C   0  0  0  0  0  0  0  0  0  0  0  0
   -1.5574    0.7500    0.0000 C   0  0  0  0  0  0  0  0  0  0  0  0
   -0.3846    1.6852    0.0000 C   0  0  0  0  0  0  0  0  0  0  0  0
   -1.5574    2.6205    0.0000 C   0  0  0  0  0  0  0  0  0  0  0  0
  1  2  1  0
  2  3  2  0
  3  4  1  0
  4  5  1  0
  5  6  1  0
  6  7  1  0
  7  8  2  0
  7  9  1  0
  9 10  1  0
 10 11  2  0
 11 12  1  0
 12 13  2  0
 13 14  1  0
 14 15  2  0
  6 16  1  0
 16 17  2  0
 17 18  1  0
 18 19  2  0
 19 20  1  0
 20 21  2  0
 21 22  1  0
 22 23  2  0
 23 24  1  0
 24 25  2  0
 25 26  1  0
 26 27  2  0
 27 28  1  0
 28 29  2  0
 29 30  1  0
 30 31  2  0
 31 32  1  0
 32 33  2  0
 33 34  1  0
 34 35  2  0
 35 36  1  0
 36 37  1  0
 37 38  1  0
 38 39  1  0
 39 40  2  0
 40 41  1  0
 41  2  1  0
 15 10  1  0
 21 16  1  0
 27 22  1  0
 33 28  1  0
 40 34  1  0
M  END
>  <Title>  (716) 
idAAZTgen7

$$$$

     RDKit          2D

  8  8  0  0  0  0  0  0  0  0999 V2000
    3.2286   -0.0000    0.0000 C   0  0  0  0  0  0  0  0  0  0  0  0
    1.7286    0.0000    0.0000 C   0  0  0  0  0  0  0  0  0  0  0  0
    1.0777    1.3515    0.0000 C   0  0  0  0  0  0  0  0  0  0  0  0
   -0.3846    1.6852    0.0000 C   0  0  0  0  0  0  0  0  0  0  0  0
   -1.5574    0.7500    0.0000 C   0  0  0  0  0  0  0  0  0  0  0  0
   -1.5574   -0.7500    0.0000 C   0  0  0  0  0  0  0  0  0  0  0  0
   -0.3846   -1.6852    0.0000 C   0  0  0  0  0  0  0  0  0  0  0  0
    1.0777   -1.3515    0.0000 C   0  0  0  0  0  0  0  0  0  0  0  0
  1  2  1  0
  2  3  1  0
  3  4  1  0
  4  5  2  0
  5  6  1  0
  6  7  1  0
  7  8  1  0
  8  2  1  0
M  END
>  <Title>  (717) 
idAAZUgen7

$$$$

     RDKit          2D

  9  9  0  0  0  0  0  0  0  0999 V2000
    3.0000    0.0000    0.0000 C   0  0  0  0  0  0  0  0  0  0  0  0
    1.5000    0.0000    0.0000 C   0  0  0  0  0  0  0  0  0  0  0  0
    0.7500   -1.2990    0.0000 C   0  0  0  0  0  0  0  0  0  0  0  0
   -0.7500   -1.2990    0.0000 C   0  0  0  0  0  0  0  0  0  0  0  0
   -1.5000   -2.5981    0.0000 C   0  0  0  0  0  0  0  0  0  0  0  0
   -2.2500   -3.8971    0.0000 N   0  0  0  0  0  0  0  0  0  0  0  0
   -1.5000    0.0000    0.0000 C   0  0  0  0  0  0  0  0  0  0  0  0
   -0.7500    1.2990    0.0000 C   0  0  0  0  0  0  0  0  0  0  0  0
    0.7500    1.2990    0.0000 C   0  0  0  0  0  0  0  0  0  0  0  0
  1  2  1  0
  2  3  1  0
  3  4  2  0
  4  5  1  0
  5  6  3  0
  4  7  1  0
  7  8  1  0
  8  9  1  0
  9  2  1  0
M  END
>  <Title>  (718) 
idAAZVgen7

$$$$

     RDKit          2D

  9  9  0  0  0  0  0  0  0  0999 V2000
    5.7760   -2.5981    0.0000 C   0  0  0  0  0  0  0  0  0  0  0  0
    5.0260   -1.2990    0.0000 C   0  0  0  0  0  0  0  0  0  0  0  0
    3.5260   -1.2990    0.0000 C   0  0  0  0  0  0  0  0  0  0  0  0
    2.7760    0.0000    0.0000 C   0  0  0  0  0  0  0  0  0  0  0  0
    1.2760    0.0000    0.0000 C   0  0  0  0  0  0  0  0  0  0  0  0
    0.3943    1.2135    0.0000 C   0  0  0  0  0  0  0  0  0  0  0  0
   -1.0323    0.7500    0.0000 C   0  0  0  0  0  0  0  0  0  0  0  0
   -1.0323   -0.7500    0.0000 C   0  0  0  0  0  0  0  0  0  0  0  0
    0.3943   -1.2135    0.0000 C   0  0  0  0  0  0  0  0  0  0  0  0
  1  2  2  0
  2  3  1  0
  3  4  1  0
  4  5  1  0
  5  6  2  0
  6  7  1  0
  7  8  2  0
  8  9  1  0
  9  5  1  0
M  END
>  <Title>  (719) 
idAAZWgen7

$$$$

     RDKit          2D

 33 37  0  0  0  0  0  0  0  0999 V2000
    1.2135   -7.3421    0.0000 C   0  0  0  0  0  0  0  0  0  0  0  0
    0.7500   -5.9156    0.0000 C   0  0  0  0  0  0  0  0  0  0  0  0
    1.9635   -5.0339    0.0000 C   0  0  0  0  0  0  0  0  0  0  0  0
    2.4271   -3.6073    0.0000 C   0  0  0  0  0  0  0  0  0  0  0  0
    1.9635   -2.1807    0.0000 C   0  0  0  0  0  0  0  0  0  0  0  0
    3.1771   -1.2990    0.0000 C   0  0  0  0  0  0  0  0  0  0  0  0
    3.0203    0.1927    0.0000 O   0  0  0  0  0  0  0  0  0  0  0  0
    4.5474   -1.9091    0.0000 N   0  0  0  0  0  0  0  0  0  0  0  0
    5.7609   -1.0275    0.0000 C   0  0  0  0  0  0  0  0  0  0  0  0
    7.1312   -1.6376    0.0000 N   0  0  0  0  0  0  0  0  0  0  0  0
    8.3447   -0.7559    0.0000 N   0  0  0  0  0  0  0  0  0  0  0  0
    8.1879    0.7359    0.0000 N   0  0  0  0  0  0  0  0  0  0  0  0
    6.8176    1.3460    0.0000 N   0  0  0  0  0  0  0  0  0  0  0  0
    5.6041    0.4643    0.0000 N   0  0  0  0  0  0  0  0  0  0  0  0
    0.7500   -1.2990    0.0000 C   0  0  0  0  0  0  0  0  0  0  0  0
    1.5000    0.0000    0.0000 C   0  0  0  0  0  0  0  0  0  0  0  0
    0.7500    1.2990    0.0000 C   0  0  0  0  0  0  0  0  0  0  0  0
   -0.7500    1.2990    0.0000 C   0  0  0  0  0  0  0  0  0  0  0  0
   -1.5000    0.0000    0.0000 C   0  0  0  0  0  0  0  0  0  0  0  0
   -0.7500   -1.2990    0.0000 C   0  0  0  0  0  0  0  0  0  0  0  0
   -1.9635   -2.1807    0.0000 C   0  0  0  0  0  0  0  0  0  0  0  0
   -2.9672   -1.0660    0.0000 C   0  0  0  0  0  0  0  0  0  0  0  0
   -4.4344   -1.3779    0.0000 C   0  0  0  0  0  0  0  0  0  0  0  0
   -4.8980   -2.8045    0.0000 C   0  0  0  0  0  0  0  0  0  0  0  0
   -6.3652   -3.1163    0.0000 Cl  0  0  0  0  0  0  0  0  0  0  0  0
   -3.8943   -3.9192    0.0000 C   0  0  0  0  0  0  0  0  0  0  0  0
   -2.4271   -3.6073    0.0000 C   0  0  0  0  0  0  0  0  0  0  0  0
   -1.9635   -5.0339    0.0000 C   0  0  0  0  0  0  0  0  0  0  0  0
   -3.3338   -5.6440    0.0000 C   0  0  0  0  0  0  0  0  0  0  0  0
   -3.4906   -7.1358    0.0000 C   0  0  0  0  0  0  0  0  0  0  0  0
   -2.2771   -8.0175    0.0000 C   0  0  0  0  0  0  0  0  0  0  0  0
   -0.9068   -7.4073    0.0000 C   0  0  0  0  0  0  0  0  0  0  0  0
   -0.7500   -5.9156    0.0000 C   0  0  0  0  0  0  0  0  0  0  0  0
  1  2  1  0
  2  3  1  0
  3  4  1  0
  4  5  1  0
  5  6  1  0
  6  7  2  0
  6  8  1  0
  8  9  1  0
  9 10  2  0
 10 11  1  0
 11 12  2  0
 12 13  1  0
 13 14  2  0
  5 15  1  0
 15 16  2  0
 16 17  1  0
 17 18  2  0
 18 19  1  0
 19 20  2  0
 20 21  1  0
 21 22  2  0
 22 23  1  0
 23 24  2  0
 24 25  1  0
 24 26  1  0
 26 27  2  0
 27 28  1  0
 28 29  2  0
 29 30  1  0
 30 31  2  0
 31 32  1  0
 32 33  2  0
 33  2  1  0
 14  9  1  0
 20 15  1  0
 27 21  1  0
 33 28  1  0
M  END
>  <Title>  (720) 
idAAZXgen7

$$$$

     RDKit          2D

 63 71  0  0  0  0  0  0  0  0999 V2000
    1.9254  -12.5169    0.0000 C   0  0  0  0  0  0  0  0  0  0  0  0
    1.4832  -11.0835    0.0000 C   0  0  0  0  0  0  0  0  0  0  0  0
    2.8347  -10.4327    0.0000 C   0  0  0  0  0  0  0  0  0  0  0  0
    3.9343   -9.4124    0.0000 C   0  0  0  0  0  0  0  0  0  0  0  0
    4.6843   -8.1134    0.0000 C   0  0  0  0  0  0  0  0  0  0  0  0
    5.0181   -6.6510    0.0000 C   0  0  0  0  0  0  0  0  0  0  0  0
    4.9060   -5.1552    0.0000 C   0  0  0  0  0  0  0  0  0  0  0  0
    4.3580   -3.7589    0.0000 C   0  0  0  0  0  0  0  0  0  0  0  0
    3.4227   -2.5862    0.0000 C   0  0  0  0  0  0  0  0  0  0  0  0
    2.1834   -1.7412    0.0000 C   0  0  0  0  0  0  0  0  0  0  0  0
    2.8342   -0.3897    0.0000 C   0  0  0  0  0  0  0  0  0  0  0  0
    1.9892    0.8496    0.0000 O   0  0  0  0  0  0  0  0  0  0  0  0
    4.3300   -0.2776    0.0000 N   0  0  0  0  0  0  0  0  0  0  0  0
    4.9808    1.0738    0.0000 C   0  0  0  0  0  0  0  0  0  0  0  0
    6.4766    1.1859    0.0000 N   0  0  0  0  0  0  0  0  0  0  0  0
    7.1274    2.5374    0.0000 N   0  0  0  0  0  0  0  0  0  0  0  0
    6.2825    3.7767    0.0000 N   0  0  0  0  0  0  0  0  0  0  0  0
    4.7867    3.6646    0.0000 N   0  0  0  0  0  0  0  0  0  0  0  0
    4.1358    2.3132    0.0000 N   0  0  0  0  0  0  0  0  0  0  0  0
    0.7500   -1.2990    0.0000 C   0  0  0  0  0  0  0  0  0  0  0  0
    1.5000    0.0000    0.0000 C   0  0  0  0  0  0  0  0  0  0  0  0
    0.7500    1.2990    0.0000 C   0  0  0  0  0  0  0  0  0  0  0  0
   -0.7500    1.2990    0.0000 C   0  0  0  0  0  0  0  0  0  0  0  0
   -1.5000    0.0000    0.0000 C   0  0  0  0  0  0  0  0  0  0  0  0
   -0.7500   -1.2990    0.0000 C   0  0  0  0  0  0  0  0  0  0  0  0
   -2.1834   -1.7412    0.0000 C   0  0  0  0  0  0  0  0  0  0  0  0
   -2.2955   -0.2454    0.0000 C   0  0  0  0  0  0  0  0  0  0  0  0
   -3.6469    0.4055    0.0000 C   0  0  0  0  0  0  0  0  0  0  0  0
   -4.8863   -0.4395    0.0000 C   0  0  0  0  0  0  0  0  0  0  0  0
   -4.7742   -1.9353    0.0000 C   0  0  0  0  0  0  0  0  0  0  0  0
   -3.4227   -2.5862    0.0000 C   0  0  0  0  0  0  0  0  0  0  0  0
   -4.3580   -3.7589    0.0000 C   0  0  0  0  0  0  0  0  0  0  0  0
   -5.2932   -2.5862    0.0000 C   0  0  0  0  0  0  0  0  0  0  0  0
   -6.7764   -2.8097    0.0000 C   0  0  0  0  0  0  0  0  0  0  0  0
   -7.3244   -4.2060    0.0000 C   0  0  0  0  0  0  0  0  0  0  0  0
   -6.3892   -5.3788    0.0000 C   0  0  0  0  0  0  0  0  0  0  0  0
   -4.9060   -5.1552    0.0000 C   0  0  0  0  0  0  0  0  0  0  0  0
   -5.0181   -6.6510    0.0000 C   0  0  0  0  0  0  0  0  0  0  0  0
   -6.4514   -6.2089    0.0000 C   0  0  0  0  0  0  0  0  0  0  0  0
   -7.5510   -7.2291    0.0000 C   0  0  0  0  0  0  0  0  0  0  0  0
   -7.2172   -8.6915    0.0000 C   0  0  0  0  0  0  0  0  0  0  0  0
   -5.7839   -9.1337    0.0000 C   0  0  0  0  0  0  0  0  0  0  0  0
   -4.6843   -8.1134    0.0000 C   0  0  0  0  0  0  0  0  0  0  0  0
   -3.9343   -9.4124    0.0000 C   0  0  0  0  0  0  0  0  0  0  0  0
   -5.2444  -10.1429    0.0000 C   0  0  0  0  0  0  0  0  0  0  0  0
   -4.9545  -11.6147    0.0000 C   0  0  0  0  0  0  0  0  0  0  0  0
   -3.4652  -11.7937    0.0000 C   0  0  0  0  0  0  0  0  0  0  0  0
   -2.7348  -13.1039    0.0000 C   0  0  0  0  0  0  0  0  0  0  0  0
   -1.2349  -13.1263    0.0000 O   0  0  0  0  0  0  0  0  0  0  0  0
   -3.5041  -14.3915    0.0000 N   0  0  0  0  0  0  0  0  0  0  0  0
   -2.7736  -15.7016    0.0000 C   0  0  0  0  0  0  0  0  0  0  0  0
   -3.5430  -16.9893    0.0000 N   0  0  0  0  0  0  0  0  0  0  0  0
   -2.8125  -18.2994    0.0000 N   0  0  0  0  0  0  0  0  0  0  0  0
   -1.3127  -18.3219    0.0000 N   0  0  0  0  0  0  0  0  0  0  0  0
   -0.5433  -17.0342    0.0000 N   0  0  0  0  0  0  0  0  0  0  0  0
   -1.2738  -15.7241    0.0000 N   0  0  0  0  0  0  0  0  0  0  0  0
   -2.8347  -10.4327    0.0000 C   0  0  0  0  0  0  0  0  0  0  0  0
   -1.4832  -11.0835    0.0000 C   0  0  0  0  0  0  0  0  0  0  0  0
   -2.4185  -12.2563    0.0000 C   0  0  0  0  0  0  0  0  0  0  0  0
   -1.8705  -13.6526    0.0000 C   0  0  0  0  0  0  0  0  0  0  0  0
   -0.3872  -13.8762    0.0000 C   0  0  0  0  0  0  0  0  0  0  0  0
    0.5480  -12.7034    0.0000 C   0  0  0  0  0  0  0  0  0  0  0  0
   -0.0000  -11.3071    0.0000 C   0  0  0  0  0  0  0  0  0  0  0  0
  1  2  1  0
  2  3  1  0
  3  4  1  0
  4  5  1  0
  5  6  1  0
  6  7  1  0
  7  8  1  0
  8  9  1  0
  9 10  1  0
 10 11  1  0
 11 12  2  0
 11 13  1  0
 13 14  1  0
 14 15  2  0
 15 16  1  0
 16 17  2  0
 17 18  1  0
 18 19  2  0
 10 20  1  0
 20 21  2  0
 21 22  1  0
 22 23  2  0
 23 24  1  0
 24 25  2  0
 25 26  1  0
 26 27  2  0
 27 28  1  0
 28 29  2  0
 29 30  1  0
 30 31  2  0
 31 32  1  0
 32 33  2  0
 33 34  1  0
 34 35  2  0
 35 36  1  0
 36 37  2  0
 37 38  1  0
 38 39  2  0
 39 40  1  0
 40 41  2  0
 41 42  1  0
 42 43  2  0
 43 44  1  0
 44 45  2  0
 45 46  1  0
 46 47  2  0
 47 48  1  0
 48 49  2  0
 48 50  1  0
 50 51  1  0
 51 52  2  0
 52 53  1  0
 53 54  2  0
 54 55  1  0
 55 56  2  0
 47 57  1  0
 57 58  1  0
 58 59  2  0
 59 60  1  0
 60 61  2  0
 61 62  1  0
 62 63  2  0
 63  2  1  0
 19 14  1  0
 25 20  1  0
 31 26  1  0
 37 32  1  0
 43 38  1  0
 57 44  1  0
 63 58  1  0
 56 51  1  0
M  END
>  <Title>  (721) 
idAAZYgen7

$$$$

     RDKit          2D

 10 10  0  0  0  0  0  0  0  0999 V2000
    3.0000    0.0000    0.0000 C   0  0  0  0  0  0  0  0  0  0  0  0
    1.5000    0.0000    0.0000 C   0  0  0  0  0  0  0  0  0  0  0  0
    0.7500   -1.2990    0.0000 C   0  0  0  0  0  0  0  0  0  0  0  0
   -0.7500   -1.2990    0.0000 C   0  0  0  0  0  0  0  0  0  0  0  0
   -1.5000    0.0000    0.0000 C   0  0  0  0  0  0  0  0  0  0  0  0
   -0.7500    1.2990    0.0000 C   0  0  0  0  0  0  0  0  0  0  0  0
   -1.5000    2.5981    0.0000 C   0  0  0  0  0  0  0  0  0  0  0  0
   -0.7500    3.8971    0.0000 N   0  0  0  0  0  0  0  0  0  0  0  0
   -3.0000    2.5981    0.0000 O   0  0  0  0  0  0  0  0  0  0  0  0
    0.7500    1.2990    0.0000 C   0  0  0  0  0  0  0  0  0  0  0  0
  1  2  1  0
  2  3  2  0
  3  4  1  0
  4  5  1  0
  5  6  1  0
  6  7  1  0
  7  8  1  0
  7  9  2  0
  6 10  1  0
 10  2  1  0
M  END
>  <Title>  (722) 
idAAZZgen7

$$$$

     RDKit          2D

 21 23  0  0  0  0  0  0  0  0999 V2000
   -3.0000   -2.5981    0.0000 C   0  0  0  0  0  0  0  0  0  0  0  0
   -1.5000   -2.5981    0.0000 C   0  0  0  0  0  0  0  0  0  0  0  0
   -0.7500   -3.8971    0.0000 C   0  0  0  0  0  0  0  0  0  0  0  0
    0.7500   -3.8971    0.0000 C   0  0  0  0  0  0  0  0  0  0  0  0
    1.5000   -2.5981    0.0000 C   0  0  0  0  0  0  0  0  0  0  0  0
    3.0000   -2.5981    0.0000 C   0  0  0  0  0  0  0  0  0  0  0  0
    3.7500   -1.2990    0.0000 O   0  0  0  0  0  0  0  0  0  0  0  0
    3.7500   -3.8971    0.0000 N   0  0  0  0  0  0  0  0  0  0  0  0
    5.2500   -3.8971    0.0000 C   0  0  0  0  0  0  0  0  0  0  0  0
    6.0000   -5.1962    0.0000 N   0  0  0  0  0  0  0  0  0  0  0  0
    7.5000   -5.1962    0.0000 N   0  0  0  0  0  0  0  0  0  0  0  0
    8.2500   -3.8971    0.0000 N   0  0  0  0  0  0  0  0  0  0  0  0
    7.5000   -2.5981    0.0000 N   0  0  0  0  0  0  0  0  0  0  0  0
    6.0000   -2.5981    0.0000 N   0  0  0  0  0  0  0  0  0  0  0  0
    0.7500   -1.2990    0.0000 C   0  0  0  0  0  0  0  0  0  0  0  0
    1.5000    0.0000    0.0000 C   0  0  0  0  0  0  0  0  0  0  0  0
    0.7500    1.2990    0.0000 C   0  0  0  0  0  0  0  0  0  0  0  0
   -0.7500    1.2990    0.0000 C   0  0  0  0  0  0  0  0  0  0  0  0
   -1.5000    2.5981    0.0000 O   0  0  0  0  0  0  0  0  0  0  0  0
   -1.5000    0.0000    0.0000 C   0  0  0  0  0  0  0  0  0  0  0  0
   -0.7500   -1.2990    0.0000 C   0  0  0  0  0  0  0  0  0  0  0  0
  1  2  1  0
  2  3  1  0
  3  4  1  0
  4  5  1  0
  5  6  1  0
  6  7  2  0
  6  8  1  0
  8  9  1  0
  9 10  2  0
 10 11  1  0
 11 12  2  0
 12 13  1  0
 13 14  2  0
  5 15  1  0
 15 16  2  0
 16 17  1  0
 17 18  2  0
 18 19  1  0
 18 20  1  0
 20 21  2  0
 21  2  1  0
 14  9  1  0
 21 15  1  0
M  END
>  <Title>  (723) 
idABAAgen7

$$$$

     RDKit          2D

 34 38  0  0  0  0  0  0  0  0999 V2000
    3.2286   -0.0000    0.0000 C   0  0  0  0  0  0  0  0  0  0  0  0
    1.7286    0.0000    0.0000 C   0  0  0  0  0  0  0  0  0  0  0  0
    1.0777    1.3515    0.0000 C   0  0  0  0  0  0  0  0  0  0  0  0
   -0.3846    1.6852    0.0000 C   0  0  0  0  0  0  0  0  0  0  0  0
   -1.5574    0.7500    0.0000 C   0  0  0  0  0  0  0  0  0  0  0  0
   -1.5574   -0.7500    0.0000 C   0  0  0  0  0  0  0  0  0  0  0  0
   -2.9088   -1.4008    0.0000 C   0  0  0  0  0  0  0  0  0  0  0  0
   -3.0209   -2.8966    0.0000 O   0  0  0  0  0  0  0  0  0  0  0  0
   -4.1482   -0.5558    0.0000 N   0  0  0  0  0  0  0  0  0  0  0  0
   -5.4997   -1.2067    0.0000 C   0  0  0  0  0  0  0  0  0  0  0  0
   -5.7675   -2.6826    0.0000 N   0  0  0  0  0  0  0  0  0  0  0  0
   -7.2539   -2.8839    0.0000 N   0  0  0  0  0  0  0  0  0  0  0  0
   -7.9047   -1.5325    0.0000 N   0  0  0  0  0  0  0  0  0  0  0  0
   -6.8205   -0.4959    0.0000 N   0  0  0  0  0  0  0  0  0  0  0  0
   -7.0219    0.9906    0.0000 C   0  0  0  0  0  0  0  0  0  0  0  0
   -5.8353    1.9081    0.0000 C   0  0  0  0  0  0  0  0  0  0  0  0
   -6.0366    3.3946    0.0000 C   0  0  0  0  0  0  0  0  0  0  0  0
   -7.4246    3.9634    0.0000 C   0  0  0  0  0  0  0  0  0  0  0  0
   -8.6112    3.0458    0.0000 C   0  0  0  0  0  0  0  0  0  0  0  0
   -8.4099    1.5594    0.0000 C   0  0  0  0  0  0  0  0  0  0  0  0
   -9.5965    0.6418    0.0000 C   0  0  0  0  0  0  0  0  0  0  0  0
   -9.3951   -0.8446    0.0000 C   0  0  0  0  0  0  0  0  0  0  0  0
  -10.5817   -1.7622    0.0000 C   0  0  0  0  0  0  0  0  0  0  0  0
  -11.9697   -1.1934    0.0000 C   0  0  0  0  0  0  0  0  0  0  0  0
  -12.1710    0.2931    0.0000 C   0  0  0  0  0  0  0  0  0  0  0  0
  -10.9844    1.2106    0.0000 C   0  0  0  0  0  0  0  0  0  0  0  0
  -11.1858    2.6971    0.0000 C   0  0  0  0  0  0  0  0  0  0  0  0
  -12.5737    3.2659    0.0000 C   0  0  0  0  0  0  0  0  0  0  0  0
  -12.7751    4.7523    0.0000 C   0  0  0  0  0  0  0  0  0  0  0  0
  -11.5885    5.6699    0.0000 C   0  0  0  0  0  0  0  0  0  0  0  0
  -10.2005    5.1011    0.0000 C   0  0  0  0  0  0  0  0  0  0  0  0
   -9.9992    3.6147    0.0000 C   0  0  0  0  0  0  0  0  0  0  0  0
   -0.3846   -1.6852    0.0000 C   0  0  0  0  0  0  0  0  0  0  0  0
    1.0777   -1.3515    0.0000 C   0  0  0  0  0  0  0  0  0  0  0  0
  1  2  1  0
  2  3  1  0
  3  4  2  0
  4  5  1  0
  5  6  2  0
  6  7  1  0
  7  8  2  0
  7  9  1  0
  9 10  1  0
 10 11  2  0
 11 12  1  0
 12 13  2  0
 13 14  1  0
 14 15  1  0
 15 16  2  0
 16 17  1  0
 17 18  2  0
 18 19  1  0
 19 20  2  0
 20 21  1  0
 21 22  2  0
 22 23  1  0
 23 24  2  0
 24 25  1  0
 25 26  2  0
 26 27  1  0
 27 28  2  0
 28 29  1  0
 29 30  2  0
 30 31  1  0
 31 32  2  0
  6 33  1  0
 33 34  1  0
 34  2  1  0
 14 10  1  0
 20 15  1  0
 26 21  1  0
 32 27  1  0
M  END
>  <Title>  (724) 
idABABgen7

$$$$

     RDKit          2D

 17 17  0  0  0  0  0  0  0  0999 V2000
    5.3444    0.0000    0.0000 C   0  0  0  0  0  0  0  0  0  0  0  0
    3.8444    0.0000    0.0000 C   0  0  0  0  0  0  0  0  0  0  0  0
    3.5517   -1.4712    0.0000 C   0  0  0  0  0  0  0  0  0  0  0  0
    2.7184   -2.7184    0.0000 C   0  0  0  0  0  0  0  0  0  0  0  0
    1.4712   -3.5517    0.0000 C   0  0  0  0  0  0  0  0  0  0  0  0
   -0.0000   -3.8444    0.0000 C   0  0  0  0  0  0  0  0  0  0  0  0
   -1.4712   -3.5517    0.0000 C   0  0  0  0  0  0  0  0  0  0  0  0
   -2.7184   -2.7184    0.0000 C   0  0  0  0  0  0  0  0  0  0  0  0
   -3.5517   -1.4712    0.0000 C   0  0  0  0  0  0  0  0  0  0  0  0
   -3.8444    0.0000    0.0000 C   0  0  0  0  0  0  0  0  0  0  0  0
   -3.5517    1.4712    0.0000 C   0  0  0  0  0  0  0  0  0  0  0  0
   -2.7184    2.7184    0.0000 C   0  0  0  0  0  0  0  0  0  0  0  0
   -1.4712    3.5517    0.0000 C   0  0  0  0  0  0  0  0  0  0  0  0
    0.0000    3.8444    0.0000 C   0  0  0  0  0  0  0  0  0  0  0  0
    1.4712    3.5517    0.0000 C   0  0  0  0  0  0  0  0  0  0  0  0
    2.7184    2.7184    0.0000 C   0  0  0  0  0  0  0  0  0  0  0  0
    3.5517    1.4712    0.0000 C   0  0  0  0  0  0  0  0  0  0  0  0
  1  2  1  0
  2  3  2  0
  3  4  1  0
  4  5  1  0
  5  6  2  0
  6  7  1  0
  7  8  2  0
  8  9  1  0
  9 10  2  0
 10 11  1  0
 11 12  2  0
 12 13  1  0
 13 14  2  0
 14 15  1  0
 15 16  2  0
 16 17  1  0
 17  2  1  0
M  END
>  <Title>  (725) 
idABACgen7

$$$$

     RDKit          2D

 20 20  0  0  0  0  0  0  0  0999 V2000
    6.0567    0.0000    0.0000 C   0  0  0  0  0  0  0  0  0  0  0  0
    4.5567    0.0000    0.0000 C   0  0  0  0  0  0  0  0  0  0  0  0
    4.3098    1.4795    0.0000 C   0  0  0  0  0  0  0  0  0  0  0  0
    3.5958    2.7988    0.0000 C   0  0  0  0  0  0  0  0  0  0  0  0
    2.4923    3.8147    0.0000 C   0  0  0  0  0  0  0  0  0  0  0  0
    1.1186    4.4172    0.0000 C   0  0  0  0  0  0  0  0  0  0  0  0
   -0.3763    4.5411    0.0000 C   0  0  0  0  0  0  0  0  0  0  0  0
   -1.8304    4.1729    0.0000 C   0  0  0  0  0  0  0  0  0  0  0  0
   -3.0861    3.3524    0.0000 C   0  0  0  0  0  0  0  0  0  0  0  0
   -4.0075    2.1687    0.0000 C   0  0  0  0  0  0  0  0  0  0  0  0
   -4.4945    0.7500    0.0000 C   0  0  0  0  0  0  0  0  0  0  0  0
   -4.4945   -0.7500    0.0000 C   0  0  0  0  0  0  0  0  0  0  0  0
   -4.0075   -2.1687    0.0000 C   0  0  0  0  0  0  0  0  0  0  0  0
   -3.0861   -3.3524    0.0000 C   0  0  0  0  0  0  0  0  0  0  0  0
   -1.8304   -4.1729    0.0000 C   0  0  0  0  0  0  0  0  0  0  0  0
   -0.3763   -4.5411    0.0000 C   0  0  0  0  0  0  0  0  0  0  0  0
    1.1186   -4.4172    0.0000 C   0  0  0  0  0  0  0  0  0  0  0  0
    2.4923   -3.8147    0.0000 C   0  0  0  0  0  0  0  0  0  0  0  0
    3.5958   -2.7988    0.0000 C   0  0  0  0  0  0  0  0  0  0  0  0
    4.3098   -1.4795    0.0000 C   0  0  0  0  0  0  0  0  0  0  0  0
  1  2  1  0
  2  3  1  0
  3  4  1  0
  4  5  2  0
  5  6  1  0
  6  7  2  0
  7  8  1  0
  8  9  1  0
  9 10  1  0
 10 11  1  0
 11 12  1  0
 12 13  1  0
 13 14  1  0
 14 15  1  0
 15 16  1  0
 16 17  1  0
 17 18  1  0
 18 19  1  0
 19 20  1  0
 20  2  1  0
M  END
>  <Title>  (726) 
idABADgen7

$$$$

     RDKit          2D

 43 43  0  0  0  0  0  0  0  0999 V2000
   11.5361    0.0000    0.0000 C   0  0  0  0  0  0  0  0  0  0  0  0
   10.0361    0.0000    0.0000 C   0  0  0  0  0  0  0  0  0  0  0  0
    9.9240   -1.4958    0.0000 C   0  0  0  0  0  0  0  0  0  0  0  0
    9.5902   -2.9582    0.0000 C   0  0  0  0  0  0  0  0  0  0  0  0
    9.0422   -4.3545    0.0000 C   0  0  0  0  0  0  0  0  0  0  0  0
    8.2922   -5.6535    0.0000 C   0  0  0  0  0  0  0  0  0  0  0  0
    7.3570   -6.8263    0.0000 C   0  0  0  0  0  0  0  0  0  0  0  0
    6.2574   -7.8466    0.0000 C   0  0  0  0  0  0  0  0  0  0  0  0
    5.0181   -8.6915    0.0000 C   0  0  0  0  0  0  0  0  0  0  0  0
    3.6666   -9.3424    0.0000 C   0  0  0  0  0  0  0  0  0  0  0  0
    2.2332   -9.7845    0.0000 C   0  0  0  0  0  0  0  0  0  0  0  0
    0.7500  -10.0081    0.0000 C   0  0  0  0  0  0  0  0  0  0  0  0
   -0.7500  -10.0081    0.0000 C   0  0  0  0  0  0  0  0  0  0  0  0
   -2.2332   -9.7845    0.0000 C   0  0  0  0  0  0  0  0  0  0  0  0
   -3.6666   -9.3424    0.0000 C   0  0  0  0  0  0  0  0  0  0  0  0
   -5.0181   -8.6915    0.0000 C   0  0  0  0  0  0  0  0  0  0  0  0
   -6.2574   -7.8466    0.0000 C   0  0  0  0  0  0  0  0  0  0  0  0
   -7.3570   -6.8263    0.0000 C   0  0  0  0  0  0  0  0  0  0  0  0
   -8.2922   -5.6535    0.0000 C   0  0  0  0  0  0  0  0  0  0  0  0
   -9.0422   -4.3545    0.0000 C   0  0  0  0  0  0  0  0  0  0  0  0
   -9.5902   -2.9582    0.0000 C   0  0  0  0  0  0  0  0  0  0  0  0
   -9.9240   -1.4958    0.0000 C   0  0  0  0  0  0  0  0  0  0  0  0
  -10.0361    0.0000    0.0000 C   0  0  0  0  0  0  0  0  0  0  0  0
   -9.9240    1.4958    0.0000 C   0  0  0  0  0  0  0  0  0  0  0  0
   -9.5902    2.9582    0.0000 C   0  0  0  0  0  0  0  0  0  0  0  0
   -9.0422    4.3545    0.0000 C   0  0  0  0  0  0  0  0  0  0  0  0
   -8.2922    5.6535    0.0000 C   0  0  0  0  0  0  0  0  0  0  0  0
   -7.3570    6.8263    0.0000 C   0  0  0  0  0  0  0  0  0  0  0  0
   -6.2574    7.8466    0.0000 C   0  0  0  0  0  0  0  0  0  0  0  0
   -5.0181    8.6915    0.0000 C   0  0  0  0  0  0  0  0  0  0  0  0
   -3.6666    9.3424    0.0000 C   0  0  0  0  0  0  0  0  0  0  0  0
   -2.2332    9.7845    0.0000 C   0  0  0  0  0  0  0  0  0  0  0  0
   -0.7500   10.0081    0.0000 C   0  0  0  0  0  0  0  0  0  0  0  0
    0.7500   10.0081    0.0000 C   0  0  0  0  0  0  0  0  0  0  0  0
    2.2332    9.7845    0.0000 C   0  0  0  0  0  0  0  0  0  0  0  0
    3.6666    9.3424    0.0000 C   0  0  0  0  0  0  0  0  0  0  0  0
    5.0181    8.6915    0.0000 C   0  0  0  0  0  0  0  0  0  0  0  0
    6.2574    7.8466    0.0000 C   0  0  0  0  0  0  0  0  0  0  0  0
    7.3570    6.8263    0.0000 C   0  0  0  0  0  0  0  0  0  0  0  0
    8.2922    5.6535    0.0000 C   0  0  0  0  0  0  0  0  0  0  0  0
    9.0422    4.3545    0.0000 C   0  0  0  0  0  0  0  0  0  0  0  0
    9.5902    2.9582    0.0000 C   0  0  0  0  0  0  0  0  0  0  0  0
    9.9240    1.4958    0.0000 C   0  0  0  0  0  0  0  0  0  0  0  0
  1  2  1  0
  2  3  2  0
  3  4  1  0
  4  5  1  0
  5  6  2  0
  6  7  1  0
  7  8  1  0
  8  9  1  0
  9 10  1  0
 10 11  1  0
 11 12  1  0
 12 13  1  0
 13 14  1  0
 14 15  1  0
 15 16  1  0
 16 17  1  0
 17 18  1  0
 18 19  1  0
 19 20  1  0
 20 21  1  0
 21 22  1  0
 22 23  1  0
 23 24  2  0
 24 25  1  0
 25 26  2  0
 26 27  1  0
 27 28  2  0
 28 29  1  0
 29 30  2  0
 30 31  1  0
 31 32  1  0
 32 33  1  0
 33 34  2  0
 34 35  1  0
 35 36  2  0
 36 37  1  0
 37 38  2  0
 38 39  1  0
 39 40  2  0
 40 41  1  0
 41 42  2  0
 42 43  1  0
 43  2  1  0
M  END
>  <Title>  (727) 
idABAEgen7

$$$$

     RDKit          2D

  7  6  0  0  0  0  0  0  0  0999 V2000
    0.0000    0.0000    0.0000 C   0  0  0  0  0  0  0  0  0  0  0  0
    1.2990    0.7500    0.0000 C   0  0  0  0  0  0  0  0  0  0  0  0
    2.5981   -0.0000    0.0000 C   0  0  0  0  0  0  0  0  0  0  0  0
    3.8971    0.7500    0.0000 C   0  0  0  0  0  0  0  0  0  0  0  0
    5.1962    1.5000    0.0000 C   0  0  0  0  0  0  0  0  0  0  0  0
    6.4952    2.2500    0.0000 C   0  0  0  0  0  0  0  0  0  0  0  0
    7.7942    1.5000    0.0000 C   0  0  0  0  0  0  0  0  0  0  0  0
  1  2  1  0
  2  3  2  3
  3  4  1  0
  4  5  3  0
  5  6  1  0
  6  7  1  0
M  END
>  <Title>  (728) 
idABAFgen7

$$$$

     RDKit          2D

  9  9  0  0  0  0  0  0  0  0999 V2000
    6.5260   -1.2990    0.0000 O   0  0  0  0  0  0  0  0  0  0  0  0
    5.7760   -0.0000    0.0000 C   0  0  0  0  0  0  0  0  0  0  0  0
    4.2760   -0.0000    0.0000 C   0  0  0  0  0  0  0  0  0  0  0  0
    2.7760    0.0000    0.0000 C   0  0  0  0  0  0  0  0  0  0  0  0
    1.2760    0.0000    0.0000 C   0  0  0  0  0  0  0  0  0  0  0  0
    0.3943    1.2135    0.0000 C   0  0  0  0  0  0  0  0  0  0  0  0
   -1.0323    0.7500    0.0000 C   0  0  0  0  0  0  0  0  0  0  0  0
   -1.0323   -0.7500    0.0000 C   0  0  0  0  0  0  0  0  0  0  0  0
    0.3943   -1.2135    0.0000 C   0  0  0  0  0  0  0  0  0  0  0  0
  1  2  1  0
  2  3  1  0
  3  4  3  0
  4  5  1  0
  5  6  1  0
  6  7  1  0
  7  8  2  0
  8  9  1  0
  9  5  1  0
M  END
>  <Title>  (729) 
idABAGgen7

$$$$

     RDKit          2D

 17 18  0  0  0  0  0  0  0  0999 V2000
    3.2286   -0.0000    0.0000 C   0  0  0  0  0  0  0  0  0  0  0  0
    1.7286    0.0000    0.0000 C   0  0  0  0  0  0  0  0  0  0  0  0
    1.0777    1.3515    0.0000 C   0  0  0  0  0  0  0  0  0  0  0  0
   -0.3846    1.6852    0.0000 C   0  0  0  0  0  0  0  0  0  0  0  0
   -1.5574    0.7500    0.0000 C   0  0  0  0  0  0  0  0  0  0  0  0
   -1.5574   -0.7500    0.0000 C   0  0  0  0  0  0  0  0  0  0  0  0
   -0.3846   -1.6852    0.0000 C   0  0  0  0  0  0  0  0  0  0  0  0
   -0.7184   -3.1476    0.0000 C   0  0  0  0  0  0  0  0  0  0  0  0
    0.3812   -4.1679    0.0000 O   0  0  0  0  0  0  0  0  0  0  0  0
   -2.1518   -3.5898    0.0000 N   0  0  0  0  0  0  0  0  0  0  0  0
   -2.4856   -5.0522    0.0000 C   0  0  0  0  0  0  0  0  0  0  0  0
   -3.9189   -5.4943    0.0000 C   0  0  0  0  0  0  0  0  0  0  0  0
   -4.2527   -6.9567    0.0000 C   0  0  0  0  0  0  0  0  0  0  0  0
   -3.1531   -7.9769    0.0000 C   0  0  0  0  0  0  0  0  0  0  0  0
   -1.7198   -7.5348    0.0000 C   0  0  0  0  0  0  0  0  0  0  0  0
   -1.3860   -6.0724    0.0000 C   0  0  0  0  0  0  0  0  0  0  0  0
    1.0777   -1.3515    0.0000 C   0  0  0  0  0  0  0  0  0  0  0  0
  1  2  1  0
  2  3  2  0
  3  4  1  0
  4  5  1  0
  5  6  1  0
  6  7  1  0
  7  8  1  0
  8  9  2  0
  8 10  1  0
 10 11  1  0
 11 12  2  0
 12 13  1  0
 13 14  2  0
 14 15  1  0
 15 16  2  0
  7 17  1  0
 17  2  1  0
 16 11  1  0
M  END
>  <Title>  (730) 
idABAHgen7

$$$$

     RDKit          2D

 10  9  0  0  0  0  0  0  0  0999 V2000
   -0.0000   -1.5000    0.0000 N   0  0  0  0  0  0  0  0  0  0  0  0
    0.0000    0.0000    0.0000 C   0  0  0  0  0  0  0  0  0  0  0  0
    0.0000    1.5000    0.0000 C   0  0  0  0  0  0  0  0  0  0  0  0
    0.0000    3.0000    0.0000 C   0  0  0  0  0  0  0  0  0  0  0  0
    0.0000    4.5000    0.0000 C   0  0  0  0  0  0  0  0  0  0  0  0
    0.0000    6.0000    0.0000 C   0  0  0  0  0  0  0  0  0  0  0  0
    0.0000    7.5000    0.0000 C   0  0  0  0  0  0  0  0  0  0  0  0
    0.0000    9.0000    0.0000 C   0  0  0  0  0  0  0  0  0  0  0  0
    0.0000   10.5000    0.0000 C   0  0  0  0  0  0  0  0  0  0  0  0
    1.2990   11.2500    0.0000 N   0  0  0  0  0  0  0  0  0  0  0  0
  1  2  3  0
  2  3  1  0
  3  4  3  0
  4  5  1  0
  5  6  3  0
  6  7  1  0
  7  8  3  0
  8  9  1  0
  9 10  1  0
M  END
>  <Title>  (731) 
idABAIgen7

$$$$

     RDKit          2D

 23 25  0  0  0  0  0  0  0  0999 V2000
    0.8857    4.8650    0.0000 C   0  0  0  0  0  0  0  0  0  0  0  0
   -0.0495    3.6922    0.0000 C   0  0  0  0  0  0  0  0  0  0  0  0
    0.6013    2.3408    0.0000 C   0  0  0  0  0  0  0  0  0  0  0  0
   -0.0495    0.9893    0.0000 C   0  0  0  0  0  0  0  0  0  0  0  0
   -1.5119    0.6556    0.0000 C   0  0  0  0  0  0  0  0  0  0  0  0
   -2.6847    1.5908    0.0000 C   0  0  0  0  0  0  0  0  0  0  0  0
   -4.0361    0.9400    0.0000 C   0  0  0  0  0  0  0  0  0  0  0  0
   -5.2755    1.7849    0.0000 O   0  0  0  0  0  0  0  0  0  0  0  0
   -4.1482   -0.5558    0.0000 N   0  0  0  0  0  0  0  0  0  0  0  0
   -5.4997   -1.2067    0.0000 C   0  0  0  0  0  0  0  0  0  0  0  0
   -6.7390   -0.3617    0.0000 N   0  0  0  0  0  0  0  0  0  0  0  0
   -8.0905   -1.0125    0.0000 N   0  0  0  0  0  0  0  0  0  0  0  0
   -8.2026   -2.5083    0.0000 N   0  0  0  0  0  0  0  0  0  0  0  0
   -6.9632   -3.3533    0.0000 N   0  0  0  0  0  0  0  0  0  0  0  0
   -5.6118   -2.7025    0.0000 C   0  0  0  0  0  0  0  0  0  0  0  0
   -4.3724   -3.5475    0.0000 C   0  0  0  0  0  0  0  0  0  0  0  0
   -4.4845   -5.0433    0.0000 C   0  0  0  0  0  0  0  0  0  0  0  0
   -3.2451   -5.8882    0.0000 C   0  0  0  0  0  0  0  0  0  0  0  0
   -1.8937   -5.2374    0.0000 C   0  0  0  0  0  0  0  0  0  0  0  0
   -1.7816   -3.7416    0.0000 C   0  0  0  0  0  0  0  0  0  0  0  0
   -3.0209   -2.8966    0.0000 C   0  0  0  0  0  0  0  0  0  0  0  0
   -2.6847    3.0908    0.0000 C   0  0  0  0  0  0  0  0  0  0  0  0
   -1.5119    4.0260    0.0000 C   0  0  0  0  0  0  0  0  0  0  0  0
  1  2  1  0
  2  3  1  0
  3  4  2  0
  4  5  1  0
  5  6  2  0
  6  7  1  0
  7  8  2  0
  7  9  1  0
  9 10  1  0
 10 11  2  0
 11 12  1  0
 12 13  2  0
 13 14  1  0
 14 15  2  0
 15 16  1  0
 16 17  2  0
 17 18  1  0
 18 19  2  0
 19 20  1  0
 20 21  2  0
  6 22  1  0
 22 23  1  0
 23  2  1  0
 15 10  1  0
 21 16  1  0
M  END
>  <Title>  (732) 
idABAJgen7

$$$$

     RDKit          2D

 29 29  0  0  0  0  0  0  0  0999 V2000
    7.9603    0.0000    0.0000 C   0  0  0  0  0  0  0  0  0  0  0  0
    6.4603    0.0000    0.0000 C   0  0  0  0  0  0  0  0  0  0  0  0
    6.2862    1.4899    0.0000 C   0  0  0  0  0  0  0  0  0  0  0  0
    5.7732    2.8994    0.0000 C   0  0  0  0  0  0  0  0  0  0  0  0
    4.9489    4.1526    0.0000 C   0  0  0  0  0  0  0  0  0  0  0  0
    3.8578    5.1820    0.0000 C   0  0  0  0  0  0  0  0  0  0  0  0
    2.5588    5.9320    0.0000 C   0  0  0  0  0  0  0  0  0  0  0  0
    1.1218    6.3622    0.0000 C   0  0  0  0  0  0  0  0  0  0  0  0
   -0.3756    6.4494    0.0000 C   0  0  0  0  0  0  0  0  0  0  0  0
   -1.8528    6.1889    0.0000 C   0  0  0  0  0  0  0  0  0  0  0  0
   -3.2302    5.5948    0.0000 C   0  0  0  0  0  0  0  0  0  0  0  0
   -4.4334    4.6991    0.0000 C   0  0  0  0  0  0  0  0  0  0  0  0
   -5.3975    3.5500    0.0000 C   0  0  0  0  0  0  0  0  0  0  0  0
   -6.0707    2.2096    0.0000 C   0  0  0  0  0  0  0  0  0  0  0  0
   -6.4167    0.7500    0.0000 C   0  0  0  0  0  0  0  0  0  0  0  0
   -6.4167   -0.7500    0.0000 C   0  0  0  0  0  0  0  0  0  0  0  0
   -6.0707   -2.2096    0.0000 C   0  0  0  0  0  0  0  0  0  0  0  0
   -5.3975   -3.5500    0.0000 C   0  0  0  0  0  0  0  0  0  0  0  0
   -4.4334   -4.6991    0.0000 C   0  0  0  0  0  0  0  0  0  0  0  0
   -3.2302   -5.5948    0.0000 C   0  0  0  0  0  0  0  0  0  0  0  0
   -1.8528   -6.1889    0.0000 C   0  0  0  0  0  0  0  0  0  0  0  0
   -0.3756   -6.4494    0.0000 C   0  0  0  0  0  0  0  0  0  0  0  0
    1.1218   -6.3622    0.0000 C   0  0  0  0  0  0  0  0  0  0  0  0
    2.5588   -5.9320    0.0000 C   0  0  0  0  0  0  0  0  0  0  0  0
    3.8578   -5.1820    0.0000 C   0  0  0  0  0  0  0  0  0  0  0  0
    4.9489   -4.1526    0.0000 C   0  0  0  0  0  0  0  0  0  0  0  0
    6.0980   -5.1168    0.0000 N   0  0  0  0  0  0  0  0  0  0  0  0
    5.7732   -2.8994    0.0000 C   0  0  0  0  0  0  0  0  0  0  0  0
    6.2862   -1.4899    0.0000 C   0  0  0  0  0  0  0  0  0  0  0  0
  1  2  1  0
  2  3  1  0
  3  4  1  0
  4  5  1  0
  5  6  1  0
  6  7  1  0
  7  8  1  0
  8  9  1  0
  9 10  1  0
 10 11  1  0
 11 12  1  0
 12 13  1  0
 13 14  1  0
 14 15  1  0
 15 16  1  0
 16 17  1  0
 17 18  1  0
 18 19  1  0
 19 20  1  0
 20 21  1  0
 21 22  1  0
 22 23  1  0
 23 24  1  0
 24 25  1  0
 25 26  1  0
 26 27  1  0
 26 28  1  0
 28 29  1  0
 29  2  1  0
M  END
>  <Title>  (733) 
idABAKgen7

$$$$

     RDKit          2D

 15 16  0  0  0  0  0  0  0  0999 V2000
    1.8478   -9.0619    0.0000 C   0  0  0  0  0  0  0  0  0  0  0  0
    2.0046   -7.5702    0.0000 C   0  0  0  0  0  0  0  0  0  0  0  0
    3.3037   -6.8202    0.0000 C   0  0  0  0  0  0  0  0  0  0  0  0
    2.9918   -5.3529    0.0000 C   0  0  0  0  0  0  0  0  0  0  0  0
    1.5000   -5.1962    0.0000 C   0  0  0  0  0  0  0  0  0  0  0  0
    0.7500   -3.8971    0.0000 C   0  0  0  0  0  0  0  0  0  0  0  0
   -0.7500   -3.8971    0.0000 O   0  0  0  0  0  0  0  0  0  0  0  0
    1.5000   -2.5981    0.0000 N   0  0  0  0  0  0  0  0  0  0  0  0
    0.7500   -1.2990    0.0000 C   0  0  0  0  0  0  0  0  0  0  0  0
    1.5000    0.0000    0.0000 C   0  0  0  0  0  0  0  0  0  0  0  0
    0.7500    1.2990    0.0000 N   0  0  0  0  0  0  0  0  0  0  0  0
   -0.7500    1.2990    0.0000 N   0  0  0  0  0  0  0  0  0  0  0  0
   -1.5000    0.0000    0.0000 N   0  0  0  0  0  0  0  0  0  0  0  0
   -0.7500   -1.2990    0.0000 N   0  0  0  0  0  0  0  0  0  0  0  0
    0.8899   -6.5665    0.0000 C   0  0  0  0  0  0  0  0  0  0  0  0
  1  2  1  0
  2  3  1  0
  3  4  1  0
  4  5  1  0
  5  6  1  0
  6  7  2  0
  6  8  1  0
  8  9  1  0
  9 10  2  0
 10 11  1  0
 11 12  2  0
 12 13  1  0
 13 14  2  0
  5 15  1  0
 15  2  1  0
 14  9  1  0
M  END
>  <Title>  (734) 
idABALgen7

$$$$

     RDKit          2D

  8  8  0  0  0  0  0  0  0  0999 V2000
    3.2286   -0.0000    0.0000 C   0  0  0  0  0  0  0  0  0  0  0  0
    1.7286    0.0000    0.0000 C   0  0  0  0  0  0  0  0  0  0  0  0
    1.0777    1.3515    0.0000 C   0  0  0  0  0  0  0  0  0  0  0  0
   -0.3846    1.6852    0.0000 S   0  0  0  0  0  0  0  0  0  0  0  0
   -1.5574    0.7500    0.0000 C   0  0  0  0  0  0  0  0  0  0  0  0
   -1.5574   -0.7500    0.0000 C   0  0  0  0  0  0  0  0  0  0  0  0
   -0.3846   -1.6852    0.0000 C   0  0  0  0  0  0  0  0  0  0  0  0
    1.0777   -1.3515    0.0000 C   0  0  0  0  0  0  0  0  0  0  0  0
  1  2  1  0
  2  3  2  0
  3  4  1  0
  4  5  1  0
  5  6  1  0
  6  7  1  0
  7  8  1  0
  8  2  1  0
M  END
>  <Title>  (735) 
idABAMgen7

$$$$

     RDKit          2D

  6  6  0  0  0  0  0  0  0  0999 V2000
    2.7760    0.0000    0.0000 O   0  0  0  0  0  0  0  0  0  0  0  0
    1.2760    0.0000    0.0000 C   0  0  0  0  0  0  0  0  0  0  0  0
    0.3943    1.2135    0.0000 C   0  0  0  0  0  0  0  0  0  0  0  0
   -1.0323    0.7500    0.0000 C   0  0  0  0  0  0  0  0  0  0  0  0
   -1.0323   -0.7500    0.0000 C   0  0  0  0  0  0  0  0  0  0  0  0
    0.3943   -1.2135    0.0000 C   0  0  0  0  0  0  0  0  0  0  0  0
  1  2  2  0
  2  3  1  0
  3  4  1  0
  4  5  1  0
  5  6  1  0
  6  2  1  0
M  END
>  <Title>  (736) 
idABANgen7

$$$$

     RDKit          2D

 26 29  0  0  0  0  0  0  0  0999 V2000
   -1.3240   -6.3062    0.0000 C   0  0  0  0  0  0  0  0  0  0  0  0
   -0.7500   -4.9204    0.0000 C   0  0  0  0  0  0  0  0  0  0  0  0
    0.7500   -4.9204    0.0000 C   0  0  0  0  0  0  0  0  0  0  0  0
    1.8107   -3.8597    0.0000 C   0  0  0  0  0  0  0  0  0  0  0  0
    1.8107   -2.3597    0.0000 C   0  0  0  0  0  0  0  0  0  0  0  0
    3.1965   -1.7857    0.0000 C   0  0  0  0  0  0  0  0  0  0  0  0
    3.3923   -0.2985    0.0000 O   0  0  0  0  0  0  0  0  0  0  0  0
    4.3865   -2.6988    0.0000 N   0  0  0  0  0  0  0  0  0  0  0  0
    5.7723   -2.1248    0.0000 C   0  0  0  0  0  0  0  0  0  0  0  0
    6.9624   -3.0379    0.0000 N   0  0  0  0  0  0  0  0  0  0  0  0
    8.3482   -2.4639    0.0000 N   0  0  0  0  0  0  0  0  0  0  0  0
    8.5440   -0.9767    0.0000 N   0  0  0  0  0  0  0  0  0  0  0  0
    7.3539   -0.0636    0.0000 N   0  0  0  0  0  0  0  0  0  0  0  0
    5.9681   -0.6376    0.0000 N   0  0  0  0  0  0  0  0  0  0  0  0
    0.7500   -1.2990    0.0000 C   0  0  0  0  0  0  0  0  0  0  0  0
    1.5000    0.0000    0.0000 C   0  0  0  0  0  0  0  0  0  0  0  0
    0.7500    1.2990    0.0000 C   0  0  0  0  0  0  0  0  0  0  0  0
   -0.7500    1.2990    0.0000 C   0  0  0  0  0  0  0  0  0  0  0  0
   -1.5000    0.0000    0.0000 C   0  0  0  0  0  0  0  0  0  0  0  0
   -0.7500   -1.2990    0.0000 C   0  0  0  0  0  0  0  0  0  0  0  0
   -1.8107   -2.3597    0.0000 C   0  0  0  0  0  0  0  0  0  0  0  0
   -3.1097   -1.6097    0.0000 C   0  0  0  0  0  0  0  0  0  0  0  0
   -4.4087   -2.3597    0.0000 C   0  0  0  0  0  0  0  0  0  0  0  0
   -4.4087   -3.8597    0.0000 C   0  0  0  0  0  0  0  0  0  0  0  0
   -3.1097   -4.6097    0.0000 C   0  0  0  0  0  0  0  0  0  0  0  0
   -1.8107   -3.8597    0.0000 C   0  0  0  0  0  0  0  0  0  0  0  0
  1  2  1  0
  2  3  1  0
  3  4  1  0
  4  5  1  0
  5  6  1  0
  6  7  2  0
  6  8  1  0
  8  9  1  0
  9 10  2  0
 10 11  1  0
 11 12  2  0
 12 13  1  0
 13 14  2  0
  5 15  1  0
 15 16  2  0
 16 17  1  0
 17 18  2  0
 18 19  1  0
 19 20  2  0
 20 21  1  0
 21 22  2  0
 22 23  1  0
 23 24  2  0
 24 25  1  0
 25 26  2  0
 26  2  1  0
 14  9  1  0
 20 15  1  0
 26 21  1  0
M  END
>  <Title>  (737) 
idABAOgen7

$$$$

     RDKit          2D

 97 97  0  0  0  0  0  0  0  0999 V2000
   25.6837    0.0000    0.0000 N   0  0  0  0  0  0  0  0  0  0  0  0
   24.1837    0.0000    0.0000 C   0  0  0  0  0  0  0  0  0  0  0  0
   22.6837    0.0000    0.0000 C   0  0  0  0  0  0  0  0  0  0  0  0
   22.6341    1.4992    0.0000 C   0  0  0  0  0  0  0  0  0  0  0  0
   22.4856    2.9918    0.0000 C   0  0  0  0  0  0  0  0  0  0  0  0
   22.2387    4.4713    0.0000 C   0  0  0  0  0  0  0  0  0  0  0  0
   21.8945    5.9313    0.0000 C   0  0  0  0  0  0  0  0  0  0  0  0
   21.4546    7.3654    0.0000 C   0  0  0  0  0  0  0  0  0  0  0  0
   20.9210    8.7672    0.0000 C   0  0  0  0  0  0  0  0  0  0  0  0
   20.2958   10.1307    0.0000 C   0  0  0  0  0  0  0  0  0  0  0  0
   19.5819   11.4500    0.0000 C   0  0  0  0  0  0  0  0  0  0  0  0
   18.7823   12.7191    0.0000 C   0  0  0  0  0  0  0  0  0  0  0  0
   17.9006   13.9326    0.0000 C   0  0  0  0  0  0  0  0  0  0  0  0
   16.9407   15.0852    0.0000 C   0  0  0  0  0  0  0  0  0  0  0  0
   15.9067   16.1719    0.0000 C   0  0  0  0  0  0  0  0  0  0  0  0
   14.8031   17.1878    0.0000 C   0  0  0  0  0  0  0  0  0  0  0  0
   13.6348   18.1286    0.0000 C   0  0  0  0  0  0  0  0  0  0  0  0
   12.4068   18.9900    0.0000 C   0  0  0  0  0  0  0  0  0  0  0  0
   11.1246   19.7685    0.0000 C   0  0  0  0  0  0  0  0  0  0  0  0
    9.7938   20.4605    0.0000 C   0  0  0  0  0  0  0  0  0  0  0  0
    8.4201   21.0631    0.0000 C   0  0  0  0  0  0  0  0  0  0  0  0
    7.0097   21.5735    0.0000 C   0  0  0  0  0  0  0  0  0  0  0  0
    5.5685   21.9896    0.0000 C   0  0  0  0  0  0  0  0  0  0  0  0
    4.1030   22.3095    0.0000 C   0  0  0  0  0  0  0  0  0  0  0  0
    2.6196   22.5319    0.0000 C   0  0  0  0  0  0  0  0  0  0  0  0
    1.1247   22.6558    0.0000 C   0  0  0  0  0  0  0  0  0  0  0  0
   -0.3751   22.6806    0.0000 C   0  0  0  0  0  0  0  0  0  0  0  0
   -1.8732   22.6062    0.0000 C   0  0  0  0  0  0  0  0  0  0  0  0
   -3.3632   22.4330    0.0000 C   0  0  0  0  0  0  0  0  0  0  0  0
   -4.8384   22.1617    0.0000 C   0  0  0  0  0  0  0  0  0  0  0  0
   -6.2925   21.7935    0.0000 C   0  0  0  0  0  0  0  0  0  0  0  0
   -7.7191   21.3299    0.0000 C   0  0  0  0  0  0  0  0  0  0  0  0
   -9.1119   20.7731    0.0000 C   0  0  0  0  0  0  0  0  0  0  0  0
  -10.4649   20.1255    0.0000 C   0  0  0  0  0  0  0  0  0  0  0  0
  -11.7722   19.3899    0.0000 C   0  0  0  0  0  0  0  0  0  0  0  0
  -13.0279   18.5695    0.0000 C   0  0  0  0  0  0  0  0  0  0  0  0
  -14.2267   17.6678    0.0000 C   0  0  0  0  0  0  0  0  0  0  0  0
  -15.3633   16.6890    0.0000 C   0  0  0  0  0  0  0  0  0  0  0  0
  -16.4327   15.6371    0.0000 C   0  0  0  0  0  0  0  0  0  0  0  0
  -17.4302   14.5169    0.0000 C   0  0  0  0  0  0  0  0  0  0  0  0
  -18.3515   13.3332    0.0000 C   0  0  0  0  0  0  0  0  0  0  0  0
  -19.1926   12.0911    0.0000 C   0  0  0  0  0  0  0  0  0  0  0  0
  -19.9497   10.7963    0.0000 C   0  0  0  0  0  0  0  0  0  0  0  0
  -20.6196    9.4542    0.0000 C   0  0  0  0  0  0  0  0  0  0  0  0
  -21.1994    8.0707    0.0000 C   0  0  0  0  0  0  0  0  0  0  0  0
  -21.6864    6.6520    0.0000 C   0  0  0  0  0  0  0  0  0  0  0  0
  -22.0787    5.2042    0.0000 C   0  0  0  0  0  0  0  0  0  0  0  0
  -22.3743    3.7336    0.0000 C   0  0  0  0  0  0  0  0  0  0  0  0
  -22.5722    2.2467    0.0000 C   0  0  0  0  0  0  0  0  0  0  0  0
  -22.6713    0.7500    0.0000 C   0  0  0  0  0  0  0  0  0  0  0  0
  -22.6713   -0.7500    0.0000 C   0  0  0  0  0  0  0  0  0  0  0  0
  -22.5722   -2.2467    0.0000 C   0  0  0  0  0  0  0  0  0  0  0  0
  -22.3743   -3.7336    0.0000 C   0  0  0  0  0  0  0  0  0  0  0  0
  -22.0787   -5.2042    0.0000 C   0  0  0  0  0  0  0  0  0  0  0  0
  -21.6864   -6.6520    0.0000 C   0  0  0  0  0  0  0  0  0  0  0  0
  -21.1994   -8.0707    0.0000 C   0  0  0  0  0  0  0  0  0  0  0  0
  -20.6196   -9.4542    0.0000 C   0  0  0  0  0  0  0  0  0  0  0  0
  -19.9497  -10.7963    0.0000 C   0  0  0  0  0  0  0  0  0  0  0  0
  -19.1926  -12.0911    0.0000 C   0  0  0  0  0  0  0  0  0  0  0  0
  -18.3515  -13.3332    0.0000 C   0  0  0  0  0  0  0  0  0  0  0  0
  -17.4302  -14.5169    0.0000 C   0  0  0  0  0  0  0  0  0  0  0  0
  -16.4327  -15.6371    0.0000 C   0  0  0  0  0  0  0  0  0  0  0  0
  -15.3633  -16.6890    0.0000 C   0  0  0  0  0  0  0  0  0  0  0  0
  -14.2267  -17.6678    0.0000 C   0  0  0  0  0  0  0  0  0  0  0  0
  -13.0279  -18.5695    0.0000 C   0  0  0  0  0  0  0  0  0  0  0  0
  -11.7722  -19.3899    0.0000 C   0  0  0  0  0  0  0  0  0  0  0  0
  -10.4649  -20.1255    0.0000 C   0  0  0  0  0  0  0  0  0  0  0  0
   -9.1119  -20.7731    0.0000 C   0  0  0  0  0  0  0  0  0  0  0  0
   -7.7191  -21.3299    0.0000 C   0  0  0  0  0  0  0  0  0  0  0  0
   -6.2925  -21.7935    0.0000 C   0  0  0  0  0  0  0  0  0  0  0  0
   -4.8384  -22.1617    0.0000 C   0  0  0  0  0  0  0  0  0  0  0  0
   -3.3632  -22.4330    0.0000 C   0  0  0  0  0  0  0  0  0  0  0  0
   -1.8732  -22.6062    0.0000 C   0  0  0  0  0  0  0  0  0  0  0  0
   -0.3751  -22.6806    0.0000 C   0  0  0  0  0  0  0  0  0  0  0  0
    1.1247  -22.6558    0.0000 C   0  0  0  0  0  0  0  0  0  0  0  0
    2.6196  -22.5319    0.0000 C   0  0  0  0  0  0  0  0  0  0  0  0
    4.1030  -22.3095    0.0000 C   0  0  0  0  0  0  0  0  0  0  0  0
    5.5685  -21.9896    0.0000 C   0  0  0  0  0  0  0  0  0  0  0  0
    7.0097  -21.5735    0.0000 C   0  0  0  0  0  0  0  0  0  0  0  0
    8.4201  -21.0631    0.0000 C   0  0  0  0  0  0  0  0  0  0  0  0
    9.7938  -20.4605    0.0000 C   0  0  0  0  0  0  0  0  0  0  0  0
   11.1246  -19.7685    0.0000 C   0  0  0  0  0  0  0  0  0  0  0  0
   12.4068  -18.9900    0.0000 C   0  0  0  0  0  0  0  0  0  0  0  0
   13.6348  -18.1286    0.0000 C   0  0  0  0  0  0  0  0  0  0  0  0
   14.8031  -17.1878    0.0000 C   0  0  0  0  0  0  0  0  0  0  0  0
   15.9067  -16.1719    0.0000 C   0  0  0  0  0  0  0  0  0  0  0  0
   16.9407  -15.0852    0.0000 C   0  0  0  0  0  0  0  0  0  0  0  0
   17.9006  -13.9326    0.0000 C   0  0  0  0  0  0  0  0  0  0  0  0
   18.7823  -12.7191    0.0000 C   0  0  0  0  0  0  0  0  0  0  0  0
   19.5819  -11.4500    0.0000 C   0  0  0  0  0  0  0  0  0  0  0  0
   20.2958  -10.1307    0.0000 C   0  0  0  0  0  0  0  0  0  0  0  0
   20.9210   -8.7672    0.0000 C   0  0  0  0  0  0  0  0  0  0  0  0
   21.4546   -7.3654    0.0000 C   0  0  0  0  0  0  0  0  0  0  0  0
   21.8945   -5.9313    0.0000 C   0  0  0  0  0  0  0  0  0  0  0  0
   22.2387   -4.4713    0.0000 C   0  0  0  0  0  0  0  0  0  0  0  0
   22.4856   -2.9918    0.0000 C   0  0  0  0  0  0  0  0  0  0  0  0
   22.6341   -1.4992    0.0000 C   0  0  0  0  0  0  0  0  0  0  0  0
  1  2  3  0
  2  3  1  0
  3  4  1  0
  4  5  1  0
  5  6  1  0
  6  7  1  0
  7  8  1  0
  8  9  1  0
  9 10  1  0
 10 11  1  0
 11 12  1  0
 12 13  1  0
 13 14  1  0
 14 15  1  0
 15 16  1  0
 16 17  1  0
 17 18  1  0
 18 19  1  0
 19 20  1  0
 20 21  1  0
 21 22  1  0
 22 23  1  0
 23 24  1  0
 24 25  1  0
 25 26  1  0
 26 27  1  0
 27 28  1  0
 28 29  1  0
 29 30  1  0
 30 31  1  0
 31 32  1  0
 32 33  1  0
 33 34  1  0
 34 35  1  0
 35 36  1  0
 36 37  1  0
 37 38  1  0
 38 39  1  0
 39 40  1  0
 40 41  1  0
 41 42  1  0
 42 43  1  0
 43 44  1  0
 44 45  1  0
 45 46  1  0
 46 47  2  0
 47 48  1  0
 48 49  1  0
 49 50  1  0
 50 51  1  0
 51 52  1  0
 52 53  1  0
 53 54  1  0
 54 55  1  0
 55 56  1  0
 56 57  1  0
 57 58  1  0
 58 59  1  0
 59 60  1  0
 60 61  1  0
 61 62  1  0
 62 63  1  0
 63 64  1  0
 64 65  1  0
 65 66  1  0
 66 67  1  0
 67 68  1  0
 68 69  1  0
 69 70  1  0
 70 71  1  0
 71 72  1  0
 72 73  1  0
 73 74  1  0
 74 75  1  0
 75 76  1  0
 76 77  1  0
 77 78  1  0
 78 79  1  0
 79 80  1  0
 80 81  1  0
 81 82  1  0
 82 83  1  0
 83 84  1  0
 84 85  1  0
 85 86  1  0
 86 87  1  0
 87 88  1  0
 88 89  1  0
 89 90  1  0
 90 91  1  0
 91 92  1  0
 92 93  1  0
 93 94  1  0
 94 95  1  0
 95 96  1  0
 96 97  1  0
 97  3  1  0
M  END
>  <Title>  (738) 
idABAPgen7

$$$$

     RDKit          2D

 66 66  0  0  0  0  0  0  0  0999 V2000
   17.0237    0.0000    0.0000 O   0  0  0  0  0  0  0  0  0  0  0  0
   15.5237    0.0000    0.0000 C   0  0  0  0  0  0  0  0  0  0  0  0
   15.4512    1.4982    0.0000 C   0  0  0  0  0  0  0  0  0  0  0  0
   15.2344    2.9825    0.0000 C   0  0  0  0  0  0  0  0  0  0  0  0
   14.8755    4.4389    0.0000 C   0  0  0  0  0  0  0  0  0  0  0  0
   14.3776    5.8539    0.0000 C   0  0  0  0  0  0  0  0  0  0  0  0
   13.7455    7.2142    0.0000 C   0  0  0  0  0  0  0  0  0  0  0  0
   12.9851    8.5072    0.0000 C   0  0  0  0  0  0  0  0  0  0  0  0
   12.1034    9.7207    0.0000 C   0  0  0  0  0  0  0  0  0  0  0  0
   11.1087   10.8434    0.0000 C   0  0  0  0  0  0  0  0  0  0  0  0
   10.0103   11.8650    0.0000 C   0  0  0  0  0  0  0  0  0  0  0  0
    8.8184   12.7757    0.0000 C   0  0  0  0  0  0  0  0  0  0  0  0
    7.5442   13.5672    0.0000 C   0  0  0  0  0  0  0  0  0  0  0  0
    6.1996   14.2320    0.0000 C   0  0  0  0  0  0  0  0  0  0  0  0
    4.7971   14.7639    0.0000 C   0  0  0  0  0  0  0  0  0  0  0  0
    3.3498   15.1579    0.0000 C   0  0  0  0  0  0  0  0  0  0  0  0
    1.8712   15.4105    0.0000 C   0  0  0  0  0  0  0  0  0  0  0  0
    0.3751   15.5191    0.0000 C   0  0  0  0  0  0  0  0  0  0  0  0
   -1.1245   15.4829    0.0000 C   0  0  0  0  0  0  0  0  0  0  0  0
   -2.6135   15.3021    0.0000 C   0  0  0  0  0  0  0  0  0  0  0  0
   -4.0782   14.9784    0.0000 C   0  0  0  0  0  0  0  0  0  0  0  0
   -5.5048   14.5149    0.0000 C   0  0  0  0  0  0  0  0  0  0  0  0
   -6.8800   13.9158    0.0000 C   0  0  0  0  0  0  0  0  0  0  0  0
   -8.1909   13.1868    0.0000 C   0  0  0  0  0  0  0  0  0  0  0  0
   -9.4254   12.3347    0.0000 C   0  0  0  0  0  0  0  0  0  0  0  0
  -10.5719   11.3675    0.0000 C   0  0  0  0  0  0  0  0  0  0  0  0
  -11.6196   10.2941    0.0000 C   0  0  0  0  0  0  0  0  0  0  0  0
  -12.5589    9.1246    0.0000 C   0  0  0  0  0  0  0  0  0  0  0  0
  -13.3809    7.8699    0.0000 C   0  0  0  0  0  0  0  0  0  0  0  0
  -14.0780    6.5417    0.0000 C   0  0  0  0  0  0  0  0  0  0  0  0
  -14.6436    5.1524    0.0000 C   0  0  0  0  0  0  0  0  0  0  0  0
  -15.0726    3.7151    0.0000 C   0  0  0  0  0  0  0  0  0  0  0  0
  -15.3608    2.2430    0.0000 C   0  0  0  0  0  0  0  0  0  0  0  0
  -15.5055    0.7500    0.0000 C   0  0  0  0  0  0  0  0  0  0  0  0
  -15.5055   -0.7500    0.0000 C   0  0  0  0  0  0  0  0  0  0  0  0
  -15.3608   -2.2430    0.0000 C   0  0  0  0  0  0  0  0  0  0  0  0
  -15.0726   -3.7151    0.0000 C   0  0  0  0  0  0  0  0  0  0  0  0
  -14.6436   -5.1524    0.0000 C   0  0  0  0  0  0  0  0  0  0  0  0
  -14.0780   -6.5417    0.0000 C   0  0  0  0  0  0  0  0  0  0  0  0
  -13.3809   -7.8699    0.0000 C   0  0  0  0  0  0  0  0  0  0  0  0
  -12.5589   -9.1246    0.0000 C   0  0  0  0  0  0  0  0  0  0  0  0
  -11.6196  -10.2941    0.0000 C   0  0  0  0  0  0  0  0  0  0  0  0
  -10.5719  -11.3675    0.0000 C   0  0  0  0  0  0  0  0  0  0  0  0
   -9.4254  -12.3347    0.0000 C   0  0  0  0  0  0  0  0  0  0  0  0
   -8.1909  -13.1868    0.0000 C   0  0  0  0  0  0  0  0  0  0  0  0
   -6.8800  -13.9158    0.0000 C   0  0  0  0  0  0  0  0  0  0  0  0
   -5.5048  -14.5149    0.0000 C   0  0  0  0  0  0  0  0  0  0  0  0
   -4.0782  -14.9784    0.0000 C   0  0  0  0  0  0  0  0  0  0  0  0
   -2.6135  -15.3021    0.0000 C   0  0  0  0  0  0  0  0  0  0  0  0
   -1.1245  -15.4829    0.0000 C   0  0  0  0  0  0  0  0  0  0  0  0
    0.3751  -15.5191    0.0000 C   0  0  0  0  0  0  0  0  0  0  0  0
    1.8712  -15.4105    0.0000 C   0  0  0  0  0  0  0  0  0  0  0  0
    3.3498  -15.1579    0.0000 C   0  0  0  0  0  0  0  0  0  0  0  0
    4.7971  -14.7639    0.0000 C   0  0  0  0  0  0  0  0  0  0  0  0
    6.1996  -14.2320    0.0000 C   0  0  0  0  0  0  0  0  0  0  0  0
    7.5442  -13.5672    0.0000 C   0  0  0  0  0  0  0  0  0  0  0  0
    8.8184  -12.7757    0.0000 C   0  0  0  0  0  0  0  0  0  0  0  0
   10.0103  -11.8650    0.0000 C   0  0  0  0  0  0  0  0  0  0  0  0
   11.1087  -10.8434    0.0000 C   0  0  0  0  0  0  0  0  0  0  0  0
   12.1034   -9.7207    0.0000 C   0  0  0  0  0  0  0  0  0  0  0  0
   12.9851   -8.5072    0.0000 C   0  0  0  0  0  0  0  0  0  0  0  0
   13.7455   -7.2142    0.0000 C   0  0  0  0  0  0  0  0  0  0  0  0
   14.3776   -5.8539    0.0000 C   0  0  0  0  0  0  0  0  0  0  0  0
   14.8755   -4.4389    0.0000 C   0  0  0  0  0  0  0  0  0  0  0  0
   15.2344   -2.9825    0.0000 C   0  0  0  0  0  0  0  0  0  0  0  0
   15.4512   -1.4982    0.0000 C   0  0  0  0  0  0  0  0  0  0  0  0
  1  2  1  0
  2  3  1  0
  3  4  1  0
  4  5  1  0
  5  6  1  0
  6  7  1  0
  7  8  1  0
  8  9  1  0
  9 10  1  0
 10 11  1  0
 11 12  1  0
 12 13  1  0
 13 14  1  0
 14 15  1  0
 15 16  1  0
 16 17  1  0
 17 18  1  0
 18 19  1  0
 19 20  1  0
 20 21  1  0
 21 22  1  0
 22 23  1  0
 23 24  1  0
 24 25  1  0
 25 26  1  0
 26 27  1  0
 27 28  1  0
 28 29  1  0
 29 30  1  0
 30 31  1  0
 31 32  1  0
 32 33  1  0
 33 34  1  0
 34 35  1  0
 35 36  1  0
 36 37  1  0
 37 38  1  0
 38 39  1  0
 39 40  1  0
 40 41  1  0
 41 42  1  0
 42 43  1  0
 43 44  1  0
 44 45  1  0
 45 46  1  0
 46 47  1  0
 47 48  1  0
 48 49  1  0
 49 50  1  0
 50 51  1  0
 51 52  1  0
 52 53  1  0
 53 54  1  0
 54 55  1  0
 55 56  1  0
 56 57  1  0
 57 58  1  0
 58 59  1  0
 59 60  1  0
 60 61  1  0
 61 62  1  0
 62 63  1  0
 63 64  1  0
 64 65  1  0
 65 66  1  0
 66  2  1  0
M  END
>  <Title>  (739) 
idABAQgen7

$$$$

     RDKit          2D

 58 60  0  0  0  0  0  0  0  0999 V2000
   -2.5536   -0.0468    0.0000 C   0  0  0  0  0  0  0  0  0  0  0  0
   -2.2347   -1.5125    0.0000 C   0  0  0  0  0  0  0  0  0  0  0  0
   -3.6740   -1.9351    0.0000 C   0  0  0  0  0  0  0  0  0  0  0  0
   -5.0384   -2.5582    0.0000 C   0  0  0  0  0  0  0  0  0  0  0  0
   -6.3003   -3.3692    0.0000 C   0  0  0  0  0  0  0  0  0  0  0  0
   -7.4339   -4.3515    0.0000 C   0  0  0  0  0  0  0  0  0  0  0  0
   -8.4162   -5.4851    0.0000 C   0  0  0  0  0  0  0  0  0  0  0  0
   -9.2272   -6.7470    0.0000 C   0  0  0  0  0  0  0  0  0  0  0  0
   -9.8503   -8.1114    0.0000 C   0  0  0  0  0  0  0  0  0  0  0  0
  -10.2729   -9.5507    0.0000 C   0  0  0  0  0  0  0  0  0  0  0  0
  -10.4864  -11.0354    0.0000 C   0  0  0  0  0  0  0  0  0  0  0  0
  -10.4864  -12.5354    0.0000 C   0  0  0  0  0  0  0  0  0  0  0  0
  -10.2729  -14.0201    0.0000 C   0  0  0  0  0  0  0  0  0  0  0  0
   -9.8503  -15.4594    0.0000 C   0  0  0  0  0  0  0  0  0  0  0  0
   -9.2272  -16.8238    0.0000 C   0  0  0  0  0  0  0  0  0  0  0  0
   -8.4162  -18.0857    0.0000 C   0  0  0  0  0  0  0  0  0  0  0  0
   -7.4339  -19.2193    0.0000 C   0  0  0  0  0  0  0  0  0  0  0  0
   -6.3003  -20.2016    0.0000 C   0  0  0  0  0  0  0  0  0  0  0  0
   -5.0384  -21.0126    0.0000 C   0  0  0  0  0  0  0  0  0  0  0  0
   -3.6740  -21.6357    0.0000 C   0  0  0  0  0  0  0  0  0  0  0  0
   -2.2347  -22.0583    0.0000 C   0  0  0  0  0  0  0  0  0  0  0  0
   -0.7500  -22.2718    0.0000 C   0  0  0  0  0  0  0  0  0  0  0  0
    0.7500  -22.2718    0.0000 C   0  0  0  0  0  0  0  0  0  0  0  0
    2.2347  -22.0583    0.0000 C   0  0  0  0  0  0  0  0  0  0  0  0
    3.6740  -21.6357    0.0000 C   0  0  0  0  0  0  0  0  0  0  0  0
    5.0384  -21.0126    0.0000 C   0  0  0  0  0  0  0  0  0  0  0  0
    6.3003  -20.2016    0.0000 C   0  0  0  0  0  0  0  0  0  0  0  0
    7.4339  -19.2193    0.0000 C   0  0  0  0  0  0  0  0  0  0  0  0
    8.4162  -18.0857    0.0000 C   0  0  0  0  0  0  0  0  0  0  0  0
    9.2272  -16.8238    0.0000 C   0  0  0  0  0  0  0  0  0  0  0  0
    9.8503  -15.4594    0.0000 C   0  0  0  0  0  0  0  0  0  0  0  0
   10.2729  -14.0201    0.0000 C   0  0  0  0  0  0  0  0  0  0  0  0
   10.4864  -12.5354    0.0000 C   0  0  0  0  0  0  0  0  0  0  0  0
   10.4864  -11.0354    0.0000 C   0  0  0  0  0  0  0  0  0  0  0  0
   10.2729   -9.5507    0.0000 C   0  0  0  0  0  0  0  0  0  0  0  0
    9.8503   -8.1114    0.0000 C   0  0  0  0  0  0  0  0  0  0  0  0
    9.2272   -6.7470    0.0000 C   0  0  0  0  0  0  0  0  0  0  0  0
    8.4162   -5.4851    0.0000 C   0  0  0  0  0  0  0  0  0  0  0  0
    7.4339   -4.3515    0.0000 C   0  0  0  0  0  0  0  0  0  0  0  0
    6.3003   -3.3692    0.0000 C   0  0  0  0  0  0  0  0  0  0  0  0
    5.0384   -2.5582    0.0000 C   0  0  0  0  0  0  0  0  0  0  0  0
    3.6740   -1.9351    0.0000 C   0  0  0  0  0  0  0  0  0  0  0  0
    2.2347   -1.5125    0.0000 C   0  0  0  0  0  0  0  0  0  0  0  0
    2.5536   -0.0468    0.0000 C   0  0  0  0  0  0  0  0  0  0  0  0
    1.7208    1.2008    0.0000 O   0  0  0  0  0  0  0  0  0  0  0  0
    3.9824    0.4099    0.0000 N   0  0  0  0  0  0  0  0  0  0  0  0
    4.3012    1.8757    0.0000 C   0  0  0  0  0  0  0  0  0  0  0  0
    5.7300    2.3324    0.0000 N   0  0  0  0  0  0  0  0  0  0  0  0
    6.0488    3.7981    0.0000 N   0  0  0  0  0  0  0  0  0  0  0  0
    4.9389    4.8071    0.0000 N   0  0  0  0  0  0  0  0  0  0  0  0
    3.5101    4.3504    0.0000 N   0  0  0  0  0  0  0  0  0  0  0  0
    3.1913    2.8847    0.0000 N   0  0  0  0  0  0  0  0  0  0  0  0
    0.7500   -1.2990    0.0000 C   0  0  0  0  0  0  0  0  0  0  0  0
    1.5000    0.0000    0.0000 C   0  0  0  0  0  0  0  0  0  0  0  0
    0.7500    1.2990    0.0000 C   0  0  0  0  0  0  0  0  0  0  0  0
   -0.7500    1.2990    0.0000 C   0  0  0  0  0  0  0  0  0  0  0  0
   -1.5000    0.0000    0.0000 C   0  0  0  0  0  0  0  0  0  0  0  0
   -0.7500   -1.2990    0.0000 C   0  0  0  0  0  0  0  0  0  0  0  0
  1  2  1  0
  2  3  1  0
  3  4  1  0
  4  5  1  0
  5  6  1  0
  6  7  1  0
  7  8  1  0
  8  9  1  0
  9 10  1  0
 10 11  1  0
 11 12  1  0
 12 13  1  0
 13 14  2  0
 14 15  1  0
 15 16  2  0
 16 17  1  0
 17 18  2  0
 18 19  1  0
 19 20  2  0
 20 21  1  0
 21 22  2  0
 22 23  1  0
 23 24  2  0
 24 25  1  0
 25 26  2  0
 26 27  1  0
 27 28  1  0
 28 29  1  0
 29 30  1  0
 30 31  1  0
 31 32  1  0
 32 33  1  0
 33 34  1  0
 34 35  2  0
 35 36  1  0
 36 37  2  0
 37 38  1  0
 38 39  2  0
 39 40  1  0
 40 41  2  0
 41 42  1  0
 42 43  2  0
 43 44  1  0
 44 45  2  0
 44 46  1  0
 46 47  1  0
 47 48  2  0
 48 49  1  0
 49 50  2  0
 50 51  1  0
 51 52  2  0
 43 53  1  0
 53 54  2  0
 54 55  1  0
 55 56  2  0
 56 57  1  0
 57 58  2  0
 58  2  1  0
 52 47  1  0
 58 53  1  0
M  END
>  <Title>  (740) 
idABARgen7

$$$$

     RDKit          2D

 10 10  0  0  0  0  0  0  0  0999 V2000
    3.7500   -1.2990    0.0000 C   0  0  0  0  0  0  0  0  0  0  0  0
    3.0000    0.0000    0.0000 C   0  0  0  0  0  0  0  0  0  0  0  0
    3.7500    1.2990    0.0000 O   0  0  0  0  0  0  0  0  0  0  0  0
    1.5000    0.0000    0.0000 C   0  0  0  0  0  0  0  0  0  0  0  0
    0.7500   -1.2990    0.0000 C   0  0  0  0  0  0  0  0  0  0  0  0
   -0.7500   -1.2990    0.0000 C   0  0  0  0  0  0  0  0  0  0  0  0
   -1.5000    0.0000    0.0000 C   0  0  0  0  0  0  0  0  0  0  0  0
   -3.0000    0.0000    0.0000 C   0  0  0  0  0  0  0  0  0  0  0  0
   -0.7500    1.2990    0.0000 C   0  0  0  0  0  0  0  0  0  0  0  0
    0.7500    1.2990    0.0000 C   0  0  0  0  0  0  0  0  0  0  0  0
  1  2  1  0
  2  3  2  0
  2  4  1  0
  4  5  1  0
  5  6  2  0
  6  7  1  0
  7  8  1  0
  7  9  1  0
  9 10  1  0
 10  4  1  0
M  END
>  <Title>  (741) 
idABASgen7

$$$$

     RDKit          2D

 40 45  0  0  0  0  0  0  0  0999 V2000
   -1.1382   -8.3460    0.0000 C   0  0  0  0  0  0  0  0  0  0  0  0
   -0.7500   -6.8971    0.0000 C   0  0  0  0  0  0  0  0  0  0  0  0
    0.7500   -6.8971    0.0000 C   0  0  0  0  0  0  0  0  0  0  0  0
    2.0490   -6.1471    0.0000 C   0  0  0  0  0  0  0  0  0  0  0  0
    2.7990   -4.8481    0.0000 C   0  0  0  0  0  0  0  0  0  0  0  0
    4.2479   -5.2363    0.0000 C   0  0  0  0  0  0  0  0  0  0  0  0
    5.3086   -4.1756    0.0000 O   0  0  0  0  0  0  0  0  0  0  0  0
    4.6362   -6.6852    0.0000 N   0  0  0  0  0  0  0  0  0  0  0  0
    6.0850   -7.0734    0.0000 C   0  0  0  0  0  0  0  0  0  0  0  0
    6.4733   -8.5223    0.0000 N   0  0  0  0  0  0  0  0  0  0  0  0
    7.9222   -8.9105    0.0000 N   0  0  0  0  0  0  0  0  0  0  0  0
    8.9828   -7.8499    0.0000 N   0  0  0  0  0  0  0  0  0  0  0  0
    8.5946   -6.4010    0.0000 N   0  0  0  0  0  0  0  0  0  0  0  0
    7.1457   -6.0128    0.0000 N   0  0  0  0  0  0  0  0  0  0  0  0
    2.7990   -3.3481    0.0000 C   0  0  0  0  0  0  0  0  0  0  0  0
    4.2990   -3.3481    0.0000 C   0  0  0  0  0  0  0  0  0  0  0  0
    5.0490   -2.0490    0.0000 C   0  0  0  0  0  0  0  0  0  0  0  0
    4.2990   -0.7500    0.0000 C   0  0  0  0  0  0  0  0  0  0  0  0
    5.0490    0.5490    0.0000 C   0  0  0  0  0  0  0  0  0  0  0  0
    5.7990    1.8481    0.0000 N   0  0  0  0  0  0  0  0  0  0  0  0
    2.7990   -0.7500    0.0000 C   0  0  0  0  0  0  0  0  0  0  0  0
    2.0490   -2.0490    0.0000 C   0  0  0  0  0  0  0  0  0  0  0  0
    0.7500   -1.2990    0.0000 C   0  0  0  0  0  0  0  0  0  0  0  0
    1.5000    0.0000    0.0000 C   0  0  0  0  0  0  0  0  0  0  0  0
    0.7500    1.2990    0.0000 C   0  0  0  0  0  0  0  0  0  0  0  0
   -0.7500    1.2990    0.0000 C   0  0  0  0  0  0  0  0  0  0  0  0
   -1.5000    0.0000    0.0000 C   0  0  0  0  0  0  0  0  0  0  0  0
   -0.7500   -1.2990    0.0000 C   0  0  0  0  0  0  0  0  0  0  0  0
   -2.0490   -2.0490    0.0000 C   0  0  0  0  0  0  0  0  0  0  0  0
   -2.7990   -0.7500    0.0000 C   0  0  0  0  0  0  0  0  0  0  0  0
   -4.2990   -0.7500    0.0000 C   0  0  0  0  0  0  0  0  0  0  0  0
   -5.0490   -2.0490    0.0000 C   0  0  0  0  0  0  0  0  0  0  0  0
   -4.2990   -3.3481    0.0000 C   0  0  0  0  0  0  0  0  0  0  0  0
   -2.7990   -3.3481    0.0000 C   0  0  0  0  0  0  0  0  0  0  0  0
   -2.7990   -4.8481    0.0000 C   0  0  0  0  0  0  0  0  0  0  0  0
   -4.2990   -4.8481    0.0000 C   0  0  0  0  0  0  0  0  0  0  0  0
   -5.0490   -6.1471    0.0000 C   0  0  0  0  0  0  0  0  0  0  0  0
   -4.2990   -7.4462    0.0000 C   0  0  0  0  0  0  0  0  0  0  0  0
   -2.7990   -7.4462    0.0000 C   0  0  0  0  0  0  0  0  0  0  0  0
   -2.0490   -6.1471    0.0000 C   0  0  0  0  0  0  0  0  0  0  0  0
  1  2  1  0
  2  3  2  0
  3  4  1  0
  4  5  2  0
  5  6  1  0
  6  7  2  0
  6  8  1  0
  8  9  1  0
  9 10  2  0
 10 11  1  0
 11 12  2  0
 12 13  1  0
 13 14  2  0
  5 15  1  0
 15 16  2  0
 16 17  1  0
 17 18  2  0
 18 19  1  0
 19 20  3  0
 18 21  1  0
 21 22  2  0
 22 23  1  0
 23 24  2  0
 24 25  1  0
 25 26  2  0
 26 27  1  0
 27 28  2  0
 28 29  1  0
 29 30  2  0
 30 31  1  0
 31 32  2  0
 32 33  1  0
 33 34  2  0
 34 35  1  0
 35 36  2  0
 36 37  1  0
 37 38  2  0
 38 39  1  0
 39 40  2  0
 40  2  1  0
 14  9  1  0
 22 15  1  0
 28 23  1  0
 34 29  1  0
 40 35  1  0
M  END
>  <Title>  (742) 
idABATgen7

$$$$

     RDKit          2D

 44 44  0  0  0  0  0  0  0  0999 V2000
   10.5132    0.0000    0.0000 C   0  0  0  0  0  0  0  0  0  0  0  0
   10.4061   -1.4962    0.0000 C   0  0  0  0  0  0  0  0  0  0  0  0
   10.0873   -2.9619    0.0000 C   0  0  0  0  0  0  0  0  0  0  0  0
    9.5631   -4.3673    0.0000 C   0  0  0  0  0  0  0  0  0  0  0  0
    8.8442   -5.6838    0.0000 C   0  0  0  0  0  0  0  0  0  0  0  0
    7.9453   -6.8847    0.0000 C   0  0  0  0  0  0  0  0  0  0  0  0
    6.8847   -7.9453    0.0000 C   0  0  0  0  0  0  0  0  0  0  0  0
    5.6838   -8.8442    0.0000 C   0  0  0  0  0  0  0  0  0  0  0  0
    4.3673   -9.5631    0.0000 C   0  0  0  0  0  0  0  0  0  0  0  0
    2.9619  -10.0873    0.0000 C   0  0  0  0  0  0  0  0  0  0  0  0
    1.4962  -10.4061    0.0000 C   0  0  0  0  0  0  0  0  0  0  0  0
   -0.0000  -10.5132    0.0000 C   0  0  0  0  0  0  0  0  0  0  0  0
   -1.4962  -10.4061    0.0000 C   0  0  0  0  0  0  0  0  0  0  0  0
   -2.9619  -10.0873    0.0000 C   0  0  0  0  0  0  0  0  0  0  0  0
   -4.3673   -9.5631    0.0000 C   0  0  0  0  0  0  0  0  0  0  0  0
   -5.6838   -8.8442    0.0000 C   0  0  0  0  0  0  0  0  0  0  0  0
   -6.8847   -7.9453    0.0000 C   0  0  0  0  0  0  0  0  0  0  0  0
   -7.9453   -6.8847    0.0000 C   0  0  0  0  0  0  0  0  0  0  0  0
   -8.8442   -5.6838    0.0000 C   0  0  0  0  0  0  0  0  0  0  0  0
   -9.5631   -4.3673    0.0000 C   0  0  0  0  0  0  0  0  0  0  0  0
  -10.0873   -2.9619    0.0000 C   0  0  0  0  0  0  0  0  0  0  0  0
  -10.4061   -1.4962    0.0000 C   0  0  0  0  0  0  0  0  0  0  0  0
  -10.5132    0.0000    0.0000 C   0  0  0  0  0  0  0  0  0  0  0  0
  -10.4061    1.4962    0.0000 C   0  0  0  0  0  0  0  0  0  0  0  0
  -10.0873    2.9619    0.0000 C   0  0  0  0  0  0  0  0  0  0  0  0
   -9.5631    4.3673    0.0000 C   0  0  0  0  0  0  0  0  0  0  0  0
   -8.8442    5.6838    0.0000 C   0  0  0  0  0  0  0  0  0  0  0  0
   -7.9453    6.8847    0.0000 C   0  0  0  0  0  0  0  0  0  0  0  0
   -6.8847    7.9453    0.0000 C   0  0  0  0  0  0  0  0  0  0  0  0
   -5.6838    8.8442    0.0000 C   0  0  0  0  0  0  0  0  0  0  0  0
   -4.3673    9.5631    0.0000 C   0  0  0  0  0  0  0  0  0  0  0  0
   -2.9619   10.0873    0.0000 C   0  0  0  0  0  0  0  0  0  0  0  0
   -1.4962   10.4061    0.0000 C   0  0  0  0  0  0  0  0  0  0  0  0
    0.0000   10.5132    0.0000 C   0  0  0  0  0  0  0  0  0  0  0  0
    1.4962   10.4061    0.0000 C   0  0  0  0  0  0  0  0  0  0  0  0
    2.9619   10.0873    0.0000 C   0  0  0  0  0  0  0  0  0  0  0  0
    4.3673    9.5631    0.0000 C   0  0  0  0  0  0  0  0  0  0  0  0
    5.6838    8.8442    0.0000 C   0  0  0  0  0  0  0  0  0  0  0  0
    6.8847    7.9453    0.0000 C   0  0  0  0  0  0  0  0  0  0  0  0
    7.9453    6.8847    0.0000 C   0  0  0  0  0  0  0  0  0  0  0  0
    8.8442    5.6838    0.0000 C   0  0  0  0  0  0  0  0  0  0  0  0
    9.5631    4.3673    0.0000 C   0  0  0  0  0  0  0  0  0  0  0  0
   10.0873    2.9619    0.0000 C   0  0  0  0  0  0  0  0  0  0  0  0
   10.4061    1.4962    0.0000 C   0  0  0  0  0  0  0  0  0  0  0  0
  1  2  1  0
  2  3  1  0
  3  4  1  0
  4  5  1  0
  5  6  1  0
  6  7  1  0
  7  8  1  0
  8  9  1  0
  9 10  1  0
 10 11  1  0
 11 12  1  0
 12 13  1  0
 13 14  1  0
 14 15  1  0
 15 16  1  0
 16 17  1  0
 17 18  1  0
 18 19  1  0
 19 20  1  0
 20 21  1  0
 21 22  1  0
 22 23  1  0
 23 24  1  0
 24 25  1  0
 25 26  1  0
 26 27  1  0
 27 28  1  0
 28 29  1  0
 29 30  1  0
 30 31  1  0
 31 32  1  0
 32 33  1  0
 33 34  1  0
 34 35  1  0
 35 36  1  0
 36 37  1  0
 37 38  1  0
 38 39  1  0
 39 40  1  0
 40 41  1  0
 41 42  1  0
 42 43  1  0
 43 44  1  0
 44  1  1  0
M  END
>  <Title>  (743) 
idABAUgen7

$$$$

     RDKit          2D

  7  7  0  0  0  0  0  0  0  0999 V2000
    3.0000    0.0000    0.0000 C   0  0  0  0  0  0  0  0  0  0  0  0
    1.5000    0.0000    0.0000 C   0  0  0  0  0  0  0  0  0  0  0  0
    0.7500   -1.2990    0.0000 C   0  0  0  0  0  0  0  0  0  0  0  0
   -0.7500   -1.2990    0.0000 C   0  0  0  0  0  0  0  0  0  0  0  0
   -1.5000    0.0000    0.0000 C   0  0  0  0  0  0  0  0  0  0  0  0
   -0.7500    1.2990    0.0000 C   0  0  0  0  0  0  0  0  0  0  0  0
    0.7500    1.2990    0.0000 N   0  0  0  0  0  0  0  0  0  0  0  0
  1  2  1  0
  2  3  1  0
  3  4  1  0
  4  5  2  0
  5  6  1  0
  6  7  1  0
  7  2  1  0
M  END
>  <Title>  (744) 
idABAVgen7

$$$$

     RDKit          2D

 16 17  0  0  0  0  0  0  0  0999 V2000
    3.0000    0.0000    0.0000 C   0  0  0  0  0  0  0  0  0  0  0  0
    1.5000    0.0000    0.0000 C   0  0  0  0  0  0  0  0  0  0  0  0
    0.7500   -1.2990    0.0000 C   0  0  0  0  0  0  0  0  0  0  0  0
   -0.7500   -1.2990    0.0000 C   0  0  0  0  0  0  0  0  0  0  0  0
   -1.5000    0.0000    0.0000 C   0  0  0  0  0  0  0  0  0  0  0  0
   -3.0000    0.0000    0.0000 C   0  0  0  0  0  0  0  0  0  0  0  0
   -3.7500   -1.2990    0.0000 O   0  0  0  0  0  0  0  0  0  0  0  0
   -3.7500    1.2990    0.0000 N   0  0  0  0  0  0  0  0  0  0  0  0
   -5.2500    1.2990    0.0000 C   0  0  0  0  0  0  0  0  0  0  0  0
   -6.0000    2.5981    0.0000 N   0  0  0  0  0  0  0  0  0  0  0  0
   -7.5000    2.5981    0.0000 N   0  0  0  0  0  0  0  0  0  0  0  0
   -8.2500    1.2990    0.0000 N   0  0  0  0  0  0  0  0  0  0  0  0
   -7.5000    0.0000    0.0000 N   0  0  0  0  0  0  0  0  0  0  0  0
   -6.0000    0.0000    0.0000 N   0  0  0  0  0  0  0  0  0  0  0  0
   -0.7500    1.2990    0.0000 C   0  0  0  0  0  0  0  0  0  0  0  0
    0.7500    1.2990    0.0000 C   0  0  0  0  0  0  0  0  0  0  0  0
  1  2  1  0
  2  3  1  0
  3  4  1  0
  4  5  1  0
  5  6  1  0
  6  7  2  0
  6  8  1  0
  8  9  1  0
  9 10  2  0
 10 11  1  0
 11 12  2  0
 12 13  1  0
 13 14  2  0
  5 15  1  0
 15 16  1  0
 16  2  1  0
 14  9  1  0
M  END
>  <Title>  (745) 
idABAWgen7

$$$$

     RDKit          2D

 14 14  0  0  0  0  0  0  0  0999 V2000
    4.6339    0.0000    0.0000 C   0  0  0  0  0  0  0  0  0  0  0  0
    3.1339    0.0000    0.0000 C   0  0  0  0  0  0  0  0  0  0  0  0
    2.7750    1.4564    0.0000 C   0  0  0  0  0  0  0  0  0  0  0  0
    1.7803    2.5792    0.0000 C   0  0  0  0  0  0  0  0  0  0  0  0
    0.3778    3.1111    0.0000 C   0  0  0  0  0  0  0  0  0  0  0  0
   -1.1113    2.9303    0.0000 C   0  0  0  0  0  0  0  0  0  0  0  0
   -2.3458    2.0782    0.0000 C   0  0  0  0  0  0  0  0  0  0  0  0
   -3.0429    0.7500    0.0000 C   0  0  0  0  0  0  0  0  0  0  0  0
   -3.0429   -0.7500    0.0000 C   0  0  0  0  0  0  0  0  0  0  0  0
   -2.3458   -2.0782    0.0000 C   0  0  0  0  0  0  0  0  0  0  0  0
   -1.1113   -2.9303    0.0000 C   0  0  0  0  0  0  0  0  0  0  0  0
    0.3778   -3.1111    0.0000 C   0  0  0  0  0  0  0  0  0  0  0  0
    1.7803   -2.5792    0.0000 C   0  0  0  0  0  0  0  0  0  0  0  0
    2.7750   -1.4564    0.0000 C   0  0  0  0  0  0  0  0  0  0  0  0
  1  2  1  0
  2  3  1  0
  3  4  2  0
  4  5  1  0
  5  6  1  0
  6  7  1  0
  7  8  1  0
  8  9  1  0
  9 10  1  0
 10 11  2  0
 11 12  1  0
 12 13  2  0
 13 14  1  0
 14  2  1  0
M  END
>  <Title>  (746) 
idABAXgen7

$$$$

     RDKit          2D

 83 83  0  0  0  0  0  0  0  0999 V2000
   19.8195    0.0000    0.0000 C   0  0  0  0  0  0  0  0  0  0  0  0
   19.7628    1.4989    0.0000 C   0  0  0  0  0  0  0  0  0  0  0  0
   19.5928    2.9893    0.0000 C   0  0  0  0  0  0  0  0  0  0  0  0
   19.3106    4.4625    0.0000 C   0  0  0  0  0  0  0  0  0  0  0  0
   18.9178    5.9101    0.0000 C   0  0  0  0  0  0  0  0  0  0  0  0
   18.4167    7.3239    0.0000 C   0  0  0  0  0  0  0  0  0  0  0  0
   17.8100    8.6958    0.0000 C   0  0  0  0  0  0  0  0  0  0  0  0
   17.1014   10.0178    0.0000 C   0  0  0  0  0  0  0  0  0  0  0  0
   16.2947   11.2825    0.0000 C   0  0  0  0  0  0  0  0  0  0  0  0
   15.3948   12.4825    0.0000 C   0  0  0  0  0  0  0  0  0  0  0  0
   14.4067   13.6111    0.0000 C   0  0  0  0  0  0  0  0  0  0  0  0
   13.3360   14.6617    0.0000 C   0  0  0  0  0  0  0  0  0  0  0  0
   12.1890   15.6283    0.0000 C   0  0  0  0  0  0  0  0  0  0  0  0
   10.9721   16.5053    0.0000 C   0  0  0  0  0  0  0  0  0  0  0  0
    9.6924   17.2879    0.0000 C   0  0  0  0  0  0  0  0  0  0  0  0
    8.3572   17.9714    0.0000 C   0  0  0  0  0  0  0  0  0  0  0  0
    6.9741   18.5520    0.0000 C   0  0  0  0  0  0  0  0  0  0  0  0
    5.5511   19.0263    0.0000 C   0  0  0  0  0  0  0  0  0  0  0  0
    4.0962   19.3916    0.0000 C   0  0  0  0  0  0  0  0  0  0  0  0
    2.6180   19.6459    0.0000 C   0  0  0  0  0  0  0  0  0  0  0  0
    1.1247   19.7876    0.0000 C   0  0  0  0  0  0  0  0  0  0  0  0
   -0.3751   19.8160    0.0000 C   0  0  0  0  0  0  0  0  0  0  0  0
   -1.8727   19.7309    0.0000 C   0  0  0  0  0  0  0  0  0  0  0  0
   -3.3595   19.5327    0.0000 C   0  0  0  0  0  0  0  0  0  0  0  0
   -4.8271   19.2227    0.0000 C   0  0  0  0  0  0  0  0  0  0  0  0
   -6.2671   18.8026    0.0000 C   0  0  0  0  0  0  0  0  0  0  0  0
   -7.6712   18.2748    0.0000 C   0  0  0  0  0  0  0  0  0  0  0  0
   -9.0313   17.6423    0.0000 C   0  0  0  0  0  0  0  0  0  0  0  0
  -10.3397   16.9087    0.0000 C   0  0  0  0  0  0  0  0  0  0  0  0
  -11.5888   16.0783    0.0000 C   0  0  0  0  0  0  0  0  0  0  0  0
  -12.7716   15.1558    0.0000 C   0  0  0  0  0  0  0  0  0  0  0  0
  -13.8813   14.1465    0.0000 C   0  0  0  0  0  0  0  0  0  0  0  0
  -14.9114   13.0562    0.0000 C   0  0  0  0  0  0  0  0  0  0  0  0
  -15.8561   11.8910    0.0000 C   0  0  0  0  0  0  0  0  0  0  0  0
  -16.7100   10.6578    0.0000 C   0  0  0  0  0  0  0  0  0  0  0  0
  -17.4682    9.3635    0.0000 C   0  0  0  0  0  0  0  0  0  0  0  0
  -18.1263    8.0156    0.0000 C   0  0  0  0  0  0  0  0  0  0  0  0
  -18.6806    6.6218    0.0000 C   0  0  0  0  0  0  0  0  0  0  0  0
  -19.1279    5.1900    0.0000 C   0  0  0  0  0  0  0  0  0  0  0  0
  -19.4656    3.7285    0.0000 C   0  0  0  0  0  0  0  0  0  0  0  0
  -19.6919    2.2457    0.0000 C   0  0  0  0  0  0  0  0  0  0  0  0
  -19.8053    0.7500    0.0000 C   0  0  0  0  0  0  0  0  0  0  0  0
  -19.8053   -0.7500    0.0000 C   0  0  0  0  0  0  0  0  0  0  0  0
  -19.6919   -2.2457    0.0000 C   0  0  0  0  0  0  0  0  0  0  0  0
  -19.4656   -3.7285    0.0000 C   0  0  0  0  0  0  0  0  0  0  0  0
  -19.1279   -5.1900    0.0000 C   0  0  0  0  0  0  0  0  0  0  0  0
  -18.6806   -6.6218    0.0000 C   0  0  0  0  0  0  0  0  0  0  0  0
  -18.1263   -8.0156    0.0000 C   0  0  0  0  0  0  0  0  0  0  0  0
  -17.4682   -9.3635    0.0000 C   0  0  0  0  0  0  0  0  0  0  0  0
  -16.7100  -10.6578    0.0000 C   0  0  0  0  0  0  0  0  0  0  0  0
  -15.8561  -11.8910    0.0000 C   0  0  0  0  0  0  0  0  0  0  0  0
  -14.9114  -13.0562    0.0000 C   0  0  0  0  0  0  0  0  0  0  0  0
  -13.8813  -14.1465    0.0000 C   0  0  0  0  0  0  0  0  0  0  0  0
  -12.7716  -15.1558    0.0000 C   0  0  0  0  0  0  0  0  0  0  0  0
  -11.5888  -16.0783    0.0000 C   0  0  0  0  0  0  0  0  0  0  0  0
  -10.3397  -16.9087    0.0000 C   0  0  0  0  0  0  0  0  0  0  0  0
   -9.0313  -17.6423    0.0000 C   0  0  0  0  0  0  0  0  0  0  0  0
   -7.6712  -18.2748    0.0000 C   0  0  0  0  0  0  0  0  0  0  0  0
   -6.2671  -18.8026    0.0000 C   0  0  0  0  0  0  0  0  0  0  0  0
   -4.8271  -19.2227    0.0000 C   0  0  0  0  0  0  0  0  0  0  0  0
   -3.3595  -19.5327    0.0000 C   0  0  0  0  0  0  0  0  0  0  0  0
   -1.8727  -19.7309    0.0000 C   0  0  0  0  0  0  0  0  0  0  0  0
   -0.3751  -19.8160    0.0000 C   0  0  0  0  0  0  0  0  0  0  0  0
    1.1247  -19.7876    0.0000 C   0  0  0  0  0  0  0  0  0  0  0  0
    2.6180  -19.6459    0.0000 C   0  0  0  0  0  0  0  0  0  0  0  0
    4.0962  -19.3916    0.0000 C   0  0  0  0  0  0  0  0  0  0  0  0
    5.5511  -19.0263    0.0000 C   0  0  0  0  0  0  0  0  0  0  0  0
    6.9741  -18.5520    0.0000 C   0  0  0  0  0  0  0  0  0  0  0  0
    8.3572  -17.9714    0.0000 C   0  0  0  0  0  0  0  0  0  0  0  0
    9.6924  -17.2879    0.0000 C   0  0  0  0  0  0  0  0  0  0  0  0
   10.9721  -16.5053    0.0000 C   0  0  0  0  0  0  0  0  0  0  0  0
   12.1890  -15.6283    0.0000 C   0  0  0  0  0  0  0  0  0  0  0  0
   13.3360  -14.6617    0.0000 C   0  0  0  0  0  0  0  0  0  0  0  0
   14.4067  -13.6111    0.0000 C   0  0  0  0  0  0  0  0  0  0  0  0
   15.3948  -12.4825    0.0000 C   0  0  0  0  0  0  0  0  0  0  0  0
   16.2947  -11.2825    0.0000 C   0  0  0  0  0  0  0  0  0  0  0  0
   17.1014  -10.0178    0.0000 C   0  0  0  0  0  0  0  0  0  0  0  0
   17.8100   -8.6958    0.0000 C   0  0  0  0  0  0  0  0  0  0  0  0
   18.4167   -7.3239    0.0000 C   0  0  0  0  0  0  0  0  0  0  0  0
   18.9178   -5.9101    0.0000 C   0  0  0  0  0  0  0  0  0  0  0  0
   19.3106   -4.4625    0.0000 C   0  0  0  0  0  0  0  0  0  0  0  0
   19.5928   -2.9893    0.0000 C   0  0  0  0  0  0  0  0  0  0  0  0
   19.7628   -1.4989    0.0000 C   0  0  0  0  0  0  0  0  0  0  0  0
  1  2  2  0
  2  3  1  0
  3  4  1  0
  4  5  1  0
  5  6  1  0
  6  7  1  0
  7  8  1  0
  8  9  1  0
  9 10  1  0
 10 11  1  0
 11 12  1  0
 12 13  1  0
 13 14  1  0
 14 15  1  0
 15 16  1  0
 16 17  1  0
 17 18  1  0
 18 19  1  0
 19 20  1  0
 20 21  1  0
 21 22  1  0
 22 23  1  0
 23 24  1  0
 24 25  1  0
 25 26  1  0
 26 27  1  0
 27 28  1  0
 28 29  1  0
 29 30  1  0
 30 31  1  0
 31 32  1  0
 32 33  1  0
 33 34  1  0
 34 35  1  0
 35 36  1  0
 36 37  1  0
 37 38  1  0
 38 39  1  0
 39 40  1  0
 40 41  1  0
 41 42  1  0
 42 43  1  0
 43 44  1  0
 44 45  1  0
 45 46  1  0
 46 47  1  0
 47 48  1  0
 48 49  1  0
 49 50  1  0
 50 51  1  0
 51 52  1  0
 52 53  1  0
 53 54  1  0
 54 55  1  0
 55 56  1  0
 56 57  1  0
 57 58  1  0
 58 59  1  0
 59 60  1  0
 60 61  1  0
 61 62  1  0
 62 63  1  0
 63 64  1  0
 64 65  1  0
 65 66  1  0
 66 67  1  0
 67 68  1  0
 68 69  1  0
 69 70  1  0
 70 71  1  0
 71 72  1  0
 72 73  1  0
 73 74  1  0
 74 75  1  0
 75 76  1  0
 76 77  1  0
 77 78  1  0
 78 79  1  0
 79 80  1  0
 80 81  1  0
 81 82  1  0
 82 83  1  0
 83  1  1  0
M  END
>  <Title>  (747) 
idABAYgen7

$$$$

     RDKit          2D

 13 14  0  0  0  0  0  0  0  0999 V2000
    3.3287    1.8373    0.0000 O   0  0  0  0  0  0  0  0  0  0  0  0
    2.3250    2.9520    0.0000 C   0  0  0  0  0  0  0  0  0  0  0  0
    0.8578    2.6401    0.0000 N   0  0  0  0  0  0  0  0  0  0  0  0
    0.3943    1.2135    0.0000 C   0  0  0  0  0  0  0  0  0  0  0  0
    1.2760    0.0000    0.0000 C   0  0  0  0  0  0  0  0  0  0  0  0
    0.3943   -1.2135    0.0000 C   0  0  0  0  0  0  0  0  0  0  0  0
   -1.0323   -0.7500    0.0000 C   0  0  0  0  0  0  0  0  0  0  0  0
   -1.0323    0.7500    0.0000 C   0  0  0  0  0  0  0  0  0  0  0  0
    2.7886    4.3786    0.0000 C   0  0  0  0  0  0  0  0  0  0  0  0
    1.9069    5.5921    0.0000 C   0  0  0  0  0  0  0  0  0  0  0  0
    2.7886    6.8056    0.0000 C   0  0  0  0  0  0  0  0  0  0  0  0
    4.2152    6.3421    0.0000 C   0  0  0  0  0  0  0  0  0  0  0  0
    4.2152    4.8421    0.0000 C   0  0  0  0  0  0  0  0  0  0  0  0
  1  2  2  0
  2  3  1  0
  3  4  1  0
  4  5  2  0
  5  6  1  0
  6  7  1  0
  7  8  2  0
  2  9  1  0
  9 10  2  0
 10 11  1  0
 11 12  2  0
 12 13  1  0
  8  4  1  0
 13  9  1  0
M  END
>  <Title>  (748) 
idABAZgen7

$$$$

     RDKit          2D

 10 10  0  0  0  0  0  0  0  0999 V2000
    4.5000   -2.5981    0.0000 N   0  0  0  0  0  0  0  0  0  0  0  0
    3.7500   -1.2990    0.0000 C   0  0  0  0  0  0  0  0  0  0  0  0
    3.0000    0.0000    0.0000 C   0  0  0  0  0  0  0  0  0  0  0  0
    3.7500    1.2990    0.0000 O   0  0  0  0  0  0  0  0  0  0  0  0
    1.5000    0.0000    0.0000 C   0  0  0  0  0  0  0  0  0  0  0  0
    0.7500   -1.2990    0.0000 C   0  0  0  0  0  0  0  0  0  0  0  0
   -0.7500   -1.2990    0.0000 C   0  0  0  0  0  0  0  0  0  0  0  0
   -1.5000    0.0000    0.0000 C   0  0  0  0  0  0  0  0  0  0  0  0
   -0.7500    1.2990    0.0000 C   0  0  0  0  0  0  0  0  0  0  0  0
    0.7500    1.2990    0.0000 C   0  0  0  0  0  0  0  0  0  0  0  0
  1  2  3  0
  2  3  1  0
  3  4  1  0
  3  5  1  0
  5  6  1  0
  6  7  1  0
  7  8  1  0
  8  9  1  0
  9 10  1  0
 10  5  1  0
M  END
>  <Title>  (749) 
idABBAgen7

$$$$

     RDKit          2D

 42 47  0  0  0  0  0  0  0  0999 V2000
   -3.1771   -1.2990    0.0000 C   0  0  0  0  0  0  0  0  0  0  0  0
   -1.9635   -2.1807    0.0000 C   0  0  0  0  0  0  0  0  0  0  0  0
   -2.4271   -3.6073    0.0000 C   0  0  0  0  0  0  0  0  0  0  0  0
   -1.9635   -5.0339    0.0000 C   0  0  0  0  0  0  0  0  0  0  0  0
   -0.7500   -5.9156    0.0000 C   0  0  0  0  0  0  0  0  0  0  0  0
   -1.2135   -7.3421    0.0000 C   0  0  0  0  0  0  0  0  0  0  0  0
   -0.2098   -8.4569    0.0000 O   0  0  0  0  0  0  0  0  0  0  0  0
   -2.6807   -7.6540    0.0000 N   0  0  0  0  0  0  0  0  0  0  0  0
   -3.1443   -9.0806    0.0000 C   0  0  0  0  0  0  0  0  0  0  0  0
   -4.6115   -9.3925    0.0000 N   0  0  0  0  0  0  0  0  0  0  0  0
   -5.0750  -10.8191    0.0000 N   0  0  0  0  0  0  0  0  0  0  0  0
   -4.0713  -11.9338    0.0000 N   0  0  0  0  0  0  0  0  0  0  0  0
   -2.6041  -11.6219    0.0000 N   0  0  0  0  0  0  0  0  0  0  0  0
   -2.1406  -10.1953    0.0000 N   0  0  0  0  0  0  0  0  0  0  0  0
    0.7500   -5.9156    0.0000 C   0  0  0  0  0  0  0  0  0  0  0  0
    1.2135   -7.3421    0.0000 C   0  0  0  0  0  0  0  0  0  0  0  0
    2.7135   -7.3421    0.0000 C   0  0  0  0  0  0  0  0  0  0  0  0
    3.1771   -5.9156    0.0000 C   0  0  0  0  0  0  0  0  0  0  0  0
    4.6036   -5.4520    0.0000 C   0  0  0  0  0  0  0  0  0  0  0  0
    4.9155   -3.9848    0.0000 O   0  0  0  0  0  0  0  0  0  0  0  0
    5.7184   -6.4557    0.0000 N   0  0  0  0  0  0  0  0  0  0  0  0
    7.1449   -5.9922    0.0000 C   0  0  0  0  0  0  0  0  0  0  0  0
    8.2597   -6.9959    0.0000 N   0  0  0  0  0  0  0  0  0  0  0  0
    9.6862   -6.5324    0.0000 N   0  0  0  0  0  0  0  0  0  0  0  0
    9.9981   -5.0652    0.0000 N   0  0  0  0  0  0  0  0  0  0  0  0
    8.8834   -4.0615    0.0000 N   0  0  0  0  0  0  0  0  0  0  0  0
    7.4568   -4.5250    0.0000 N   0  0  0  0  0  0  0  0  0  0  0  0
    1.9635   -5.0339    0.0000 C   0  0  0  0  0  0  0  0  0  0  0  0
    2.4271   -3.6073    0.0000 C   0  0  0  0  0  0  0  0  0  0  0  0
    3.8943   -3.9192    0.0000 C   0  0  0  0  0  0  0  0  0  0  0  0
    4.8980   -2.8045    0.0000 C   0  0  0  0  0  0  0  0  0  0  0  0
    4.4344   -1.3779    0.0000 C   0  0  0  0  0  0  0  0  0  0  0  0
    5.4381   -0.2631    0.0000 C   0  0  0  0  0  0  0  0  0  0  0  0
    6.4418    0.8516    0.0000 N   0  0  0  0  0  0  0  0  0  0  0  0
    2.9672   -1.0660    0.0000 C   0  0  0  0  0  0  0  0  0  0  0  0
    1.9635   -2.1807    0.0000 C   0  0  0  0  0  0  0  0  0  0  0  0
    0.7500   -1.2990    0.0000 C   0  0  0  0  0  0  0  0  0  0  0  0
    1.5000    0.0000    0.0000 C   0  0  0  0  0  0  0  0  0  0  0  0
    0.7500    1.2990    0.0000 C   0  0  0  0  0  0  0  0  0  0  0  0
   -0.7500    1.2990    0.0000 C   0  0  0  0  0  0  0  0  0  0  0  0
   -1.5000    0.0000    0.0000 C   0  0  0  0  0  0  0  0  0  0  0  0
   -0.7500   -1.2990    0.0000 C   0  0  0  0  0  0  0  0  0  0  0  0
  1  2  1  0
  2  3  1  0
  3  4  1  0
  4  5  1  0
  5  6  1  0
  6  7  2  0
  6  8  1  0
  8  9  1  0
  9 10  2  0
 10 11  1  0
 11 12  2  0
 12 13  1  0
 13 14  2  0
  5 15  1  0
 15 16  2  0
 16 17  1  0
 17 18  2  0
 18 19  1  0
 19 20  2  0
 19 21  1  0
 21 22  1  0
 22 23  2  0
 23 24  1  0
 24 25  2  0
 25 26  1  0
 26 27  2  0
 18 28  1  0
 28 29  1  0
 29 30  2  0
 30 31  1  0
 31 32  2  0
 32 33  1  0
 33 34  3  0
 32 35  1  0
 35 36  2  0
 36 37  1  0
 37 38  2  0
 38 39  1  0
 39 40  2  0
 40 41  1  0
 41 42  2  0
 42  2  1  0
 14  9  1  0
 28 15  1  0
 36 29  1  0
 42 37  1  0
 27 22  1  0
M  END
>  <Title>  (750) 
idABBBgen7

$$$$

     RDKit          2D

 31 34  0  0  0  0  0  0  0  0999 V2000
   -3.0000   -2.5981    0.0000 C   0  0  0  0  0  0  0  0  0  0  0  0
   -1.5000   -2.5981    0.0000 C   0  0  0  0  0  0  0  0  0  0  0  0
   -0.7500   -3.8971    0.0000 C   0  0  0  0  0  0  0  0  0  0  0  0
    0.7500   -3.8971    0.0000 C   0  0  0  0  0  0  0  0  0  0  0  0
    1.5000   -2.5981    0.0000 C   0  0  0  0  0  0  0  0  0  0  0  0
    3.0000   -2.5981    0.0000 C   0  0  0  0  0  0  0  0  0  0  0  0
    3.7500   -1.2990    0.0000 O   0  0  0  0  0  0  0  0  0  0  0  0
    3.7500   -3.8971    0.0000 N   0  0  0  0  0  0  0  0  0  0  0  0
    5.2500   -3.8971    0.0000 C   0  0  0  0  0  0  0  0  0  0  0  0
    6.0000   -2.5981    0.0000 O   0  0  0  0  0  0  0  0  0  0  0  0
    6.0000   -5.1962    0.0000 C   0  0  0  0  0  0  0  0  0  0  0  0
    7.4918   -5.3529    0.0000 C   0  0  0  0  0  0  0  0  0  0  0  0
    7.8037   -6.8202    0.0000 C   0  0  0  0  0  0  0  0  0  0  0  0
    6.5046   -7.5702    0.0000 C   0  0  0  0  0  0  0  0  0  0  0  0
    6.3478   -9.0619    0.0000 C   0  0  0  0  0  0  0  0  0  0  0  0
    7.5613   -9.9436    0.0000 O   0  0  0  0  0  0  0  0  0  0  0  0
    4.9775   -9.6721    0.0000 N   0  0  0  0  0  0  0  0  0  0  0  0
    4.8207  -11.1638    0.0000 C   0  0  0  0  0  0  0  0  0  0  0  0
    3.4504  -11.7739    0.0000 N   0  0  0  0  0  0  0  0  0  0  0  0
    3.2936  -13.2657    0.0000 N   0  0  0  0  0  0  0  0  0  0  0  0
    4.5071  -14.1474    0.0000 N   0  0  0  0  0  0  0  0  0  0  0  0
    5.8774  -13.5373    0.0000 N   0  0  0  0  0  0  0  0  0  0  0  0
    6.0342  -12.0455    0.0000 N   0  0  0  0  0  0  0  0  0  0  0  0
    5.3899   -6.5665    0.0000 C   0  0  0  0  0  0  0  0  0  0  0  0
    3.9227   -6.8783    0.0000 O   0  0  0  0  0  0  0  0  0  0  0  0
    0.7500   -1.2990    0.0000 C   0  0  0  0  0  0  0  0  0  0  0  0
    1.5000    0.0000    0.0000 C   0  0  0  0  0  0  0  0  0  0  0  0
    0.7500    1.2990    0.0000 C   0  0  0  0  0  0  0  0  0  0  0  0
   -0.7500    1.2990    0.0000 C   0  0  0  0  0  0  0  0  0  0  0  0
   -1.5000    0.0000    0.0000 C   0  0  0  0  0  0  0  0  0  0  0  0
   -0.7500   -1.2990    0.0000 C   0  0  0  0  0  0  0  0  0  0  0  0
  1  2  1  0
  2  3  1  0
  3  4  1  0
  4  5  1  0
  5  6  1  0
  6  7  2  0
  6  8  1  0
  8  9  1  0
  9 10  2  0
  9 11  1  0
 11 12  1  0
 12 13  1  0
 13 14  1  0
 14 15  1  0
 15 16  2  0
 15 17  1  0
 17 18  1  0
 18 19  2  0
 19 20  1  0
 20 21  2  0
 21 22  1  0
 22 23  2  0
 14 24  1  0
 24 25  2  0
  5 26  1  0
 26 27  2  0
 27 28  1  0
 28 29  2  0
 29 30  1  0
 30 31  2  0
 31  2  1  0
 24 11  1  0
 31 26  1  0
 23 18  1  0
M  END
>  <Title>  (751) 
idABBCgen7

$$$$

     RDKit          2D

 41 41  0  0  0  0  0  0  0  0999 V2000
   10.8206    0.0000    0.0000 C   0  0  0  0  0  0  0  0  0  0  0  0
    9.3206    0.0000    0.0000 C   0  0  0  0  0  0  0  0  0  0  0  0
    9.1999    1.4951    0.0000 C   0  0  0  0  0  0  0  0  0  0  0  0
    8.8410    2.9515    0.0000 C   0  0  0  0  0  0  0  0  0  0  0  0
    8.2530    4.3315    0.0000 C   0  0  0  0  0  0  0  0  0  0  0  0
    7.4513    5.5993    0.0000 C   0  0  0  0  0  0  0  0  0  0  0  0
    8.6505    6.5004    0.0000 C   0  0  0  0  0  0  0  0  0  0  0  0
    6.4566    6.7221    0.0000 C   0  0  0  0  0  0  0  0  0  0  0  0
    5.2947    7.6707    0.0000 C   0  0  0  0  0  0  0  0  0  0  0  0
    3.9957    8.4207    0.0000 C   0  0  0  0  0  0  0  0  0  0  0  0
    2.5932    8.9526    0.0000 C   0  0  0  0  0  0  0  0  0  0  0  0
    1.1235    9.2527    0.0000 C   0  0  0  0  0  0  0  0  0  0  0  0
   -0.3753    9.3131    0.0000 C   0  0  0  0  0  0  0  0  0  0  0  0
   -1.8644    9.1323    0.0000 C   0  0  0  0  0  0  0  0  0  0  0  0
   -3.3051    8.7150    0.0000 C   0  0  0  0  0  0  0  0  0  0  0  0
   -4.6603    8.0719    0.0000 C   0  0  0  0  0  0  0  0  0  0  0  0
   -5.8948    7.2198    0.0000 C   0  0  0  0  0  0  0  0  0  0  0  0
   -6.9766    6.1807    0.0000 C   0  0  0  0  0  0  0  0  0  0  0  0
   -7.8777    4.9816    0.0000 C   0  0  0  0  0  0  0  0  0  0  0  0
   -8.5748    3.6534    0.0000 C   0  0  0  0  0  0  0  0  0  0  0  0
   -9.0498    2.2306    0.0000 C   0  0  0  0  0  0  0  0  0  0  0  0
   -9.2904    0.7500    0.0000 C   0  0  0  0  0  0  0  0  0  0  0  0
   -9.2904   -0.7500    0.0000 C   0  0  0  0  0  0  0  0  0  0  0  0
   -9.0498   -2.2306    0.0000 C   0  0  0  0  0  0  0  0  0  0  0  0
   -8.5748   -3.6534    0.0000 C   0  0  0  0  0  0  0  0  0  0  0  0
   -7.8777   -4.9816    0.0000 C   0  0  0  0  0  0  0  0  0  0  0  0
   -6.9766   -6.1807    0.0000 C   0  0  0  0  0  0  0  0  0  0  0  0
   -5.8948   -7.2198    0.0000 C   0  0  0  0  0  0  0  0  0  0  0  0
   -4.6603   -8.0719    0.0000 C   0  0  0  0  0  0  0  0  0  0  0  0
   -3.3051   -8.7150    0.0000 C   0  0  0  0  0  0  0  0  0  0  0  0
   -1.8644   -9.1323    0.0000 C   0  0  0  0  0  0  0  0  0  0  0  0
   -0.3753   -9.3131    0.0000 C   0  0  0  0  0  0  0  0  0  0  0  0
    1.1235   -9.2527    0.0000 C   0  0  0  0  0  0  0  0  0  0  0  0
    2.5932   -8.9526    0.0000 C   0  0  0  0  0  0  0  0  0  0  0  0
    3.9957   -8.4207    0.0000 C   0  0  0  0  0  0  0  0  0  0  0  0
    5.2947   -7.6707    0.0000 C   0  0  0  0  0  0  0  0  0  0  0  0
    6.4566   -6.7221    0.0000 C   0  0  0  0  0  0  0  0  0  0  0  0
    7.4513   -5.5993    0.0000 C   0  0  0  0  0  0  0  0  0  0  0  0
    8.2530   -4.3315    0.0000 C   0  0  0  0  0  0  0  0  0  0  0  0
    8.8410   -2.9515    0.0000 C   0  0  0  0  0  0  0  0  0  0  0  0
    9.1999   -1.4951    0.0000 C   0  0  0  0  0  0  0  0  0  0  0  0
  1  2  1  0
  2  3  1  0
  3  4  2  0
  4  5  1  0
  5  6  1  0
  6  7  1  0
  6  8  1  0
  8  9  1  0
  9 10  1  0
 10 11  1  0
 11 12  1  0
 12 13  1  0
 13 14  1  0
 14 15  1  0
 15 16  1  0
 16 17  1  0
 17 18  1  0
 18 19  1  0
 19 20  1  0
 20 21  1  0
 21 22  1  0
 22 23  1  0
 23 24  1  0
 24 25  1  0
 25 26  1  0
 26 27  1  0
 27 28  1  0
 28 29  1  0
 29 30  1  0
 30 31  1  0
 31 32  1  0
 32 33  1  0
 33 34  1  0
 34 35  1  0
 35 36  1  0
 36 37  1  0
 37 38  1  0
 38 39  1  0
 39 40  1  0
 40 41  1  0
 41  2  1  0
M  END
>  <Title>  (752) 
idABBDgen7

$$$$

     RDKit          2D

  8  8  0  0  0  0  0  0  0  0999 V2000
    3.5260    1.2990    0.0000 C   0  0  0  0  0  0  0  0  0  0  0  0
    2.7760    0.0000    0.0000 C   0  0  0  0  0  0  0  0  0  0  0  0
    3.5260   -1.2990    0.0000 C   0  0  0  0  0  0  0  0  0  0  0  0
    1.2760    0.0000    0.0000 C   0  0  0  0  0  0  0  0  0  0  0  0
    0.3943    1.2135    0.0000 C   0  0  0  0  0  0  0  0  0  0  0  0
   -1.0323    0.7500    0.0000 C   0  0  0  0  0  0  0  0  0  0  0  0
   -1.0323   -0.7500    0.0000 C   0  0  0  0  0  0  0  0  0  0  0  0
    0.3943   -1.2135    0.0000 C   0  0  0  0  0  0  0  0  0  0  0  0
  1  2  2  0
  2  3  1  0
  2  4  1  0
  4  5  2  0
  5  6  1  0
  6  7  2  0
  7  8  1  0
  8  4  1  0
M  END
>  <Title>  (753) 
idABBEgen7

$$$$

     RDKit          2D

  5  5  0  0  0  0  0  0  0  0999 V2000
    1.2760    0.0000    0.0000 C   0  0  0  0  0  0  0  0  0  0  0  0
    0.3943    1.2135    0.0000 C   0  0  0  0  0  0  0  0  0  0  0  0
   -1.0323    0.7500    0.0000 C   0  0  0  0  0  0  0  0  0  0  0  0
   -1.0323   -0.7500    0.0000 C   0  0  0  0  0  0  0  0  0  0  0  0
    0.3943   -1.2135    0.0000 C   0  0  0  0  0  0  0  0  0  0  0  0
  1  2  2  0
  2  3  1  0
  3  4  1  0
  4  5  2  0
  5  1  1  0
M  END
>  <Title>  (754) 
idABBFgen7

$$$$

     RDKit          2D

  9  9  0  0  0  0  0  0  0  0999 V2000
    5.0260   -1.2990    0.0000 C   0  0  0  0  0  0  0  0  0  0  0  0
    3.5260   -1.2990    0.0000 C   0  0  0  0  0  0  0  0  0  0  0  0
    2.7760    0.0000    0.0000 C   0  0  0  0  0  0  0  0  0  0  0  0
    3.5260    1.2990    0.0000 O   0  0  0  0  0  0  0  0  0  0  0  0
    1.2760    0.0000    0.0000 C   0  0  0  0  0  0  0  0  0  0  0  0
    0.3943    1.2135    0.0000 C   0  0  0  0  0  0  0  0  0  0  0  0
   -1.0323    0.7500    0.0000 C   0  0  0  0  0  0  0  0  0  0  0  0
   -1.0323   -0.7500    0.0000 C   0  0  0  0  0  0  0  0  0  0  0  0
    0.3943   -1.2135    0.0000 C   0  0  0  0  0  0  0  0  0  0  0  0
  1  2  1  0
  2  3  1  0
  3  4  1  0
  3  5  1  0
  5  6  2  0
  6  7  1  0
  7  8  1  0
  8  9  1  0
  9  5  1  0
M  END
>  <Title>  (755) 
idABBGgen7

$$$$

     RDKit          2D

 14 14  0  0  0  0  0  0  0  0999 V2000
    2.7760    2.5981    0.0000 C   0  0  0  0  0  0  0  0  0  0  0  0
    3.5260    1.2990    0.0000 C   0  0  0  0  0  0  0  0  0  0  0  0
    5.0260    1.2990    0.0000 C   0  0  0  0  0  0  0  0  0  0  0  0
    2.7760    0.0000    0.0000 C   0  0  0  0  0  0  0  0  0  0  0  0
    3.5260   -1.2990    0.0000 O   0  0  0  0  0  0  0  0  0  0  0  0
    1.2760    0.0000    0.0000 N   0  0  0  0  0  0  0  0  0  0  0  0
    0.3943    1.2135    0.0000 C   0  0  0  0  0  0  0  0  0  0  0  0
   -1.0323    0.7500    0.0000 C   0  0  0  0  0  0  0  0  0  0  0  0
   -1.0323   -0.7500    0.0000 C   0  0  0  0  0  0  0  0  0  0  0  0
   -2.2458   -1.6317    0.0000 C   0  0  0  0  0  0  0  0  0  0  0  0
   -2.0890   -3.1235    0.0000 O   0  0  0  0  0  0  0  0  0  0  0  0
   -3.6161   -1.0216    0.0000 O   0  0  0  0  0  0  0  0  0  0  0  0
    0.3943   -1.2135    0.0000 C   0  0  0  0  0  0  0  0  0  0  0  0
    0.8578   -2.6401    0.0000 O   0  0  0  0  0  0  0  0  0  0  0  0
  1  2  2  0
  2  3  1  0
  2  4  1  0
  4  5  2  0
  4  6  1  0
  6  7  1  0
  7  8  1  0
  8  9  1  0
  9 10  1  0
 10 11  2  0
 10 12  1  0
  9 13  1  0
 13 14  2  0
 13  6  1  0
M  END
>  <Title>  (756) 
idABBHgen7

$$$$

     RDKit          2D

 21 23  0  0  0  0  0  0  0  0999 V2000
   -3.1476   -2.1380    0.0000 C   0  0  0  0  0  0  0  0  0  0  0  0
   -1.6852   -2.4718    0.0000 C   0  0  0  0  0  0  0  0  0  0  0  0
   -1.3515   -3.9342    0.0000 C   0  0  0  0  0  0  0  0  0  0  0  0
   -0.0000   -4.5850    0.0000 C   0  0  0  0  0  0  0  0  0  0  0  0
    1.3515   -3.9342    0.0000 C   0  0  0  0  0  0  0  0  0  0  0  0
    1.6852   -2.4718    0.0000 C   0  0  0  0  0  0  0  0  0  0  0  0
    3.1476   -2.1380    0.0000 C   0  0  0  0  0  0  0  0  0  0  0  0
    3.5898   -0.7046    0.0000 O   0  0  0  0  0  0  0  0  0  0  0  0
    4.1679   -3.2376    0.0000 N   0  0  0  0  0  0  0  0  0  0  0  0
    5.6303   -2.9038    0.0000 C   0  0  0  0  0  0  0  0  0  0  0  0
    6.6505   -4.0034    0.0000 N   0  0  0  0  0  0  0  0  0  0  0  0
    8.1129   -3.6696    0.0000 N   0  0  0  0  0  0  0  0  0  0  0  0
    8.5551   -2.2362    0.0000 N   0  0  0  0  0  0  0  0  0  0  0  0
    7.5348   -1.1367    0.0000 N   0  0  0  0  0  0  0  0  0  0  0  0
    6.0724   -1.4704    0.0000 N   0  0  0  0  0  0  0  0  0  0  0  0
    0.7500   -1.2990    0.0000 C   0  0  0  0  0  0  0  0  0  0  0  0
    1.5000    0.0000    0.0000 C   0  0  0  0  0  0  0  0  0  0  0  0
    0.7500    1.2990    0.0000 C   0  0  0  0  0  0  0  0  0  0  0  0
   -0.7500    1.2990    0.0000 C   0  0  0  0  0  0  0  0  0  0  0  0
   -1.5000    0.0000    0.0000 C   0  0  0  0  0  0  0  0  0  0  0  0
   -0.7500   -1.2990    0.0000 C   0  0  0  0  0  0  0  0  0  0  0  0
  1  2  1  0
  2  3  2  0
  3  4  1  0
  4  5  2  0
  5  6  1  0
  6  7  1  0
  7  8  2  0
  7  9  1  0
  9 10  1  0
 10 11  2  0
 11 12  1  0
 12 13  2  0
 13 14  1  0
 14 15  2  0
  6 16  1  0
 16 17  2  0
 17 18  1  0
 18 19  2  0
 19 20  1  0
 20 21  2  0
 21  2  1  0
 15 10  1  0
 21 16  1  0
M  END
>  <Title>  (757) 
idABBIgen7

$$$$

     RDKit          2D

  6  6  0  0  0  0  0  0  0  0999 V2000
    2.7760    0.0000    0.0000 O   0  0  0  0  0  0  0  0  0  0  0  0
    1.2760    0.0000    0.0000 C   0  0  0  0  0  0  0  0  0  0  0  0
    0.3943    1.2135    0.0000 C   0  0  0  0  0  0  0  0  0  0  0  0
   -1.0323    0.7500    0.0000 C   0  0  0  0  0  0  0  0  0  0  0  0
   -1.0323   -0.7500    0.0000 C   0  0  0  0  0  0  0  0  0  0  0  0
    0.3943   -1.2135    0.0000 C   0  0  0  0  0  0  0  0  0  0  0  0
  1  2  1  0
  2  3  2  0
  3  4  1  0
  4  5  1  0
  5  6  2  0
  6  2  1  0
M  END
>  <Title>  (758) 
idABBJgen7

$$$$

     RDKit          2D

 22 24  0  0  0  0  0  0  0  0999 V2000
    4.5000    0.0000    0.0000 N   0  0  0  0  0  0  0  0  0  0  0  0
    3.0000    0.0000    0.0000 C   0  0  0  0  0  0  0  0  0  0  0  0
    1.5000    0.0000    0.0000 C   0  0  0  0  0  0  0  0  0  0  0  0
    0.7500   -1.2990    0.0000 C   0  0  0  0  0  0  0  0  0  0  0  0
   -0.7500   -1.2990    0.0000 C   0  0  0  0  0  0  0  0  0  0  0  0
   -1.5000    0.0000    0.0000 C   0  0  0  0  0  0  0  0  0  0  0  0
   -3.0000    0.0000    0.0000 C   0  0  0  0  0  0  0  0  0  0  0  0
   -3.8817   -1.2135    0.0000 C   0  0  0  0  0  0  0  0  0  0  0  0
   -5.3083   -0.7500    0.0000 C   0  0  0  0  0  0  0  0  0  0  0  0
   -5.3083    0.7500    0.0000 N   0  0  0  0  0  0  0  0  0  0  0  0
   -6.5218    1.6317    0.0000 C   0  0  0  0  0  0  0  0  0  0  0  0
   -7.8921    1.0216    0.0000 O   0  0  0  0  0  0  0  0  0  0  0  0
   -6.3650    3.1235    0.0000 C   0  0  0  0  0  0  0  0  0  0  0  0
   -7.5785    4.0051    0.0000 C   0  0  0  0  0  0  0  0  0  0  0  0
   -7.4217    5.4969    0.0000 C   0  0  0  0  0  0  0  0  0  0  0  0
   -8.6353    6.3786    0.0000 C   0  0  0  0  0  0  0  0  0  0  0  0
  -10.0056    5.7685    0.0000 C   0  0  0  0  0  0  0  0  0  0  0  0
  -10.1624    4.2767    0.0000 C   0  0  0  0  0  0  0  0  0  0  0  0
   -8.9488    3.3950    0.0000 C   0  0  0  0  0  0  0  0  0  0  0  0
   -3.8817    1.2135    0.0000 C   0  0  0  0  0  0  0  0  0  0  0  0
   -0.7500    1.2990    0.0000 C   0  0  0  0  0  0  0  0  0  0  0  0
    0.7500    1.2990    0.0000 C   0  0  0  0  0  0  0  0  0  0  0  0
  1  2  3  0
  2  3  1  0
  3  4  2  0
  4  5  1  0
  5  6  2  0
  6  7  1  0
  7  8  1  0
  8  9  1  0
  9 10  1  0
 10 11  1  0
 11 12  2  0
 11 13  1  0
 13 14  1  0
 14 15  1  0
 15 16  1  0
 16 17  1  0
 17 18  1  0
 18 19  1  0
 10 20  1  0
  6 21  1  0
 21 22  2  0
 22  3  1  0
 20  7  1  0
 19 14  1  0
M  END
>  <Title>  (759) 
idABBKgen7

$$$$

     RDKit          2D

110110  0  0  0  0  0  0  0  0999 V2000
   27.5254    0.0000    0.0000 C   0  0  0  0  0  0  0  0  0  0  0  0
   26.0254    0.0000    0.0000 C   0  0  0  0  0  0  0  0  0  0  0  0
   25.9822    1.4994    0.0000 C   0  0  0  0  0  0  0  0  0  0  0  0
   25.8527    2.9938    0.0000 C   0  0  0  0  0  0  0  0  0  0  0  0
   25.6373    4.4782    0.0000 C   0  0  0  0  0  0  0  0  0  0  0  0
   25.3367    5.9478    0.0000 C   0  0  0  0  0  0  0  0  0  0  0  0
   24.9519    7.3976    0.0000 C   0  0  0  0  0  0  0  0  0  0  0  0
   24.4843    8.8229    0.0000 C   0  0  0  0  0  0  0  0  0  0  0  0
   23.9353   10.2188    0.0000 C   0  0  0  0  0  0  0  0  0  0  0  0
   23.3068   11.5808    0.0000 C   0  0  0  0  0  0  0  0  0  0  0  0
   22.6009   12.9043    0.0000 C   0  0  0  0  0  0  0  0  0  0  0  0
   21.8200   14.1850    0.0000 C   0  0  0  0  0  0  0  0  0  0  0  0
   20.9665   15.4185    0.0000 C   0  0  0  0  0  0  0  0  0  0  0  0
   20.0434   16.6008    0.0000 C   0  0  0  0  0  0  0  0  0  0  0  0
   19.0537   17.7280    0.0000 C   0  0  0  0  0  0  0  0  0  0  0  0
   18.0007   18.7962    0.0000 C   0  0  0  0  0  0  0  0  0  0  0  0
   16.8879   19.8021    0.0000 C   0  0  0  0  0  0  0  0  0  0  0  0
   15.7190   20.7421    0.0000 C   0  0  0  0  0  0  0  0  0  0  0  0
   14.4979   21.6133    0.0000 C   0  0  0  0  0  0  0  0  0  0  0  0
   13.2287   22.4126    0.0000 C   0  0  0  0  0  0  0  0  0  0  0  0
   11.9154   23.1375    0.0000 C   0  0  0  0  0  0  0  0  0  0  0  0
   10.5627   23.7856    0.0000 C   0  0  0  0  0  0  0  0  0  0  0  0
    9.1748   24.3546    0.0000 C   0  0  0  0  0  0  0  0  0  0  0  0
    7.7564   24.8427    0.0000 C   0  0  0  0  0  0  0  0  0  0  0  0
    6.3123   25.2483    0.0000 C   0  0  0  0  0  0  0  0  0  0  0  0
    4.8472   25.5701    0.0000 C   0  0  0  0  0  0  0  0  0  0  0  0
    3.3660   25.8068    0.0000 C   0  0  0  0  0  0  0  0  0  0  0  0
    1.8736   25.9579    0.0000 C   0  0  0  0  0  0  0  0  0  0  0  0
    0.3750   26.0227    0.0000 C   0  0  0  0  0  0  0  0  0  0  0  0
   -1.1248   26.0011    0.0000 C   0  0  0  0  0  0  0  0  0  0  0  0
   -2.6209   25.8931    0.0000 C   0  0  0  0  0  0  0  0  0  0  0  0
   -4.1083   25.6991    0.0000 C   0  0  0  0  0  0  0  0  0  0  0  0
   -5.5821   25.4198    0.0000 C   0  0  0  0  0  0  0  0  0  0  0  0
   -7.0373   25.0559    0.0000 C   0  0  0  0  0  0  0  0  0  0  0  0
   -8.4691   24.6089    0.0000 C   0  0  0  0  0  0  0  0  0  0  0  0
   -9.8728   24.0801    0.0000 C   0  0  0  0  0  0  0  0  0  0  0  0
  -11.2437   23.4713    0.0000 C   0  0  0  0  0  0  0  0  0  0  0  0
  -12.5773   22.7845    0.0000 C   0  0  0  0  0  0  0  0  0  0  0  0
  -13.8690   22.0221    0.0000 C   0  0  0  0  0  0  0  0  0  0  0  0
  -15.1147   21.1865    0.0000 C   0  0  0  0  0  0  0  0  0  0  0  0
  -16.3102   20.2805    0.0000 C   0  0  0  0  0  0  0  0  0  0  0  0
  -17.4515   19.3072    0.0000 C   0  0  0  0  0  0  0  0  0  0  0  0
  -18.5349   18.2697    0.0000 C   0  0  0  0  0  0  0  0  0  0  0  0
  -19.5567   17.1715    0.0000 C   0  0  0  0  0  0  0  0  0  0  0  0
  -20.5135   16.0163    0.0000 C   0  0  0  0  0  0  0  0  0  0  0  0
  -21.4021   14.8079    0.0000 C   0  0  0  0  0  0  0  0  0  0  0  0
  -22.2197   13.5503    0.0000 C   0  0  0  0  0  0  0  0  0  0  0  0
  -22.9634   12.2476    0.0000 C   0  0  0  0  0  0  0  0  0  0  0  0
  -23.6309   10.9043    0.0000 C   0  0  0  0  0  0  0  0  0  0  0  0
  -24.2199    9.5248    0.0000 C   0  0  0  0  0  0  0  0  0  0  0  0
  -24.7284    8.1136    0.0000 C   0  0  0  0  0  0  0  0  0  0  0  0
  -25.1547    6.6755    0.0000 C   0  0  0  0  0  0  0  0  0  0  0  0
  -25.4976    5.2152    0.0000 C   0  0  0  0  0  0  0  0  0  0  0  0
  -25.7557    3.7376    0.0000 C   0  0  0  0  0  0  0  0  0  0  0  0
  -25.9282    2.2475    0.0000 C   0  0  0  0  0  0  0  0  0  0  0  0
  -26.0146    0.7500    0.0000 C   0  0  0  0  0  0  0  0  0  0  0  0
  -26.0146   -0.7500    0.0000 C   0  0  0  0  0  0  0  0  0  0  0  0
  -25.9282   -2.2475    0.0000 C   0  0  0  0  0  0  0  0  0  0  0  0
  -25.7557   -3.7376    0.0000 C   0  0  0  0  0  0  0  0  0  0  0  0
  -25.4976   -5.2152    0.0000 C   0  0  0  0  0  0  0  0  0  0  0  0
  -25.1547   -6.6755    0.0000 C   0  0  0  0  0  0  0  0  0  0  0  0
  -24.7284   -8.1136    0.0000 C   0  0  0  0  0  0  0  0  0  0  0  0
  -24.2199   -9.5248    0.0000 C   0  0  0  0  0  0  0  0  0  0  0  0
  -23.6309  -10.9043    0.0000 C   0  0  0  0  0  0  0  0  0  0  0  0
  -22.9634  -12.2476    0.0000 C   0  0  0  0  0  0  0  0  0  0  0  0
  -22.2197  -13.5503    0.0000 C   0  0  0  0  0  0  0  0  0  0  0  0
  -21.4021  -14.8079    0.0000 C   0  0  0  0  0  0  0  0  0  0  0  0
  -20.5135  -16.0163    0.0000 C   0  0  0  0  0  0  0  0  0  0  0  0
  -19.5567  -17.1715    0.0000 C   0  0  0  0  0  0  0  0  0  0  0  0
  -18.5349  -18.2697    0.0000 C   0  0  0  0  0  0  0  0  0  0  0  0
  -17.4515  -19.3072    0.0000 C   0  0  0  0  0  0  0  0  0  0  0  0
  -16.3102  -20.2805    0.0000 C   0  0  0  0  0  0  0  0  0  0  0  0
  -15.1147  -21.1865    0.0000 C   0  0  0  0  0  0  0  0  0  0  0  0
  -13.8690  -22.0221    0.0000 C   0  0  0  0  0  0  0  0  0  0  0  0
  -12.5773  -22.7845    0.0000 C   0  0  0  0  0  0  0  0  0  0  0  0
  -11.2437  -23.4713    0.0000 C   0  0  0  0  0  0  0  0  0  0  0  0
   -9.8728  -24.0801    0.0000 C   0  0  0  0  0  0  0  0  0  0  0  0
   -8.4691  -24.6089    0.0000 C   0  0  0  0  0  0  0  0  0  0  0  0
   -7.0373  -25.0559    0.0000 C   0  0  0  0  0  0  0  0  0  0  0  0
   -5.5821  -25.4198    0.0000 C   0  0  0  0  0  0  0  0  0  0  0  0
   -4.1083  -25.6991    0.0000 C   0  0  0  0  0  0  0  0  0  0  0  0
   -2.6209  -25.8931    0.0000 C   0  0  0  0  0  0  0  0  0  0  0  0
   -1.1248  -26.0011    0.0000 C   0  0  0  0  0  0  0  0  0  0  0  0
    0.3750  -26.0227    0.0000 C   0  0  0  0  0  0  0  0  0  0  0  0
    1.8736  -25.9579    0.0000 C   0  0  0  0  0  0  0  0  0  0  0  0
    3.3660  -25.8068    0.0000 C   0  0  0  0  0  0  0  0  0  0  0  0
    4.8472  -25.5701    0.0000 C   0  0  0  0  0  0  0  0  0  0  0  0
    6.3123  -25.2483    0.0000 C   0  0  0  0  0  0  0  0  0  0  0  0
    7.7564  -24.8427    0.0000 C   0  0  0  0  0  0  0  0  0  0  0  0
    9.1748  -24.3546    0.0000 C   0  0  0  0  0  0  0  0  0  0  0  0
   10.5627  -23.7856    0.0000 C   0  0  0  0  0  0  0  0  0  0  0  0
   11.9154  -23.1375    0.0000 C   0  0  0  0  0  0  0  0  0  0  0  0
   13.2287  -22.4126    0.0000 C   0  0  0  0  0  0  0  0  0  0  0  0
   14.4979  -21.6133    0.0000 C   0  0  0  0  0  0  0  0  0  0  0  0
   15.7190  -20.7421    0.0000 C   0  0  0  0  0  0  0  0  0  0  0  0
   16.8879  -19.8021    0.0000 C   0  0  0  0  0  0  0  0  0  0  0  0
   18.0007  -18.7962    0.0000 C   0  0  0  0  0  0  0  0  0  0  0  0
   19.0537  -17.7280    0.0000 C   0  0  0  0  0  0  0  0  0  0  0  0
   20.0434  -16.6008    0.0000 C   0  0  0  0  0  0  0  0  0  0  0  0
   20.9665  -15.4185    0.0000 C   0  0  0  0  0  0  0  0  0  0  0  0
   21.8200  -14.1850    0.0000 C   0  0  0  0  0  0  0  0  0  0  0  0
   22.6009  -12.9043    0.0000 C   0  0  0  0  0  0  0  0  0  0  0  0
   23.3068  -11.5808    0.0000 C   0  0  0  0  0  0  0  0  0  0  0  0
   23.9353  -10.2188    0.0000 C   0  0  0  0  0  0  0  0  0  0  0  0
   24.4843   -8.8229    0.0000 C   0  0  0  0  0  0  0  0  0  0  0  0
   24.9519   -7.3976    0.0000 C   0  0  0  0  0  0  0  0  0  0  0  0
   25.3367   -5.9478    0.0000 C   0  0  0  0  0  0  0  0  0  0  0  0
   25.6373   -4.4782    0.0000 C   0  0  0  0  0  0  0  0  0  0  0  0
   25.8527   -2.9938    0.0000 C   0  0  0  0  0  0  0  0  0  0  0  0
   25.9822   -1.4994    0.0000 C   0  0  0  0  0  0  0  0  0  0  0  0
  1  2  1  0
  2  3  1  0
  3  4  1  0
  4  5  1  0
  5  6  1  0
  6  7  1  0
  7  8  1  0
  8  9  1  0
  9 10  1  0
 10 11  1  0
 11 12  1  0
 12 13  1  0
 13 14  1  0
 14 15  1  0
 15 16  1  0
 16 17  1  0
 17 18  1  0
 18 19  1  0
 19 20  1  0
 20 21  1  0
 21 22  1  0
 22 23  1  0
 23 24  1  0
 24 25  1  0
 25 26  1  0
 26 27  1  0
 27 28  1  0
 28 29  1  0
 29 30  1  0
 30 31  1  0
 31 32  1  0
 32 33  1  0
 33 34  1  0
 34 35  1  0
 35 36  1  0
 36 37  1  0
 37 38  1  0
 38 39  1  0
 39 40  1  0
 40 41  1  0
 41 42  1  0
 42 43  1  0
 43 44  1  0
 44 45  1  0
 45 46  1  0
 46 47  1  0
 47 48  1  0
 48 49  1  0
 49 50  1  0
 50 51  1  0
 51 52  1  0
 52 53  1  0
 53 54  1  0
 54 55  1  0
 55 56  1  0
 56 57  1  0
 57 58  1  0
 58 59  1  0
 59 60  1  0
 60 61  1  0
 61 62  1  0
 62 63  1  0
 63 64  1  0
 64 65  1  0
 65 66  1  0
 66 67  1  0
 67 68  1  0
 68 69  1  0
 69 70  1  0
 70 71  1  0
 71 72  1  0
 72 73  1  0
 73 74  1  0
 74 75  1  0
 75 76  1  0
 76 77  1  0
 77 78  1  0
 78 79  1  0
 79 80  1  0
 80 81  1  0
 81 82  1  0
 82 83  1  0
 83 84  1  0
 84 85  1  0
 85 86  1  0
 86 87  1  0
 87 88  1  0
 88 89  1  0
 89 90  1  0
 90 91  1  0
 91 92  1  0
 92 93  1  0
 93 94  1  0
 94 95  1  0
 95 96  1  0
 96 97  1  0
 97 98  1  0
 98 99  1  0
 99100  1  0
100101  1  0
101102  1  0
102103  1  0
103104  1  0
104105  1  0
105106  1  0
106107  1  0
107108  1  0
108109  1  0
109110  1  0
110  2  1  0
M  END
>  <Title>  (760) 
idABBLgen7

$$$$

     RDKit          2D

105105  0  0  0  0  0  0  0  0999 V2000
   25.0706    0.0000    0.0000 C   0  0  0  0  0  0  0  0  0  0  0  0
   25.0258    1.4993    0.0000 C   0  0  0  0  0  0  0  0  0  0  0  0
   24.8913    2.9933    0.0000 C   0  0  0  0  0  0  0  0  0  0  0  0
   24.6677    4.4765    0.0000 C   0  0  0  0  0  0  0  0  0  0  0  0
   24.3559    5.9438    0.0000 C   0  0  0  0  0  0  0  0  0  0  0  0
   23.9568    7.3897    0.0000 C   0  0  0  0  0  0  0  0  0  0  0  0
   23.4720    8.8092    0.0000 C   0  0  0  0  0  0  0  0  0  0  0  0
   22.9032   10.1971    0.0000 C   0  0  0  0  0  0  0  0  0  0  0  0
   22.2523   11.5486    0.0000 C   0  0  0  0  0  0  0  0  0  0  0  0
   21.5219   12.8587    0.0000 C   0  0  0  0  0  0  0  0  0  0  0  0
   20.7143   14.1228    0.0000 C   0  0  0  0  0  0  0  0  0  0  0  0
   19.8327   15.3363    0.0000 C   0  0  0  0  0  0  0  0  0  0  0  0
   18.8800   16.4949    0.0000 C   0  0  0  0  0  0  0  0  0  0  0  0
   17.8597   17.5945    0.0000 C   0  0  0  0  0  0  0  0  0  0  0  0
   16.7755   18.6311    0.0000 C   0  0  0  0  0  0  0  0  0  0  0  0
   15.6313   19.6010    0.0000 C   0  0  0  0  0  0  0  0  0  0  0  0
   14.4311   20.5008    0.0000 C   0  0  0  0  0  0  0  0  0  0  0  0
   13.1792   21.3271    0.0000 C   0  0  0  0  0  0  0  0  0  0  0  0
   11.8802   22.0771    0.0000 C   0  0  0  0  0  0  0  0  0  0  0  0
   10.5386   22.7481    0.0000 C   0  0  0  0  0  0  0  0  0  0  0  0
    9.1593   23.3376    0.0000 C   0  0  0  0  0  0  0  0  0  0  0  0
    7.7473   23.8436    0.0000 C   0  0  0  0  0  0  0  0  0  0  0  0
    6.3074   24.2642    0.0000 C   0  0  0  0  0  0  0  0  0  0  0  0
    4.8451   24.5980    0.0000 C   0  0  0  0  0  0  0  0  0  0  0  0
    3.3653   24.8437    0.0000 C   0  0  0  0  0  0  0  0  0  0  0  0
    1.8735   25.0005    0.0000 C   0  0  0  0  0  0  0  0  0  0  0  0
    0.3750   25.0678    0.0000 C   0  0  0  0  0  0  0  0  0  0  0  0
   -1.1248   25.0454    0.0000 C   0  0  0  0  0  0  0  0  0  0  0  0
   -2.6206   24.9333    0.0000 C   0  0  0  0  0  0  0  0  0  0  0  0
   -4.1070   24.7320    0.0000 N   0  0  0  0  0  0  0  0  0  0  0  0
   -5.5787   24.4421    0.0000 C   0  0  0  0  0  0  0  0  0  0  0  0
   -7.0305   24.0647    0.0000 C   0  0  0  0  0  0  0  0  0  0  0  0
   -8.4571   23.6012    0.0000 C   0  0  0  0  0  0  0  0  0  0  0  0
   -9.8534   23.0532    0.0000 C   0  0  0  0  0  0  0  0  0  0  0  0
  -11.2144   22.4226    0.0000 C   0  0  0  0  0  0  0  0  0  0  0  0
  -12.5353   21.7118    0.0000 C   0  0  0  0  0  0  0  0  0  0  0  0
  -13.8113   20.9233    0.0000 C   0  0  0  0  0  0  0  0  0  0  0  0
  -15.0379   20.0599    0.0000 C   0  0  0  0  0  0  0  0  0  0  0  0
  -16.2107   19.1246    0.0000 C   0  0  0  0  0  0  0  0  0  0  0  0
  -17.3254   18.1209    0.0000 C   0  0  0  0  0  0  0  0  0  0  0  0
  -18.3781   17.0524    0.0000 C   0  0  0  0  0  0  0  0  0  0  0  0
  -19.3650   15.9228    0.0000 C   0  0  0  0  0  0  0  0  0  0  0  0
  -20.2826   14.7362    0.0000 C   0  0  0  0  0  0  0  0  0  0  0  0
  -21.1276   13.4968    0.0000 C   0  0  0  0  0  0  0  0  0  0  0  0
  -21.8969   12.2091    0.0000 C   0  0  0  0  0  0  0  0  0  0  0  0
  -22.5879   10.8777    0.0000 C   0  0  0  0  0  0  0  0  0  0  0  0
  -23.1980    9.5074    0.0000 C   0  0  0  0  0  0  0  0  0  0  0  0
  -23.7250    8.1031    0.0000 C   0  0  0  0  0  0  0  0  0  0  0  0
  -24.1672    6.6697    0.0000 C   0  0  0  0  0  0  0  0  0  0  0  0
  -24.5228    5.2125    0.0000 C   0  0  0  0  0  0  0  0  0  0  0  0
  -24.7906    3.7366    0.0000 C   0  0  0  0  0  0  0  0  0  0  0  0
  -24.9697    2.2473    0.0000 C   0  0  0  0  0  0  0  0  0  0  0  0
  -25.0594    0.7500    0.0000 C   0  0  0  0  0  0  0  0  0  0  0  0
  -25.0594   -0.7500    0.0000 C   0  0  0  0  0  0  0  0  0  0  0  0
  -24.9697   -2.2473    0.0000 C   0  0  0  0  0  0  0  0  0  0  0  0
  -24.7906   -3.7366    0.0000 C   0  0  0  0  0  0  0  0  0  0  0  0
  -24.5228   -5.2125    0.0000 C   0  0  0  0  0  0  0  0  0  0  0  0
  -24.1672   -6.6697    0.0000 C   0  0  0  0  0  0  0  0  0  0  0  0
  -23.7250   -8.1031    0.0000 C   0  0  0  0  0  0  0  0  0  0  0  0
  -23.1980   -9.5074    0.0000 C   0  0  0  0  0  0  0  0  0  0  0  0
  -22.5879  -10.8777    0.0000 C   0  0  0  0  0  0  0  0  0  0  0  0
  -21.8969  -12.2091    0.0000 C   0  0  0  0  0  0  0  0  0  0  0  0
  -21.1276  -13.4968    0.0000 C   0  0  0  0  0  0  0  0  0  0  0  0
  -20.2826  -14.7362    0.0000 C   0  0  0  0  0  0  0  0  0  0  0  0
  -19.3650  -15.9228    0.0000 C   0  0  0  0  0  0  0  0  0  0  0  0
  -18.3781  -17.0524    0.0000 C   0  0  0  0  0  0  0  0  0  0  0  0
  -17.3254  -18.1209    0.0000 C   0  0  0  0  0  0  0  0  0  0  0  0
  -16.2107  -19.1246    0.0000 C   0  0  0  0  0  0  0  0  0  0  0  0
  -15.0379  -20.0599    0.0000 C   0  0  0  0  0  0  0  0  0  0  0  0
  -13.8113  -20.9233    0.0000 C   0  0  0  0  0  0  0  0  0  0  0  0
  -12.5353  -21.7118    0.0000 C   0  0  0  0  0  0  0  0  0  0  0  0
  -11.2144  -22.4226    0.0000 C   0  0  0  0  0  0  0  0  0  0  0  0
   -9.8534  -23.0532    0.0000 C   0  0  0  0  0  0  0  0  0  0  0  0
   -8.4571  -23.6012    0.0000 C   0  0  0  0  0  0  0  0  0  0  0  0
   -7.0305  -24.0647    0.0000 C   0  0  0  0  0  0  0  0  0  0  0  0
   -5.5787  -24.4421    0.0000 C   0  0  0  0  0  0  0  0  0  0  0  0
   -4.1070  -24.7320    0.0000 C   0  0  0  0  0  0  0  0  0  0  0  0
   -2.6206  -24.9333    0.0000 N   0  0  0  0  0  0  0  0  0  0  0  0
   -1.1248  -25.0454    0.0000 C   0  0  0  0  0  0  0  0  0  0  0  0
    0.3750  -25.0678    0.0000 C   0  0  0  0  0  0  0  0  0  0  0  0
    1.8735  -25.0005    0.0000 C   0  0  0  0  0  0  0  0  0  0  0  0
    3.3653  -24.8437    0.0000 C   0  0  0  0  0  0  0  0  0  0  0  0
    4.8451  -24.5980    0.0000 C   0  0  0  0  0  0  0  0  0  0  0  0
    6.3074  -24.2642    0.0000 C   0  0  0  0  0  0  0  0  0  0  0  0
    7.7473  -23.8436    0.0000 C   0  0  0  0  0  0  0  0  0  0  0  0
    9.1593  -23.3376    0.0000 C   0  0  0  0  0  0  0  0  0  0  0  0
   10.5386  -22.7481    0.0000 C   0  0  0  0  0  0  0  0  0  0  0  0
   11.8802  -22.0771    0.0000 C   0  0  0  0  0  0  0  0  0  0  0  0
   13.1792  -21.3271    0.0000 C   0  0  0  0  0  0  0  0  0  0  0  0
   14.4311  -20.5008    0.0000 C   0  0  0  0  0  0  0  0  0  0  0  0
   15.6313  -19.6010    0.0000 C   0  0  0  0  0  0  0  0  0  0  0  0
   16.7755  -18.6311    0.0000 C   0  0  0  0  0  0  0  0  0  0  0  0
   17.8597  -17.5945    0.0000 C   0  0  0  0  0  0  0  0  0  0  0  0
   18.8800  -16.4949    0.0000 C   0  0  0  0  0  0  0  0  0  0  0  0
   19.8327  -15.3363    0.0000 C   0  0  0  0  0  0  0  0  0  0  0  0
   20.7143  -14.1228    0.0000 C   0  0  0  0  0  0  0  0  0  0  0  0
   21.5219  -12.8587    0.0000 C   0  0  0  0  0  0  0  0  0  0  0  0
   22.2523  -11.5486    0.0000 C   0  0  0  0  0  0  0  0  0  0  0  0
   22.9032  -10.1971    0.0000 C   0  0  0  0  0  0  0  0  0  0  0  0
   23.4720   -8.8092    0.0000 C   0  0  0  0  0  0  0  0  0  0  0  0
   23.9568   -7.3897    0.0000 C   0  0  0  0  0  0  0  0  0  0  0  0
   24.3559   -5.9438    0.0000 C   0  0  0  0  0  0  0  0  0  0  0  0
   24.6677   -4.4765    0.0000 C   0  0  0  0  0  0  0  0  0  0  0  0
   24.8913   -2.9933    0.0000 C   0  0  0  0  0  0  0  0  0  0  0  0
   25.0258   -1.4993    0.0000 C   0  0  0  0  0  0  0  0  0  0  0  0
  1  2  1  0
  2  3  1  0
  3  4  1  0
  4  5  1  0
  5  6  1  0
  6  7  1  0
  7  8  1  0
  8  9  1  0
  9 10  1  0
 10 11  1  0
 11 12  1  0
 12 13  1  0
 13 14  1  0
 14 15  1  0
 15 16  1  0
 16 17  1  0
 17 18  1  0
 18 19  1  0
 19 20  1  0
 20 21  1  0
 21 22  1  0
 22 23  1  0
 23 24  1  0
 24 25  1  0
 25 26  1  0
 26 27  1  0
 27 28  1  0
 28 29  1  0
 29 30  1  0
 30 31  1  0
 31 32  1  0
 32 33  1  0
 33 34  1  0
 34 35  1  0
 35 36  1  0
 36 37  1  0
 37 38  1  0
 38 39  1  0
 39 40  1  0
 40 41  1  0
 41 42  1  0
 42 43  1  0
 43 44  1  0
 44 45  1  0
 45 46  1  0
 46 47  1  0
 47 48  1  0
 48 49  1  0
 49 50  1  0
 50 51  1  0
 51 52  1  0
 52 53  1  0
 53 54  1  0
 54 55  1  0
 55 56  1  0
 56 57  1  0
 57 58  1  0
 58 59  1  0
 59 60  1  0
 60 61  1  0
 61 62  1  0
 62 63  1  0
 63 64  1  0
 64 65  1  0
 65 66  1  0
 66 67  1  0
 67 68  1  0
 68 69  1  0
 69 70  1  0
 70 71  1  0
 71 72  1  0
 72 73  1  0
 73 74  1  0
 74 75  1  0
 75 76  1  0
 76 77  1  0
 77 78  1  0
 78 79  1  0
 79 80  1  0
 80 81  1  0
 81 82  1  0
 82 83  1  0
 83 84  1  0
 84 85  1  0
 85 86  1  0
 86 87  1  0
 87 88  1  0
 88 89  1  0
 89 90  1  0
 90 91  1  0
 91 92  1  0
 92 93  1  0
 93 94  1  0
 94 95  1  0
 95 96  1  0
 96 97  1  0
 97 98  1  0
 98 99  1  0
 99100  1  0
100101  1  0
101102  1  0
102103  1  0
103104  1  0
104105  1  0
105  1  1  0
M  END
>  <Title>  (761) 
idABBMgen7

$$$$

     RDKit          2D

 10 10  0  0  0  0  0  0  0  0999 V2000
    3.6929    0.0000    0.0000 C   0  0  0  0  0  0  0  0  0  0  0  0
    2.1929    0.0000    0.0000 C   0  0  0  0  0  0  0  0  0  0  0  0
    1.6798    1.4095    0.0000 C   0  0  0  0  0  0  0  0  0  0  0  0
    0.3808    2.1595    0.0000 C   0  0  0  0  0  0  0  0  0  0  0  0
   -1.0964    1.8991    0.0000 C   0  0  0  0  0  0  0  0  0  0  0  0
   -2.0606    0.7500    0.0000 C   0  0  0  0  0  0  0  0  0  0  0  0
   -2.0606   -0.7500    0.0000 C   0  0  0  0  0  0  0  0  0  0  0  0
   -1.0964   -1.8991    0.0000 C   0  0  0  0  0  0  0  0  0  0  0  0
    0.3808   -2.1595    0.0000 C   0  0  0  0  0  0  0  0  0  0  0  0
    1.6798   -1.4095    0.0000 C   0  0  0  0  0  0  0  0  0  0  0  0
  1  2  1  0
  2  3  1  0
  3  4  1  0
  4  5  1  0
  5  6  1  0
  6  7  1  0
  7  8  1  0
  8  9  1  0
  9 10  1  0
 10  2  1  0
M  END
>  <Title>  (762) 
idABBNgen7

$$$$

     RDKit          2D

 26 29  0  0  0  0  0  0  0  0999 V2000
   -3.5094    0.4568    0.0000 C   0  0  0  0  0  0  0  0  0  0  0  0
   -2.3688    1.4310    0.0000 C   0  0  0  0  0  0  0  0  0  0  0  0
   -2.8323    2.8576    0.0000 C   0  0  0  0  0  0  0  0  0  0  0  0
   -2.1513    4.1941    0.0000 C   0  0  0  0  0  0  0  0  0  0  0  0
   -0.7248    4.6576    0.0000 C   0  0  0  0  0  0  0  0  0  0  0  0
   -0.6071    6.1530    0.0000 C   0  0  0  0  0  0  0  0  0  0  0  0
   -1.8433    7.0026    0.0000 O   0  0  0  0  0  0  0  0  0  0  0  0
    0.7468    6.7987    0.0000 N   0  0  0  0  0  0  0  0  0  0  0  0
    0.8645    8.2941    0.0000 C   0  0  0  0  0  0  0  0  0  0  0  0
   -0.2761    9.2683    0.0000 N   0  0  0  0  0  0  0  0  0  0  0  0
    0.2979   10.6541    0.0000 N   0  0  0  0  0  0  0  0  0  0  0  0
    1.7933   10.5364    0.0000 N   0  0  0  0  0  0  0  0  0  0  0  0
    2.1435    9.0779    0.0000 N   0  0  0  0  0  0  0  0  0  0  0  0
    3.5293    8.5038    0.0000 C   0  0  0  0  0  0  0  0  0  0  0  0
    3.7251    7.0167    0.0000 C   0  0  0  0  0  0  0  0  0  0  0  0
    5.1109    6.4427    0.0000 C   0  0  0  0  0  0  0  0  0  0  0  0
    6.3009    7.3558    0.0000 C   0  0  0  0  0  0  0  0  0  0  0  0
    6.1051    8.8430    0.0000 C   0  0  0  0  0  0  0  0  0  0  0  0
    4.7193    9.4170    0.0000 C   0  0  0  0  0  0  0  0  0  0  0  0
    0.6118    3.9766    0.0000 C   0  0  0  0  0  0  0  0  0  0  0  0
    1.0753    2.5500    0.0000 C   0  0  0  0  0  0  0  0  0  0  0  0
    0.3943    1.2135    0.0000 C   0  0  0  0  0  0  0  0  0  0  0  0
    1.2760    0.0000    0.0000 C   0  0  0  0  0  0  0  0  0  0  0  0
    0.3943   -1.2135    0.0000 C   0  0  0  0  0  0  0  0  0  0  0  0
   -1.0323   -0.7500    0.0000 C   0  0  0  0  0  0  0  0  0  0  0  0
   -1.0323    0.7500    0.0000 C   0  0  0  0  0  0  0  0  0  0  0  0
  1  2  1  0
  2  3  1  0
  3  4  1  0
  4  5  1  0
  5  6  1  0
  6  7  2  0
  6  8  1  0
  8  9  1  0
  9 10  2  0
 10 11  1  0
 11 12  2  0
 12 13  1  0
 13 14  1  0
 14 15  2  0
 15 16  1  0
 16 17  1  0
 17 18  1  0
 18 19  2  0
  5 20  2  0
 20 21  1  0
 21 22  2  0
 22 23  1  0
 23 24  1  0
 24 25  1  0
 25 26  1  0
 26  2  1  0
 13  9  1  0
 19 14  1  0
 26 22  1  0
M  END
>  <Title>  (763) 
idABBOgen7

$$$$

     RDKit          2D

 94 96  0  0  0  0  0  0  0  0999 V2000
   -2.3149    0.7135    0.0000 C   0  0  0  0  0  0  0  0  0  0  0  0
   -1.8176    2.1287    0.0000 C   0  0  0  0  0  0  0  0  0  0  0  0
   -3.2129    2.6792    0.0000 C   0  0  0  0  0  0  0  0  0  0  0  0
   -4.5626    3.3337    0.0000 C   0  0  0  0  0  0  0  0  0  0  0  0
   -5.8589    4.0883    0.0000 C   0  0  0  0  0  0  0  0  0  0  0  0
   -7.0945    4.9389    0.0000 C   0  0  0  0  0  0  0  0  0  0  0  0
   -8.2622    5.8805    0.0000 C   0  0  0  0  0  0  0  0  0  0  0  0
   -9.3553    6.9076    0.0000 C   0  0  0  0  0  0  0  0  0  0  0  0
  -10.3676    8.0145    0.0000 C   0  0  0  0  0  0  0  0  0  0  0  0
  -11.2933    9.1948    0.0000 C   0  0  0  0  0  0  0  0  0  0  0  0
  -12.1270   10.4418    0.0000 C   0  0  0  0  0  0  0  0  0  0  0  0
  -12.8641   11.7482    0.0000 C   0  0  0  0  0  0  0  0  0  0  0  0
  -13.5003   13.1066    0.0000 C   0  0  0  0  0  0  0  0  0  0  0  0
  -14.0319   14.5092    0.0000 C   0  0  0  0  0  0  0  0  0  0  0  0
  -14.4559   15.9480    0.0000 C   0  0  0  0  0  0  0  0  0  0  0  0
  -14.7699   17.4148    0.0000 C   0  0  0  0  0  0  0  0  0  0  0  0
  -14.9721   18.9011    0.0000 C   0  0  0  0  0  0  0  0  0  0  0  0
  -15.0612   20.3985    0.0000 C   0  0  0  0  0  0  0  0  0  0  0  0
  -15.0369   21.8983    0.0000 C   0  0  0  0  0  0  0  0  0  0  0  0
  -14.8992   23.3919    0.0000 C   0  0  0  0  0  0  0  0  0  0  0  0
  -14.6490   24.8709    0.0000 C   0  0  0  0  0  0  0  0  0  0  0  0
  -14.2876   26.3267    0.0000 C   0  0  0  0  0  0  0  0  0  0  0  0
  -13.8171   27.7510    0.0000 C   0  0  0  0  0  0  0  0  0  0  0  0
  -13.2403   29.1357    0.0000 C   0  0  0  0  0  0  0  0  0  0  0  0
  -12.5604   30.4728    0.0000 C   0  0  0  0  0  0  0  0  0  0  0  0
  -11.7813   31.7546    0.0000 C   0  0  0  0  0  0  0  0  0  0  0  0
  -10.9075   32.9738    0.0000 C   0  0  0  0  0  0  0  0  0  0  0  0
   -9.9440   34.1234    0.0000 C   0  0  0  0  0  0  0  0  0  0  0  0
   -8.8963   35.1969    0.0000 C   0  0  0  0  0  0  0  0  0  0  0  0
   -7.7705   36.1881    0.0000 C   0  0  0  0  0  0  0  0  0  0  0  0
   -6.5729   37.0913    0.0000 C   0  0  0  0  0  0  0  0  0  0  0  0
   -5.3104   37.9013    0.0000 C   0  0  0  0  0  0  0  0  0  0  0  0
   -3.9903   38.6135    0.0000 C   0  0  0  0  0  0  0  0  0  0  0  0
   -2.6201   39.2239    0.0000 C   0  0  0  0  0  0  0  0  0  0  0  0
   -1.2076   39.7289    0.0000 C   0  0  0  0  0  0  0  0  0  0  0  0
    0.2390   40.1256    0.0000 C   0  0  0  0  0  0  0  0  0  0  0  0
    1.7114   40.4118    0.0000 C   0  0  0  0  0  0  0  0  0  0  0  0
    3.2013   40.5857    0.0000 C   0  0  0  0  0  0  0  0  0  0  0  0
    4.7001   40.6466    0.0000 C   0  0  0  0  0  0  0  0  0  0  0  0
    6.1991   40.5939    0.0000 C   0  0  0  0  0  0  0  0  0  0  0  0
    7.6899   40.4279    0.0000 C   0  0  0  0  0  0  0  0  0  0  0  0
    9.1639   40.1497    0.0000 C   0  0  0  0  0  0  0  0  0  0  0  0
   10.6126   39.7608    0.0000 C   0  0  0  0  0  0  0  0  0  0  0  0
   12.0278   39.2635    0.0000 C   0  0  0  0  0  0  0  0  0  0  0  0
   13.4013   38.6606    0.0000 C   0  0  0  0  0  0  0  0  0  0  0  0
   14.7252   37.9555    0.0000 C   0  0  0  0  0  0  0  0  0  0  0  0
   15.9921   37.1523    0.0000 C   0  0  0  0  0  0  0  0  0  0  0  0
   17.1945   36.2556    0.0000 C   0  0  0  0  0  0  0  0  0  0  0  0
   18.3257   35.2705    0.0000 C   0  0  0  0  0  0  0  0  0  0  0  0
   19.3792   34.2027    0.0000 C   0  0  0  0  0  0  0  0  0  0  0  0
   20.3489   33.0583    0.0000 C   0  0  0  0  0  0  0  0  0  0  0  0
   21.2293   31.8438    0.0000 C   0  0  0  0  0  0  0  0  0  0  0  0
   22.0153   30.5662    0.0000 C   0  0  0  0  0  0  0  0  0  0  0  0
   22.7024   29.2329    0.0000 C   0  0  0  0  0  0  0  0  0  0  0  0
   23.2867   27.8514    0.0000 C   0  0  0  0  0  0  0  0  0  0  0  0
   23.7648   26.4296    0.0000 C   0  0  0  0  0  0  0  0  0  0  0  0
   24.1341   24.9758    0.0000 C   0  0  0  0  0  0  0  0  0  0  0  0
   24.3924   23.4982    0.0000 C   0  0  0  0  0  0  0  0  0  0  0  0
   24.5381   22.0053    0.0000 C   0  0  0  0  0  0  0  0  0  0  0  0
   24.5706   20.5056    0.0000 C   0  0  0  0  0  0  0  0  0  0  0  0
   24.4895   19.0078    0.0000 C   0  0  0  0  0  0  0  0  0  0  0  0
   24.2954   17.5204    0.0000 C   0  0  0  0  0  0  0  0  0  0  0  0
   23.9893   16.0520    0.0000 C   0  0  0  0  0  0  0  0  0  0  0  0
   23.5731   14.6109    0.0000 C   0  0  0  0  0  0  0  0  0  0  0  0
   23.0491   13.2054    0.0000 C   0  0  0  0  0  0  0  0  0  0  0  0
   22.4203   11.8436    0.0000 C   0  0  0  0  0  0  0  0  0  0  0  0
   21.6903   10.5332    0.0000 C   0  0  0  0  0  0  0  0  0  0  0  0
   20.8632    9.2818    0.0000 C   0  0  0  0  0  0  0  0  0  0  0  0
   19.9439    8.0965    0.0000 C   0  0  0  0  0  0  0  0  0  0  0  0
   18.9376    6.9841    0.0000 C   0  0  0  0  0  0  0  0  0  0  0  0
   17.8501    5.9511    0.0000 C   0  0  0  0  0  0  0  0  0  0  0  0
   16.6875    5.0032    0.0000 C   0  0  0  0  0  0  0  0  0  0  0  0
   15.4566    4.1460    0.0000 C   0  0  0  0  0  0  0  0  0  0  0  0
   14.1644    3.3843    0.0000 C   0  0  0  0  0  0  0  0  0  0  0  0
   12.8182    2.7225    0.0000 N   0  0  0  0  0  0  0  0  0  0  0  0
   11.4259    2.1645    0.0000 C   0  0  0  0  0  0  0  0  0  0  0  0
    9.9954    1.7133    0.0000 C   0  0  0  0  0  0  0  0  0  0  0  0
    8.5348    1.3716    0.0000 C   0  0  0  0  0  0  0  0  0  0  0  0
    7.0526    1.1414    0.0000 C   0  0  0  0  0  0  0  0  0  0  0  0
    5.5572    1.0239    0.0000 C   0  0  0  0  0  0  0  0  0  0  0  0
    4.0572    1.0198    0.0000 C   0  0  0  0  0  0  0  0  0  0  0  0
    4.6235    2.4088    0.0000 C   0  0  0  0  0  0  0  0  0  0  0  0
    3.4775    3.3766    0.0000 C   0  0  0  0  0  0  0  0  0  0  0  0
    3.5869    4.8726    0.0000 C   0  0  0  0  0  0  0  0  0  0  0  0
    3.6963    6.3687    0.0000 N   0  0  0  0  0  0  0  0  0  0  0  0
    2.2029    2.5858    0.0000 C   0  0  0  0  0  0  0  0  0  0  0  0
    2.5612    1.1292    0.0000 C   0  0  0  0  0  0  0  0  0  0  0  0
    1.0777    1.3515    0.0000 C   0  0  0  0  0  0  0  0  0  0  0  0
    1.7286    0.0000    0.0000 C   0  0  0  0  0  0  0  0  0  0  0  0
    1.0777   -1.3515    0.0000 C   0  0  0  0  0  0  0  0  0  0  0  0
   -0.3846   -1.6852    0.0000 C   0  0  0  0  0  0  0  0  0  0  0  0
   -1.5574   -0.7500    0.0000 C   0  0  0  0  0  0  0  0  0  0  0  0
   -1.5574    0.7500    0.0000 C   0  0  0  0  0  0  0  0  0  0  0  0
   -0.3846    1.6852    0.0000 C   0  0  0  0  0  0  0  0  0  0  0  0
  1  2  1  0
  2  3  1  0
  3  4  2  0
  4  5  1  0
  5  6  1  0
  6  7  2  0
  7  8  1  0
  8  9  1  0
  9 10  1  0
 10 11  1  0
 11 12  1  0
 12 13  1  0
 13 14  1  0
 14 15  1  0
 15 16  1  0
 16 17  1  0
 17 18  1  0
 18 19  1  0
 19 20  1  0
 20 21  1  0
 21 22  1  0
 22 23  1  0
 23 24  1  0
 24 25  1  0
 25 26  1  0
 26 27  1  0
 27 28  1  0
 28 29  1  0
 29 30  1  0
 30 31  1  0
 31 32  1  0
 32 33  1  0
 33 34  1  0
 34 35  1  0
 35 36  1  0
 36 37  1  0
 37 38  1  0
 38 39  1  0
 39 40  1  0
 40 41  1  0
 41 42  1  0
 42 43  1  0
 43 44  1  0
 44 45  1  0
 45 46  1  0
 46 47  1  0
 47 48  1  0
 48 49  1  0
 49 50  1  0
 50 51  1  0
 51 52  1  0
 52 53  1  0
 53 54  1  0
 54 55  1  0
 55 56  1  0
 56 57  1  0
 57 58  1  0
 58 59  1  0
 59 60  1  0
 60 61  1  0
 61 62  1  0
 62 63  1  0
 63 64  1  0
 64 65  1  0
 65 66  1  0
 66 67  2  0
 67 68  1  0
 68 69  2  0
 69 70  1  0
 70 71  2  0
 71 72  1  0
 72 73  2  0
 73 74  1  0
 74 75  2  0
 75 76  1  0
 76 77  2  0
 77 78  1  0
 78 79  2  0
 79 80  1  0
 80 81  2  0
 81 82  1  0
 82 83  1  0
 83 84  1  0
 84 85  3  0
 83 86  1  0
 86 87  2  0
 87 88  1  0
 88 89  2  0
 89 90  1  0
 90 91  1  0
 91 92  1  0
 92 93  1  0
 93 94  2  0
 94  2  1  0
 87 81  1  0
 94 88  1  0
M  END
>  <Title>  (764) 
idABBPgen7

$$$$

     RDKit          2D

106106  0  0  0  0  0  0  0  0999 V2000
   25.6159   -0.0000    0.0000 C   0  0  0  0  0  0  0  0  0  0  0  0
   24.1159    0.0000    0.0000 C   0  0  0  0  0  0  0  0  0  0  0  0
   24.0692    1.4993    0.0000 C   0  0  0  0  0  0  0  0  0  0  0  0
   23.9294    2.9927    0.0000 C   0  0  0  0  0  0  0  0  0  0  0  0
   23.6971    4.4746    0.0000 C   0  0  0  0  0  0  0  0  0  0  0  0
   23.3731    5.9392    0.0000 C   0  0  0  0  0  0  0  0  0  0  0  0
   22.9586    7.3808    0.0000 C   0  0  0  0  0  0  0  0  0  0  0  0
   22.4553    8.7939    0.0000 C   0  0  0  0  0  0  0  0  0  0  0  0
   21.8652   10.1729    0.0000 C   0  0  0  0  0  0  0  0  0  0  0  0
   21.1904   11.5126    0.0000 C   0  0  0  0  0  0  0  0  0  0  0  0
   20.4337   12.8077    0.0000 C   0  0  0  0  0  0  0  0  0  0  0  0
   19.5979   14.0533    0.0000 C   0  0  0  0  0  0  0  0  0  0  0  0
   18.6863   15.2445    0.0000 C   0  0  0  0  0  0  0  0  0  0  0  0
   17.7025   16.3767    0.0000 C   0  0  0  0  0  0  0  0  0  0  0  0
   16.6501   17.4456    0.0000 C   0  0  0  0  0  0  0  0  0  0  0  0
   15.5333   18.4470    0.0000 C   0  0  0  0  0  0  0  0  0  0  0  0
   14.3564   19.3770    0.0000 C   0  0  0  0  0  0  0  0  0  0  0  0
   13.1240   20.2321    0.0000 C   0  0  0  0  0  0  0  0  0  0  0  0
   11.8407   21.0088    0.0000 C   0  0  0  0  0  0  0  0  0  0  0  0
   10.5117   21.7043    0.0000 C   0  0  0  0  0  0  0  0  0  0  0  0
    9.1420   22.3159    0.0000 C   0  0  0  0  0  0  0  0  0  0  0  0
    7.7370   22.8411    0.0000 C   0  0  0  0  0  0  0  0  0  0  0  0
    6.3020   23.2779    0.0000 C   0  0  0  0  0  0  0  0  0  0  0  0
    4.8426   23.6246    0.0000 C   0  0  0  0  0  0  0  0  0  0  0  0
    3.3645   23.8800    0.0000 C   0  0  0  0  0  0  0  0  0  0  0  0
    1.8734   24.0430    0.0000 C   0  0  0  0  0  0  0  0  0  0  0  0
    0.3750   24.1129    0.0000 C   0  0  0  0  0  0  0  0  0  0  0  0
   -1.1248   24.0896    0.0000 C   0  0  0  0  0  0  0  0  0  0  0  0
   -2.6202   23.9731    0.0000 C   0  0  0  0  0  0  0  0  0  0  0  0
   -4.1056   23.7638    0.0000 C   0  0  0  0  0  0  0  0  0  0  0  0
   -5.5750   23.4626    0.0000 C   0  0  0  0  0  0  0  0  0  0  0  0
   -7.0229   23.0706    0.0000 C   0  0  0  0  0  0  0  0  0  0  0  0
   -8.4436   22.5894    0.0000 C   0  0  0  0  0  0  0  0  0  0  0  0
   -9.8316   22.0208    0.0000 C   0  0  0  0  0  0  0  0  0  0  0  0
  -11.1816   21.3669    0.0000 C   0  0  0  0  0  0  0  0  0  0  0  0
  -12.4884   20.6304    0.0000 C   0  0  0  0  0  0  0  0  0  0  0  0
  -13.7468   19.8141    0.0000 C   0  0  0  0  0  0  0  0  0  0  0  0
  -14.9521   18.9212    0.0000 C   0  0  0  0  0  0  0  0  0  0  0  0
  -16.0995   17.9550    0.0000 C   0  0  0  0  0  0  0  0  0  0  0  0
  -17.1846   16.9194    0.0000 C   0  0  0  0  0  0  0  0  0  0  0  0
  -18.2032   15.8183    0.0000 C   0  0  0  0  0  0  0  0  0  0  0  0
  -19.1514   14.6560    0.0000 C   0  0  0  0  0  0  0  0  0  0  0  0
  -20.0255   13.4370    0.0000 C   0  0  0  0  0  0  0  0  0  0  0  0
  -20.8222   12.1660    0.0000 C   0  0  0  0  0  0  0  0  0  0  0  0
  -21.5382   10.8480    0.0000 C   0  0  0  0  0  0  0  0  0  0  0  0
  -22.1710    9.4880    0.0000 C   0  0  0  0  0  0  0  0  0  0  0  0
  -22.7180    8.0913    0.0000 C   0  0  0  0  0  0  0  0  0  0  0  0
  -23.1771    6.6633    0.0000 C   0  0  0  0  0  0  0  0  0  0  0  0
  -23.5465    5.2095    0.0000 C   0  0  0  0  0  0  0  0  0  0  0  0
  -23.8248    3.7355    0.0000 C   0  0  0  0  0  0  0  0  0  0  0  0
  -24.0109    2.2471    0.0000 C   0  0  0  0  0  0  0  0  0  0  0  0
  -24.1042    0.7500    0.0000 C   0  0  0  0  0  0  0  0  0  0  0  0
  -24.1042   -0.7500    0.0000 C   0  0  0  0  0  0  0  0  0  0  0  0
  -24.0109   -2.2471    0.0000 C   0  0  0  0  0  0  0  0  0  0  0  0
  -23.8248   -3.7355    0.0000 C   0  0  0  0  0  0  0  0  0  0  0  0
  -23.5465   -5.2095    0.0000 C   0  0  0  0  0  0  0  0  0  0  0  0
  -23.1771   -6.6633    0.0000 C   0  0  0  0  0  0  0  0  0  0  0  0
  -22.7180   -8.0913    0.0000 C   0  0  0  0  0  0  0  0  0  0  0  0
  -22.1710   -9.4880    0.0000 C   0  0  0  0  0  0  0  0  0  0  0  0
  -21.5382  -10.8480    0.0000 C   0  0  0  0  0  0  0  0  0  0  0  0
  -20.8222  -12.1660    0.0000 C   0  0  0  0  0  0  0  0  0  0  0  0
  -20.0255  -13.4370    0.0000 C   0  0  0  0  0  0  0  0  0  0  0  0
  -19.1514  -14.6560    0.0000 C   0  0  0  0  0  0  0  0  0  0  0  0
  -18.2032  -15.8183    0.0000 C   0  0  0  0  0  0  0  0  0  0  0  0
  -17.1846  -16.9194    0.0000 C   0  0  0  0  0  0  0  0  0  0  0  0
  -16.0995  -17.9550    0.0000 C   0  0  0  0  0  0  0  0  0  0  0  0
  -14.9521  -18.9212    0.0000 C   0  0  0  0  0  0  0  0  0  0  0  0
  -13.7468  -19.8141    0.0000 C   0  0  0  0  0  0  0  0  0  0  0  0
  -12.4884  -20.6304    0.0000 C   0  0  0  0  0  0  0  0  0  0  0  0
  -11.1816  -21.3669    0.0000 C   0  0  0  0  0  0  0  0  0  0  0  0
   -9.8316  -22.0208    0.0000 C   0  0  0  0  0  0  0  0  0  0  0  0
   -8.4436  -22.5894    0.0000 C   0  0  0  0  0  0  0  0  0  0  0  0
   -7.0229  -23.0706    0.0000 C   0  0  0  0  0  0  0  0  0  0  0  0
   -5.5750  -23.4626    0.0000 C   0  0  0  0  0  0  0  0  0  0  0  0
   -4.1056  -23.7638    0.0000 C   0  0  0  0  0  0  0  0  0  0  0  0
   -2.6202  -23.9731    0.0000 C   0  0  0  0  0  0  0  0  0  0  0  0
   -1.1248  -24.0896    0.0000 C   0  0  0  0  0  0  0  0  0  0  0  0
    0.3750  -24.1129    0.0000 C   0  0  0  0  0  0  0  0  0  0  0  0
    1.8734  -24.0430    0.0000 C   0  0  0  0  0  0  0  0  0  0  0  0
    3.3645  -23.8800    0.0000 C   0  0  0  0  0  0  0  0  0  0  0  0
    4.8426  -23.6246    0.0000 C   0  0  0  0  0  0  0  0  0  0  0  0
    6.3020  -23.2779    0.0000 C   0  0  0  0  0  0  0  0  0  0  0  0
    7.7370  -22.8411    0.0000 C   0  0  0  0  0  0  0  0  0  0  0  0
    9.1420  -22.3159    0.0000 C   0  0  0  0  0  0  0  0  0  0  0  0
   10.5117  -21.7043    0.0000 C   0  0  0  0  0  0  0  0  0  0  0  0
   11.8407  -21.0088    0.0000 C   0  0  0  0  0  0  0  0  0  0  0  0
   13.1240  -20.2321    0.0000 C   0  0  0  0  0  0  0  0  0  0  0  0
   14.3564  -19.3770    0.0000 C   0  0  0  0  0  0  0  0  0  0  0  0
   15.5333  -18.4470    0.0000 C   0  0  0  0  0  0  0  0  0  0  0  0
   16.6501  -17.4456    0.0000 C   0  0  0  0  0  0  0  0  0  0  0  0
   17.7025  -16.3767    0.0000 C   0  0  0  0  0  0  0  0  0  0  0  0
   18.6863  -15.2445    0.0000 C   0  0  0  0  0  0  0  0  0  0  0  0
   19.5979  -14.0533    0.0000 C   0  0  0  0  0  0  0  0  0  0  0  0
   20.8169  -14.9274    0.0000 C   0  0  0  0  0  0  0  0  0  0  0  0
   20.4337  -12.8077    0.0000 C   0  0  0  0  0  0  0  0  0  0  0  0
   21.1904  -11.5126    0.0000 C   0  0  0  0  0  0  0  0  0  0  0  0
   21.8652  -10.1729    0.0000 C   0  0  0  0  0  0  0  0  0  0  0  0
   23.2252  -10.8057    0.0000 C   0  0  0  0  0  0  0  0  0  0  0  0
   22.4553   -8.7939    0.0000 C   0  0  0  0  0  0  0  0  0  0  0  0
   23.8521   -9.3409    0.0000 O   0  0  0  0  0  0  0  0  0  0  0  0
   22.9586   -7.3808    0.0000 C   0  0  0  0  0  0  0  0  0  0  0  0
   23.3731   -5.9392    0.0000 C   0  0  0  0  0  0  0  0  0  0  0  0
   23.6971   -4.4746    0.0000 C   0  0  0  0  0  0  0  0  0  0  0  0
   25.1710   -4.7530    0.0000 O   0  0  0  0  0  0  0  0  0  0  0  0
   23.9294   -2.9927    0.0000 C   0  0  0  0  0  0  0  0  0  0  0  0
   24.0692   -1.4993    0.0000 C   0  0  0  0  0  0  0  0  0  0  0  0
  1  2  1  0
  2  3  1  0
  3  4  1  0
  4  5  1  0
  5  6  1  0
  6  7  1  0
  7  8  1  0
  8  9  1  0
  9 10  1  0
 10 11  1  0
 11 12  1  0
 12 13  1  0
 13 14  1  0
 14 15  1  0
 15 16  1  0
 16 17  1  0
 17 18  1  0
 18 19  1  0
 19 20  1  0
 20 21  1  0
 21 22  1  0
 22 23  1  0
 23 24  1  0
 24 25  1  0
 25 26  1  0
 26 27  1  0
 27 28  1  0
 28 29  1  0
 29 30  1  0
 30 31  1  0
 31 32  1  0
 32 33  1  0
 33 34  1  0
 34 35  1  0
 35 36  1  0
 36 37  1  0
 37 38  1  0
 38 39  1  0
 39 40  1  0
 40 41  1  0
 41 42  1  0
 42 43  1  0
 43 44  1  0
 44 45  1  0
 45 46  1  0
 46 47  1  0
 47 48  1  0
 48 49  1  0
 49 50  1  0
 50 51  1  0
 51 52  1  0
 52 53  1  0
 53 54  1  0
 54 55  1  0
 55 56  1  0
 56 57  1  0
 57 58  1  0
 58 59  1  0
 59 60  1  0
 60 61  1  0
 61 62  1  0
 62 63  1  0
 63 64  1  0
 64 65  1  0
 65 66  1  0
 66 67  1  0
 67 68  1  0
 68 69  1  0
 69 70  1  0
 70 71  1  0
 71 72  1  0
 72 73  1  0
 73 74  1  0
 74 75  1  0
 75 76  1  0
 76 77  1  0
 77 78  1  0
 78 79  1  0
 79 80  1  0
 80 81  1  0
 81 82  1  0
 82 83  1  0
 83 84  1  0
 84 85  1  0
 85 86  1  0
 86 87  1  0
 87 88  1  0
 88 89  1  0
 89 90  1  0
 90 91  1  0
 91 92  1  0
 92 93  1  0
 93 94  1  0
 93 95  1  0
 95 96  1  0
 96 97  1  0
 97 98  1  0
 97 99  1  0
 99100  2  0
 99101  1  0
101102  1  0
102103  1  0
103104  1  0
103105  1  0
105106  1  0
106  2  1  0
M  END
>  <Title>  (765) 
idABBQgen7

$$$$

     RDKit          2D

 13 13  0  0  0  0  0  0  0  0999 V2000
    3.1339    0.0000    0.0000 C   0  0  0  0  0  0  0  0  0  0  0  0
    2.7750    1.4564    0.0000 C   0  0  0  0  0  0  0  0  0  0  0  0
    1.7803    2.5792    0.0000 C   0  0  0  0  0  0  0  0  0  0  0  0
    0.3778    3.1111    0.0000 C   0  0  0  0  0  0  0  0  0  0  0  0
   -1.1113    2.9303    0.0000 C   0  0  0  0  0  0  0  0  0  0  0  0
   -2.3458    2.0782    0.0000 C   0  0  0  0  0  0  0  0  0  0  0  0
   -3.0429    0.7500    0.0000 C   0  0  0  0  0  0  0  0  0  0  0  0
   -3.0429   -0.7500    0.0000 C   0  0  0  0  0  0  0  0  0  0  0  0
   -2.3458   -2.0782    0.0000 C   0  0  0  0  0  0  0  0  0  0  0  0
   -1.1113   -2.9303    0.0000 C   0  0  0  0  0  0  0  0  0  0  0  0
    0.3778   -3.1111    0.0000 C   0  0  0  0  0  0  0  0  0  0  0  0
    1.7803   -2.5792    0.0000 C   0  0  0  0  0  0  0  0  0  0  0  0
    2.7750   -1.4564    0.0000 C   0  0  0  0  0  0  0  0  0  0  0  0
  1  2  1  0
  2  3  1  0
  3  4  1  0
  4  5  1  0
  5  6  1  0
  6  7  1  0
  7  8  1  0
  8  9  1  0
  9 10  1  0
 10 11  1  0
 11 12  1  0
 12 13  1  0
 13  1  1  0
M  END
>  <Title>  (766) 
idABBRgen7

$$$$

     RDKit          2D

  8  8  0  0  0  0  0  0  0  0999 V2000
    3.7500   -1.2990    0.0000 C   0  0  0  0  0  0  0  0  0  0  0  0
    3.0000    0.0000    0.0000 O   0  0  0  0  0  0  0  0  0  0  0  0
    1.5000    0.0000    0.0000 C   0  0  0  0  0  0  0  0  0  0  0  0
    0.7500   -1.2990    0.0000 C   0  0  0  0  0  0  0  0  0  0  0  0
   -0.7500   -1.2990    0.0000 C   0  0  0  0  0  0  0  0  0  0  0  0
   -1.5000    0.0000    0.0000 C   0  0  0  0  0  0  0  0  0  0  0  0
   -0.7500    1.2990    0.0000 C   0  0  0  0  0  0  0  0  0  0  0  0
    0.7500    1.2990    0.0000 C   0  0  0  0  0  0  0  0  0  0  0  0
  1  2  1  0
  2  3  1  0
  3  4  2  0
  4  5  1  0
  5  6  1  0
  6  7  1  0
  7  8  2  0
  8  3  1  0
M  END
>  <Title>  (767) 
idABBSgen7

$$$$

     RDKit          2D

 78 78  0  0  0  0  0  0  0  0999 V2000
   21.1488    0.0000    0.0000 N   0  0  0  0  0  0  0  0  0  0  0  0
   19.6488    0.0000    0.0000 C   0  0  0  0  0  0  0  0  0  0  0  0
   18.1488    0.0000    0.0000 C   0  0  0  0  0  0  0  0  0  0  0  0
   18.0868   -1.4987    0.0000 C   0  0  0  0  0  0  0  0  0  0  0  0
   17.9013   -2.9872    0.0000 C   0  0  0  0  0  0  0  0  0  0  0  0
   17.5935   -4.4553    0.0000 C   0  0  0  0  0  0  0  0  0  0  0  0
   17.1655   -5.8929    0.0000 C   0  0  0  0  0  0  0  0  0  0  0  0
   16.6202   -7.2903    0.0000 C   0  0  0  0  0  0  0  0  0  0  0  0
   15.9614   -8.6379    0.0000 C   0  0  0  0  0  0  0  0  0  0  0  0
   15.1936   -9.9265    0.0000 C   0  0  0  0  0  0  0  0  0  0  0  0
   14.3220  -11.1472    0.0000 C   0  0  0  0  0  0  0  0  0  0  0  0
   13.3525  -12.2919    0.0000 C   0  0  0  0  0  0  0  0  0  0  0  0
   12.2919  -13.3525    0.0000 C   0  0  0  0  0  0  0  0  0  0  0  0
   11.1472  -14.3220    0.0000 C   0  0  0  0  0  0  0  0  0  0  0  0
    9.9265  -15.1936    0.0000 C   0  0  0  0  0  0  0  0  0  0  0  0
    8.6379  -15.9614    0.0000 C   0  0  0  0  0  0  0  0  0  0  0  0
    7.2903  -16.6202    0.0000 C   0  0  0  0  0  0  0  0  0  0  0  0
    5.8929  -17.1655    0.0000 C   0  0  0  0  0  0  0  0  0  0  0  0
    4.4553  -17.5935    0.0000 C   0  0  0  0  0  0  0  0  0  0  0  0
    2.9872  -17.9013    0.0000 C   0  0  0  0  0  0  0  0  0  0  0  0
    1.4987  -18.0868    0.0000 C   0  0  0  0  0  0  0  0  0  0  0  0
   -0.0000  -18.1488    0.0000 C   0  0  0  0  0  0  0  0  0  0  0  0
   -1.4987  -18.0868    0.0000 C   0  0  0  0  0  0  0  0  0  0  0  0
   -2.9872  -17.9013    0.0000 C   0  0  0  0  0  0  0  0  0  0  0  0
   -4.4553  -17.5935    0.0000 C   0  0  0  0  0  0  0  0  0  0  0  0
   -5.8929  -17.1655    0.0000 C   0  0  0  0  0  0  0  0  0  0  0  0
   -7.2903  -16.6202    0.0000 C   0  0  0  0  0  0  0  0  0  0  0  0
   -8.6379  -15.9614    0.0000 C   0  0  0  0  0  0  0  0  0  0  0  0
   -9.9265  -15.1936    0.0000 C   0  0  0  0  0  0  0  0  0  0  0  0
  -11.1472  -14.3220    0.0000 C   0  0  0  0  0  0  0  0  0  0  0  0
  -12.2919  -13.3525    0.0000 C   0  0  0  0  0  0  0  0  0  0  0  0
  -13.3525  -12.2919    0.0000 C   0  0  0  0  0  0  0  0  0  0  0  0
  -14.3220  -11.1472    0.0000 C   0  0  0  0  0  0  0  0  0  0  0  0
  -15.1936   -9.9265    0.0000 C   0  0  0  0  0  0  0  0  0  0  0  0
  -15.9614   -8.6379    0.0000 C   0  0  0  0  0  0  0  0  0  0  0  0
  -16.6202   -7.2903    0.0000 C   0  0  0  0  0  0  0  0  0  0  0  0
  -17.1655   -5.8929    0.0000 C   0  0  0  0  0  0  0  0  0  0  0  0
  -17.5935   -4.4553    0.0000 C   0  0  0  0  0  0  0  0  0  0  0  0
  -17.9013   -2.9872    0.0000 C   0  0  0  0  0  0  0  0  0  0  0  0
  -18.0868   -1.4987    0.0000 C   0  0  0  0  0  0  0  0  0  0  0  0
  -18.1488    0.0000    0.0000 C   0  0  0  0  0  0  0  0  0  0  0  0
  -18.0868    1.4987    0.0000 C   0  0  0  0  0  0  0  0  0  0  0  0
  -17.9013    2.9872    0.0000 C   0  0  0  0  0  0  0  0  0  0  0  0
  -17.5935    4.4553    0.0000 C   0  0  0  0  0  0  0  0  0  0  0  0
  -17.1655    5.8929    0.0000 C   0  0  0  0  0  0  0  0  0  0  0  0
  -16.6202    7.2903    0.0000 C   0  0  0  0  0  0  0  0  0  0  0  0
  -15.9614    8.6379    0.0000 C   0  0  0  0  0  0  0  0  0  0  0  0
  -15.1936    9.9265    0.0000 C   0  0  0  0  0  0  0  0  0  0  0  0
  -14.3220   11.1472    0.0000 C   0  0  0  0  0  0  0  0  0  0  0  0
  -13.3525   12.2919    0.0000 C   0  0  0  0  0  0  0  0  0  0  0  0
  -12.2919   13.3525    0.0000 C   0  0  0  0  0  0  0  0  0  0  0  0
  -11.1472   14.3220    0.0000 C   0  0  0  0  0  0  0  0  0  0  0  0
   -9.9265   15.1936    0.0000 C   0  0  0  0  0  0  0  0  0  0  0  0
   -8.6379   15.9614    0.0000 C   0  0  0  0  0  0  0  0  0  0  0  0
   -7.2903   16.6202    0.0000 C   0  0  0  0  0  0  0  0  0  0  0  0
   -5.8929   17.1655    0.0000 C   0  0  0  0  0  0  0  0  0  0  0  0
   -4.4553   17.5935    0.0000 C   0  0  0  0  0  0  0  0  0  0  0  0
   -2.9872   17.9013    0.0000 C   0  0  0  0  0  0  0  0  0  0  0  0
   -1.4987   18.0868    0.0000 C   0  0  0  0  0  0  0  0  0  0  0  0
    0.0000   18.1488    0.0000 C   0  0  0  0  0  0  0  0  0  0  0  0
    1.4987   18.0868    0.0000 C   0  0  0  0  0  0  0  0  0  0  0  0
    2.9872   17.9013    0.0000 C   0  0  0  0  0  0  0  0  0  0  0  0
    4.4553   17.5935    0.0000 C   0  0  0  0  0  0  0  0  0  0  0  0
    5.8929   17.1655    0.0000 C   0  0  0  0  0  0  0  0  0  0  0  0
    7.2903   16.6202    0.0000 C   0  0  0  0  0  0  0  0  0  0  0  0
    8.6379   15.9614    0.0000 C   0  0  0  0  0  0  0  0  0  0  0  0
    9.9265   15.1936    0.0000 C   0  0  0  0  0  0  0  0  0  0  0  0
   11.1472   14.3220    0.0000 C   0  0  0  0  0  0  0  0  0  0  0  0
   12.2919   13.3525    0.0000 C   0  0  0  0  0  0  0  0  0  0  0  0
   13.3525   12.2919    0.0000 C   0  0  0  0  0  0  0  0  0  0  0  0
   14.3220   11.1472    0.0000 C   0  0  0  0  0  0  0  0  0  0  0  0
   15.1936    9.9265    0.0000 C   0  0  0  0  0  0  0  0  0  0  0  0
   15.9614    8.6379    0.0000 C   0  0  0  0  0  0  0  0  0  0  0  0
   16.6202    7.2903    0.0000 C   0  0  0  0  0  0  0  0  0  0  0  0
   17.1655    5.8929    0.0000 C   0  0  0  0  0  0  0  0  0  0  0  0
   17.5935    4.4553    0.0000 C   0  0  0  0  0  0  0  0  0  0  0  0
   17.9013    2.9872    0.0000 C   0  0  0  0  0  0  0  0  0  0  0  0
   18.0868    1.4987    0.0000 C   0  0  0  0  0  0  0  0  0  0  0  0
  1  2  3  0
  2  3  1  0
  3  4  1  0
  4  5  1  0
  5  6  1  0
  6  7  1  0
  7  8  1  0
  8  9  1  0
  9 10  1  0
 10 11  1  0
 11 12  1  0
 12 13  1  0
 13 14  1  0
 14 15  1  0
 15 16  1  0
 16 17  1  0
 17 18  1  0
 18 19  1  0
 19 20  1  0
 20 21  1  0
 21 22  1  0
 22 23  1  0
 23 24  1  0
 24 25  1  0
 25 26  1  0
 26 27  1  0
 27 28  1  0
 28 29  1  0
 29 30  1  0
 30 31  1  0
 31 32  1  0
 32 33  1  0
 33 34  1  0
 34 35  1  0
 35 36  1  0
 36 37  1  0
 37 38  1  0
 38 39  1  0
 39 40  1  0
 40 41  1  0
 41 42  1  0
 42 43  1  0
 43 44  1  0
 44 45  1  0
 45 46  1  0
 46 47  1  0
 47 48  1  0
 48 49  1  0
 49 50  1  0
 50 51  1  0
 51 52  1  0
 52 53  1  0
 53 54  1  0
 54 55  1  0
 55 56  1  0
 56 57  1  0
 57 58  1  0
 58 59  1  0
 59 60  1  0
 60 61  1  0
 61 62  1  0
 62 63  1  0
 63 64  1  0
 64 65  1  0
 65 66  1  0
 66 67  1  0
 67 68  1  0
 68 69  1  0
 69 70  1  0
 70 71  1  0
 71 72  1  0
 72 73  1  0
 73 74  1  0
 74 75  1  0
 75 76  1  0
 76 77  1  0
 77 78  1  0
 78  3  1  0
M  END
>  <Title>  (768) 
idABBTgen7

$$$$

     RDKit          2D

113114  0  0  0  0  0  0  0  0999 V2000
   -5.6073    8.9173    0.0000 C   0  0  0  0  0  0  0  0  0  0  0  0
   -4.2634    9.5836    0.0000 C   0  0  0  0  0  0  0  0  0  0  0  0
   -4.8884   10.9472    0.0000 C   0  0  0  0  0  0  0  0  0  0  0  0
   -5.4291   12.3464    0.0000 C   0  0  0  0  0  0  0  0  0  0  0  0
   -5.8835   13.7759    0.0000 C   0  0  0  0  0  0  0  0  0  0  0  0
   -6.2499   15.2304    0.0000 C   0  0  0  0  0  0  0  0  0  0  0  0
   -6.5270   16.7046    0.0000 C   0  0  0  0  0  0  0  0  0  0  0  0
   -6.7137   18.1930    0.0000 C   0  0  0  0  0  0  0  0  0  0  0  0
   -6.8093   19.6899    0.0000 C   0  0  0  0  0  0  0  0  0  0  0  0
   -6.8134   21.1899    0.0000 C   0  0  0  0  0  0  0  0  0  0  0  0
   -6.7262   22.6874    0.0000 C   0  0  0  0  0  0  0  0  0  0  0  0
   -6.5477   24.1767    0.0000 C   0  0  0  0  0  0  0  0  0  0  0  0
   -6.2788   25.6524    0.0000 C   0  0  0  0  0  0  0  0  0  0  0  0
   -5.9205   27.1090    0.0000 C   0  0  0  0  0  0  0  0  0  0  0  0
   -5.4740   28.5410    0.0000 C   0  0  0  0  0  0  0  0  0  0  0  0
   -4.9411   29.9431    0.0000 C   0  0  0  0  0  0  0  0  0  0  0  0
   -4.3236   31.3102    0.0000 C   0  0  0  0  0  0  0  0  0  0  0  0
   -3.6240   32.6370    0.0000 C   0  0  0  0  0  0  0  0  0  0  0  0
   -2.8448   33.9187    0.0000 C   0  0  0  0  0  0  0  0  0  0  0  0
   -1.9888   35.1506    0.0000 C   0  0  0  0  0  0  0  0  0  0  0  0
   -1.0594   36.3279    0.0000 C   0  0  0  0  0  0  0  0  0  0  0  0
   -0.0600   37.4464    0.0000 C   0  0  0  0  0  0  0  0  0  0  0  0
    1.0058   38.5019    0.0000 C   0  0  0  0  0  0  0  0  0  0  0  0
    2.1340   39.4905    0.0000 C   0  0  0  0  0  0  0  0  0  0  0  0
    3.3203   40.4084    0.0000 C   0  0  0  0  0  0  0  0  0  0  0  0
    4.5604   41.2524    0.0000 C   0  0  0  0  0  0  0  0  0  0  0  0
    5.8496   42.0191    0.0000 C   0  0  0  0  0  0  0  0  0  0  0  0
    7.1832   42.7058    0.0000 C   0  0  0  0  0  0  0  0  0  0  0  0
    8.5562   43.3100    0.0000 C   0  0  0  0  0  0  0  0  0  0  0  0
    9.9634   43.8293    0.0000 C   0  0  0  0  0  0  0  0  0  0  0  0
   11.3997   44.2619    0.0000 C   0  0  0  0  0  0  0  0  0  0  0  0
   12.8596   44.6061    0.0000 C   0  0  0  0  0  0  0  0  0  0  0  0
   14.3379   44.8606    0.0000 C   0  0  0  0  0  0  0  0  0  0  0  0
   15.8289   45.0246    0.0000 C   0  0  0  0  0  0  0  0  0  0  0  0
   17.3271   45.0973    0.0000 C   0  0  0  0  0  0  0  0  0  0  0  0
   18.8270   45.0786    0.0000 C   0  0  0  0  0  0  0  0  0  0  0  0
   20.3230   44.9685    0.0000 C   0  0  0  0  0  0  0  0  0  0  0  0
   21.8094   44.7674    0.0000 C   0  0  0  0  0  0  0  0  0  0  0  0
   23.2808   44.4760    0.0000 C   0  0  0  0  0  0  0  0  0  0  0  0
   24.7318   44.0955    0.0000 C   0  0  0  0  0  0  0  0  0  0  0  0
   26.1568   43.6272    0.0000 C   0  0  0  0  0  0  0  0  0  0  0  0
   27.5507   43.0730    0.0000 C   0  0  0  0  0  0  0  0  0  0  0  0
   28.9081   42.4347    0.0000 C   0  0  0  0  0  0  0  0  0  0  0  0
   30.2241   41.7150    0.0000 C   0  0  0  0  0  0  0  0  0  0  0  0
   31.4938   40.9163    0.0000 C   0  0  0  0  0  0  0  0  0  0  0  0
   32.7125   40.0417    0.0000 C   0  0  0  0  0  0  0  0  0  0  0  0
   33.8755   39.0944    0.0000 C   0  0  0  0  0  0  0  0  0  0  0  0
   34.9786   38.0780    0.0000 C   0  0  0  0  0  0  0  0  0  0  0  0
   36.0178   36.9962    0.0000 C   0  0  0  0  0  0  0  0  0  0  0  0
   36.9890   35.8531    0.0000 C   0  0  0  0  0  0  0  0  0  0  0  0
   37.8888   34.6530    0.0000 C   0  0  0  0  0  0  0  0  0  0  0  0
   38.7137   33.4001    0.0000 C   0  0  0  0  0  0  0  0  0  0  0  0
   39.4607   32.0994    0.0000 C   0  0  0  0  0  0  0  0  0  0  0  0
   40.1270   30.7555    0.0000 C   0  0  0  0  0  0  0  0  0  0  0  0
   40.7101   29.3735    0.0000 C   0  0  0  0  0  0  0  0  0  0  0  0
   41.2079   27.9585    0.0000 C   0  0  0  0  0  0  0  0  0  0  0  0
   41.6185   26.5158    0.0000 C   0  0  0  0  0  0  0  0  0  0  0  0
   41.9404   25.0507    0.0000 C   0  0  0  0  0  0  0  0  0  0  0  0
   42.1724   23.5688    0.0000 C   0  0  0  0  0  0  0  0  0  0  0  0
   42.3136   22.0754    0.0000 C   0  0  0  0  0  0  0  0  0  0  0  0
   42.3635   20.5763    0.0000 C   0  0  0  0  0  0  0  0  0  0  0  0
   42.3219   19.0768    0.0000 C   0  0  0  0  0  0  0  0  0  0  0  0
   42.1890   17.5827    0.0000 C   0  0  0  0  0  0  0  0  0  0  0  0
   41.9652   16.0995    0.0000 C   0  0  0  0  0  0  0  0  0  0  0  0
   41.6515   14.6327    0.0000 C   0  0  0  0  0  0  0  0  0  0  0  0
   41.2489   13.1878    0.0000 C   0  0  0  0  0  0  0  0  0  0  0  0
   40.7589   11.7700    0.0000 C   0  0  0  0  0  0  0  0  0  0  0  0
   40.1835   10.3848    0.0000 C   0  0  0  0  0  0  0  0  0  0  0  0
   39.5246    9.0372    0.0000 C   0  0  0  0  0  0  0  0  0  0  0  0
   38.7848    7.7324    0.0000 C   0  0  0  0  0  0  0  0  0  0  0  0
   37.9669    6.4750    0.0000 C   0  0  0  0  0  0  0  0  0  0  0  0
   37.0738    5.2698    0.0000 C   0  0  0  0  0  0  0  0  0  0  0  0
   36.1089    4.1214    0.0000 C   0  0  0  0  0  0  0  0  0  0  0  0
   35.0758    3.0338    0.0000 C   0  0  0  0  0  0  0  0  0  0  0  0
   33.9783    2.0113    0.0000 C   0  0  0  0  0  0  0  0  0  0  0  0
   32.8205    1.0576    0.0000 C   0  0  0  0  0  0  0  0  0  0  0  0
   31.6068    0.1763    0.0000 C   0  0  0  0  0  0  0  0  0  0  0  0
   30.3415   -0.6294    0.0000 C   0  0  0  0  0  0  0  0  0  0  0  0
   29.0295   -1.3565    0.0000 C   0  0  0  0  0  0  0  0  0  0  0  0
   27.6756   -2.0022    0.0000 C   0  0  0  0  0  0  0  0  0  0  0  0
   26.2849   -2.5642    0.0000 C   0  0  0  0  0  0  0  0  0  0  0  0
   24.8625   -3.0404    0.0000 C   0  0  0  0  0  0  0  0  0  0  0  0
   23.4137   -3.4289    0.0000 C   0  0  0  0  0  0  0  0  0  0  0  0
   21.9439   -3.7285    0.0000 C   0  0  0  0  0  0  0  0  0  0  0  0
   20.4586   -3.9378    0.0000 C   0  0  0  0  0  0  0  0  0  0  0  0
   18.9633   -4.0562    0.0000 C   0  0  0  0  0  0  0  0  0  0  0  0
   17.4635   -4.0833    0.0000 C   0  0  0  0  0  0  0  0  0  0  0  0
   15.9649   -4.0188    0.0000 C   0  0  0  0  0  0  0  0  0  0  0  0
   14.4730   -3.8631    0.0000 C   0  0  0  0  0  0  0  0  0  0  0  0
   12.9933   -3.6168    0.0000 C   0  0  0  0  0  0  0  0  0  0  0  0
   11.5315   -3.2807    0.0000 C   0  0  0  0  0  0  0  0  0  0  0  0
   10.0928   -2.8561    0.0000 C   0  0  0  0  0  0  0  0  0  0  0  0
    8.6827   -2.3446    0.0000 C   0  0  0  0  0  0  0  0  0  0  0  0
    7.3065   -1.7480    0.0000 C   0  0  0  0  0  0  0  0  0  0  0  0
    5.9691   -1.0687    0.0000 C   0  0  0  0  0  0  0  0  0  0  0  0
    4.6756   -0.3091    0.0000 C   0  0  0  0  0  0  0  0  0  0  0  0
    3.4309    0.5279    0.0000 C   0  0  0  0  0  0  0  0  0  0  0  0
    2.2395    1.4392    0.0000 C   0  0  0  0  0  0  0  0  0  0  0  0
    2.6621    0.0000    0.0000 C   0  0  0  0  0  0  0  0  0  0  0  0
    2.2395   -1.4392    0.0000 C   0  0  0  0  0  0  0  0  0  0  0  0
    1.1059   -2.4215    0.0000 C   0  0  0  0  0  0  0  0  0  0  0  0
   -0.3789   -2.6350    0.0000 C   0  0  0  0  0  0  0  0  0  0  0  0
   -1.7433   -2.0119    0.0000 C   0  0  0  0  0  0  0  0  0  0  0  0
   -2.5543   -0.7500    0.0000 C   0  0  0  0  0  0  0  0  0  0  0  0
   -2.5543    0.7500    0.0000 C   0  0  0  0  0  0  0  0  0  0  0  0
   -1.7433    2.0119    0.0000 C   0  0  0  0  0  0  0  0  0  0  0  0
   -0.3789    2.6350    0.0000 C   0  0  0  0  0  0  0  0  0  0  0  0
    1.1059    2.4215    0.0000 C   0  0  0  0  0  0  0  0  0  0  0  0
    0.0342    3.4711    0.0000 C   0  0  0  0  0  0  0  0  0  0  0  0
   -0.9714    4.5841    0.0000 C   0  0  0  0  0  0  0  0  0  0  0  0
   -1.9073    5.7562    0.0000 C   0  0  0  0  0  0  0  0  0  0  0  0
   -2.7701    6.9833    0.0000 C   0  0  0  0  0  0  0  0  0  0  0  0
   -3.5564    8.2607    0.0000 C   0  0  0  0  0  0  0  0  0  0  0  0
  1  2  1  0
  2  3  1  0
  3  4  1  0
  4  5  1  0
  5  6  1  0
  6  7  1  0
  7  8  1  0
  8  9  1  0
  9 10  1  0
 10 11  1  0
 11 12  1  0
 12 13  1  0
 13 14  1  0
 14 15  1  0
 15 16  1  0
 16 17  1  0
 17 18  1  0
 18 19  1  0
 19 20  1  0
 20 21  1  0
 21 22  1  0
 22 23  1  0
 23 24  1  0
 24 25  1  0
 25 26  1  0
 26 27  1  0
 27 28  1  0
 28 29  1  0
 29 30  1  0
 30 31  1  0
 31 32  1  0
 32 33  1  0
 33 34  1  0
 34 35  1  0
 35 36  1  0
 36 37  1  0
 37 38  1  0
 38 39  1  0
 39 40  1  0
 40 41  1  0
 41 42  1  0
 42 43  1  0
 43 44  1  0
 44 45  1  0
 45 46  1  0
 46 47  1  0
 47 48  1  0
 48 49  1  0
 49 50  1  0
 50 51  1  0
 51 52  1  0
 52 53  1  0
 53 54  1  0
 54 55  1  0
 55 56  1  0
 56 57  1  0
 57 58  1  0
 58 59  1  0
 59 60  1  0
 60 61  1  0
 61 62  1  0
 62 63  1  0
 63 64  1  0
 64 65  1  0
 65 66  1  0
 66 67  1  0
 67 68  1  0
 68 69  1  0
 69 70  1  0
 70 71  1  0
 71 72  1  0
 72 73  1  0
 73 74  1  0
 74 75  1  0
 75 76  1  0
 76 77  1  0
 77 78  1  0
 78 79  1  0
 79 80  1  0
 80 81  1  0
 81 82  1  0
 82 83  1  0
 83 84  1  0
 84 85  1  0
 85 86  1  0
 86 87  1  0
 87 88  1  0
 88 89  1  0
 89 90  1  0
 90 91  1  0
 91 92  1  0
 92 93  1  0
 93 94  2  0
 94 95  1  0
 95 96  2  0
 96 97  1  0
 97 98  2  0
 98 99  1  0
 99100  2  0
100101  1  0
101102  2  0
102103  1  0
103104  2  0
104105  1  0
105106  2  0
106107  1  0
107108  2  0
108109  1  0
109110  1  0
110111  1  0
111112  1  0
112113  1  0
113  2  1  0
108 98  1  0
M  END
>  <Title>  (769) 
idABBUgen7

$$$$

     RDKit          2D

 80 80  0  0  0  0  0  0  0  0999 V2000
   20.3648    0.0000    0.0000 C   0  0  0  0  0  0  0  0  0  0  0  0
   18.8648    0.0000    0.0000 C   0  0  0  0  0  0  0  0  0  0  0  0
   18.8052    1.4988    0.0000 C   0  0  0  0  0  0  0  0  0  0  0  0
   18.6267    2.9882    0.0000 C   0  0  0  0  0  0  0  0  0  0  0  0
   18.3304    4.4586    0.0000 C   0  0  0  0  0  0  0  0  0  0  0  0
   17.9182    5.9009    0.0000 C   0  0  0  0  0  0  0  0  0  0  0  0
   17.3927    7.3058    0.0000 C   0  0  0  0  0  0  0  0  0  0  0  0
   16.7573    8.6646    0.0000 C   0  0  0  0  0  0  0  0  0  0  0  0
   16.0159    9.9685    0.0000 C   0  0  0  0  0  0  0  0  0  0  0  0
   15.1733   11.2095    0.0000 C   0  0  0  0  0  0  0  0  0  0  0  0
   14.2347   12.3796    0.0000 C   0  0  0  0  0  0  0  0  0  0  0  0
   13.2062   13.4714    0.0000 C   0  0  0  0  0  0  0  0  0  0  0  0
   12.0941   14.4781    0.0000 C   0  0  0  0  0  0  0  0  0  0  0  0
   10.9056   15.3932    0.0000 C   0  0  0  0  0  0  0  0  0  0  0  0
    9.6481   16.2110    0.0000 C   0  0  0  0  0  0  0  0  0  0  0  0
    8.3297   16.9263    0.0000 C   0  0  0  0  0  0  0  0  0  0  0  0
    6.9586   17.5345    0.0000 C   0  0  0  0  0  0  0  0  0  0  0  0
    5.5434   18.0320    0.0000 C   0  0  0  0  0  0  0  0  0  0  0  0
    4.0933   18.4154    0.0000 C   0  0  0  0  0  0  0  0  0  0  0  0
    2.6172   18.6824    0.0000 C   0  0  0  0  0  0  0  0  0  0  0  0
    1.1246   18.8313    0.0000 C   0  0  0  0  0  0  0  0  0  0  0  0
   -0.3751   18.8611    0.0000 C   0  0  0  0  0  0  0  0  0  0  0  0
   -1.8724   18.7717    0.0000 C   0  0  0  0  0  0  0  0  0  0  0  0
   -3.3579   18.5636    0.0000 C   0  0  0  0  0  0  0  0  0  0  0  0
   -4.8222   18.2381    0.0000 C   0  0  0  0  0  0  0  0  0  0  0  0
   -6.2559   17.7973    0.0000 C   0  0  0  0  0  0  0  0  0  0  0  0
   -7.6502   17.2440    0.0000 C   0  0  0  0  0  0  0  0  0  0  0  0
   -8.9960   16.5817    0.0000 C   0  0  0  0  0  0  0  0  0  0  0  0
  -10.2850   15.8146    0.0000 C   0  0  0  0  0  0  0  0  0  0  0  0
  -11.5090   14.9474    0.0000 C   0  0  0  0  0  0  0  0  0  0  0  0
  -12.6602   13.9858    0.0000 C   0  0  0  0  0  0  0  0  0  0  0  0
  -13.7313   12.9357    0.0000 C   0  0  0  0  0  0  0  0  0  0  0  0
  -14.7157   11.8039    0.0000 C   0  0  0  0  0  0  0  0  0  0  0  0
  -15.6070   10.5974    0.0000 C   0  0  0  0  0  0  0  0  0  0  0  0
  -16.3996    9.3239    0.0000 C   0  0  0  0  0  0  0  0  0  0  0  0
  -17.0885    7.9915    0.0000 C   0  0  0  0  0  0  0  0  0  0  0  0
  -17.6694    6.6086    0.0000 C   0  0  0  0  0  0  0  0  0  0  0  0
  -18.1386    5.1838    0.0000 C   0  0  0  0  0  0  0  0  0  0  0  0
  -18.4931    3.7263    0.0000 C   0  0  0  0  0  0  0  0  0  0  0  0
  -18.7307    2.2453    0.0000 C   0  0  0  0  0  0  0  0  0  0  0  0
  -18.8499    0.7500    0.0000 C   0  0  0  0  0  0  0  0  0  0  0  0
  -18.8499   -0.7500    0.0000 C   0  0  0  0  0  0  0  0  0  0  0  0
  -18.7307   -2.2453    0.0000 C   0  0  0  0  0  0  0  0  0  0  0  0
  -18.4931   -3.7263    0.0000 C   0  0  0  0  0  0  0  0  0  0  0  0
  -18.1386   -5.1838    0.0000 C   0  0  0  0  0  0  0  0  0  0  0  0
  -17.6694   -6.6086    0.0000 C   0  0  0  0  0  0  0  0  0  0  0  0
  -17.0885   -7.9915    0.0000 C   0  0  0  0  0  0  0  0  0  0  0  0
  -16.3996   -9.3239    0.0000 C   0  0  0  0  0  0  0  0  0  0  0  0
  -15.6070  -10.5974    0.0000 C   0  0  0  0  0  0  0  0  0  0  0  0
  -14.7157  -11.8039    0.0000 C   0  0  0  0  0  0  0  0  0  0  0  0
  -13.7313  -12.9357    0.0000 C   0  0  0  0  0  0  0  0  0  0  0  0
  -12.6602  -13.9858    0.0000 C   0  0  0  0  0  0  0  0  0  0  0  0
  -11.5090  -14.9474    0.0000 C   0  0  0  0  0  0  0  0  0  0  0  0
  -10.2850  -15.8146    0.0000 C   0  0  0  0  0  0  0  0  0  0  0  0
   -8.9960  -16.5817    0.0000 C   0  0  0  0  0  0  0  0  0  0  0  0
   -7.6502  -17.2440    0.0000 C   0  0  0  0  0  0  0  0  0  0  0  0
   -6.2559  -17.7973    0.0000 C   0  0  0  0  0  0  0  0  0  0  0  0
   -4.8222  -18.2381    0.0000 C   0  0  0  0  0  0  0  0  0  0  0  0
   -3.3579  -18.5636    0.0000 C   0  0  0  0  0  0  0  0  0  0  0  0
   -1.8724  -18.7717    0.0000 C   0  0  0  0  0  0  0  0  0  0  0  0
   -0.3751  -18.8611    0.0000 C   0  0  0  0  0  0  0  0  0  0  0  0
    1.1246  -18.8313    0.0000 C   0  0  0  0  0  0  0  0  0  0  0  0
    2.6172  -18.6824    0.0000 C   0  0  0  0  0  0  0  0  0  0  0  0
    4.0933  -18.4154    0.0000 C   0  0  0  0  0  0  0  0  0  0  0  0
    5.5434  -18.0320    0.0000 C   0  0  0  0  0  0  0  0  0  0  0  0
    6.9586  -17.5345    0.0000 C   0  0  0  0  0  0  0  0  0  0  0  0
    8.3297  -16.9263    0.0000 C   0  0  0  0  0  0  0  0  0  0  0  0
    9.6481  -16.2110    0.0000 C   0  0  0  0  0  0  0  0  0  0  0  0
   10.9056  -15.3932    0.0000 C   0  0  0  0  0  0  0  0  0  0  0  0
   12.0941  -14.4781    0.0000 C   0  0  0  0  0  0  0  0  0  0  0  0
   13.2062  -13.4714    0.0000 C   0  0  0  0  0  0  0  0  0  0  0  0
   14.2347  -12.3796    0.0000 C   0  0  0  0  0  0  0  0  0  0  0  0
   15.1733  -11.2095    0.0000 C   0  0  0  0  0  0  0  0  0  0  0  0
   16.0159   -9.9685    0.0000 C   0  0  0  0  0  0  0  0  0  0  0  0
   16.7573   -8.6646    0.0000 C   0  0  0  0  0  0  0  0  0  0  0  0
   17.3927   -7.3058    0.0000 C   0  0  0  0  0  0  0  0  0  0  0  0
   17.9182   -5.9009    0.0000 C   0  0  0  0  0  0  0  0  0  0  0  0
   18.3304   -4.4586    0.0000 C   0  0  0  0  0  0  0  0  0  0  0  0
   18.6267   -2.9882    0.0000 C   0  0  0  0  0  0  0  0  0  0  0  0
   18.8052   -1.4988    0.0000 C   0  0  0  0  0  0  0  0  0  0  0  0
  1  2  1  0
  2  3  1  0
  3  4  2  0
  4  5  1  0
  5  6  2  0
  6  7  1  0
  7  8  2  0
  8  9  1  0
  9 10  1  0
 10 11  1  0
 11 12  1  0
 12 13  1  0
 13 14  1  0
 14 15  1  0
 15 16  1  0
 16 17  1  0
 17 18  1  0
 18 19  1  0
 19 20  1  0
 20 21  1  0
 21 22  1  0
 22 23  1  0
 23 24  1  0
 24 25  1  0
 25 26  1  0
 26 27  1  0
 27 28  1  0
 28 29  1  0
 29 30  1  0
 30 31  1  0
 31 32  1  0
 32 33  1  0
 33 34  1  0
 34 35  1  0
 35 36  1  0
 36 37  1  0
 37 38  1  0
 38 39  1  0
 39 40  1  0
 40 41  1  0
 41 42  1  0
 42 43  1  0
 43 44  1  0
 44 45  1  0
 45 46  1  0
 46 47  1  0
 47 48  1  0
 48 49  1  0
 49 50  1  0
 50 51  1  0
 51 52  1  0
 52 53  1  0
 53 54  1  0
 54 55  1  0
 55 56  1  0
 56 57  1  0
 57 58  1  0
 58 59  1  0
 59 60  1  0
 60 61  1  0
 61 62  1  0
 62 63  1  0
 63 64  1  0
 64 65  1  0
 65 66  1  0
 66 67  1  0
 67 68  1  0
 68 69  1  0
 69 70  1  0
 70 71  1  0
 71 72  1  0
 72 73  1  0
 73 74  1  0
 74 75  1  0
 75 76  1  0
 76 77  1  0
 77 78  1  0
 78 79  1  0
 79 80  1  0
 80  2  1  0
M  END
>  <Title>  (770) 
idABBVgen7

$$$$

     RDKit          2D

 50 53  0  0  0  0  0  0  0  0999 V2000
   -5.8058   -1.8395    0.0000 C   0  0  0  0  0  0  0  0  0  0  0  0
   -4.8542   -2.9991    0.0000 C   0  0  0  0  0  0  0  0  0  0  0  0
   -5.9149   -4.0597    0.0000 C   0  0  0  0  0  0  0  0  0  0  0  0
   -6.7482   -5.3069    0.0000 C   0  0  0  0  0  0  0  0  0  0  0  0
   -7.3222   -6.6927    0.0000 C   0  0  0  0  0  0  0  0  0  0  0  0
   -7.6149   -8.1639    0.0000 C   0  0  0  0  0  0  0  0  0  0  0  0
   -7.6149   -9.6639    0.0000 C   0  0  0  0  0  0  0  0  0  0  0  0
   -7.3222  -11.1351    0.0000 C   0  0  0  0  0  0  0  0  0  0  0  0
   -6.7482  -12.5209    0.0000 C   0  0  0  0  0  0  0  0  0  0  0  0
   -5.9149  -13.7681    0.0000 C   0  0  0  0  0  0  0  0  0  0  0  0
   -4.8542  -14.8288    0.0000 C   0  0  0  0  0  0  0  0  0  0  0  0
   -3.6070  -15.6621    0.0000 C   0  0  0  0  0  0  0  0  0  0  0  0
   -2.2212  -16.2362    0.0000 C   0  0  0  0  0  0  0  0  0  0  0  0
   -0.7500  -16.5288    0.0000 C   0  0  0  0  0  0  0  0  0  0  0  0
    0.7500  -16.5288    0.0000 C   0  0  0  0  0  0  0  0  0  0  0  0
    2.2212  -16.2362    0.0000 C   0  0  0  0  0  0  0  0  0  0  0  0
    3.6070  -15.6621    0.0000 C   0  0  0  0  0  0  0  0  0  0  0  0
    4.8542  -14.8288    0.0000 C   0  0  0  0  0  0  0  0  0  0  0  0
    5.9149  -13.7681    0.0000 C   0  0  0  0  0  0  0  0  0  0  0  0
    6.7482  -12.5209    0.0000 C   0  0  0  0  0  0  0  0  0  0  0  0
    7.3222  -11.1351    0.0000 C   0  0  0  0  0  0  0  0  0  0  0  0
    7.6149   -9.6639    0.0000 C   0  0  0  0  0  0  0  0  0  0  0  0
    7.6149   -8.1639    0.0000 C   0  0  0  0  0  0  0  0  0  0  0  0
    7.3222   -6.6927    0.0000 C   0  0  0  0  0  0  0  0  0  0  0  0
    6.7482   -5.3069    0.0000 C   0  0  0  0  0  0  0  0  0  0  0  0
    5.9149   -4.0597    0.0000 C   0  0  0  0  0  0  0  0  0  0  0  0
    4.8542   -2.9991    0.0000 C   0  0  0  0  0  0  0  0  0  0  0  0
    3.6070   -2.1657    0.0000 C   0  0  0  0  0  0  0  0  0  0  0  0
    2.2212   -1.5917    0.0000 C   0  0  0  0  0  0  0  0  0  0  0  0
    2.6566   -0.1563    0.0000 C   0  0  0  0  0  0  0  0  0  0  0  0
    1.6312    0.9385    0.0000 O   0  0  0  0  0  0  0  0  0  0  0  0
    4.1174    0.1844    0.0000 N   0  0  0  0  0  0  0  0  0  0  0  0
    4.5528    1.6198    0.0000 C   0  0  0  0  0  0  0  0  0  0  0  0
    6.0137    1.9604    0.0000 N   0  0  0  0  0  0  0  0  0  0  0  0
    6.4491    3.3958    0.0000 N   0  0  0  0  0  0  0  0  0  0  0  0
    5.4237    4.4906    0.0000 N   0  0  0  0  0  0  0  0  0  0  0  0
    3.9629    4.1500    0.0000 N   0  0  0  0  0  0  0  0  0  0  0  0
    3.5275    2.7146    0.0000 N   0  0  0  0  0  0  0  0  0  0  0  0
    0.7500   -1.2990    0.0000 C   0  0  0  0  0  0  0  0  0  0  0  0
    1.5000    0.0000    0.0000 C   0  0  0  0  0  0  0  0  0  0  0  0
    0.7500    1.2990    0.0000 C   0  0  0  0  0  0  0  0  0  0  0  0
   -0.7500    1.2990    0.0000 C   0  0  0  0  0  0  0  0  0  0  0  0
   -1.5000    0.0000    0.0000 C   0  0  0  0  0  0  0  0  0  0  0  0
   -0.7500   -1.2990    0.0000 C   0  0  0  0  0  0  0  0  0  0  0  0
   -2.2212   -1.5917    0.0000 C   0  0  0  0  0  0  0  0  0  0  0  0
   -2.6721   -0.3724    0.0000 C   0  0  0  0  0  0  0  0  0  0  0  0
   -3.3068    0.1146    0.0000 C   0  0  0  0  0  0  0  0  0  0  0  0
   -4.0459   -0.1915    0.0000 C   0  0  0  0  0  0  0  0  0  0  0  0
   -4.1503   -0.9847    0.0000 C   0  0  0  0  0  0  0  0  0  0  0  0
   -3.6070   -2.1657    0.0000 C   0  0  0  0  0  0  0  0  0  0  0  0
  1  2  1  0
  2  3  1  0
  3  4  1  0
  4  5  1  0
  5  6  1  0
  6  7  1  0
  7  8  1  0
  8  9  1  0
  9 10  1  0
 10 11  1  0
 11 12  1  0
 12 13  1  0
 13 14  1  0
 14 15  1  0
 15 16  1  0
 16 17  1  0
 17 18  1  0
 18 19  1  0
 19 20  1  0
 20 21  1  0
 21 22  1  0
 22 23  1  0
 23 24  1  0
 24 25  1  0
 25 26  1  0
 26 27  1  0
 27 28  1  0
 28 29  1  0
 29 30  1  0
 30 31  2  0
 30 32  1  0
 32 33  1  0
 33 34  2  0
 34 35  1  0
 35 36  2  0
 36 37  1  0
 37 38  2  0
 29 39  1  0
 39 40  2  0
 40 41  1  0
 41 42  2  0
 42 43  1  0
 43 44  2  0
 44 45  1  0
 45 46  2  0
 46 47  1  0
 47 48  2  0
 48 49  1  0
 49 50  2  0
 50  2  1  0
 38 33  1  0
 44 39  1  0
 50 45  1  0
M  END
>  <Title>  (771) 
idABBWgen7

$$$$

     RDKit          2D

  2  1  0  0  0  0  0  0  0  0999 V2000
    0.0000    0.0000    0.0000 C   0  0  0  0  0  0  0  0  0  0  0  0
    1.2990    0.7500    0.0000 C   0  0  0  0  0  0  0  0  0  0  0  0
  1  2  1  0
M  END
>  <Title>  (772) 
idABBXgen7

$$$$

     RDKit          2D

 80 83  0  0  0  0  0  0  0  0999 V2000
   -8.6303   -2.1307    0.0000 C   0  0  0  0  0  0  0  0  0  0  0  0
   -7.8699   -3.4236    0.0000 C   0  0  0  0  0  0  0  0  0  0  0  0
   -9.1246   -4.2457    0.0000 C   0  0  0  0  0  0  0  0  0  0  0  0
  -10.2941   -5.1849    0.0000 C   0  0  0  0  0  0  0  0  0  0  0  0
  -11.3675   -6.2327    0.0000 C   0  0  0  0  0  0  0  0  0  0  0  0
  -12.3347   -7.3792    0.0000 C   0  0  0  0  0  0  0  0  0  0  0  0
  -13.1868   -8.6137    0.0000 C   0  0  0  0  0  0  0  0  0  0  0  0
  -13.9158   -9.9246    0.0000 C   0  0  0  0  0  0  0  0  0  0  0  0
  -14.5149  -11.2998    0.0000 C   0  0  0  0  0  0  0  0  0  0  0  0
  -14.9784  -12.7264    0.0000 C   0  0  0  0  0  0  0  0  0  0  0  0
  -15.3021  -14.1910    0.0000 C   0  0  0  0  0  0  0  0  0  0  0  0
  -15.4829  -15.6801    0.0000 C   0  0  0  0  0  0  0  0  0  0  0  0
  -15.5191  -17.1797    0.0000 C   0  0  0  0  0  0  0  0  0  0  0  0
  -15.4105  -18.6757    0.0000 C   0  0  0  0  0  0  0  0  0  0  0  0
  -15.1579  -20.1543    0.0000 C   0  0  0  0  0  0  0  0  0  0  0  0
  -14.7639  -21.6016    0.0000 C   0  0  0  0  0  0  0  0  0  0  0  0
  -14.2320  -23.0042    0.0000 C   0  0  0  0  0  0  0  0  0  0  0  0
  -13.5672  -24.3488    0.0000 C   0  0  0  0  0  0  0  0  0  0  0  0
  -12.7757  -25.6230    0.0000 C   0  0  0  0  0  0  0  0  0  0  0  0
  -11.8650  -26.8149    0.0000 C   0  0  0  0  0  0  0  0  0  0  0  0
  -10.8434  -27.9133    0.0000 C   0  0  0  0  0  0  0  0  0  0  0  0
   -9.7207  -28.9080    0.0000 C   0  0  0  0  0  0  0  0  0  0  0  0
   -8.5072  -29.7896    0.0000 C   0  0  0  0  0  0  0  0  0  0  0  0
   -7.2142  -30.5501    0.0000 C   0  0  0  0  0  0  0  0  0  0  0  0
   -5.8539  -31.1822    0.0000 C   0  0  0  0  0  0  0  0  0  0  0  0
   -4.4389  -31.6800    0.0000 C   0  0  0  0  0  0  0  0  0  0  0  0
   -2.9825  -32.0390    0.0000 C   0  0  0  0  0  0  0  0  0  0  0  0
   -1.4982  -32.2557    0.0000 C   0  0  0  0  0  0  0  0  0  0  0  0
   -0.0000  -32.3282    0.0000 C   0  0  0  0  0  0  0  0  0  0  0  0
    1.4982  -32.2557    0.0000 C   0  0  0  0  0  0  0  0  0  0  0  0
    2.9825  -32.0390    0.0000 C   0  0  0  0  0  0  0  0  0  0  0  0
    4.4389  -31.6800    0.0000 C   0  0  0  0  0  0  0  0  0  0  0  0
    5.8539  -31.1822    0.0000 C   0  0  0  0  0  0  0  0  0  0  0  0
    7.2142  -30.5501    0.0000 C   0  0  0  0  0  0  0  0  0  0  0  0
    8.5072  -29.7896    0.0000 C   0  0  0  0  0  0  0  0  0  0  0  0
    9.7207  -28.9080    0.0000 C   0  0  0  0  0  0  0  0  0  0  0  0
   10.8434  -27.9133    0.0000 C   0  0  0  0  0  0  0  0  0  0  0  0
   11.8650  -26.8149    0.0000 C   0  0  0  0  0  0  0  0  0  0  0  0
   12.7757  -25.6230    0.0000 C   0  0  0  0  0  0  0  0  0  0  0  0
   13.5672  -24.3488    0.0000 C   0  0  0  0  0  0  0  0  0  0  0  0
   14.2320  -23.0042    0.0000 C   0  0  0  0  0  0  0  0  0  0  0  0
   14.7639  -21.6016    0.0000 C   0  0  0  0  0  0  0  0  0  0  0  0
   15.1579  -20.1543    0.0000 C   0  0  0  0  0  0  0  0  0  0  0  0
   15.4105  -18.6757    0.0000 C   0  0  0  0  0  0  0  0  0  0  0  0
   15.5191  -17.1797    0.0000 C   0  0  0  0  0  0  0  0  0  0  0  0
   15.4829  -15.6801    0.0000 C   0  0  0  0  0  0  0  0  0  0  0  0
   15.3021  -14.1910    0.0000 C   0  0  0  0  0  0  0  0  0  0  0  0
   14.9784  -12.7264    0.0000 C   0  0  0  0  0  0  0  0  0  0  0  0
   14.5149  -11.2998    0.0000 C   0  0  0  0  0  0  0  0  0  0  0  0
   13.9158   -9.9246    0.0000 C   0  0  0  0  0  0  0  0  0  0  0  0
   13.1868   -8.6137    0.0000 C   0  0  0  0  0  0  0  0  0  0  0  0
   12.3347   -7.3792    0.0000 C   0  0  0  0  0  0  0  0  0  0  0  0
   11.3675   -6.2327    0.0000 C   0  0  0  0  0  0  0  0  0  0  0  0
   10.2941   -5.1849    0.0000 C   0  0  0  0  0  0  0  0  0  0  0  0
    9.1246   -4.2457    0.0000 C   0  0  0  0  0  0  0  0  0  0  0  0
    7.8699   -3.4236    0.0000 C   0  0  0  0  0  0  0  0  0  0  0  0
    6.5417   -2.7266    0.0000 C   0  0  0  0  0  0  0  0  0  0  0  0
    5.1524   -2.1609    0.0000 C   0  0  0  0  0  0  0  0  0  0  0  0
    5.6503   -0.7459    0.0000 O   0  0  0  0  0  0  0  0  0  0  0  0
    3.7151   -1.7320    0.0000 C   0  0  0  0  0  0  0  0  0  0  0  0
    4.0740   -0.2756    0.0000 O   0  0  0  0  0  0  0  0  0  0  0  0
    2.2430   -1.4438    0.0000 C   0  0  0  0  0  0  0  0  0  0  0  0
    0.7500   -1.2990    0.0000 C   0  0  0  0  0  0  0  0  0  0  0  0
    1.5000    0.0000    0.0000 C   0  0  0  0  0  0  0  0  0  0  0  0
    0.7500    1.2990    0.0000 C   0  0  0  0  0  0  0  0  0  0  0  0
   -0.7500    1.2990    0.0000 C   0  0  0  0  0  0  0  0  0  0  0  0
   -1.5000    0.0000    0.0000 C   0  0  0  0  0  0  0  0  0  0  0  0
   -0.7500   -1.2990    0.0000 C   0  0  0  0  0  0  0  0  0  0  0  0
   -2.2430   -1.4438    0.0000 C   0  0  0  0  0  0  0  0  0  0  0  0
   -1.2574   -2.5746    0.0000 C   0  0  0  0  0  0  0  0  0  0  0  0
   -1.7438   -3.9935    0.0000 C   0  0  0  0  0  0  0  0  0  0  0  0
   -3.2159   -4.2817    0.0000 C   0  0  0  0  0  0  0  0  0  0  0  0
   -4.2015   -3.1509    0.0000 C   0  0  0  0  0  0  0  0  0  0  0  0
   -3.7151   -1.7320    0.0000 C   0  0  0  0  0  0  0  0  0  0  0  0
   -5.1524   -2.1609    0.0000 C   0  0  0  0  0  0  0  0  0  0  0  0
   -4.9477   -0.6750    0.0000 C   0  0  0  0  0  0  0  0  0  0  0  0
   -6.1321    0.2454    0.0000 C   0  0  0  0  0  0  0  0  0  0  0  0
   -7.5214   -0.3203    0.0000 C   0  0  0  0  0  0  0  0  0  0  0  0
   -7.7262   -1.8062    0.0000 C   0  0  0  0  0  0  0  0  0  0  0  0
   -6.5417   -2.7266    0.0000 C   0  0  0  0  0  0  0  0  0  0  0  0
  1  2  1  0
  2  3  1  0
  3  4  1  0
  4  5  1  0
  5  6  1  0
  6  7  1  0
  7  8  1  0
  8  9  1  0
  9 10  1  0
 10 11  1  0
 11 12  1  0
 12 13  1  0
 13 14  1  0
 14 15  1  0
 15 16  1  0
 16 17  1  0
 17 18  1  0
 18 19  1  0
 19 20  1  0
 20 21  1  0
 21 22  1  0
 22 23  1  0
 23 24  1  0
 24 25  1  0
 25 26  1  0
 26 27  1  0
 27 28  1  0
 28 29  1  0
 29 30  1  0
 30 31  1  0
 31 32  1  0
 32 33  1  0
 33 34  1  0
 34 35  1  0
 35 36  1  0
 36 37  1  0
 37 38  1  0
 38 39  1  0
 39 40  1  0
 40 41  1  0
 41 42  1  0
 42 43  1  0
 43 44  1  0
 44 45  1  0
 45 46  1  0
 46 47  1  0
 47 48  2  0
 48 49  1  0
 49 50  2  0
 50 51  1  0
 51 52  2  0
 52 53  1  0
 53 54  2  0
 54 55  1  0
 55 56  2  0
 56 57  1  0
 57 58  2  0
 58 59  1  0
 58 60  1  0
 60 61  2  0
 60 62  1  0
 62 63  1  0
 63 64  2  0
 64 65  1  0
 65 66  2  0
 66 67  1  0
 67 68  2  0
 68 69  1  0
 69 70  2  0
 70 71  1  0
 71 72  2  0
 72 73  1  0
 73 74  2  0
 74 75  1  0
 75 76  2  0
 76 77  1  0
 77 78  2  0
 78 79  1  0
 79 80  2  0
 80  2  1  0
 68 63  1  0
 74 69  1  0
 80 75  1  0
M  END
>  <Title>  (773) 
idABBYgen7

$$$$

     RDKit          2D

 38 42  0  0  0  0  0  0  0  0999 V2000
    1.2135   -7.3421    0.0000 C   0  0  0  0  0  0  0  0  0  0  0  0
    0.7500   -5.9156    0.0000 C   0  0  0  0  0  0  0  0  0  0  0  0
    1.9635   -5.0339    0.0000 C   0  0  0  0  0  0  0  0  0  0  0  0
    2.4271   -3.6073    0.0000 C   0  0  0  0  0  0  0  0  0  0  0  0
    1.9635   -2.1807    0.0000 C   0  0  0  0  0  0  0  0  0  0  0  0
    3.1771   -1.2990    0.0000 N   0  0  0  0  0  0  0  0  0  0  0  0
    4.5474   -1.9091    0.0000 C   0  0  0  0  0  0  0  0  0  0  0  0
    3.0203    0.1927    0.0000 C   0  0  0  0  0  0  0  0  0  0  0  0
    4.2338    1.0744    0.0000 N   0  0  0  0  0  0  0  0  0  0  0  0
    4.0770    2.5662    0.0000 C   0  0  0  0  0  0  0  0  0  0  0  0
    2.7067    3.1763    0.0000 O   0  0  0  0  0  0  0  0  0  0  0  0
    5.2905    3.4479    0.0000 C   0  0  0  0  0  0  0  0  0  0  0  0
    6.6608    2.8378    0.0000 O   0  0  0  0  0  0  0  0  0  0  0  0
    5.1337    4.9397    0.0000 N   0  0  0  0  0  0  0  0  0  0  0  0
    6.3472    5.8213    0.0000 C   0  0  0  0  0  0  0  0  0  0  0  0
    7.7176    5.2112    0.0000 N   0  0  0  0  0  0  0  0  0  0  0  0
    8.9311    6.0929    0.0000 N   0  0  0  0  0  0  0  0  0  0  0  0
    8.7743    7.5847    0.0000 N   0  0  0  0  0  0  0  0  0  0  0  0
    7.4040    8.1948    0.0000 N   0  0  0  0  0  0  0  0  0  0  0  0
    6.1905    7.3131    0.0000 N   0  0  0  0  0  0  0  0  0  0  0  0
    0.7500   -1.2990    0.0000 C   0  0  0  0  0  0  0  0  0  0  0  0
    1.5000    0.0000    0.0000 C   0  0  0  0  0  0  0  0  0  0  0  0
    0.7500    1.2990    0.0000 C   0  0  0  0  0  0  0  0  0  0  0  0
   -0.7500    1.2990    0.0000 C   0  0  0  0  0  0  0  0  0  0  0  0
   -1.5000    0.0000    0.0000 C   0  0  0  0  0  0  0  0  0  0  0  0
   -0.7500   -1.2990    0.0000 C   0  0  0  0  0  0  0  0  0  0  0  0
   -1.9635   -2.1807    0.0000 C   0  0  0  0  0  0  0  0  0  0  0  0
   -2.9672   -1.0660    0.0000 C   0  0  0  0  0  0  0  0  0  0  0  0
   -4.4344   -1.3779    0.0000 C   0  0  0  0  0  0  0  0  0  0  0  0
   -4.8980   -2.8045    0.0000 C   0  0  0  0  0  0  0  0  0  0  0  0
   -3.8943   -3.9192    0.0000 C   0  0  0  0  0  0  0  0  0  0  0  0
   -2.4271   -3.6073    0.0000 C   0  0  0  0  0  0  0  0  0  0  0  0
   -1.9635   -5.0339    0.0000 C   0  0  0  0  0  0  0  0  0  0  0  0
   -3.3338   -5.6440    0.0000 C   0  0  0  0  0  0  0  0  0  0  0  0
   -3.4906   -7.1358    0.0000 C   0  0  0  0  0  0  0  0  0  0  0  0
   -2.2771   -8.0175    0.0000 C   0  0  0  0  0  0  0  0  0  0  0  0
   -0.9068   -7.4073    0.0000 C   0  0  0  0  0  0  0  0  0  0  0  0
   -0.7500   -5.9156    0.0000 C   0  0  0  0  0  0  0  0  0  0  0  0
  1  2  1  0
  2  3  1  0
  3  4  1  0
  4  5  1  0
  5  6  1  0
  6  7  1  0
  6  8  1  0
  8  9  2  3
  9 10  1  0
 10 11  2  0
 10 12  1  0
 12 13  2  0
 12 14  1  0
 14 15  1  0
 15 16  2  0
 16 17  1  0
 17 18  2  0
 18 19  1  0
 19 20  2  0
  5 21  1  0
 21 22  2  0
 22 23  1  0
 23 24  2  0
 24 25  1  0
 25 26  2  0
 26 27  1  0
 27 28  2  0
 28 29  1  0
 29 30  2  0
 30 31  1  0
 31 32  2  0
 32 33  1  0
 33 34  2  0
 34 35  1  0
 35 36  2  0
 36 37  1  0
 37 38  2  0
 38  2  1  0
 20 15  1  0
 26 21  1  0
 32 27  1  0
 38 33  1  0
M  END
>  <Title>  (774) 
idABBZgen7

$$$$

     RDKit          2D

 73 74  0  0  0  0  0  0  0  0999 V2000
    0.5709   -6.5726    0.0000 C   0  0  0  0  0  0  0  0  0  0  0  0
    1.5354   -5.4238    0.0000 O   0  0  0  0  0  0  0  0  0  0  0  0
    3.0126   -5.6848    0.0000 C   0  0  0  0  0  0  0  0  0  0  0  0
    2.8396   -7.1748    0.0000 C   0  0  0  0  0  0  0  0  0  0  0  0
    2.8440   -8.6748    0.0000 C   0  0  0  0  0  0  0  0  0  0  0  0
    3.0258  -10.1637    0.0000 C   0  0  0  0  0  0  0  0  0  0  0  0
    3.3825  -11.6207    0.0000 C   0  0  0  0  0  0  0  0  0  0  0  0
    3.9090  -13.0253    0.0000 C   0  0  0  0  0  0  0  0  0  0  0  0
    4.5979  -14.3577    0.0000 C   0  0  0  0  0  0  0  0  0  0  0  0
    5.4395  -15.5993    0.0000 C   0  0  0  0  0  0  0  0  0  0  0  0
    6.4221  -16.7327    0.0000 C   0  0  0  0  0  0  0  0  0  0  0  0
    7.5318  -17.7419    0.0000 C   0  0  0  0  0  0  0  0  0  0  0  0
    8.7532  -18.6127    0.0000 C   0  0  0  0  0  0  0  0  0  0  0  0
   10.0689  -19.3330    0.0000 C   0  0  0  0  0  0  0  0  0  0  0  0
   11.4606  -19.8927    0.0000 C   0  0  0  0  0  0  0  0  0  0  0  0
   12.9087  -20.2837    0.0000 C   0  0  0  0  0  0  0  0  0  0  0  0
   14.3929  -20.5008    0.0000 C   0  0  0  0  0  0  0  0  0  0  0  0
   15.8924  -20.5408    0.0000 C   0  0  0  0  0  0  0  0  0  0  0  0
   17.3861  -20.4032    0.0000 C   0  0  0  0  0  0  0  0  0  0  0  0
   18.8530  -20.0899    0.0000 C   0  0  0  0  0  0  0  0  0  0  0  0
   20.2725  -19.6053    0.0000 C   0  0  0  0  0  0  0  0  0  0  0  0
   21.6248  -18.9562    0.0000 C   0  0  0  0  0  0  0  0  0  0  0  0
   22.8908  -18.1517    0.0000 C   0  0  0  0  0  0  0  0  0  0  0  0
   24.0528  -17.2031    0.0000 C   0  0  0  0  0  0  0  0  0  0  0  0
   25.0945  -16.1237    0.0000 C   0  0  0  0  0  0  0  0  0  0  0  0
   26.0011  -14.9288    0.0000 C   0  0  0  0  0  0  0  0  0  0  0  0
   26.7601  -13.6349    0.0000 C   0  0  0  0  0  0  0  0  0  0  0  0
   27.3607  -12.2604    0.0000 C   0  0  0  0  0  0  0  0  0  0  0  0
   27.7945  -10.8245    0.0000 C   0  0  0  0  0  0  0  0  0  0  0  0
   28.0555   -9.3474    0.0000 C   0  0  0  0  0  0  0  0  0  0  0  0
   28.1399   -7.8498    0.0000 C   0  0  0  0  0  0  0  0  0  0  0  0
   28.0466   -6.3527    0.0000 C   0  0  0  0  0  0  0  0  0  0  0  0
   27.7769   -4.8771    0.0000 C   0  0  0  0  0  0  0  0  0  0  0  0
   27.3346   -3.4439    0.0000 C   0  0  0  0  0  0  0  0  0  0  0  0
   26.7258   -2.0729    0.0000 C   0  0  0  0  0  0  0  0  0  0  0  0
   25.9592   -0.7836    0.0000 C   0  0  0  0  0  0  0  0  0  0  0  0
   25.0455    0.4059    0.0000 C   0  0  0  0  0  0  0  0  0  0  0  0
   23.9974    1.4791    0.0000 C   0  0  0  0  0  0  0  0  0  0  0  0
   22.8299    2.4208    0.0000 C   0  0  0  0  0  0  0  0  0  0  0  0
   21.5591    3.2178    0.0000 C   0  0  0  0  0  0  0  0  0  0  0  0
   20.2030    3.8588    0.0000 C   0  0  0  0  0  0  0  0  0  0  0  0
   18.7806    4.3350    0.0000 C   0  0  0  0  0  0  0  0  0  0  0  0
   17.3119    4.6396    0.0000 C   0  0  0  0  0  0  0  0  0  0  0  0
   15.8174    4.7684    0.0000 C   0  0  0  0  0  0  0  0  0  0  0  0
   14.3182    4.7195    0.0000 C   0  0  0  0  0  0  0  0  0  0  0  0
   12.8353    4.4937    0.0000 C   0  0  0  0  0  0  0  0  0  0  0  0
   11.3895    4.0940    0.0000 C   0  0  0  0  0  0  0  0  0  0  0  0
   10.0012    3.5261    0.0000 C   0  0  0  0  0  0  0  0  0  0  0  0
    8.6897    2.7980    0.0000 C   0  0  0  0  0  0  0  0  0  0  0  0
    7.4736    1.9200    0.0000 C   0  0  0  0  0  0  0  0  0  0  0  0
    6.3698    0.9042    0.0000 C   0  0  0  0  0  0  0  0  0  0  0  0
    5.3940   -0.2349    0.0000 C   0  0  0  0  0  0  0  0  0  0  0  0
    4.5597   -1.4815    0.0000 C   0  0  0  0  0  0  0  0  0  0  0  0
    4.0943   -0.0000    0.0000 C   0  0  0  0  0  0  0  0  0  0  0  0
    3.8939    1.2652    0.0000 C   0  0  0  0  0  0  0  0  0  0  0  0
    3.3124    2.4066    0.0000 C   0  0  0  0  0  0  0  0  0  0  0  0
    2.4066    3.3124    0.0000 C   0  0  0  0  0  0  0  0  0  0  0  0
    1.2652    3.8939    0.0000 C   0  0  0  0  0  0  0  0  0  0  0  0
    0.0000    4.0943    0.0000 C   0  0  0  0  0  0  0  0  0  0  0  0
   -1.2652    3.8939    0.0000 C   0  0  0  0  0  0  0  0  0  0  0  0
   -2.4066    3.3124    0.0000 C   0  0  0  0  0  0  0  0  0  0  0  0
   -3.3124    2.4066    0.0000 C   0  0  0  0  0  0  0  0  0  0  0  0
   -3.8939    1.2652    0.0000 C   0  0  0  0  0  0  0  0  0  0  0  0
   -4.0943    0.0000    0.0000 C   0  0  0  0  0  0  0  0  0  0  0  0
   -3.8939   -1.2652    0.0000 C   0  0  0  0  0  0  0  0  0  0  0  0
   -3.3124   -2.4066    0.0000 C   0  0  0  0  0  0  0  0  0  0  0  0
   -2.4066   -3.3124    0.0000 C   0  0  0  0  0  0  0  0  0  0  0  0
   -1.2652   -3.8939    0.0000 C   0  0  0  0  0  0  0  0  0  0  0  0
   -0.0000   -4.0943    0.0000 C   0  0  0  0  0  0  0  0  0  0  0  0
    1.2652   -3.8939    0.0000 C   0  0  0  0  0  0  0  0  0  0  0  0
    2.4066   -3.3124    0.0000 C   0  0  0  0  0  0  0  0  0  0  0  0
    3.8787   -2.8180    0.0000 C   0  0  0  0  0  0  0  0  0  0  0  0
    3.3606   -4.2257    0.0000 C   0  0  0  0  0  0  0  0  0  0  0  0
  1  2  1  0
  2  3  1  0
  3  4  1  0
  4  5  1  0
  5  6  1  0
  6  7  1  0
  7  8  1  0
  8  9  1  0
  9 10  1  0
 10 11  1  0
 11 12  1  0
 12 13  1  0
 13 14  1  0
 14 15  1  0
 15 16  1  0
 16 17  1  0
 17 18  1  0
 18 19  1  0
 19 20  1  0
 20 21  1  0
 21 22  1  0
 22 23  1  0
 23 24  1  0
 24 25  1  0
 25 26  1  0
 26 27  1  0
 27 28  1  0
 28 29  1  0
 29 30  1  0
 30 31  1  0
 31 32  1  0
 32 33  1  0
 33 34  1  0
 34 35  1  0
 35 36  1  0
 36 37  1  0
 37 38  1  0
 38 39  1  0
 39 40  1  0
 40 41  1  0
 41 42  1  0
 42 43  1  0
 43 44  1  0
 44 45  2  0
 45 46  1  0
 46 47  2  0
 47 48  1  0
 48 49  2  0
 49 50  1  0
 50 51  2  0
 51 52  1  0
 52 53  2  0
 53 54  1  0
 54 55  1  0
 55 56  1  0
 56 57  1  0
 57 58  1  0
 58 59  1  0
 59 60  1  0
 60 61  1  0
 61 62  1  0
 62 63  1  0
 63 64  1  0
 64 65  1  0
 65 66  1  0
 66 67  1  0
 67 68  2  0
 68 69  1  0
 69 70  2  0
 70 71  1  0
 71 72  2  0
 72 73  1  0
 73  3  1  0
 72 53  1  0
M  END
>  <Title>  (775) 
idABCAgen7

$$$$

     RDKit          2D

 74 74  0  0  0  0  0  0  0  0999 V2000
   18.9328    0.0000    0.0000 O   0  0  0  0  0  0  0  0  0  0  0  0
   17.4328    0.0000    0.0000 C   0  0  0  0  0  0  0  0  0  0  0  0
   17.3683    1.4986    0.0000 C   0  0  0  0  0  0  0  0  0  0  0  0
   17.1752    2.9861    0.0000 C   0  0  0  0  0  0  0  0  0  0  0  0
   16.8549    4.4515    0.0000 C   0  0  0  0  0  0  0  0  0  0  0  0
   16.4098    5.8840    0.0000 C   0  0  0  0  0  0  0  0  0  0  0  0
   15.8433    7.2729    0.0000 C   0  0  0  0  0  0  0  0  0  0  0  0
   15.1594    8.6079    0.0000 C   0  0  0  0  0  0  0  0  0  0  0  0
   14.3633    9.8792    0.0000 C   0  0  0  0  0  0  0  0  0  0  0  0
   13.4609   11.0774    0.0000 C   0  0  0  0  0  0  0  0  0  0  0  0
   12.4588   12.1935    0.0000 C   0  0  0  0  0  0  0  0  0  0  0  0
   11.3645   13.2194    0.0000 C   0  0  0  0  0  0  0  0  0  0  0  0
   10.1860   14.1474    0.0000 C   0  0  0  0  0  0  0  0  0  0  0  0
    8.9321   14.9707    0.0000 C   0  0  0  0  0  0  0  0  0  0  0  0
    7.6121   15.6831    0.0000 C   0  0  0  0  0  0  0  0  0  0  0  0
    6.2357   16.2794    0.0000 C   0  0  0  0  0  0  0  0  0  0  0  0
    4.8132   16.7552    0.0000 C   0  0  0  0  0  0  0  0  0  0  0  0
    3.3550   17.1070    0.0000 C   0  0  0  0  0  0  0  0  0  0  0  0
    1.8720   17.3320    0.0000 C   0  0  0  0  0  0  0  0  0  0  0  0
    0.3751   17.4288    0.0000 C   0  0  0  0  0  0  0  0  0  0  0  0
   -1.1246   17.3965    0.0000 C   0  0  0  0  0  0  0  0  0  0  0  0
   -2.6159   17.2355    0.0000 C   0  0  0  0  0  0  0  0  0  0  0  0
   -4.0879   16.9468    0.0000 C   0  0  0  0  0  0  0  0  0  0  0  0
   -5.5295   16.5326    0.0000 C   0  0  0  0  0  0  0  0  0  0  0  0
   -6.9303   15.9961    0.0000 C   0  0  0  0  0  0  0  0  0  0  0  0
   -8.2797   15.3411    0.0000 C   0  0  0  0  0  0  0  0  0  0  0  0
   -9.5679   14.5726    0.0000 C   0  0  0  0  0  0  0  0  0  0  0  0
  -10.7852   13.6961    0.0000 C   0  0  0  0  0  0  0  0  0  0  0  0
  -11.9227   12.7183    0.0000 C   0  0  0  0  0  0  0  0  0  0  0  0
  -12.9719   11.6463    0.0000 C   0  0  0  0  0  0  0  0  0  0  0  0
  -13.9250   10.4880    0.0000 C   0  0  0  0  0  0  0  0  0  0  0  0
  -14.7751    9.2521    0.0000 C   0  0  0  0  0  0  0  0  0  0  0  0
  -15.5157    7.9478    0.0000 C   0  0  0  0  0  0  0  0  0  0  0  0
  -16.1415    6.5845    0.0000 C   0  0  0  0  0  0  0  0  0  0  0  0
  -16.6478    5.1725    0.0000 C   0  0  0  0  0  0  0  0  0  0  0  0
  -17.0308    3.7223    0.0000 C   0  0  0  0  0  0  0  0  0  0  0  0
  -17.2878    2.2444    0.0000 C   0  0  0  0  0  0  0  0  0  0  0  0
  -17.4167    0.7500    0.0000 C   0  0  0  0  0  0  0  0  0  0  0  0
  -17.4167   -0.7500    0.0000 C   0  0  0  0  0  0  0  0  0  0  0  0
  -17.2878   -2.2444    0.0000 C   0  0  0  0  0  0  0  0  0  0  0  0
  -17.0308   -3.7223    0.0000 C   0  0  0  0  0  0  0  0  0  0  0  0
  -16.6478   -5.1725    0.0000 C   0  0  0  0  0  0  0  0  0  0  0  0
  -16.1415   -6.5845    0.0000 C   0  0  0  0  0  0  0  0  0  0  0  0
  -15.5157   -7.9478    0.0000 C   0  0  0  0  0  0  0  0  0  0  0  0
  -14.7751   -9.2521    0.0000 C   0  0  0  0  0  0  0  0  0  0  0  0
  -13.9250  -10.4880    0.0000 C   0  0  0  0  0  0  0  0  0  0  0  0
  -12.9719  -11.6463    0.0000 C   0  0  0  0  0  0  0  0  0  0  0  0
  -11.9227  -12.7183    0.0000 C   0  0  0  0  0  0  0  0  0  0  0  0
  -10.7852  -13.6961    0.0000 C   0  0  0  0  0  0  0  0  0  0  0  0
   -9.5679  -14.5726    0.0000 C   0  0  0  0  0  0  0  0  0  0  0  0
   -8.2797  -15.3411    0.0000 C   0  0  0  0  0  0  0  0  0  0  0  0
   -6.9303  -15.9961    0.0000 C   0  0  0  0  0  0  0  0  0  0  0  0
   -5.5295  -16.5326    0.0000 C   0  0  0  0  0  0  0  0  0  0  0  0
   -4.0879  -16.9468    0.0000 C   0  0  0  0  0  0  0  0  0  0  0  0
   -2.6159  -17.2355    0.0000 C   0  0  0  0  0  0  0  0  0  0  0  0
   -1.1246  -17.3965    0.0000 C   0  0  0  0  0  0  0  0  0  0  0  0
    0.3751  -17.4288    0.0000 C   0  0  0  0  0  0  0  0  0  0  0  0
    1.8720  -17.3320    0.0000 C   0  0  0  0  0  0  0  0  0  0  0  0
    3.3550  -17.1070    0.0000 C   0  0  0  0  0  0  0  0  0  0  0  0
    4.8132  -16.7552    0.0000 C   0  0  0  0  0  0  0  0  0  0  0  0
    6.2357  -16.2794    0.0000 C   0  0  0  0  0  0  0  0  0  0  0  0
    7.6121  -15.6831    0.0000 C   0  0  0  0  0  0  0  0  0  0  0  0
    8.9321  -14.9707    0.0000 C   0  0  0  0  0  0  0  0  0  0  0  0
   10.1860  -14.1474    0.0000 C   0  0  0  0  0  0  0  0  0  0  0  0
   11.3645  -13.2194    0.0000 C   0  0  0  0  0  0  0  0  0  0  0  0
   12.4588  -12.1935    0.0000 C   0  0  0  0  0  0  0  0  0  0  0  0
   13.4609  -11.0774    0.0000 C   0  0  0  0  0  0  0  0  0  0  0  0
   14.3633   -9.8792    0.0000 C   0  0  0  0  0  0  0  0  0  0  0  0
   15.1594   -8.6079    0.0000 C   0  0  0  0  0  0  0  0  0  0  0  0
   15.8433   -7.2729    0.0000 C   0  0  0  0  0  0  0  0  0  0  0  0
   16.4098   -5.8840    0.0000 C   0  0  0  0  0  0  0  0  0  0  0  0
   16.8549   -4.4515    0.0000 C   0  0  0  0  0  0  0  0  0  0  0  0
   17.1752   -2.9861    0.0000 C   0  0  0  0  0  0  0  0  0  0  0  0
   17.3683   -1.4986    0.0000 C   0  0  0  0  0  0  0  0  0  0  0  0
  1  2  1  0
  2  3  1  0
  3  4  1  0
  4  5  1  0
  5  6  1  0
  6  7  1  0
  7  8  1  0
  8  9  1  0
  9 10  1  0
 10 11  1  0
 11 12  1  0
 12 13  1  0
 13 14  1  0
 14 15  1  0
 15 16  1  0
 16 17  1  0
 17 18  1  0
 18 19  1  0
 19 20  1  0
 20 21  1  0
 21 22  1  0
 22 23  1  0
 23 24  1  0
 24 25  1  0
 25 26  1  0
 26 27  1  0
 27 28  1  0
 28 29  1  0
 29 30  1  0
 30 31  1  0
 31 32  1  0
 32 33  1  0
 33 34  1  0
 34 35  1  0
 35 36  1  0
 36 37  1  0
 37 38  1  0
 38 39  1  0
 39 40  1  0
 40 41  1  0
 41 42  1  0
 42 43  1  0
 43 44  1  0
 44 45  1  0
 45 46  1  0
 46 47  1  0
 47 48  1  0
 48 49  1  0
 49 50  1  0
 50 51  1  0
 51 52  1  0
 52 53  1  0
 53 54  1  0
 54 55  1  0
 55 56  1  0
 56 57  1  0
 57 58  1  0
 58 59  1  0
 59 60  1  0
 60 61  1  0
 61 62  1  0
 62 63  1  0
 63 64  1  0
 64 65  1  0
 65 66  1  0
 66 67  1  0
 67 68  1  0
 68 69  1  0
 69 70  1  0
 70 71  1  0
 71 72  1  0
 72 73  1  0
 73 74  1  0
 74  2  1  0
M  END
>  <Title>  (776) 
idABCBgen7

$$$$

     RDKit          2D

 32 32  0  0  0  0  0  0  0  0999 V2000
    3.2286   -0.0000    0.0000 C   0  0  0  0  0  0  0  0  0  0  0  0
    1.7286    0.0000    0.0000 C   0  0  0  0  0  0  0  0  0  0  0  0
    1.0777    1.3515    0.0000 C   0  0  0  0  0  0  0  0  0  0  0  0
   -0.3846    1.6852    0.0000 C   0  0  0  0  0  0  0  0  0  0  0  0
   -1.5574    0.7500    0.0000 C   0  0  0  0  0  0  0  0  0  0  0  0
   -2.9088    1.4008    0.0000 C   0  0  0  0  0  0  0  0  0  0  0  0
   -1.5574   -0.7500    0.0000 C   0  0  0  0  0  0  0  0  0  0  0  0
   -2.9088   -1.4008    0.0000 C   0  0  0  0  0  0  0  0  0  0  0  0
   -3.0209   -2.8966    0.0000 C   0  0  0  0  0  0  0  0  0  0  0  0
   -4.3724   -3.5475    0.0000 C   0  0  0  0  0  0  0  0  0  0  0  0
   -4.4845   -5.0433    0.0000 C   0  0  0  0  0  0  0  0  0  0  0  0
   -5.8359   -5.6941    0.0000 C   0  0  0  0  0  0  0  0  0  0  0  0
   -5.9480   -7.1899    0.0000 C   0  0  0  0  0  0  0  0  0  0  0  0
   -7.2995   -7.8407    0.0000 C   0  0  0  0  0  0  0  0  0  0  0  0
   -7.4116   -9.3365    0.0000 C   0  0  0  0  0  0  0  0  0  0  0  0
   -8.7630   -9.9874    0.0000 C   0  0  0  0  0  0  0  0  0  0  0  0
   -8.8751  -11.4832    0.0000 C   0  0  0  0  0  0  0  0  0  0  0  0
  -10.2266  -12.1340    0.0000 C   0  0  0  0  0  0  0  0  0  0  0  0
  -10.3387  -13.6298    0.0000 C   0  0  0  0  0  0  0  0  0  0  0  0
  -11.6901  -14.2806    0.0000 C   0  0  0  0  0  0  0  0  0  0  0  0
  -11.8022  -15.7764    0.0000 C   0  0  0  0  0  0  0  0  0  0  0  0
  -13.1537  -16.4272    0.0000 C   0  0  0  0  0  0  0  0  0  0  0  0
  -13.2658  -17.9231    0.0000 C   0  0  0  0  0  0  0  0  0  0  0  0
  -14.6172  -18.5739    0.0000 C   0  0  0  0  0  0  0  0  0  0  0  0
  -14.7293  -20.0697    0.0000 C   0  0  0  0  0  0  0  0  0  0  0  0
  -16.0808  -20.7205    0.0000 C   0  0  0  0  0  0  0  0  0  0  0  0
  -16.1929  -22.2163    0.0000 C   0  0  0  0  0  0  0  0  0  0  0  0
  -14.9535  -23.0613    0.0000 O   0  0  0  0  0  0  0  0  0  0  0  0
  -17.5443  -22.8671    0.0000 O   0  0  0  0  0  0  0  0  0  0  0  0
   -0.3846   -1.6852    0.0000 C   0  0  0  0  0  0  0  0  0  0  0  0
    1.0777   -1.3515    0.0000 C   0  0  0  0  0  0  0  0  0  0  0  0
    2.0130   -2.5242    0.0000 O   0  0  0  0  0  0  0  0  0  0  0  0
  1  2  1  0
  2  3  1  0
  3  4  1  0
  4  5  1  0
  5  6  1  0
  5  7  1  0
  7  8  1  0
  8  9  1  0
  9 10  2  3
 10 11  1  0
 11 12  2  3
 12 13  1  0
 13 14  2  3
 14 15  1  0
 15 16  2  3
 16 17  1  0
 17 18  2  3
 18 19  1  0
 19 20  2  3
 20 21  1  0
 21 22  2  3
 22 23  1  0
 23 24  2  3
 24 25  1  0
 25 26  1  0
 26 27  1  0
 27 28  2  0
 27 29  1  0
  7 30  1  0
 30 31  1  0
 31 32  2  0
 31  2  1  0
M  END
>  <Title>  (777) 
idABCCgen7

$$$$

     RDKit          2D

 10 10  0  0  0  0  0  0  0  0999 V2000
    3.5260   -1.2990    0.0000 C   0  0  0  0  0  0  0  0  0  0  0  0
    2.7760    0.0000    0.0000 C   0  0  0  0  0  0  0  0  0  0  0  0
    3.5260    1.2990    0.0000 O   0  0  0  0  0  0  0  0  0  0  0  0
    1.2760    0.0000    0.0000 C   0  0  0  0  0  0  0  0  0  0  0  0
    0.3943    1.2135    0.0000 C   0  0  0  0  0  0  0  0  0  0  0  0
   -1.0323    0.7500    0.0000 C   0  0  0  0  0  0  0  0  0  0  0  0
   -1.0323   -0.7500    0.0000 C   0  0  0  0  0  0  0  0  0  0  0  0
   -2.2458   -1.6317    0.0000 C   0  0  0  0  0  0  0  0  0  0  0  0
    0.3943   -1.2135    0.0000 C   0  0  0  0  0  0  0  0  0  0  0  0
    0.8578   -2.6401    0.0000 O   0  0  0  0  0  0  0  0  0  0  0  0
  1  2  1  0
  2  3  2  0
  2  4  1  0
  4  5  1  0
  5  6  1  0
  6  7  1  0
  7  8  1  0
  7  9  1  0
  9 10  2  0
  9  4  1  0
M  END
>  <Title>  (778) 
idABCDgen7

$$$$

     RDKit          2D

  6  6  0  0  0  0  0  0  0  0999 V2000
    2.7760    0.0000    0.0000 N   0  0  0  0  0  0  0  0  0  0  0  0
    1.2760    0.0000    0.0000 C   0  0  0  0  0  0  0  0  0  0  0  0
    0.3943    1.2135    0.0000 C   0  0  0  0  0  0  0  0  0  0  0  0
   -1.0323    0.7500    0.0000 C   0  0  0  0  0  0  0  0  0  0  0  0
   -1.0323   -0.7500    0.0000 C   0  0  0  0  0  0  0  0  0  0  0  0
    0.3943   -1.2135    0.0000 C   0  0  0  0  0  0  0  0  0  0  0  0
  1  2  1  0
  2  3  2  0
  3  4  1  0
  4  5  1  0
  5  6  2  0
  6  2  1  0
M  END
>  <Title>  (779) 
idABCEgen7

$$$$

     RDKit          2D

 48 54  0  0  0  0  0  0  0  0999 V2000
    1.0105  -11.2832    0.0000 C   0  0  0  0  0  0  0  0  0  0  0  0
    0.7500   -9.8060    0.0000 C   0  0  0  0  0  0  0  0  0  0  0  0
    2.1595   -9.2929    0.0000 C   0  0  0  0  0  0  0  0  0  0  0  0
    3.3086   -8.3287    0.0000 C   0  0  0  0  0  0  0  0  0  0  0  0
    4.0586   -7.0297    0.0000 C   0  0  0  0  0  0  0  0  0  0  0  0
    4.3191   -5.5525    0.0000 C   0  0  0  0  0  0  0  0  0  0  0  0
    4.0586   -4.0753    0.0000 C   0  0  0  0  0  0  0  0  0  0  0  0
    5.4681   -3.5623    0.0000 C   0  0  0  0  0  0  0  0  0  0  0  0
    5.7286   -2.0850    0.0000 O   0  0  0  0  0  0  0  0  0  0  0  0
    6.6172   -4.5264    0.0000 N   0  0  0  0  0  0  0  0  0  0  0  0
    8.0268   -4.0134    0.0000 C   0  0  0  0  0  0  0  0  0  0  0  0
    9.1758   -4.9776    0.0000 N   0  0  0  0  0  0  0  0  0  0  0  0
   10.5854   -4.4646    0.0000 N   0  0  0  0  0  0  0  0  0  0  0  0
   10.8458   -2.9873    0.0000 N   0  0  0  0  0  0  0  0  0  0  0  0
    9.6968   -2.0232    0.0000 N   0  0  0  0  0  0  0  0  0  0  0  0
    8.2872   -2.5362    0.0000 N   0  0  0  0  0  0  0  0  0  0  0  0
    3.3086   -2.7762    0.0000 C   0  0  0  0  0  0  0  0  0  0  0  0
    2.1595   -1.8121    0.0000 C   0  0  0  0  0  0  0  0  0  0  0  0
    0.7500   -1.2990    0.0000 C   0  0  0  0  0  0  0  0  0  0  0  0
    1.5000    0.0000    0.0000 C   0  0  0  0  0  0  0  0  0  0  0  0
    0.7500    1.2990    0.0000 C   0  0  0  0  0  0  0  0  0  0  0  0
   -0.7500    1.2990    0.0000 C   0  0  0  0  0  0  0  0  0  0  0  0
   -1.5000    0.0000    0.0000 C   0  0  0  0  0  0  0  0  0  0  0  0
   -0.7500   -1.2990    0.0000 C   0  0  0  0  0  0  0  0  0  0  0  0
   -2.1595   -1.8121    0.0000 C   0  0  0  0  0  0  0  0  0  0  0  0
   -2.4200   -0.3349    0.0000 C   0  0  0  0  0  0  0  0  0  0  0  0
   -3.8296    0.1782    0.0000 C   0  0  0  0  0  0  0  0  0  0  0  0
   -4.9786   -0.7860    0.0000 C   0  0  0  0  0  0  0  0  0  0  0  0
   -4.7181   -2.2632    0.0000 C   0  0  0  0  0  0  0  0  0  0  0  0
   -3.3086   -2.7762    0.0000 C   0  0  0  0  0  0  0  0  0  0  0  0
   -4.0586   -4.0753    0.0000 C   0  0  0  0  0  0  0  0  0  0  0  0
   -5.2077   -3.1111    0.0000 C   0  0  0  0  0  0  0  0  0  0  0  0
   -6.6172   -3.6241    0.0000 C   0  0  0  0  0  0  0  0  0  0  0  0
   -6.8777   -5.1013    0.0000 C   0  0  0  0  0  0  0  0  0  0  0  0
   -5.7286   -6.0655    0.0000 C   0  0  0  0  0  0  0  0  0  0  0  0
   -4.3191   -5.5525    0.0000 C   0  0  0  0  0  0  0  0  0  0  0  0
   -4.0586   -7.0297    0.0000 C   0  0  0  0  0  0  0  0  0  0  0  0
   -5.5586   -7.0297    0.0000 C   0  0  0  0  0  0  0  0  0  0  0  0
   -6.3086   -8.3287    0.0000 C   0  0  0  0  0  0  0  0  0  0  0  0
   -5.5586   -9.6278    0.0000 C   0  0  0  0  0  0  0  0  0  0  0  0
   -4.0586   -9.6278    0.0000 C   0  0  0  0  0  0  0  0  0  0  0  0
   -3.3086   -8.3287    0.0000 C   0  0  0  0  0  0  0  0  0  0  0  0
   -2.1595   -9.2929    0.0000 C   0  0  0  0  0  0  0  0  0  0  0  0
   -3.3086  -10.2571    0.0000 C   0  0  0  0  0  0  0  0  0  0  0  0
   -3.0481  -11.7343    0.0000 C   0  0  0  0  0  0  0  0  0  0  0  0
   -1.6386  -12.2474    0.0000 C   0  0  0  0  0  0  0  0  0  0  0  0
   -0.4895  -11.2832    0.0000 C   0  0  0  0  0  0  0  0  0  0  0  0
   -0.7500   -9.8060    0.0000 C   0  0  0  0  0  0  0  0  0  0  0  0
  1  2  1  0
  2  3  1  0
  3  4  1  0
  4  5  1  0
  5  6  1  0
  6  7  1  0
  7  8  1  0
  8  9  2  0
  8 10  1  0
 10 11  1  0
 11 12  2  0
 12 13  1  0
 13 14  2  0
 14 15  1  0
 15 16  2  0
  7 17  1  0
 17 18  1  0
 18 19  1  0
 19 20  2  0
 20 21  1  0
 21 22  2  0
 22 23  1  0
 23 24  2  0
 24 25  1  0
 25 26  2  0
 26 27  1  0
 27 28  2  0
 28 29  1  0
 29 30  2  0
 30 31  1  0
 31 32  2  0
 32 33  1  0
 33 34  2  0
 34 35  1  0
 35 36  2  0
 36 37  1  0
 37 38  2  0
 38 39  1  0
 39 40  2  0
 40 41  1  0
 41 42  2  0
 42 43  1  0
 43 44  2  0
 44 45  1  0
 45 46  2  0
 46 47  1  0
 47 48  2  0
 48  2  1  0
 16 11  1  0
 24 19  1  0
 30 25  1  0
 36 31  1  0
 42 37  1  0
 48 43  1  0
M  END
>  <Title>  (780) 
idABCFgen7

$$$$

     RDKit          2D

 32 34  0  0  0  0  0  0  0  0999 V2000
    4.3978    0.0000    0.0000 C   0  0  0  0  0  0  0  0  0  0  0  0
    2.8978    0.0000    0.0000 C   0  0  0  0  0  0  0  0  0  0  0  0
    2.5095   -1.4489    0.0000 C   0  0  0  0  0  0  0  0  0  0  0  0
    1.4489   -2.5095    0.0000 C   0  0  0  0  0  0  0  0  0  0  0  0
   -0.0000   -2.8978    0.0000 C   0  0  0  0  0  0  0  0  0  0  0  0
   -1.4489   -2.5095    0.0000 C   0  0  0  0  0  0  0  0  0  0  0  0
   -2.5095   -1.4489    0.0000 C   0  0  0  0  0  0  0  0  0  0  0  0
   -2.8978    0.0000    0.0000 C   0  0  0  0  0  0  0  0  0  0  0  0
   -2.5095    1.4489    0.0000 C   0  0  0  0  0  0  0  0  0  0  0  0
   -1.4489    2.5095    0.0000 C   0  0  0  0  0  0  0  0  0  0  0  0
    0.0000    2.8978    0.0000 C   0  0  0  0  0  0  0  0  0  0  0  0
    1.4489    2.5095    0.0000 C   0  0  0  0  0  0  0  0  0  0  0  0
    2.1989    3.8086    0.0000 C   0  0  0  0  0  0  0  0  0  0  0  0
    1.4489    5.1076    0.0000 O   0  0  0  0  0  0  0  0  0  0  0  0
    3.6989    3.8086    0.0000 O   0  0  0  0  0  0  0  0  0  0  0  0
    4.4489    5.1076    0.0000 C   0  0  0  0  0  0  0  0  0  0  0  0
    3.8388    6.4779    0.0000 C   0  0  0  0  0  0  0  0  0  0  0  0
    4.9535    7.4816    0.0000 C   0  0  0  0  0  0  0  0  0  0  0  0
    6.2525    6.7316    0.0000 C   0  0  0  0  0  0  0  0  0  0  0  0
    7.6229    7.3417    0.0000 O   0  0  0  0  0  0  0  0  0  0  0  0
    8.8364    6.4601    0.0000 C   0  0  0  0  0  0  0  0  0  0  0  0
    8.6796    4.9683    0.0000 O   0  0  0  0  0  0  0  0  0  0  0  0
   10.2067    7.0702    0.0000 C   0  0  0  0  0  0  0  0  0  0  0  0
   11.4202    6.1885    0.0000 C   0  0  0  0  0  0  0  0  0  0  0  0
   11.2634    4.6967    0.0000 C   0  0  0  0  0  0  0  0  0  0  0  0
   12.4770    3.8150    0.0000 N   0  0  0  0  0  0  0  0  0  0  0  0
   13.8473    4.4251    0.0000 N   0  0  0  0  0  0  0  0  0  0  0  0
   14.0041    5.9169    0.0000 N   0  0  0  0  0  0  0  0  0  0  0  0
   12.7905    6.7986    0.0000 N   0  0  0  0  0  0  0  0  0  0  0  0
    5.9407    5.2644    0.0000 C   0  0  0  0  0  0  0  0  0  0  0  0
    2.5095    1.4489    0.0000 C   0  0  0  0  0  0  0  0  0  0  0  0
    3.8086    2.1989    0.0000 O   0  0  0  0  0  0  0  0  0  0  0  0
  1  2  1  0
  2  3  2  0
  3  4  1  0
  4  5  1  0
  5  6  2  0
  6  7  1  0
  7  8  2  0
  8  9  1  0
  9 10  2  0
 10 11  1  0
 11 12  1  0
 12 13  1  0
 13 14  2  0
 13 15  1  0
 15 16  1  0
 16 17  2  0
 17 18  1  0
 18 19  2  0
 19 20  1  0
 20 21  1  0
 21 22  2  0
 21 23  1  0
 23 24  1  0
 24 25  2  0
 25 26  1  0
 26 27  2  0
 27 28  1  0
 28 29  2  0
 19 30  1  0
 12 31  1  0
 31 32  2  0
 31  2  1  0
 30 16  1  0
 29 24  1  0
M  END
>  <Title>  (781) 
idABCGgen7

$$$$

     RDKit          2D

 15 16  0  0  0  0  0  0  0  0999 V2000
    3.0000   -2.5981    0.0000 O   0  0  0  0  0  0  0  0  0  0  0  0
    1.5000   -2.5981    0.0000 C   0  0  0  0  0  0  0  0  0  0  0  0
    0.7500   -3.8971    0.0000 C   0  0  0  0  0  0  0  0  0  0  0  0
    1.5000   -5.1962    0.0000 C   0  0  0  0  0  0  0  0  0  0  0  0
    0.7500   -6.4952    0.0000 C   0  0  0  0  0  0  0  0  0  0  0  0
    1.3601   -7.8655    0.0000 C   0  0  0  0  0  0  0  0  0  0  0  0
    0.2454   -8.8692    0.0000 C   0  0  0  0  0  0  0  0  0  0  0  0
   -1.0537   -8.1192    0.0000 C   0  0  0  0  0  0  0  0  0  0  0  0
   -0.7418   -6.6520    0.0000 C   0  0  0  0  0  0  0  0  0  0  0  0
    0.7500   -1.2990    0.0000 N   0  0  0  0  0  0  0  0  0  0  0  0
    1.5000    0.0000    0.0000 C   0  0  0  0  0  0  0  0  0  0  0  0
    0.7500    1.2990    0.0000 C   0  0  0  0  0  0  0  0  0  0  0  0
   -0.7500    1.2990    0.0000 C   0  0  0  0  0  0  0  0  0  0  0  0
   -1.5000    0.0000    0.0000 C   0  0  0  0  0  0  0  0  0  0  0  0
   -0.7500   -1.2990    0.0000 C   0  0  0  0  0  0  0  0  0  0  0  0
  1  2  2  0
  2  3  1  0
  3  4  2  3
  4  5  1  0
  5  6  2  0
  6  7  1  0
  7  8  1  0
  8  9  1  0
  2 10  1  0
 10 11  1  0
 11 12  1  0
 12 13  1  0
 13 14  1  0
 14 15  1  0
  9  5  1  0
 15 10  1  0
M  END
>  <Title>  (782) 
idABCHgen7

$$$$

     RDKit          2D

 11 11  0  0  0  0  0  0  0  0999 V2000
    3.7500    1.2990    0.0000 O   0  0  0  0  0  0  0  0  0  0  0  0
    3.0000    0.0000    0.0000 C   0  0  0  0  0  0  0  0  0  0  0  0
    3.7500   -1.2990    0.0000 C   0  0  0  0  0  0  0  0  0  0  0  0
    5.2500   -1.2990    0.0000 C   0  0  0  0  0  0  0  0  0  0  0  0
    6.0000   -2.5981    0.0000 O   0  0  0  0  0  0  0  0  0  0  0  0
    1.5000    0.0000    0.0000 C   0  0  0  0  0  0  0  0  0  0  0  0
    0.7500   -1.2990    0.0000 C   0  0  0  0  0  0  0  0  0  0  0  0
   -0.7500   -1.2990    0.0000 C   0  0  0  0  0  0  0  0  0  0  0  0
   -1.5000    0.0000    0.0000 C   0  0  0  0  0  0  0  0  0  0  0  0
   -0.7500    1.2990    0.0000 C   0  0  0  0  0  0  0  0  0  0  0  0
    0.7500    1.2990    0.0000 C   0  0  0  0  0  0  0  0  0  0  0  0
  1  2  2  0
  2  3  1  0
  3  4  1  0
  4  5  1  0
  2  6  1  0
  6  7  1  0
  7  8  1  0
  8  9  1  0
  9 10  1  0
 10 11  1  0
 11  6  1  0
M  END
>  <Title>  (783) 
idABCIgen7

$$$$

     RDKit          2D

124124  0  0  0  0  0  0  0  0999 V2000
   30.8673   -0.0000    0.0000 O   0  0  0  0  0  0  0  0  0  0  0  0
   29.3673    0.0000    0.0000 C   0  0  0  0  0  0  0  0  0  0  0  0
   29.3290    1.4995    0.0000 C   0  0  0  0  0  0  0  0  0  0  0  0
   29.2141    2.9951    0.0000 C   0  0  0  0  0  0  0  0  0  0  0  0
   29.0231    4.4829    0.0000 C   0  0  0  0  0  0  0  0  0  0  0  0
   28.7563    5.9590    0.0000 C   0  0  0  0  0  0  0  0  0  0  0  0
   28.4146    7.4195    0.0000 C   0  0  0  0  0  0  0  0  0  0  0  0
   27.9987    8.8607    0.0000 C   0  0  0  0  0  0  0  0  0  0  0  0
   27.5097   10.2788    0.0000 C   0  0  0  0  0  0  0  0  0  0  0  0
   26.9490   11.6700    0.0000 C   0  0  0  0  0  0  0  0  0  0  0  0
   26.3179   13.0308    0.0000 C   0  0  0  0  0  0  0  0  0  0  0  0
   25.6183   14.3577    0.0000 C   0  0  0  0  0  0  0  0  0  0  0  0
   24.8517   15.6470    0.0000 C   0  0  0  0  0  0  0  0  0  0  0  0
   24.0204   16.8955    0.0000 C   0  0  0  0  0  0  0  0  0  0  0  0
   23.1263   18.1000    0.0000 C   0  0  0  0  0  0  0  0  0  0  0  0
   22.1720   19.2572    0.0000 C   0  0  0  0  0  0  0  0  0  0  0  0
   21.1598   20.3642    0.0000 C   0  0  0  0  0  0  0  0  0  0  0  0
   20.0923   21.4181    0.0000 C   0  0  0  0  0  0  0  0  0  0  0  0
   18.9725   22.4161    0.0000 C   0  0  0  0  0  0  0  0  0  0  0  0
   17.8032   23.3556    0.0000 C   0  0  0  0  0  0  0  0  0  0  0  0
   16.5874   24.2342    0.0000 C   0  0  0  0  0  0  0  0  0  0  0  0
   15.3284   25.0495    0.0000 C   0  0  0  0  0  0  0  0  0  0  0  0
   14.0293   25.7995    0.0000 C   0  0  0  0  0  0  0  0  0  0  0  0
   12.6937   26.4822    0.0000 C   0  0  0  0  0  0  0  0  0  0  0  0
   11.3249   27.0958    0.0000 C   0  0  0  0  0  0  0  0  0  0  0  0
    9.9266   27.6387    0.0000 C   0  0  0  0  0  0  0  0  0  0  0  0
    8.5024   28.1095    0.0000 C   0  0  0  0  0  0  0  0  0  0  0  0
    7.0561   28.5070    0.0000 C   0  0  0  0  0  0  0  0  0  0  0  0
    5.5913   28.8301    0.0000 C   0  0  0  0  0  0  0  0  0  0  0  0
    4.1119   29.0780    0.0000 C   0  0  0  0  0  0  0  0  0  0  0  0
    2.6218   29.2500    0.0000 C   0  0  0  0  0  0  0  0  0  0  0  0
    1.1248   29.3457    0.0000 C   0  0  0  0  0  0  0  0  0  0  0  0
   -0.3750   29.3649    0.0000 C   0  0  0  0  0  0  0  0  0  0  0  0
   -1.8739   29.3074    0.0000 C   0  0  0  0  0  0  0  0  0  0  0  0
   -3.3679   29.1735    0.0000 C   0  0  0  0  0  0  0  0  0  0  0  0
   -4.8532   28.9635    0.0000 C   0  0  0  0  0  0  0  0  0  0  0  0
   -6.3257   28.6779    0.0000 C   0  0  0  0  0  0  0  0  0  0  0  0
   -7.7818   28.3175    0.0000 C   0  0  0  0  0  0  0  0  0  0  0  0
   -9.2175   27.8832    0.0000 C   0  0  0  0  0  0  0  0  0  0  0  0
  -10.6293   27.3762    0.0000 C   0  0  0  0  0  0  0  0  0  0  0  0
  -12.0132   26.7977    0.0000 C   0  0  0  0  0  0  0  0  0  0  0  0
  -13.3659   26.1494    0.0000 C   0  0  0  0  0  0  0  0  0  0  0  0
  -14.6836   25.4328    0.0000 C   0  0  0  0  0  0  0  0  0  0  0  0
  -15.9631   24.6499    0.0000 C   0  0  0  0  0  0  0  0  0  0  0  0
  -17.2009   23.8026    0.0000 C   0  0  0  0  0  0  0  0  0  0  0  0
  -18.3939   22.8933    0.0000 C   0  0  0  0  0  0  0  0  0  0  0  0
  -19.5388   21.9242    0.0000 C   0  0  0  0  0  0  0  0  0  0  0  0
  -20.6328   20.8980    0.0000 C   0  0  0  0  0  0  0  0  0  0  0  0
  -21.6729   19.8172    0.0000 C   0  0  0  0  0  0  0  0  0  0  0  0
  -22.6565   18.6847    0.0000 C   0  0  0  0  0  0  0  0  0  0  0  0
  -23.5810   17.5035    0.0000 C   0  0  0  0  0  0  0  0  0  0  0  0
  -24.4440   16.2766    0.0000 C   0  0  0  0  0  0  0  0  0  0  0  0
  -25.2432   15.0072    0.0000 C   0  0  0  0  0  0  0  0  0  0  0  0
  -25.9766   13.6987    0.0000 C   0  0  0  0  0  0  0  0  0  0  0  0
  -26.6422   12.3545    0.0000 C   0  0  0  0  0  0  0  0  0  0  0  0
  -27.2382   10.9780    0.0000 C   0  0  0  0  0  0  0  0  0  0  0  0
  -27.7632    9.5729    0.0000 C   0  0  0  0  0  0  0  0  0  0  0  0
  -28.2158    8.1428    0.0000 C   0  0  0  0  0  0  0  0  0  0  0  0
  -28.5948    6.6914    0.0000 C   0  0  0  0  0  0  0  0  0  0  0  0
  -28.8992    5.2226    0.0000 C   0  0  0  0  0  0  0  0  0  0  0  0
  -29.1281    3.7402    0.0000 C   0  0  0  0  0  0  0  0  0  0  0  0
  -29.2811    2.2480    0.0000 C   0  0  0  0  0  0  0  0  0  0  0  0
  -29.3577    0.7500    0.0000 C   0  0  0  0  0  0  0  0  0  0  0  0
  -29.3577   -0.7500    0.0000 C   0  0  0  0  0  0  0  0  0  0  0  0
  -29.2811   -2.2480    0.0000 C   0  0  0  0  0  0  0  0  0  0  0  0
  -29.1281   -3.7402    0.0000 C   0  0  0  0  0  0  0  0  0  0  0  0
  -28.8992   -5.2226    0.0000 C   0  0  0  0  0  0  0  0  0  0  0  0
  -28.5948   -6.6914    0.0000 C   0  0  0  0  0  0  0  0  0  0  0  0
  -28.2158   -8.1428    0.0000 C   0  0  0  0  0  0  0  0  0  0  0  0
  -27.7632   -9.5729    0.0000 C   0  0  0  0  0  0  0  0  0  0  0  0
  -27.2382  -10.9780    0.0000 C   0  0  0  0  0  0  0  0  0  0  0  0
  -26.6422  -12.3545    0.0000 C   0  0  0  0  0  0  0  0  0  0  0  0
  -25.9766  -13.6987    0.0000 C   0  0  0  0  0  0  0  0  0  0  0  0
  -25.2432  -15.0072    0.0000 C   0  0  0  0  0  0  0  0  0  0  0  0
  -24.4440  -16.2766    0.0000 C   0  0  0  0  0  0  0  0  0  0  0  0
  -23.5810  -17.5035    0.0000 C   0  0  0  0  0  0  0  0  0  0  0  0
  -22.6565  -18.6847    0.0000 C   0  0  0  0  0  0  0  0  0  0  0  0
  -21.6729  -19.8172    0.0000 C   0  0  0  0  0  0  0  0  0  0  0  0
  -20.6328  -20.8980    0.0000 C   0  0  0  0  0  0  0  0  0  0  0  0
  -19.5388  -21.9242    0.0000 C   0  0  0  0  0  0  0  0  0  0  0  0
  -18.3939  -22.8933    0.0000 C   0  0  0  0  0  0  0  0  0  0  0  0
  -17.2009  -23.8026    0.0000 C   0  0  0  0  0  0  0  0  0  0  0  0
  -15.9631  -24.6499    0.0000 C   0  0  0  0  0  0  0  0  0  0  0  0
  -14.6836  -25.4328    0.0000 C   0  0  0  0  0  0  0  0  0  0  0  0
  -13.3659  -26.1494    0.0000 C   0  0  0  0  0  0  0  0  0  0  0  0
  -12.0132  -26.7977    0.0000 C   0  0  0  0  0  0  0  0  0  0  0  0
  -10.6293  -27.3762    0.0000 C   0  0  0  0  0  0  0  0  0  0  0  0
   -9.2175  -27.8832    0.0000 C   0  0  0  0  0  0  0  0  0  0  0  0
   -7.7818  -28.3175    0.0000 C   0  0  0  0  0  0  0  0  0  0  0  0
   -6.3257  -28.6779    0.0000 C   0  0  0  0  0  0  0  0  0  0  0  0
   -4.8532  -28.9635    0.0000 C   0  0  0  0  0  0  0  0  0  0  0  0
   -3.3679  -29.1735    0.0000 C   0  0  0  0  0  0  0  0  0  0  0  0
   -1.8739  -29.3074    0.0000 C   0  0  0  0  0  0  0  0  0  0  0  0
   -0.3750  -29.3649    0.0000 C   0  0  0  0  0  0  0  0  0  0  0  0
    1.1248  -29.3457    0.0000 C   0  0  0  0  0  0  0  0  0  0  0  0
    2.6218  -29.2500    0.0000 C   0  0  0  0  0  0  0  0  0  0  0  0
    4.1119  -29.0780    0.0000 C   0  0  0  0  0  0  0  0  0  0  0  0
    5.5913  -28.8301    0.0000 C   0  0  0  0  0  0  0  0  0  0  0  0
    7.0561  -28.5070    0.0000 C   0  0  0  0  0  0  0  0  0  0  0  0
    8.5024  -28.1095    0.0000 C   0  0  0  0  0  0  0  0  0  0  0  0
    9.9266  -27.6387    0.0000 C   0  0  0  0  0  0  0  0  0  0  0  0
   11.3249  -27.0958    0.0000 C   0  0  0  0  0  0  0  0  0  0  0  0
   12.6937  -26.4822    0.0000 C   0  0  0  0  0  0  0  0  0  0  0  0
   14.0293  -25.7995    0.0000 C   0  0  0  0  0  0  0  0  0  0  0  0
   15.3284  -25.0495    0.0000 C   0  0  0  0  0  0  0  0  0  0  0  0
   16.5874  -24.2342    0.0000 C   0  0  0  0  0  0  0  0  0  0  0  0
   17.8032  -23.3556    0.0000 C   0  0  0  0  0  0  0  0  0  0  0  0
   18.9725  -22.4161    0.0000 C   0  0  0  0  0  0  0  0  0  0  0  0
   20.0923  -21.4181    0.0000 C   0  0  0  0  0  0  0  0  0  0  0  0
   21.1598  -20.3642    0.0000 C   0  0  0  0  0  0  0  0  0  0  0  0
   22.1720  -19.2572    0.0000 C   0  0  0  0  0  0  0  0  0  0  0  0
   23.1263  -18.1000    0.0000 C   0  0  0  0  0  0  0  0  0  0  0  0
   24.0204  -16.8955    0.0000 C   0  0  0  0  0  0  0  0  0  0  0  0
   24.8517  -15.6470    0.0000 C   0  0  0  0  0  0  0  0  0  0  0  0
   25.6183  -14.3577    0.0000 C   0  0  0  0  0  0  0  0  0  0  0  0
   26.3179  -13.0308    0.0000 C   0  0  0  0  0  0  0  0  0  0  0  0
   26.9490  -11.6700    0.0000 C   0  0  0  0  0  0  0  0  0  0  0  0
   27.5097  -10.2788    0.0000 C   0  0  0  0  0  0  0  0  0  0  0  0
   27.9987   -8.8607    0.0000 C   0  0  0  0  0  0  0  0  0  0  0  0
   28.4146   -7.4195    0.0000 C   0  0  0  0  0  0  0  0  0  0  0  0
   28.7563   -5.9590    0.0000 C   0  0  0  0  0  0  0  0  0  0  0  0
   29.0231   -4.4829    0.0000 C   0  0  0  0  0  0  0  0  0  0  0  0
   29.2141   -2.9951    0.0000 C   0  0  0  0  0  0  0  0  0  0  0  0
   29.3290   -1.4995    0.0000 C   0  0  0  0  0  0  0  0  0  0  0  0
  1  2  1  0
  2  3  1  0
  3  4  1  0
  4  5  1  0
  5  6  1  0
  6  7  1  0
  7  8  1  0
  8  9  1  0
  9 10  1  0
 10 11  1  0
 11 12  1  0
 12 13  1  0
 13 14  1  0
 14 15  1  0
 15 16  1  0
 16 17  1  0
 17 18  1  0
 18 19  1  0
 19 20  1  0
 20 21  1  0
 21 22  1  0
 22 23  1  0
 23 24  1  0
 24 25  1  0
 25 26  1  0
 26 27  1  0
 27 28  1  0
 28 29  1  0
 29 30  1  0
 30 31  1  0
 31 32  1  0
 32 33  1  0
 33 34  1  0
 34 35  1  0
 35 36  1  0
 36 37  1  0
 37 38  1  0
 38 39  1  0
 39 40  1  0
 40 41  1  0
 41 42  1  0
 42 43  1  0
 43 44  1  0
 44 45  1  0
 45 46  1  0
 46 47  1  0
 47 48  1  0
 48 49  1  0
 49 50  1  0
 50 51  1  0
 51 52  1  0
 52 53  1  0
 53 54  1  0
 54 55  1  0
 55 56  1  0
 56 57  1  0
 57 58  1  0
 58 59  1  0
 59 60  1  0
 60 61  1  0
 61 62  1  0
 62 63  1  0
 63 64  1  0
 64 65  1  0
 65 66  1  0
 66 67  1  0
 67 68  1  0
 68 69  1  0
 69 70  1  0
 70 71  1  0
 71 72  1  0
 72 73  1  0
 73 74  1  0
 74 75  1  0
 75 76  1  0
 76 77  1  0
 77 78  1  0
 78 79  1  0
 79 80  1  0
 80 81  1  0
 81 82  1  0
 82 83  1  0
 83 84  1  0
 84 85  1  0
 85 86  1  0
 86 87  1  0
 87 88  1  0
 88 89  1  0
 89 90  1  0
 90 91  1  0
 91 92  1  0
 92 93  1  0
 93 94  1  0
 94 95  1  0
 95 96  1  0
 96 97  1  0
 97 98  1  0
 98 99  1  0
 99100  1  0
100101  1  0
101102  1  0
102103  1  0
103104  1  0
104105  1  0
105106  1  0
106107  1  0
107108  1  0
108109  1  0
109110  1  0
110111  1  0
111112  1  0
112113  1  0
113114  1  0
114115  1  0
115116  1  0
116117  1  0
117118  1  0
118119  1  0
119120  1  0
120121  1  0
121122  1  0
122123  1  0
123124  1  0
124  2  1  0
M  END
>  <Title>  (784) 
idABCJgen7

$$$$

     RDKit          2D

 88 88  0  0  0  0  0  0  0  0999 V2000
   22.2742   -0.0000    0.0000 C   0  0  0  0  0  0  0  0  0  0  0  0
   20.7742    0.0000    0.0000 C   0  0  0  0  0  0  0  0  0  0  0  0
   20.7201    1.4990    0.0000 C   0  0  0  0  0  0  0  0  0  0  0  0
   20.5579    2.9902    0.0000 C   0  0  0  0  0  0  0  0  0  0  0  0
   20.2885    4.4658    0.0000 C   0  0  0  0  0  0  0  0  0  0  0  0
   19.9134    5.9182    0.0000 C   0  0  0  0  0  0  0  0  0  0  0  0
   19.4345    7.3397    0.0000 C   0  0  0  0  0  0  0  0  0  0  0  0
   18.8542    8.7229    0.0000 C   0  0  0  0  0  0  0  0  0  0  0  0
   18.1756   10.0606    0.0000 C   0  0  0  0  0  0  0  0  0  0  0  0
   17.4023   11.3459    0.0000 C   0  0  0  0  0  0  0  0  0  0  0  0
   16.5382   12.5720    0.0000 C   0  0  0  0  0  0  0  0  0  0  0  0
   15.5879   13.7326    0.0000 C   0  0  0  0  0  0  0  0  0  0  0  0
   14.5564   14.8216    0.0000 C   0  0  0  0  0  0  0  0  0  0  0  0
   13.4490   15.8333    0.0000 C   0  0  0  0  0  0  0  0  0  0  0  0
   12.2714   16.7625    0.0000 C   0  0  0  0  0  0  0  0  0  0  0  0
   11.0299   17.6043    0.0000 C   0  0  0  0  0  0  0  0  0  0  0  0
    9.7308   18.3543    0.0000 C   0  0  0  0  0  0  0  0  0  0  0  0
    8.3811   19.0086    0.0000 C   0  0  0  0  0  0  0  0  0  0  0  0
    6.9876   19.5638    0.0000 C   0  0  0  0  0  0  0  0  0  0  0  0
    5.5577   20.0170    0.0000 C   0  0  0  0  0  0  0  0  0  0  0  0
    4.0988   20.3659    0.0000 C   0  0  0  0  0  0  0  0  0  0  0  0
    2.6186   20.6085    0.0000 C   0  0  0  0  0  0  0  0  0  0  0  0
    1.1247   20.7438    0.0000 C   0  0  0  0  0  0  0  0  0  0  0  0
   -0.3751   20.7708    0.0000 C   0  0  0  0  0  0  0  0  0  0  0  0
   -1.8729   20.6896    0.0000 C   0  0  0  0  0  0  0  0  0  0  0  0
   -3.3609   20.5006    0.0000 C   0  0  0  0  0  0  0  0  0  0  0  0
   -4.8314   20.2046    0.0000 C   0  0  0  0  0  0  0  0  0  0  0  0
   -6.2767   19.8033    0.0000 C   0  0  0  0  0  0  0  0  0  0  0  0
   -7.6893   19.2988    0.0000 C   0  0  0  0  0  0  0  0  0  0  0  0
   -9.0618   18.6936    0.0000 C   0  0  0  0  0  0  0  0  0  0  0  0
  -10.3871   17.9910    0.0000 C   0  0  0  0  0  0  0  0  0  0  0  0
  -11.6582   17.1946    0.0000 C   0  0  0  0  0  0  0  0  0  0  0  0
  -12.8686   16.3086    0.0000 C   0  0  0  0  0  0  0  0  0  0  0  0
  -14.0118   15.3375    0.0000 C   0  0  0  0  0  0  0  0  0  0  0  0
  -15.0820   14.2864    0.0000 C   0  0  0  0  0  0  0  0  0  0  0  0
  -16.0736   13.1609    0.0000 C   0  0  0  0  0  0  0  0  0  0  0  0
  -16.9813   11.9668    0.0000 C   0  0  0  0  0  0  0  0  0  0  0  0
  -17.8006   10.7102    0.0000 C   0  0  0  0  0  0  0  0  0  0  0  0
  -18.5270    9.3979    0.0000 C   0  0  0  0  0  0  0  0  0  0  0  0
  -19.1568    8.0365    0.0000 C   0  0  0  0  0  0  0  0  0  0  0  0
  -19.6868    6.6332    0.0000 C   0  0  0  0  0  0  0  0  0  0  0  0
  -20.1141    5.1954    0.0000 C   0  0  0  0  0  0  0  0  0  0  0  0
  -20.4365    3.7305    0.0000 C   0  0  0  0  0  0  0  0  0  0  0  0
  -20.6525    2.2461    0.0000 C   0  0  0  0  0  0  0  0  0  0  0  0
  -20.7607    0.7500    0.0000 C   0  0  0  0  0  0  0  0  0  0  0  0
  -20.7607   -0.7500    0.0000 C   0  0  0  0  0  0  0  0  0  0  0  0
  -20.6525   -2.2461    0.0000 C   0  0  0  0  0  0  0  0  0  0  0  0
  -20.4365   -3.7305    0.0000 C   0  0  0  0  0  0  0  0  0  0  0  0
  -20.1141   -5.1954    0.0000 C   0  0  0  0  0  0  0  0  0  0  0  0
  -19.6868   -6.6332    0.0000 C   0  0  0  0  0  0  0  0  0  0  0  0
  -19.1568   -8.0365    0.0000 C   0  0  0  0  0  0  0  0  0  0  0  0
  -18.5270   -9.3979    0.0000 C   0  0  0  0  0  0  0  0  0  0  0  0
  -17.8006  -10.7102    0.0000 C   0  0  0  0  0  0  0  0  0  0  0  0
  -16.9813  -11.9668    0.0000 C   0  0  0  0  0  0  0  0  0  0  0  0
  -16.0736  -13.1609    0.0000 C   0  0  0  0  0  0  0  0  0  0  0  0
  -15.0820  -14.2864    0.0000 C   0  0  0  0  0  0  0  0  0  0  0  0
  -14.0118  -15.3375    0.0000 C   0  0  0  0  0  0  0  0  0  0  0  0
  -12.8686  -16.3086    0.0000 C   0  0  0  0  0  0  0  0  0  0  0  0
  -11.6582  -17.1946    0.0000 C   0  0  0  0  0  0  0  0  0  0  0  0
  -10.3871  -17.9910    0.0000 C   0  0  0  0  0  0  0  0  0  0  0  0
   -9.0618  -18.6936    0.0000 C   0  0  0  0  0  0  0  0  0  0  0  0
   -7.6893  -19.2988    0.0000 C   0  0  0  0  0  0  0  0  0  0  0  0
   -6.2767  -19.8033    0.0000 C   0  0  0  0  0  0  0  0  0  0  0  0
   -4.8314  -20.2046    0.0000 C   0  0  0  0  0  0  0  0  0  0  0  0
   -3.3609  -20.5006    0.0000 C   0  0  0  0  0  0  0  0  0  0  0  0
   -1.8729  -20.6896    0.0000 C   0  0  0  0  0  0  0  0  0  0  0  0
   -0.3751  -20.7708    0.0000 C   0  0  0  0  0  0  0  0  0  0  0  0
    1.1247  -20.7438    0.0000 C   0  0  0  0  0  0  0  0  0  0  0  0
    2.6186  -20.6085    0.0000 C   0  0  0  0  0  0  0  0  0  0  0  0
    4.0988  -20.3659    0.0000 C   0  0  0  0  0  0  0  0  0  0  0  0
    5.5577  -20.0170    0.0000 C   0  0  0  0  0  0  0  0  0  0  0  0
    6.9876  -19.5638    0.0000 C   0  0  0  0  0  0  0  0  0  0  0  0
    8.3811  -19.0086    0.0000 C   0  0  0  0  0  0  0  0  0  0  0  0
    9.7308  -18.3543    0.0000 C   0  0  0  0  0  0  0  0  0  0  0  0
   11.0299  -17.6043    0.0000 C   0  0  0  0  0  0  0  0  0  0  0  0
   12.2714  -16.7625    0.0000 C   0  0  0  0  0  0  0  0  0  0  0  0
   13.4490  -15.8333    0.0000 C   0  0  0  0  0  0  0  0  0  0  0  0
   14.5564  -14.8216    0.0000 C   0  0  0  0  0  0  0  0  0  0  0  0
   15.5879  -13.7326    0.0000 C   0  0  0  0  0  0  0  0  0  0  0  0
   16.5382  -12.5720    0.0000 C   0  0  0  0  0  0  0  0  0  0  0  0
   17.4023  -11.3459    0.0000 C   0  0  0  0  0  0  0  0  0  0  0  0
   18.1756  -10.0606    0.0000 C   0  0  0  0  0  0  0  0  0  0  0  0
   18.8542   -8.7229    0.0000 C   0  0  0  0  0  0  0  0  0  0  0  0
   19.4345   -7.3397    0.0000 C   0  0  0  0  0  0  0  0  0  0  0  0
   19.9134   -5.9182    0.0000 C   0  0  0  0  0  0  0  0  0  0  0  0
   20.2885   -4.4658    0.0000 C   0  0  0  0  0  0  0  0  0  0  0  0
   20.5579   -2.9902    0.0000 C   0  0  0  0  0  0  0  0  0  0  0  0
   20.7201   -1.4990    0.0000 C   0  0  0  0  0  0  0  0  0  0  0  0
  1  2  1  0
  2  3  1  0
  3  4  1  0
  4  5  1  0
  5  6  1  0
  6  7  1  0
  7  8  1  0
  8  9  1  0
  9 10  1  0
 10 11  1  0
 11 12  1  0
 12 13  1  0
 13 14  1  0
 14 15  1  0
 15 16  1  0
 16 17  1  0
 17 18  1  0
 18 19  1  0
 19 20  1  0
 20 21  2  0
 21 22  1  0
 22 23  2  0
 23 24  1  0
 24 25  2  0
 25 26  1  0
 26 27  1  0
 27 28  1  0
 28 29  1  0
 29 30  1  0
 30 31  1  0
 31 32  1  0
 32 33  1  0
 33 34  1  0
 34 35  1  0
 35 36  1  0
 36 37  1  0
 37 38  1  0
 38 39  1  0
 39 40  1  0
 40 41  1  0
 41 42  1  0
 42 43  1  0
 43 44  1  0
 44 45  1  0
 45 46  1  0
 46 47  1  0
 47 48  1  0
 48 49  1  0
 49 50  1  0
 50 51  1  0
 51 52  1  0
 52 53  1  0
 53 54  1  0
 54 55  1  0
 55 56  1  0
 56 57  1  0
 57 58  1  0
 58 59  1  0
 59 60  1  0
 60 61  1  0
 61 62  1  0
 62 63  1  0
 63 64  1  0
 64 65  1  0
 65 66  1  0
 66 67  1  0
 67 68  1  0
 68 69  1  0
 69 70  1  0
 70 71  1  0
 71 72  1  0
 72 73  1  0
 73 74  1  0
 74 75  1  0
 75 76  1  0
 76 77  1  0
 77 78  1  0
 78 79  1  0
 79 80  1  0
 80 81  1  0
 81 82  1  0
 82 83  1  0
 83 84  1  0
 84 85  1  0
 85 86  1  0
 86 87  1  0
 87 88  1  0
 88  2  1  0
M  END
>  <Title>  (785) 
idABCKgen7

$$$$

     RDKit          2D

 84 84  0  0  0  0  0  0  0  0999 V2000
   21.3195    0.0000    0.0000 C   0  0  0  0  0  0  0  0  0  0  0  0
   19.8195    0.0000    0.0000 C   0  0  0  0  0  0  0  0  0  0  0  0
   19.7628    1.4989    0.0000 C   0  0  0  0  0  0  0  0  0  0  0  0
   19.5928    2.9893    0.0000 C   0  0  0  0  0  0  0  0  0  0  0  0
   19.3106    4.4625    0.0000 C   0  0  0  0  0  0  0  0  0  0  0  0
   18.9178    5.9101    0.0000 C   0  0  0  0  0  0  0  0  0  0  0  0
   18.4167    7.3239    0.0000 C   0  0  0  0  0  0  0  0  0  0  0  0
   17.8100    8.6958    0.0000 C   0  0  0  0  0  0  0  0  0  0  0  0
   17.1014   10.0178    0.0000 C   0  0  0  0  0  0  0  0  0  0  0  0
   16.2947   11.2825    0.0000 C   0  0  0  0  0  0  0  0  0  0  0  0
   15.3948   12.4825    0.0000 C   0  0  0  0  0  0  0  0  0  0  0  0
   14.4067   13.6111    0.0000 C   0  0  0  0  0  0  0  0  0  0  0  0
   13.3360   14.6617    0.0000 C   0  0  0  0  0  0  0  0  0  0  0  0
   12.1890   15.6283    0.0000 C   0  0  0  0  0  0  0  0  0  0  0  0
   10.9721   16.5053    0.0000 C   0  0  0  0  0  0  0  0  0  0  0  0
    9.6924   17.2879    0.0000 C   0  0  0  0  0  0  0  0  0  0  0  0
    8.3572   17.9714    0.0000 C   0  0  0  0  0  0  0  0  0  0  0  0
    6.9741   18.5520    0.0000 C   0  0  0  0  0  0  0  0  0  0  0  0
    5.5511   19.0263    0.0000 C   0  0  0  0  0  0  0  0  0  0  0  0
    4.0962   19.3916    0.0000 C   0  0  0  0  0  0  0  0  0  0  0  0
    2.6180   19.6459    0.0000 C   0  0  0  0  0  0  0  0  0  0  0  0
    1.1247   19.7876    0.0000 C   0  0  0  0  0  0  0  0  0  0  0  0
   -0.3751   19.8160    0.0000 C   0  0  0  0  0  0  0  0  0  0  0  0
   -1.8727   19.7309    0.0000 C   0  0  0  0  0  0  0  0  0  0  0  0
   -3.3595   19.5327    0.0000 C   0  0  0  0  0  0  0  0  0  0  0  0
   -4.8271   19.2227    0.0000 C   0  0  0  0  0  0  0  0  0  0  0  0
   -6.2671   18.8026    0.0000 C   0  0  0  0  0  0  0  0  0  0  0  0
   -7.6712   18.2748    0.0000 C   0  0  0  0  0  0  0  0  0  0  0  0
   -9.0313   17.6423    0.0000 C   0  0  0  0  0  0  0  0  0  0  0  0
  -10.3397   16.9087    0.0000 C   0  0  0  0  0  0  0  0  0  0  0  0
  -11.5888   16.0783    0.0000 C   0  0  0  0  0  0  0  0  0  0  0  0
  -12.7716   15.1558    0.0000 C   0  0  0  0  0  0  0  0  0  0  0  0
  -13.8813   14.1465    0.0000 C   0  0  0  0  0  0  0  0  0  0  0  0
  -14.9114   13.0562    0.0000 C   0  0  0  0  0  0  0  0  0  0  0  0
  -15.8561   11.8910    0.0000 C   0  0  0  0  0  0  0  0  0  0  0  0
  -16.7100   10.6578    0.0000 C   0  0  0  0  0  0  0  0  0  0  0  0
  -17.4682    9.3635    0.0000 C   0  0  0  0  0  0  0  0  0  0  0  0
  -18.1263    8.0156    0.0000 C   0  0  0  0  0  0  0  0  0  0  0  0
  -18.6806    6.6218    0.0000 C   0  0  0  0  0  0  0  0  0  0  0  0
  -19.1279    5.1900    0.0000 C   0  0  0  0  0  0  0  0  0  0  0  0
  -19.4656    3.7285    0.0000 C   0  0  0  0  0  0  0  0  0  0  0  0
  -19.6919    2.2457    0.0000 C   0  0  0  0  0  0  0  0  0  0  0  0
  -19.8053    0.7500    0.0000 C   0  0  0  0  0  0  0  0  0  0  0  0
  -19.8053   -0.7500    0.0000 C   0  0  0  0  0  0  0  0  0  0  0  0
  -19.6919   -2.2457    0.0000 C   0  0  0  0  0  0  0  0  0  0  0  0
  -19.4656   -3.7285    0.0000 C   0  0  0  0  0  0  0  0  0  0  0  0
  -19.1279   -5.1900    0.0000 N   0  0  0  0  0  0  0  0  0  0  0  0
  -18.6806   -6.6218    0.0000 C   0  0  0  0  0  0  0  0  0  0  0  0
  -18.1263   -8.0156    0.0000 C   0  0  0  0  0  0  0  0  0  0  0  0
  -17.4682   -9.3635    0.0000 C   0  0  0  0  0  0  0  0  0  0  0  0
  -16.7100  -10.6578    0.0000 C   0  0  0  0  0  0  0  0  0  0  0  0
  -15.8561  -11.8910    0.0000 C   0  0  0  0  0  0  0  0  0  0  0  0
  -14.9114  -13.0562    0.0000 C   0  0  0  0  0  0  0  0  0  0  0  0
  -13.8813  -14.1465    0.0000 C   0  0  0  0  0  0  0  0  0  0  0  0
  -12.7716  -15.1558    0.0000 C   0  0  0  0  0  0  0  0  0  0  0  0
  -11.5888  -16.0783    0.0000 C   0  0  0  0  0  0  0  0  0  0  0  0
  -10.3397  -16.9087    0.0000 C   0  0  0  0  0  0  0  0  0  0  0  0
   -9.0313  -17.6423    0.0000 C   0  0  0  0  0  0  0  0  0  0  0  0
   -7.6712  -18.2748    0.0000 C   0  0  0  0  0  0  0  0  0  0  0  0
   -6.2671  -18.8026    0.0000 C   0  0  0  0  0  0  0  0  0  0  0  0
   -4.8271  -19.2227    0.0000 C   0  0  0  0  0  0  0  0  0  0  0  0
   -3.3595  -19.5327    0.0000 C   0  0  0  0  0  0  0  0  0  0  0  0
   -1.8727  -19.7309    0.0000 C   0  0  0  0  0  0  0  0  0  0  0  0
   -0.3751  -19.8160    0.0000 C   0  0  0  0  0  0  0  0  0  0  0  0
    1.1247  -19.7876    0.0000 C   0  0  0  0  0  0  0  0  0  0  0  0
    2.6180  -19.6459    0.0000 C   0  0  0  0  0  0  0  0  0  0  0  0
    4.0962  -19.3916    0.0000 C   0  0  0  0  0  0  0  0  0  0  0  0
    5.5511  -19.0263    0.0000 C   0  0  0  0  0  0  0  0  0  0  0  0
    6.9741  -18.5520    0.0000 C   0  0  0  0  0  0  0  0  0  0  0  0
    8.3572  -17.9714    0.0000 C   0  0  0  0  0  0  0  0  0  0  0  0
    9.6924  -17.2879    0.0000 C   0  0  0  0  0  0  0  0  0  0  0  0
   10.9721  -16.5053    0.0000 C   0  0  0  0  0  0  0  0  0  0  0  0
   12.1890  -15.6283    0.0000 C   0  0  0  0  0  0  0  0  0  0  0  0
   13.3360  -14.6617    0.0000 C   0  0  0  0  0  0  0  0  0  0  0  0
   14.4067  -13.6111    0.0000 C   0  0  0  0  0  0  0  0  0  0  0  0
   15.3948  -12.4825    0.0000 C   0  0  0  0  0  0  0  0  0  0  0  0
   16.2947  -11.2825    0.0000 C   0  0  0  0  0  0  0  0  0  0  0  0
   17.1014  -10.0178    0.0000 C   0  0  0  0  0  0  0  0  0  0  0  0
   17.8100   -8.6958    0.0000 C   0  0  0  0  0  0  0  0  0  0  0  0
   18.4167   -7.3239    0.0000 C   0  0  0  0  0  0  0  0  0  0  0  0
   18.9178   -5.9101    0.0000 C   0  0  0  0  0  0  0  0  0  0  0  0
   19.3106   -4.4625    0.0000 C   0  0  0  0  0  0  0  0  0  0  0  0
   19.5928   -2.9893    0.0000 C   0  0  0  0  0  0  0  0  0  0  0  0
   19.7628   -1.4989    0.0000 C   0  0  0  0  0  0  0  0  0  0  0  0
  1  2  1  0
  2  3  1  0
  3  4  1  0
  4  5  1  0
  5  6  1  0
  6  7  1  0
  7  8  1  0
  8  9  1  0
  9 10  1  0
 10 11  1  0
 11 12  1  0
 12 13  1  0
 13 14  1  0
 14 15  1  0
 15 16  1  0
 16 17  1  0
 17 18  1  0
 18 19  1  0
 19 20  1  0
 20 21  1  0
 21 22  1  0
 22 23  1  0
 23 24  1  0
 24 25  1  0
 25 26  1  0
 26 27  1  0
 27 28  1  0
 28 29  1  0
 29 30  1  0
 30 31  1  0
 31 32  1  0
 32 33  1  0
 33 34  1  0
 34 35  1  0
 35 36  1  0
 36 37  1  0
 37 38  1  0
 38 39  1  0
 39 40  1  0
 40 41  1  0
 41 42  1  0
 42 43  1  0
 43 44  1  0
 44 45  1  0
 45 46  1  0
 46 47  1  0
 47 48  1  0
 48 49  1  0
 49 50  1  0
 50 51  1  0
 51 52  1  0
 52 53  1  0
 53 54  1  0
 54 55  1  0
 55 56  1  0
 56 57  1  0
 57 58  1  0
 58 59  1  0
 59 60  1  0
 60 61  1  0
 61 62  1  0
 62 63  1  0
 63 64  1  0
 64 65  1  0
 65 66  1  0
 66 67  1  0
 67 68  1  0
 68 69  1  0
 69 70  1  0
 70 71  1  0
 71 72  1  0
 72 73  1  0
 73 74  1  0
 74 75  1  0
 75 76  1  0
 76 77  1  0
 77 78  1  0
 78 79  1  0
 79 80  1  0
 80 81  1  0
 81 82  1  0
 82 83  1  0
 83 84  1  0
 84  2  1  0
M  END
>  <Title>  (786) 
idABCLgen7

$$$$

     RDKit          2D

 14 15  0  0  0  0  0  0  0  0999 V2000
    2.7760    0.0000    0.0000 C   0  0  0  0  0  0  0  0  0  0  0  0
    1.2760    0.0000    0.0000 C   0  0  0  0  0  0  0  0  0  0  0  0
    0.3943    1.2135    0.0000 C   0  0  0  0  0  0  0  0  0  0  0  0
   -1.0323    0.7500    0.0000 C   0  0  0  0  0  0  0  0  0  0  0  0
   -1.0323   -0.7500    0.0000 C   0  0  0  0  0  0  0  0  0  0  0  0
    0.3943   -1.2135    0.0000 C   0  0  0  0  0  0  0  0  0  0  0  0
    0.8578   -2.6401    0.0000 C   0  0  0  0  0  0  0  0  0  0  0  0
    2.3250   -2.9520    0.0000 O   0  0  0  0  0  0  0  0  0  0  0  0
   -0.1459   -3.7548    0.0000 N   0  0  0  0  0  0  0  0  0  0  0  0
    0.3177   -5.1814    0.0000 C   0  0  0  0  0  0  0  0  0  0  0  0
    1.7442   -5.6449    0.0000 N   0  0  0  0  0  0  0  0  0  0  0  0
    1.7442   -7.1449    0.0000 N   0  0  0  0  0  0  0  0  0  0  0  0
    0.3177   -7.6085    0.0000 N   0  0  0  0  0  0  0  0  0  0  0  0
   -0.5640   -6.3949    0.0000 N   0  0  0  0  0  0  0  0  0  0  0  0
  1  2  1  0
  2  3  1  0
  3  4  1  0
  4  5  1  0
  5  6  1  0
  6  7  1  0
  7  8  2  0
  7  9  1  0
  9 10  1  0
 10 11  2  0
 11 12  1  0
 12 13  2  0
 13 14  1  0
  6  2  1  0
 14 10  1  0
M  END
>  <Title>  (787) 
idABCMgen7

$$$$

     RDKit          2D

 71 71  0  0  0  0  0  0  0  0999 V2000
   16.9555    0.0000    0.0000 C   0  0  0  0  0  0  0  0  0  0  0  0
   16.8892    1.4985    0.0000 C   0  0  0  0  0  0  0  0  0  0  0  0
   16.6907    2.9853    0.0000 C   0  0  0  0  0  0  0  0  0  0  0  0
   16.3615    4.4488    0.0000 C   0  0  0  0  0  0  0  0  0  0  0  0
   15.9043    5.8774    0.0000 C   0  0  0  0  0  0  0  0  0  0  0  0
   15.3226    7.2600    0.0000 C   0  0  0  0  0  0  0  0  0  0  0  0
   14.6210    8.5858    0.0000 C   0  0  0  0  0  0  0  0  0  0  0  0
   13.8050    9.8444    0.0000 C   0  0  0  0  0  0  0  0  0  0  0  0
   12.8809   11.0260    0.0000 C   0  0  0  0  0  0  0  0  0  0  0  0
   11.8560   12.1213    0.0000 C   0  0  0  0  0  0  0  0  0  0  0  0
   10.7383   13.1217    0.0000 C   0  0  0  0  0  0  0  0  0  0  0  0
    9.5366   14.0194    0.0000 C   0  0  0  0  0  0  0  0  0  0  0  0
    8.2603   14.8074    0.0000 C   0  0  0  0  0  0  0  0  0  0  0  0
    6.9193   15.4795    0.0000 C   0  0  0  0  0  0  0  0  0  0  0  0
    5.5241   16.0304    0.0000 C   0  0  0  0  0  0  0  0  0  0  0  0
    4.0857   16.4559    0.0000 C   0  0  0  0  0  0  0  0  0  0  0  0
    2.6154   16.7526    0.0000 C   0  0  0  0  0  0  0  0  0  0  0  0
    1.1245   16.9182    0.0000 C   0  0  0  0  0  0  0  0  0  0  0  0
   -0.3751   16.9514    0.0000 C   0  0  0  0  0  0  0  0  0  0  0  0
   -1.8718   16.8519    0.0000 C   0  0  0  0  0  0  0  0  0  0  0  0
   -3.3538   16.6205    0.0000 C   0  0  0  0  0  0  0  0  0  0  0  0
   -4.8096   16.2591    0.0000 C   0  0  0  0  0  0  0  0  0  0  0  0
   -6.2278   15.7704    0.0000 C   0  0  0  0  0  0  0  0  0  0  0  0
   -7.5972   15.1582    0.0000 C   0  0  0  0  0  0  0  0  0  0  0  0
   -8.9072   14.4275    0.0000 C   0  0  0  0  0  0  0  0  0  0  0  0
  -10.1474   13.5838    0.0000 C   0  0  0  0  0  0  0  0  0  0  0  0
  -11.3082   12.6338    0.0000 C   0  0  0  0  0  0  0  0  0  0  0  0
  -12.3806   11.5850    0.0000 C   0  0  0  0  0  0  0  0  0  0  0  0
  -13.3560   10.4454    0.0000 C   0  0  0  0  0  0  0  0  0  0  0  0
  -14.2269    9.2242    0.0000 C   0  0  0  0  0  0  0  0  0  0  0  0
  -14.9865    7.9307    0.0000 C   0  0  0  0  0  0  0  0  0  0  0  0
  -15.6287    6.5751    0.0000 C   0  0  0  0  0  0  0  0  0  0  0  0
  -16.1487    5.1681    0.0000 C   0  0  0  0  0  0  0  0  0  0  0  0
  -16.5423    3.7207    0.0000 C   0  0  0  0  0  0  0  0  0  0  0  0
  -16.8064    2.2441    0.0000 C   0  0  0  0  0  0  0  0  0  0  0  0
  -16.9389    0.7500    0.0000 C   0  0  0  0  0  0  0  0  0  0  0  0
  -16.9389   -0.7500    0.0000 C   0  0  0  0  0  0  0  0  0  0  0  0
  -16.8064   -2.2441    0.0000 C   0  0  0  0  0  0  0  0  0  0  0  0
  -16.5423   -3.7207    0.0000 C   0  0  0  0  0  0  0  0  0  0  0  0
  -16.1487   -5.1681    0.0000 C   0  0  0  0  0  0  0  0  0  0  0  0
  -15.6287   -6.5751    0.0000 C   0  0  0  0  0  0  0  0  0  0  0  0
  -14.9865   -7.9307    0.0000 C   0  0  0  0  0  0  0  0  0  0  0  0
  -14.2269   -9.2242    0.0000 C   0  0  0  0  0  0  0  0  0  0  0  0
  -13.3560  -10.4454    0.0000 C   0  0  0  0  0  0  0  0  0  0  0  0
  -12.3806  -11.5850    0.0000 C   0  0  0  0  0  0  0  0  0  0  0  0
  -11.3082  -12.6338    0.0000 C   0  0  0  0  0  0  0  0  0  0  0  0
  -10.1474  -13.5838    0.0000 C   0  0  0  0  0  0  0  0  0  0  0  0
   -8.9072  -14.4275    0.0000 C   0  0  0  0  0  0  0  0  0  0  0  0
   -7.5972  -15.1582    0.0000 C   0  0  0  0  0  0  0  0  0  0  0  0
   -6.2278  -15.7704    0.0000 C   0  0  0  0  0  0  0  0  0  0  0  0
   -4.8096  -16.2591    0.0000 C   0  0  0  0  0  0  0  0  0  0  0  0
   -3.3538  -16.6205    0.0000 C   0  0  0  0  0  0  0  0  0  0  0  0
   -1.8718  -16.8519    0.0000 C   0  0  0  0  0  0  0  0  0  0  0  0
   -0.3751  -16.9514    0.0000 C   0  0  0  0  0  0  0  0  0  0  0  0
    1.1245  -16.9182    0.0000 C   0  0  0  0  0  0  0  0  0  0  0  0
    2.6154  -16.7526    0.0000 C   0  0  0  0  0  0  0  0  0  0  0  0
    4.0857  -16.4559    0.0000 C   0  0  0  0  0  0  0  0  0  0  0  0
    5.5241  -16.0304    0.0000 C   0  0  0  0  0  0  0  0  0  0  0  0
    6.9193  -15.4795    0.0000 C   0  0  0  0  0  0  0  0  0  0  0  0
    8.2603  -14.8074    0.0000 C   0  0  0  0  0  0  0  0  0  0  0  0
    9.5366  -14.0194    0.0000 C   0  0  0  0  0  0  0  0  0  0  0  0
   10.7383  -13.1217    0.0000 C   0  0  0  0  0  0  0  0  0  0  0  0
   11.8560  -12.1213    0.0000 C   0  0  0  0  0  0  0  0  0  0  0  0
   12.8809  -11.0260    0.0000 C   0  0  0  0  0  0  0  0  0  0  0  0
   13.8050   -9.8444    0.0000 C   0  0  0  0  0  0  0  0  0  0  0  0
   14.6210   -8.5858    0.0000 C   0  0  0  0  0  0  0  0  0  0  0  0
   15.3226   -7.2600    0.0000 C   0  0  0  0  0  0  0  0  0  0  0  0
   15.9043   -5.8774    0.0000 C   0  0  0  0  0  0  0  0  0  0  0  0
   16.3615   -4.4488    0.0000 C   0  0  0  0  0  0  0  0  0  0  0  0
   16.6907   -2.9853    0.0000 C   0  0  0  0  0  0  0  0  0  0  0  0
   16.8892   -1.4985    0.0000 C   0  0  0  0  0  0  0  0  0  0  0  0
  1  2  2  0
  2  3  1  0
  3  4  1  0
  4  5  1  0
  5  6  1  0
  6  7  1  0
  7  8  1  0
  8  9  1  0
  9 10  1  0
 10 11  1  0
 11 12  1  0
 12 13  1  0
 13 14  1  0
 14 15  1  0
 15 16  1  0
 16 17  1  0
 17 18  1  0
 18 19  1  0
 19 20  1  0
 20 21  1  0
 21 22  1  0
 22 23  1  0
 23 24  1  0
 24 25  1  0
 25 26  1  0
 26 27  1  0
 27 28  1  0
 28 29  1  0
 29 30  1  0
 30 31  1  0
 31 32  1  0
 32 33  1  0
 33 34  1  0
 34 35  1  0
 35 36  1  0
 36 37  1  0
 37 38  1  0
 38 39  1  0
 39 40  1  0
 40 41  1  0
 41 42  1  0
 42 43  1  0
 43 44  1  0
 44 45  1  0
 45 46  1  0
 46 47  1  0
 47 48  1  0
 48 49  1  0
 49 50  1  0
 50 51  1  0
 51 52  1  0
 52 53  1  0
 53 54  1  0
 54 55  1  0
 55 56  1  0
 56 57  1  0
 57 58  1  0
 58 59  1  0
 59 60  1  0
 60 61  1  0
 61 62  1  0
 62 63  1  0
 63 64  1  0
 64 65  1  0
 65 66  1  0
 66 67  1  0
 67 68  1  0
 68 69  1  0
 69 70  1  0
 70 71  1  0
 71  1  1  0
M  END
>  <Title>  (788) 
idABCNgen7

$$$$

     RDKit          2D

 10 10  0  0  0  0  0  0  0  0999 V2000
    3.7500   -1.2990    0.0000 C   0  0  0  0  0  0  0  0  0  0  0  0
    3.0000    0.0000    0.0000 C   0  0  0  0  0  0  0  0  0  0  0  0
    3.7500    1.2990    0.0000 O   0  0  0  0  0  0  0  0  0  0  0  0
    1.5000    0.0000    0.0000 C   0  0  0  0  0  0  0  0  0  0  0  0
    0.7500   -1.2990    0.0000 C   0  0  0  0  0  0  0  0  0  0  0  0
   -0.7500   -1.2990    0.0000 C   0  0  0  0  0  0  0  0  0  0  0  0
   -1.5000    0.0000    0.0000 C   0  0  0  0  0  0  0  0  0  0  0  0
   -3.0000    0.0000    0.0000 C   0  0  0  0  0  0  0  0  0  0  0  0
   -0.7500    1.2990    0.0000 C   0  0  0  0  0  0  0  0  0  0  0  0
    0.7500    1.2990    0.0000 C   0  0  0  0  0  0  0  0  0  0  0  0
  1  2  1  0
  2  3  2  0
  2  4  1  0
  4  5  1  0
  5  6  1  0
  6  7  1  0
  7  8  1  0
  7  9  1  0
  9 10  1  0
 10  4  1  0
M  END
>  <Title>  (789) 
idABCOgen7

$$$$

     RDKit          2D

 17 18  0  0  0  0  0  0  0  0999 V2000
    1.8478  -11.6600    0.0000 C   0  0  0  0  0  0  0  0  0  0  0  0
    2.0046  -10.1682    0.0000 C   0  0  0  0  0  0  0  0  0  0  0  0
    3.3037   -9.4182    0.0000 C   0  0  0  0  0  0  0  0  0  0  0  0
    2.9918   -7.9510    0.0000 C   0  0  0  0  0  0  0  0  0  0  0  0
    1.5000   -7.7942    0.0000 C   0  0  0  0  0  0  0  0  0  0  0  0
    0.7500   -6.4952    0.0000 C   0  0  0  0  0  0  0  0  0  0  0  0
    1.5000   -5.1962    0.0000 C   0  0  0  0  0  0  0  0  0  0  0  0
    0.7500   -3.8971    0.0000 C   0  0  0  0  0  0  0  0  0  0  0  0
   -0.7500   -3.8971    0.0000 O   0  0  0  0  0  0  0  0  0  0  0  0
    1.5000   -2.5981    0.0000 N   0  0  0  0  0  0  0  0  0  0  0  0
    0.7500   -1.2990    0.0000 C   0  0  0  0  0  0  0  0  0  0  0  0
    1.5000    0.0000    0.0000 N   0  0  0  0  0  0  0  0  0  0  0  0
    0.7500    1.2990    0.0000 N   0  0  0  0  0  0  0  0  0  0  0  0
   -0.7500    1.2990    0.0000 N   0  0  0  0  0  0  0  0  0  0  0  0
   -1.5000    0.0000    0.0000 N   0  0  0  0  0  0  0  0  0  0  0  0
   -0.7500   -1.2990    0.0000 N   0  0  0  0  0  0  0  0  0  0  0  0
    0.8899   -9.1645    0.0000 C   0  0  0  0  0  0  0  0  0  0  0  0
  1  2  1  0
  2  3  1  0
  3  4  1  0
  4  5  1  0
  5  6  1  0
  6  7  1  0
  7  8  1  0
  8  9  2  0
  8 10  1  0
 10 11  1  0
 11 12  2  0
 12 13  1  0
 13 14  2  0
 14 15  1  0
 15 16  2  0
  5 17  1  0
 17  2  1  0
 16 11  1  0
M  END
>  <Title>  (790) 
idABCPgen7

$$$$

     RDKit          2D

 66 75  0  0  0  0  0  0  0  0999 V2000
  -17.5501  -12.5481    0.0000 C   0  0  0  0  0  0  0  0  0  0  0  0
  -16.8001  -11.2491    0.0000 C   0  0  0  0  0  0  0  0  0  0  0  0
  -15.3043  -11.3612    0.0000 C   0  0  0  0  0  0  0  0  0  0  0  0
  -14.2840  -10.2616    0.0000 C   0  0  0  0  0  0  0  0  0  0  0  0
  -14.5076   -8.7783    0.0000 C   0  0  0  0  0  0  0  0  0  0  0  0
  -15.8066   -8.0283    0.0000 C   0  0  0  0  0  0  0  0  0  0  0  0
  -15.6945   -6.5325    0.0000 C   0  0  0  0  0  0  0  0  0  0  0  0
  -16.9339   -5.6876    0.0000 O   0  0  0  0  0  0  0  0  0  0  0  0
  -14.3430   -5.8817    0.0000 N   0  0  0  0  0  0  0  0  0  0  0  0
  -14.2310   -4.3859    0.0000 C   0  0  0  0  0  0  0  0  0  0  0  0
  -15.3752   -3.4160    0.0000 N   0  0  0  0  0  0  0  0  0  0  0  0
  -14.8064   -2.0280    0.0000 N   0  0  0  0  0  0  0  0  0  0  0  0
  -13.3106   -2.1401    0.0000 N   0  0  0  0  0  0  0  0  0  0  0  0
  -12.9549   -3.5974    0.0000 N   0  0  0  0  0  0  0  0  0  0  0  0
  -11.5670   -4.1662    0.0000 C   0  0  0  0  0  0  0  0  0  0  0  0
  -11.3656   -5.6526    0.0000 C   0  0  0  0  0  0  0  0  0  0  0  0
   -9.9777   -6.2215    0.0000 C   0  0  0  0  0  0  0  0  0  0  0  0
   -8.7911   -5.3039    0.0000 C   0  0  0  0  0  0  0  0  0  0  0  0
   -7.4031   -5.8727    0.0000 C   0  0  0  0  0  0  0  0  0  0  0  0
   -6.0151   -6.4416    0.0000 N   0  0  0  0  0  0  0  0  0  0  0  0
   -8.9924   -3.8175    0.0000 C   0  0  0  0  0  0  0  0  0  0  0  0
  -10.3804   -3.2486    0.0000 C   0  0  0  0  0  0  0  0  0  0  0  0
  -10.5817   -1.7622    0.0000 C   0  0  0  0  0  0  0  0  0  0  0  0
  -11.9697   -1.1934    0.0000 C   0  0  0  0  0  0  0  0  0  0  0  0
  -12.1710    0.2931    0.0000 C   0  0  0  0  0  0  0  0  0  0  0  0
  -10.9844    1.2106    0.0000 C   0  0  0  0  0  0  0  0  0  0  0  0
   -9.5965    0.6418    0.0000 C   0  0  0  0  0  0  0  0  0  0  0  0
   -9.3951   -0.8446    0.0000 C   0  0  0  0  0  0  0  0  0  0  0  0
   -8.0072   -1.4135    0.0000 C   0  0  0  0  0  0  0  0  0  0  0  0
   -7.8058   -2.8999    0.0000 C   0  0  0  0  0  0  0  0  0  0  0  0
   -6.4178   -3.4687    0.0000 C   0  0  0  0  0  0  0  0  0  0  0  0
   -5.2312   -2.5511    0.0000 C   0  0  0  0  0  0  0  0  0  0  0  0
   -5.4326   -1.0647    0.0000 C   0  0  0  0  0  0  0  0  0  0  0  0
   -6.8205   -0.4959    0.0000 C   0  0  0  0  0  0  0  0  0  0  0  0
   -7.0219    0.9906    0.0000 C   0  0  0  0  0  0  0  0  0  0  0  0
   -8.4099    1.5594    0.0000 C   0  0  0  0  0  0  0  0  0  0  0  0
   -8.6112    3.0458    0.0000 C   0  0  0  0  0  0  0  0  0  0  0  0
   -7.4246    3.9634    0.0000 C   0  0  0  0  0  0  0  0  0  0  0  0
   -6.0366    3.3946    0.0000 C   0  0  0  0  0  0  0  0  0  0  0  0
   -5.8353    1.9081    0.0000 C   0  0  0  0  0  0  0  0  0  0  0  0
   -4.4473    1.3393    0.0000 C   0  0  0  0  0  0  0  0  0  0  0  0
   -4.2460   -0.1471    0.0000 C   0  0  0  0  0  0  0  0  0  0  0  0
   -2.8580   -0.7160    0.0000 C   0  0  0  0  0  0  0  0  0  0  0  0
   -1.6714    0.2016    0.0000 C   0  0  0  0  0  0  0  0  0  0  0  0
   -1.8728    1.6881    0.0000 C   0  0  0  0  0  0  0  0  0  0  0  0
   -3.2607    2.2569    0.0000 C   0  0  0  0  0  0  0  0  0  0  0  0
   -3.4621    3.7433    0.0000 C   0  0  0  0  0  0  0  0  0  0  0  0
   -4.8500    4.3122    0.0000 C   0  0  0  0  0  0  0  0  0  0  0  0
   -5.0514    5.7986    0.0000 C   0  0  0  0  0  0  0  0  0  0  0  0
   -3.8648    6.7162    0.0000 C   0  0  0  0  0  0  0  0  0  0  0  0
   -2.4768    6.1473    0.0000 C   0  0  0  0  0  0  0  0  0  0  0  0
   -2.2755    4.6609    0.0000 C   0  0  0  0  0  0  0  0  0  0  0  0
   -0.8875    4.0921    0.0000 C   0  0  0  0  0  0  0  0  0  0  0  0
   -0.6862    2.6056    0.0000 C   0  0  0  0  0  0  0  0  0  0  0  0
    0.7018    2.0368    0.0000 C   0  0  0  0  0  0  0  0  0  0  0  0
    1.8884    2.9544    0.0000 C   0  0  0  0  0  0  0  0  0  0  0  0
    1.6870    4.4408    0.0000 C   0  0  0  0  0  0  0  0  0  0  0  0
    0.2991    5.0097    0.0000 C   0  0  0  0  0  0  0  0  0  0  0  0
    0.0977    6.4961    0.0000 C   0  0  0  0  0  0  0  0  0  0  0  0
    1.2843    7.4137    0.0000 C   0  0  0  0  0  0  0  0  0  0  0  0
    1.0830    8.9001    0.0000 C   0  0  0  0  0  0  0  0  0  0  0  0
   -0.3050    9.4689    0.0000 C   0  0  0  0  0  0  0  0  0  0  0  0
   -1.4916    8.5513    0.0000 C   0  0  0  0  0  0  0  0  0  0  0  0
   -1.2902    7.0649    0.0000 C   0  0  0  0  0  0  0  0  0  0  0  0
  -17.2029   -8.5763    0.0000 C   0  0  0  0  0  0  0  0  0  0  0  0
  -17.6450  -10.0097    0.0000 C   0  0  0  0  0  0  0  0  0  0  0  0
  1  2  1  0
  2  3  1  0
  3  4  2  0
  4  5  1  0
  5  6  2  0
  6  7  1  0
  7  8  2  0
  7  9  1  0
  9 10  1  0
 10 11  2  0
 11 12  1  0
 12 13  2  0
 13 14  1  0
 14 15  1  0
 15 16  2  0
 16 17  1  0
 17 18  2  0
 18 19  1  0
 19 20  3  0
 18 21  1  0
 21 22  2  0
 22 23  1  0
 23 24  2  0
 24 25  1  0
 25 26  2  0
 26 27  1  0
 27 28  2  0
 28 29  1  0
 29 30  2  0
 30 31  1  0
 31 32  2  0
 32 33  1  0
 33 34  2  0
 34 35  1  0
 35 36  2  0
 36 37  1  0
 37 38  2  0
 38 39  1  0
 39 40  2  0
 40 41  1  0
 41 42  2  0
 42 43  1  0
 43 44  2  0
 44 45  1  0
 45 46  2  0
 46 47  1  0
 47 48  2  0
 48 49  1  0
 49 50  2  0
 50 51  1  0
 51 52  2  0
 52 53  1  0
 53 54  2  0
 54 55  1  0
 55 56  2  0
 56 57  1  0
 57 58  2  0
 58 59  1  0
 59 60  2  0
 60 61  1  0
 61 62  2  0
 62 63  1  0
 63 64  2  0
  6 65  1  0
 65 66  1  0
 66  2  1  0
 14 10  1  0
 22 15  1  0
 28 23  1  0
 34 29  1  0
 40 35  1  0
 46 41  1  0
 52 47  1  0
 58 53  1  0
 64 59  1  0
M  END
>  <Title>  (791) 
idABCQgen7

$$$$

     RDKit          2D

 52 52  0  0  0  0  0  0  0  0999 V2000
   13.6831    0.0000    0.0000 C   0  0  0  0  0  0  0  0  0  0  0  0
   12.1831    0.0000    0.0000 C   0  0  0  0  0  0  0  0  0  0  0  0
   12.0907    1.4972    0.0000 C   0  0  0  0  0  0  0  0  0  0  0  0
   11.8151    2.9716    0.0000 C   0  0  0  0  0  0  0  0  0  0  0  0
   11.3604    4.4010    0.0000 C   0  0  0  0  0  0  0  0  0  0  0  0
   10.7334    5.7637    0.0000 C   0  0  0  0  0  0  0  0  0  0  0  0
    9.9438    7.0391    0.0000 C   0  0  0  0  0  0  0  0  0  0  0  0
    9.0034    8.2077    0.0000 C   0  0  0  0  0  0  0  0  0  0  0  0
    7.9265    9.2519    0.0000 C   0  0  0  0  0  0  0  0  0  0  0  0
    6.7295   10.1558    0.0000 C   0  0  0  0  0  0  0  0  0  0  0  0
    5.4305   10.9058    0.0000 C   0  0  0  0  0  0  0  0  0  0  0  0
    4.0491   11.4905    0.0000 C   0  0  0  0  0  0  0  0  0  0  0  0
    2.6064   11.9010    0.0000 C   0  0  0  0  0  0  0  0  0  0  0  0
    1.1241   12.1311    0.0000 C   0  0  0  0  0  0  0  0  0  0  0  0
   -0.3752   12.1773    0.0000 C   0  0  0  0  0  0  0  0  0  0  0  0
   -1.8688   12.0389    0.0000 C   0  0  0  0  0  0  0  0  0  0  0  0
   -3.3341   11.7180    0.0000 C   0  0  0  0  0  0  0  0  0  0  0  0
   -4.7488   11.2194    0.0000 C   0  0  0  0  0  0  0  0  0  0  0  0
   -6.0915   10.5508    0.0000 C   0  0  0  0  0  0  0  0  0  0  0  0
   -7.3419    9.7223    0.0000 C   0  0  0  0  0  0  0  0  0  0  0  0
   -8.4810    8.7464    0.0000 C   0  0  0  0  0  0  0  0  0  0  0  0
   -9.4916    7.6378    0.0000 C   0  0  0  0  0  0  0  0  0  0  0  0
  -10.3582    6.4136    0.0000 C   0  0  0  0  0  0  0  0  0  0  0  0
  -11.0679    5.0920    0.0000 C   0  0  0  0  0  0  0  0  0  0  0  0
  -11.6097    3.6933    0.0000 C   0  0  0  0  0  0  0  0  0  0  0  0
  -11.9756    2.2386    0.0000 C   0  0  0  0  0  0  0  0  0  0  0  0
  -12.1599    0.7500    0.0000 C   0  0  0  0  0  0  0  0  0  0  0  0
  -12.1599   -0.7500    0.0000 C   0  0  0  0  0  0  0  0  0  0  0  0
  -11.9756   -2.2386    0.0000 C   0  0  0  0  0  0  0  0  0  0  0  0
  -11.6097   -3.6933    0.0000 C   0  0  0  0  0  0  0  0  0  0  0  0
  -11.0679   -5.0920    0.0000 C   0  0  0  0  0  0  0  0  0  0  0  0
  -10.3582   -6.4136    0.0000 C   0  0  0  0  0  0  0  0  0  0  0  0
   -9.4916   -7.6378    0.0000 C   0  0  0  0  0  0  0  0  0  0  0  0
   -8.4810   -8.7464    0.0000 C   0  0  0  0  0  0  0  0  0  0  0  0
   -7.3419   -9.7223    0.0000 C   0  0  0  0  0  0  0  0  0  0  0  0
   -6.0915  -10.5508    0.0000 C   0  0  0  0  0  0  0  0  0  0  0  0
   -4.7488  -11.2194    0.0000 C   0  0  0  0  0  0  0  0  0  0  0  0
   -3.3341  -11.7180    0.0000 C   0  0  0  0  0  0  0  0  0  0  0  0
   -1.8688  -12.0389    0.0000 C   0  0  0  0  0  0  0  0  0  0  0  0
   -0.3752  -12.1773    0.0000 C   0  0  0  0  0  0  0  0  0  0  0  0
    1.1241  -12.1311    0.0000 C   0  0  0  0  0  0  0  0  0  0  0  0
    2.6064  -11.9010    0.0000 C   0  0  0  0  0  0  0  0  0  0  0  0
    4.0491  -11.4905    0.0000 C   0  0  0  0  0  0  0  0  0  0  0  0
    5.4305  -10.9058    0.0000 C   0  0  0  0  0  0  0  0  0  0  0  0
    6.7295  -10.1558    0.0000 C   0  0  0  0  0  0  0  0  0  0  0  0
    7.9265   -9.2519    0.0000 C   0  0  0  0  0  0  0  0  0  0  0  0
    9.0034   -8.2077    0.0000 C   0  0  0  0  0  0  0  0  0  0  0  0
    9.9438   -7.0391    0.0000 C   0  0  0  0  0  0  0  0  0  0  0  0
   10.7334   -5.7637    0.0000 C   0  0  0  0  0  0  0  0  0  0  0  0
   11.3604   -4.4010    0.0000 C   0  0  0  0  0  0  0  0  0  0  0  0
   11.8151   -2.9716    0.0000 C   0  0  0  0  0  0  0  0  0  0  0  0
   12.0907   -1.4972    0.0000 C   0  0  0  0  0  0  0  0  0  0  0  0
  1  2  1  0
  2  3  1  0
  3  4  1  0
  4  5  1  0
  5  6  1  0
  6  7  1  0
  7  8  1  0
  8  9  1  0
  9 10  1  0
 10 11  1  0
 11 12  1  0
 12 13  1  0
 13 14  1  0
 14 15  1  0
 15 16  1  0
 16 17  1  0
 17 18  1  0
 18 19  1  0
 19 20  1  0
 20 21  1  0
 21 22  1  0
 22 23  1  0
 23 24  1  0
 24 25  1  0
 25 26  1  0
 26 27  1  0
 27 28  1  0
 28 29  1  0
 29 30  1  0
 30 31  1  0
 31 32  1  0
 32 33  1  0
 33 34  1  0
 34 35  1  0
 35 36  1  0
 36 37  1  0
 37 38  1  0
 38 39  1  0
 39 40  1  0
 40 41  1  0
 41 42  1  0
 42 43  1  0
 43 44  1  0
 44 45  1  0
 45 46  1  0
 46 47  1  0
 47 48  1  0
 48 49  1  0
 49 50  1  0
 50 51  1  0
 51 52  1  0
 52  2  1  0
M  END
>  <Title>  (792) 
idABCRgen7

$$$$

     RDKit          2D

 13 13  0  0  0  0  0  0  0  0999 V2000
   10.7286   -0.0000    0.0000 C   0  0  0  0  0  0  0  0  0  0  0  0
    9.2286   -0.0000    0.0000 C   0  0  0  0  0  0  0  0  0  0  0  0
    7.7286   -0.0000    0.0000 C   0  0  0  0  0  0  0  0  0  0  0  0
    6.2286   -0.0000    0.0000 C   0  0  0  0  0  0  0  0  0  0  0  0
    4.7286   -0.0000    0.0000 C   0  0  0  0  0  0  0  0  0  0  0  0
    3.2286   -0.0000    0.0000 C   0  0  0  0  0  0  0  0  0  0  0  0
    1.7286    0.0000    0.0000 C   0  0  0  0  0  0  0  0  0  0  0  0
    1.0777    1.3515    0.0000 C   0  0  0  0  0  0  0  0  0  0  0  0
   -0.3846    1.6852    0.0000 C   0  0  0  0  0  0  0  0  0  0  0  0
   -1.5574    0.7500    0.0000 C   0  0  0  0  0  0  0  0  0  0  0  0
   -1.5574   -0.7500    0.0000 C   0  0  0  0  0  0  0  0  0  0  0  0
   -0.3846   -1.6852    0.0000 C   0  0  0  0  0  0  0  0  0  0  0  0
    1.0777   -1.3515    0.0000 C   0  0  0  0  0  0  0  0  0  0  0  0
  1  2  3  0
  2  3  1  0
  3  4  3  0
  4  5  1  0
  5  6  3  0
  6  7  1  0
  7  8  1  0
  8  9  1  0
  9 10  1  0
 10 11  1  0
 11 12  1  0
 12 13  1  0
 13  7  1  0
M  END
>  <Title>  (793) 
idABCSgen7

$$$$

     RDKit          2D

 10 10  0  0  0  0  0  0  0  0999 V2000
    3.2286   -0.0000    0.0000 C   0  0  0  0  0  0  0  0  0  0  0  0
    1.7286    0.0000    0.0000 C   0  0  0  0  0  0  0  0  0  0  0  0
    1.0777    1.3515    0.0000 C   0  0  0  0  0  0  0  0  0  0  0  0
   -0.3846    1.6852    0.0000 C   0  0  0  0  0  0  0  0  0  0  0  0
   -1.5574    0.7500    0.0000 C   0  0  0  0  0  0  0  0  0  0  0  0
   -2.9088    1.4008    0.0000 C   0  0  0  0  0  0  0  0  0  0  0  0
   -4.2603    2.0517    0.0000 N   0  0  0  0  0  0  0  0  0  0  0  0
   -1.5574   -0.7500    0.0000 C   0  0  0  0  0  0  0  0  0  0  0  0
   -0.3846   -1.6852    0.0000 C   0  0  0  0  0  0  0  0  0  0  0  0
    1.0777   -1.3515    0.0000 C   0  0  0  0  0  0  0  0  0  0  0  0
  1  2  1  0
  2  3  1  0
  3  4  1  0
  4  5  2  0
  5  6  1  0
  6  7  3  0
  5  8  1  0
  8  9  1  0
  9 10  1  0
 10  2  1  0
M  END
>  <Title>  (794) 
idABCTgen7

$$$$

     RDKit          2D

 82 87  0  0  0  0  0  0  0  0999 V2000
  -11.2355   -4.2680    0.0000 C   0  0  0  0  0  0  0  0  0  0  0  0
  -10.2020   -5.3552    0.0000 C   0  0  0  0  0  0  0  0  0  0  0  0
  -11.2355   -6.4424    0.0000 C   0  0  0  0  0  0  0  0  0  0  0  0
  -12.1537   -7.6286    0.0000 C   0  0  0  0  0  0  0  0  0  0  0  0
  -12.9471   -8.9015    0.0000 C   0  0  0  0  0  0  0  0  0  0  0  0
  -13.6077  -10.2483    0.0000 C   0  0  0  0  0  0  0  0  0  0  0  0
  -14.1287  -11.6549    0.0000 C   0  0  0  0  0  0  0  0  0  0  0  0
  -14.5046  -13.1070    0.0000 C   0  0  0  0  0  0  0  0  0  0  0  0
  -14.7318  -14.5897    0.0000 C   0  0  0  0  0  0  0  0  0  0  0  0
  -14.8077  -16.0878    0.0000 C   0  0  0  0  0  0  0  0  0  0  0  0
  -14.7318  -17.5859    0.0000 C   0  0  0  0  0  0  0  0  0  0  0  0
  -14.5046  -19.0686    0.0000 C   0  0  0  0  0  0  0  0  0  0  0  0
  -14.1287  -20.5207    0.0000 C   0  0  0  0  0  0  0  0  0  0  0  0
  -13.6077  -21.9273    0.0000 C   0  0  0  0  0  0  0  0  0  0  0  0
  -12.9471  -23.2740    0.0000 C   0  0  0  0  0  0  0  0  0  0  0  0
  -12.1537  -24.5470    0.0000 C   0  0  0  0  0  0  0  0  0  0  0  0
  -11.2355  -25.7331    0.0000 C   0  0  0  0  0  0  0  0  0  0  0  0
  -10.2020  -26.8203    0.0000 C   0  0  0  0  0  0  0  0  0  0  0  0
   -9.0639  -27.7974    0.0000 C   0  0  0  0  0  0  0  0  0  0  0  0
   -7.8328  -28.6543    0.0000 C   0  0  0  0  0  0  0  0  0  0  0  0
   -6.5212  -29.3822    0.0000 C   0  0  0  0  0  0  0  0  0  0  0  0
   -5.1428  -29.9738    0.0000 C   0  0  0  0  0  0  0  0  0  0  0  0
   -3.7116  -30.4228    0.0000 C   0  0  0  0  0  0  0  0  0  0  0  0
   -2.2423  -30.7248    0.0000 C   0  0  0  0  0  0  0  0  0  0  0  0
   -0.7500  -30.8765    0.0000 C   0  0  0  0  0  0  0  0  0  0  0  0
    0.7500  -30.8765    0.0000 C   0  0  0  0  0  0  0  0  0  0  0  0
    2.2423  -30.7248    0.0000 C   0  0  0  0  0  0  0  0  0  0  0  0
    3.7116  -30.4228    0.0000 C   0  0  0  0  0  0  0  0  0  0  0  0
    5.1428  -29.9738    0.0000 C   0  0  0  0  0  0  0  0  0  0  0  0
    6.5212  -29.3822    0.0000 C   0  0  0  0  0  0  0  0  0  0  0  0
    7.8328  -28.6543    0.0000 C   0  0  0  0  0  0  0  0  0  0  0  0
    9.0639  -27.7974    0.0000 C   0  0  0  0  0  0  0  0  0  0  0  0
   10.2020  -26.8203    0.0000 C   0  0  0  0  0  0  0  0  0  0  0  0
   11.2355  -25.7331    0.0000 C   0  0  0  0  0  0  0  0  0  0  0  0
   12.1537  -24.5470    0.0000 C   0  0  0  0  0  0  0  0  0  0  0  0
   12.9471  -23.2740    0.0000 C   0  0  0  0  0  0  0  0  0  0  0  0
   13.6077  -21.9273    0.0000 C   0  0  0  0  0  0  0  0  0  0  0  0
   14.1287  -20.5207    0.0000 C   0  0  0  0  0  0  0  0  0  0  0  0
   14.5046  -19.0686    0.0000 C   0  0  0  0  0  0  0  0  0  0  0  0
   14.7318  -17.5859    0.0000 C   0  0  0  0  0  0  0  0  0  0  0  0
   14.8077  -16.0878    0.0000 C   0  0  0  0  0  0  0  0  0  0  0  0
   14.7318  -14.5897    0.0000 C   0  0  0  0  0  0  0  0  0  0  0  0
   14.5046  -13.1070    0.0000 C   0  0  0  0  0  0  0  0  0  0  0  0
   14.1287  -11.6549    0.0000 C   0  0  0  0  0  0  0  0  0  0  0  0
   13.6077  -10.2483    0.0000 C   0  0  0  0  0  0  0  0  0  0  0  0
   12.9471   -8.9015    0.0000 C   0  0  0  0  0  0  0  0  0  0  0  0
   12.1537   -7.6286    0.0000 C   0  0  0  0  0  0  0  0  0  0  0  0
   11.2355   -6.4424    0.0000 C   0  0  0  0  0  0  0  0  0  0  0  0
   10.2020   -5.3552    0.0000 C   0  0  0  0  0  0  0  0  0  0  0  0
    9.0639   -4.3782    0.0000 C   0  0  0  0  0  0  0  0  0  0  0  0
    7.8328   -3.5213    0.0000 C   0  0  0  0  0  0  0  0  0  0  0  0
    6.5212   -2.7933    0.0000 C   0  0  0  0  0  0  0  0  0  0  0  0
    5.1428   -2.2018    0.0000 C   0  0  0  0  0  0  0  0  0  0  0  0
    3.7116   -1.7527    0.0000 C   0  0  0  0  0  0  0  0  0  0  0  0
    3.8785   -3.2434    0.0000 C   0  0  0  0  0  0  0  0  0  0  0  0
    2.5123   -3.8628    0.0000 C   0  0  0  0  0  0  0  0  0  0  0  0
    1.5011   -2.7549    0.0000 C   0  0  0  0  0  0  0  0  0  0  0  0
    2.2423   -1.4508    0.0000 C   0  0  0  0  0  0  0  0  0  0  0  0
    0.7500   -1.2990    0.0000 C   0  0  0  0  0  0  0  0  0  0  0  0
    1.5000    0.0000    0.0000 C   0  0  0  0  0  0  0  0  0  0  0  0
    0.7500    1.2990    0.0000 C   0  0  0  0  0  0  0  0  0  0  0  0
   -0.7500    1.2990    0.0000 C   0  0  0  0  0  0  0  0  0  0  0  0
   -1.5000    0.0000    0.0000 C   0  0  0  0  0  0  0  0  0  0  0  0
   -0.7500   -1.2990    0.0000 C   0  0  0  0  0  0  0  0  0  0  0  0
   -2.2423   -1.4508    0.0000 C   0  0  0  0  0  0  0  0  0  0  0  0
   -1.2462   -2.5723    0.0000 C   0  0  0  0  0  0  0  0  0  0  0  0
   -1.7193   -3.9957    0.0000 C   0  0  0  0  0  0  0  0  0  0  0  0
   -3.1886   -4.2976    0.0000 C   0  0  0  0  0  0  0  0  0  0  0  0
   -4.1848   -3.1762    0.0000 C   0  0  0  0  0  0  0  0  0  0  0  0
   -3.7116   -1.7527    0.0000 C   0  0  0  0  0  0  0  0  0  0  0  0
   -5.1428   -2.2018    0.0000 C   0  0  0  0  0  0  0  0  0  0  0  0
   -4.9659   -0.7123    0.0000 C   0  0  0  0  0  0  0  0  0  0  0  0
   -6.1674    0.1857    0.0000 C   0  0  0  0  0  0  0  0  0  0  0  0
   -7.5458   -0.4058    0.0000 C   0  0  0  0  0  0  0  0  0  0  0  0
   -7.7227   -1.8953    0.0000 C   0  0  0  0  0  0  0  0  0  0  0  0
   -6.5212   -2.7933    0.0000 C   0  0  0  0  0  0  0  0  0  0  0  0
   -7.8328   -3.5213    0.0000 C   0  0  0  0  0  0  0  0  0  0  0  0
   -6.4751   -4.1590    0.0000 C   0  0  0  0  0  0  0  0  0  0  0  0
   -6.3486   -5.6537    0.0000 C   0  0  0  0  0  0  0  0  0  0  0  0
   -7.5797   -6.5106    0.0000 C   0  0  0  0  0  0  0  0  0  0  0  0
   -8.9374   -5.8728    0.0000 C   0  0  0  0  0  0  0  0  0  0  0  0
   -9.0639   -4.3782    0.0000 C   0  0  0  0  0  0  0  0  0  0  0  0
  1  2  1  0
  2  3  1  0
  3  4  1  0
  4  5  1  0
  5  6  1  0
  6  7  1  0
  7  8  1  0
  8  9  1  0
  9 10  1  0
 10 11  1  0
 11 12  1  0
 12 13  1  0
 13 14  1  0
 14 15  1  0
 15 16  1  0
 16 17  1  0
 17 18  1  0
 18 19  1  0
 19 20  1  0
 20 21  1  0
 21 22  1  0
 22 23  1  0
 23 24  1  0
 24 25  1  0
 25 26  1  0
 26 27  1  0
 27 28  1  0
 28 29  1  0
 29 30  1  0
 30 31  1  0
 31 32  1  0
 32 33  1  0
 33 34  1  0
 34 35  1  0
 35 36  1  0
 36 37  1  0
 37 38  1  0
 38 39  1  0
 39 40  2  0
 40 41  1  0
 41 42  2  0
 42 43  1  0
 43 44  2  0
 44 45  1  0
 45 46  2  0
 46 47  1  0
 47 48  2  0
 48 49  1  0
 49 50  2  0
 50 51  1  0
 51 52  2  0
 52 53  1  0
 53 54  2  0
 54 55  1  0
 55 56  2  0
 56 57  1  0
 57 58  2  0
 58 59  1  0
 59 60  2  0
 60 61  1  0
 61 62  2  0
 62 63  1  0
 63 64  2  0
 64 65  1  0
 65 66  2  0
 66 67  1  0
 67 68  2  0
 68 69  1  0
 69 70  2  0
 70 71  1  0
 71 72  2  0
 72 73  1  0
 73 74  2  0
 74 75  1  0
 75 76  2  0
 76 77  1  0
 77 78  2  0
 78 79  1  0
 79 80  2  0
 80 81  1  0
 81 82  2  0
 82  2  1  0
 58 54  1  0
 64 59  1  0
 70 65  1  0
 76 71  1  0
 82 77  1  0
M  END
>  <Title>  (795) 
idABCUgen7

$$$$

     RDKit          2D

  7  7  0  0  0  0  0  0  0  0999 V2000
    3.0000    0.0000    0.0000 O   0  0  0  0  0  0  0  0  0  0  0  0
    1.5000    0.0000    0.0000 C   0  0  0  0  0  0  0  0  0  0  0  0
    0.7500   -1.2990    0.0000 C   0  0  0  0  0  0  0  0  0  0  0  0
   -0.7500   -1.2990    0.0000 C   0  0  0  0  0  0  0  0  0  0  0  0
   -1.5000    0.0000    0.0000 C   0  0  0  0  0  0  0  0  0  0  0  0
   -0.7500    1.2990    0.0000 C   0  0  0  0  0  0  0  0  0  0  0  0
    0.7500    1.2990    0.0000 C   0  0  0  0  0  0  0  0  0  0  0  0
  1  2  1  0
  2  3  2  0
  3  4  1  0
  4  5  2  0
  5  6  1  0
  6  7  2  0
  7  2  1  0
M  END
>  <Title>  (796) 
idABCVgen7

$$$$

     RDKit          2D

107108  0  0  0  0  0  0  0  0999 V2000
   -6.8913   -1.6947    0.0000 C   0  0  0  0  0  0  0  0  0  0  0  0
   -6.9426   -0.1955    0.0000 C   0  0  0  0  0  0  0  0  0  0  0  0
   -8.4426   -0.2002    0.0000 C   0  0  0  0  0  0  0  0  0  0  0  0
   -9.9400   -0.1116    0.0000 C   0  0  0  0  0  0  0  0  0  0  0  0
  -11.4290    0.0699    0.0000 C   0  0  0  0  0  0  0  0  0  0  0  0
  -12.9038    0.3437    0.0000 C   0  0  0  0  0  0  0  0  0  0  0  0
  -14.3587    0.7085    0.0000 C   0  0  0  0  0  0  0  0  0  0  0  0
  -15.7882    1.1632    0.0000 C   0  0  0  0  0  0  0  0  0  0  0  0
  -17.1866    1.7058    0.0000 C   0  0  0  0  0  0  0  0  0  0  0  0
  -18.5486    2.3343    0.0000 C   0  0  0  0  0  0  0  0  0  0  0  0
  -19.8688    3.0463    0.0000 C   0  0  0  0  0  0  0  0  0  0  0  0
  -21.1423    3.8390    0.0000 C   0  0  0  0  0  0  0  0  0  0  0  0
  -22.3640    4.7093    0.0000 C   0  0  0  0  0  0  0  0  0  0  0  0
  -23.5292    5.6539    0.0000 C   0  0  0  0  0  0  0  0  0  0  0  0
  -24.6334    6.6691    0.0000 C   0  0  0  0  0  0  0  0  0  0  0  0
  -25.6724    7.7510    0.0000 C   0  0  0  0  0  0  0  0  0  0  0  0
  -26.6422    8.8954    0.0000 C   0  0  0  0  0  0  0  0  0  0  0  0
  -27.5389   10.0978    0.0000 C   0  0  0  0  0  0  0  0  0  0  0  0
  -28.3591   11.3537    0.0000 C   0  0  0  0  0  0  0  0  0  0  0  0
  -29.0996   12.6582    0.0000 C   0  0  0  0  0  0  0  0  0  0  0  0
  -29.7577   14.0061    0.0000 C   0  0  0  0  0  0  0  0  0  0  0  0
  -30.3306   15.3924    0.0000 C   0  0  0  0  0  0  0  0  0  0  0  0
  -30.8163   16.8116    0.0000 C   0  0  0  0  0  0  0  0  0  0  0  0
  -31.2128   18.2582    0.0000 C   0  0  0  0  0  0  0  0  0  0  0  0
  -31.5185   19.7267    0.0000 C   0  0  0  0  0  0  0  0  0  0  0  0
  -31.7324   21.2114    0.0000 C   0  0  0  0  0  0  0  0  0  0  0  0
  -31.8536   22.7065    0.0000 C   0  0  0  0  0  0  0  0  0  0  0  0
  -31.8816   24.2063    0.0000 C   0  0  0  0  0  0  0  0  0  0  0  0
  -31.8163   25.7048    0.0000 C   0  0  0  0  0  0  0  0  0  0  0  0
  -31.6580   27.1965    0.0000 C   0  0  0  0  0  0  0  0  0  0  0  0
  -31.4072   28.6753    0.0000 C   0  0  0  0  0  0  0  0  0  0  0  0
  -31.0650   30.1358    0.0000 C   0  0  0  0  0  0  0  0  0  0  0  0
  -30.6326   31.5721    0.0000 C   0  0  0  0  0  0  0  0  0  0  0  0
  -30.1118   32.9788    0.0000 C   0  0  0  0  0  0  0  0  0  0  0  0
  -29.5045   34.3504    0.0000 C   0  0  0  0  0  0  0  0  0  0  0  0
  -28.8132   35.6816    0.0000 C   0  0  0  0  0  0  0  0  0  0  0  0
  -28.0404   36.9672    0.0000 C   0  0  0  0  0  0  0  0  0  0  0  0
  -27.1892   38.2023    0.0000 C   0  0  0  0  0  0  0  0  0  0  0  0
  -26.2628   39.3820    0.0000 C   0  0  0  0  0  0  0  0  0  0  0  0
  -25.2649   40.5019    0.0000 C   0  0  0  0  0  0  0  0  0  0  0  0
  -24.1993   41.5576    0.0000 C   0  0  0  0  0  0  0  0  0  0  0  0
  -23.0702   42.5451    0.0000 C   0  0  0  0  0  0  0  0  0  0  0  0
  -21.8818   43.4604    0.0000 C   0  0  0  0  0  0  0  0  0  0  0  0
  -20.6388   44.3000    0.0000 C   0  0  0  0  0  0  0  0  0  0  0  0
  -19.3460   45.0608    0.0000 C   0  0  0  0  0  0  0  0  0  0  0  0
  -18.0085   45.7397    0.0000 C   0  0  0  0  0  0  0  0  0  0  0  0
  -16.6313   46.3341    0.0000 C   0  0  0  0  0  0  0  0  0  0  0  0
  -15.2198   46.8418    0.0000 C   0  0  0  0  0  0  0  0  0  0  0  0
  -13.7795   47.2607    0.0000 C   0  0  0  0  0  0  0  0  0  0  0  0
  -12.3159   47.5893    0.0000 C   0  0  0  0  0  0  0  0  0  0  0  0
  -10.8348   47.8262    0.0000 C   0  0  0  0  0  0  0  0  0  0  0  0
   -9.3417   47.9706    0.0000 C   0  0  0  0  0  0  0  0  0  0  0  0
   -7.8426   48.0220    0.0000 C   0  0  0  0  0  0  0  0  0  0  0  0
   -6.3432   47.9800    0.0000 C   0  0  0  0  0  0  0  0  0  0  0  0
   -4.8493   47.8449    0.0000 C   0  0  0  0  0  0  0  0  0  0  0  0
   -3.3667   47.6171    0.0000 C   0  0  0  0  0  0  0  0  0  0  0  0
   -1.9011   47.2976    0.0000 C   0  0  0  0  0  0  0  0  0  0  0  0
   -0.4582   46.8877    0.0000 C   0  0  0  0  0  0  0  0  0  0  0  0
    0.9564   46.3888    0.0000 C   0  0  0  0  0  0  0  0  0  0  0  0
    2.3373   45.8029    0.0000 C   0  0  0  0  0  0  0  0  0  0  0  0
    3.6790   45.1324    0.0000 C   0  0  0  0  0  0  0  0  0  0  0  0
    4.9765   44.3797    0.0000 C   0  0  0  0  0  0  0  0  0  0  0  0
    6.2247   43.5478    0.0000 C   0  0  0  0  0  0  0  0  0  0  0  0
    7.4187   42.6399    0.0000 C   0  0  0  0  0  0  0  0  0  0  0  0
    8.5540   41.6595    0.0000 C   0  0  0  0  0  0  0  0  0  0  0  0
    9.6262   40.6105    0.0000 C   0  0  0  0  0  0  0  0  0  0  0  0
   10.6310   39.4968    0.0000 C   0  0  0  0  0  0  0  0  0  0  0  0
   11.5647   38.3228    0.0000 C   0  0  0  0  0  0  0  0  0  0  0  0
   12.4236   37.0930    0.0000 C   0  0  0  0  0  0  0  0  0  0  0  0
   13.2043   35.8123    0.0000 C   0  0  0  0  0  0  0  0  0  0  0  0
   13.9039   34.4854    0.0000 C   0  0  0  0  0  0  0  0  0  0  0  0
   14.5197   33.1176    0.0000 C   0  0  0  0  0  0  0  0  0  0  0  0
   15.0493   31.7142    0.0000 C   0  0  0  0  0  0  0  0  0  0  0  0
   15.4906   30.2806    0.0000 C   0  0  0  0  0  0  0  0  0  0  0  0
   15.8419   28.8223    0.0000 C   0  0  0  0  0  0  0  0  0  0  0  0
   16.1018   27.3450    0.0000 C   0  0  0  0  0  0  0  0  0  0  0  0
   16.2694   25.8544    0.0000 C   0  0  0  0  0  0  0  0  0  0  0  0
   16.3441   24.3563    0.0000 C   0  0  0  0  0  0  0  0  0  0  0  0
   16.3254   22.8564    0.0000 C   0  0  0  0  0  0  0  0  0  0  0  0
   16.2135   21.3606    0.0000 C   0  0  0  0  0  0  0  0  0  0  0  0
   16.0089   19.8746    0.0000 C   0  0  0  0  0  0  0  0  0  0  0  0
   15.7122   18.4042    0.0000 C   0  0  0  0  0  0  0  0  0  0  0  0
   15.3248   16.9551    0.0000 C   0  0  0  0  0  0  0  0  0  0  0  0
   14.8479   15.5329    0.0000 C   0  0  0  0  0  0  0  0  0  0  0  0
   14.2836   14.1431    0.0000 C   0  0  0  0  0  0  0  0  0  0  0  0
   13.6340   12.7911    0.0000 C   0  0  0  0  0  0  0  0  0  0  0  0
   12.9016   11.4821    0.0000 C   0  0  0  0  0  0  0  0  0  0  0  0
   12.0892   10.2211    0.0000 C   0  0  0  0  0  0  0  0  0  0  0  0
   11.2000    9.0131    0.0000 C   0  0  0  0  0  0  0  0  0  0  0  0
   10.2374    7.8627    0.0000 C   0  0  0  0  0  0  0  0  0  0  0  0
    9.2051    6.7744    0.0000 C   0  0  0  0  0  0  0  0  0  0  0  0
    8.1072    5.7523    0.0000 C   0  0  0  0  0  0  0  0  0  0  0  0
    6.9479    4.8005    0.0000 C   0  0  0  0  0  0  0  0  0  0  0  0
    5.7316    3.9226    0.0000 C   0  0  0  0  0  0  0  0  0  0  0  0
    4.4631    3.1220    0.0000 C   0  0  0  0  0  0  0  0  0  0  0  0
    3.1473    2.4018    0.0000 C   0  0  0  0  0  0  0  0  0  0  0  0
    1.7893    1.7648    0.0000 C   0  0  0  0  0  0  0  0  0  0  0  0
    0.3943    1.2135    0.0000 C   0  0  0  0  0  0  0  0  0  0  0  0
    1.2760    0.0000    0.0000 C   0  0  0  0  0  0  0  0  0  0  0  0
    0.3943   -1.2135    0.0000 C   0  0  0  0  0  0  0  0  0  0  0  0
   -1.0323   -0.7500    0.0000 C   0  0  0  0  0  0  0  0  0  0  0  0
   -1.0323    0.7500    0.0000 C   0  0  0  0  0  0  0  0  0  0  0  0
   -2.4849    0.3761    0.0000 C   0  0  0  0  0  0  0  0  0  0  0  0
   -2.1563   -1.0875    0.0000 C   0  0  0  0  0  0  0  0  0  0  0  0
   -1.8278   -2.5511    0.0000 N   0  0  0  0  0  0  0  0  0  0  0  0
   -3.9580    0.0932    0.0000 C   0  0  0  0  0  0  0  0  0  0  0  0
   -5.4458   -0.0976    0.0000 C   0  0  0  0  0  0  0  0  0  0  0  0
  1  2  1  0
  2  3  1  0
  3  4  1  0
  4  5  2  0
  5  6  1  0
  6  7  1  0
  7  8  1  0
  8  9  1  0
  9 10  1  0
 10 11  1  0
 11 12  1  0
 12 13  1  0
 13 14  1  0
 14 15  1  0
 15 16  1  0
 16 17  1  0
 17 18  1  0
 18 19  1  0
 19 20  1  0
 20 21  1  0
 21 22  1  0
 22 23  1  0
 23 24  1  0
 24 25  1  0
 25 26  1  0
 26 27  1  0
 27 28  1  0
 28 29  1  0
 29 30  1  0
 30 31  1  0
 31 32  1  0
 32 33  1  0
 33 34  1  0
 34 35  1  0
 35 36  1  0
 36 37  1  0
 37 38  1  0
 38 39  1  0
 39 40  1  0
 40 41  1  0
 41 42  1  0
 42 43  1  0
 43 44  1  0
 44 45  1  0
 45 46  1  0
 46 47  1  0
 47 48  1  0
 48 49  1  0
 49 50  1  0
 50 51  1  0
 51 52  1  0
 52 53  1  0
 53 54  1  0
 54 55  1  0
 55 56  1  0
 56 57  1  0
 57 58  1  0
 58 59  1  0
 59 60  1  0
 60 61  1  0
 61 62  1  0
 62 63  1  0
 63 64  1  0
 64 65  1  0
 65 66  1  0
 66 67  1  0
 67 68  1  0
 68 69  1  0
 69 70  1  0
 70 71  1  0
 71 72  1  0
 72 73  1  0
 73 74  1  0
 74 75  1  0
 75 76  1  0
 76 77  1  0
 77 78  1  0
 78 79  1  0
 79 80  1  0
 80 81  1  0
 81 82  1  0
 82 83  1  0
 83 84  1  0
 84 85  1  0
 85 86  1  0
 86 87  1  0
 87 88  1  0
 88 89  1  0
 89 90  1  0
 90 91  1  0
 91 92  2  0
 92 93  1  0
 93 94  2  0
 94 95  1  0
 95 96  2  0
 96 97  1  0
 97 98  2  0
 98 99  1  0
 99100  2  0
100101  1  0
101102  2  0
102103  1  0
103104  1  0
104105  3  0
103106  1  0
106107  1  0
107  2  1  0
102 98  1  0
M  END
>  <Title>  (797) 
idABCWgen7

$$$$

     RDKit          2D

 59 66  0  0  0  0  0  0  0  0999 V2000
    6.0360   -5.2934    0.0000 C   0  0  0  0  0  0  0  0  0  0  0  0
    4.5411   -5.4173    0.0000 C   0  0  0  0  0  0  0  0  0  0  0  0
    4.1729   -3.9632    0.0000 C   0  0  0  0  0  0  0  0  0  0  0  0
    3.3524   -2.7074    0.0000 C   0  0  0  0  0  0  0  0  0  0  0  0
    2.1687   -1.7861    0.0000 C   0  0  0  0  0  0  0  0  0  0  0  0
    2.8826   -0.4669    0.0000 C   0  0  0  0  0  0  0  0  0  0  0  0
    2.0971    0.8110    0.0000 O   0  0  0  0  0  0  0  0  0  0  0  0
    4.3821   -0.4255    0.0000 N   0  0  0  0  0  0  0  0  0  0  0  0
    5.0960    0.8937    0.0000 C   0  0  0  0  0  0  0  0  0  0  0  0
    6.5954    0.9350    0.0000 N   0  0  0  0  0  0  0  0  0  0  0  0
    7.3094    2.2542    0.0000 N   0  0  0  0  0  0  0  0  0  0  0  0
    6.5238    3.5321    0.0000 N   0  0  0  0  0  0  0  0  0  0  0  0
    5.0244    3.4908    0.0000 N   0  0  0  0  0  0  0  0  0  0  0  0
    4.3105    2.1715    0.0000 N   0  0  0  0  0  0  0  0  0  0  0  0
    0.7500   -1.2990    0.0000 C   0  0  0  0  0  0  0  0  0  0  0  0
    1.5000    0.0000    0.0000 C   0  0  0  0  0  0  0  0  0  0  0  0
    0.7500    1.2990    0.0000 C   0  0  0  0  0  0  0  0  0  0  0  0
   -0.7500    1.2990    0.0000 C   0  0  0  0  0  0  0  0  0  0  0  0
   -1.5000    0.0000    0.0000 C   0  0  0  0  0  0  0  0  0  0  0  0
   -0.7500   -1.2990    0.0000 C   0  0  0  0  0  0  0  0  0  0  0  0
   -2.1687   -1.7861    0.0000 C   0  0  0  0  0  0  0  0  0  0  0  0
   -2.3748   -0.3003    0.0000 C   0  0  0  0  0  0  0  0  0  0  0  0
   -3.7645    0.2642    0.0000 C   0  0  0  0  0  0  0  0  0  0  0  0
   -4.9482   -0.6572    0.0000 C   0  0  0  0  0  0  0  0  0  0  0  0
   -4.7422   -2.1429    0.0000 C   0  0  0  0  0  0  0  0  0  0  0  0
   -3.3524   -2.7074    0.0000 C   0  0  0  0  0  0  0  0  0  0  0  0
   -4.1729   -3.9632    0.0000 C   0  0  0  0  0  0  0  0  0  0  0  0
   -5.0801   -2.7686    0.0000 C   0  0  0  0  0  0  0  0  0  0  0  0
   -6.5797   -2.7332    0.0000 C   0  0  0  0  0  0  0  0  0  0  0  0
   -7.5424   -3.8835    0.0000 C   0  0  0  0  0  0  0  0  0  0  0  0
   -8.9965   -3.5153    0.0000 C   0  0  0  0  0  0  0  0  0  0  0  0
   -9.4046   -2.0719    0.0000 C   0  0  0  0  0  0  0  0  0  0  0  0
  -10.8587   -1.7037    0.0000 C   0  0  0  0  0  0  0  0  0  0  0  0
  -11.2669   -0.2603    0.0000 C   0  0  0  0  0  0  0  0  0  0  0  0
  -12.7210    0.1079    0.0000 C   0  0  0  0  0  0  0  0  0  0  0  0
  -13.7669   -0.9672    0.0000 C   0  0  0  0  0  0  0  0  0  0  0  0
  -13.3588   -2.4106    0.0000 C   0  0  0  0  0  0  0  0  0  0  0  0
  -11.9047   -2.7789    0.0000 C   0  0  0  0  0  0  0  0  0  0  0  0
   -7.2432   -5.3534    0.0000 C   0  0  0  0  0  0  0  0  0  0  0  0
   -8.4377   -6.2607    0.0000 O   0  0  0  0  0  0  0  0  0  0  0  0
   -5.9075   -6.0360    0.0000 N   0  0  0  0  0  0  0  0  0  0  0  0
   -4.5411   -5.4173    0.0000 C   0  0  0  0  0  0  0  0  0  0  0  0
   -4.4172   -6.9121    0.0000 N   0  0  0  0  0  0  0  0  0  0  0  0
   -3.8147   -8.2858    0.0000 N   0  0  0  0  0  0  0  0  0  0  0  0
   -2.7988   -9.3894    0.0000 N   0  0  0  0  0  0  0  0  0  0  0  0
   -1.4795  -10.1033    0.0000 N   0  0  0  0  0  0  0  0  0  0  0  0
   -0.0000  -10.3502    0.0000 C   0  0  0  0  0  0  0  0  0  0  0  0
   -0.2224  -11.8336    0.0000 C   0  0  0  0  0  0  0  0  0  0  0  0
    1.1197  -12.5035    0.0000 C   0  0  0  0  0  0  0  0  0  0  0  0
    2.1716  -11.4341    0.0000 C   0  0  0  0  0  0  0  0  0  0  0  0
    1.4795  -10.1033    0.0000 C   0  0  0  0  0  0  0  0  0  0  0  0
    2.7988   -9.3894    0.0000 C   0  0  0  0  0  0  0  0  0  0  0  0
    3.8405  -10.4687    0.0000 C   0  0  0  0  0  0  0  0  0  0  0  0
    5.3338  -10.3271    0.0000 C   0  0  0  0  0  0  0  0  0  0  0  0
    6.1542   -9.0714    0.0000 C   0  0  0  0  0  0  0  0  0  0  0  0
    5.6839   -7.6470    0.0000 C   0  0  0  0  0  0  0  0  0  0  0  0
    4.4172   -6.9121    0.0000 C   0  0  0  0  0  0  0  0  0  0  0  0
    3.8147   -8.2858    0.0000 C   0  0  0  0  0  0  0  0  0  0  0  0
    5.0704   -9.1062    0.0000 O   0  0  0  0  0  0  0  0  0  0  0  0
  1  2  1  0
  2  3  1  0
  3  4  1  0
  4  5  1  0
  5  6  1  0
  6  7  2  0
  6  8  1  0
  8  9  1  0
  9 10  2  0
 10 11  1  0
 11 12  2  0
 12 13  1  0
 13 14  2  0
  5 15  1  0
 15 16  2  0
 16 17  1  0
 17 18  2  0
 18 19  1  0
 19 20  2  0
 20 21  1  0
 21 22  2  0
 22 23  1  0
 23 24  2  0
 24 25  1  0
 25 26  2  0
 26 27  1  0
 27 28  2  0
 28 29  1  0
 29 30  2  0
 30 31  1  0
 31 32  1  0
 32 33  1  0
 33 34  2  0
 34 35  1  0
 35 36  2  0
 36 37  1  0
 37 38  2  0
 30 39  1  0
 39 40  2  0
 39 41  1  0
 41 42  1  0
 42 43  2  0
 43 44  1  0
 44 45  2  0
 45 46  1  0
 46 47  2  0
 47 48  1  0
 48 49  2  0
 49 50  1  0
 50 51  2  0
 51 52  1  0
 52 53  2  0
 53 54  1  0
 54 55  2  0
 55 56  1  0
 56 57  2  0
 57 58  1  0
 58 59  2  0
 57  2  1  0
 14  9  1  0
 20 15  1  0
 26 21  1  0
 42 27  1  0
 51 47  1  0
 58 52  1  0
 38 33  1  0
M  END
>  <Title>  (798) 
idABCXgen7

$$$$

     RDKit          2D

 15 15  0  0  0  0  0  0  0  0999 V2000
    6.1771    1.2990    0.0000 C   0  0  0  0  0  0  0  0  0  0  0  0
    4.6771    1.2990    0.0000 N   0  0  0  0  0  0  0  0  0  0  0  0
    3.9271    0.0000    0.0000 C   0  0  0  0  0  0  0  0  0  0  0  0
    4.6771   -1.2990    0.0000 C   0  0  0  0  0  0  0  0  0  0  0  0
    2.4271    0.0000    0.0000 C   0  0  0  0  0  0  0  0  0  0  0  0
    1.9635   -1.4266    0.0000 C   0  0  0  0  0  0  0  0  0  0  0  0
    0.7500   -2.3083    0.0000 C   0  0  0  0  0  0  0  0  0  0  0  0
   -0.7500   -2.3083    0.0000 C   0  0  0  0  0  0  0  0  0  0  0  0
   -1.9635   -1.4266    0.0000 C   0  0  0  0  0  0  0  0  0  0  0  0
   -2.4271    0.0000    0.0000 C   0  0  0  0  0  0  0  0  0  0  0  0
   -1.9635    1.4266    0.0000 C   0  0  0  0  0  0  0  0  0  0  0  0
   -0.7500    2.3083    0.0000 C   0  0  0  0  0  0  0  0  0  0  0  0
   -1.2135    3.7348    0.0000 C   0  0  0  0  0  0  0  0  0  0  0  0
    0.7500    2.3083    0.0000 C   0  0  0  0  0  0  0  0  0  0  0  0
    1.9635    1.4266    0.0000 C   0  0  0  0  0  0  0  0  0  0  0  0
  1  2  1  0
  2  3  1  0
  3  4  1  0
  3  5  1  0
  5  6  1  0
  6  7  2  0
  7  8  1  0
  8  9  2  0
  9 10  1  0
 10 11  2  0
 11 12  1  0
 12 13  1  0
 12 14  1  0
 14 15  1  0
 15  5  1  0
M  END
>  <Title>  (799) 
idABCYgen7

$$$$

     RDKit          2D

 62 71  0  0  0  0  0  0  0  0999 V2000
    6.2168   -5.0497    0.0000 C   0  0  0  0  0  0  0  0  0  0  0  0
    4.7353   -5.2844    0.0000 C   0  0  0  0  0  0  0  0  0  0  0  0
    4.2718   -3.8578    0.0000 C   0  0  0  0  0  0  0  0  0  0  0  0
    3.3901   -2.6442    0.0000 C   0  0  0  0  0  0  0  0  0  0  0  0
    2.1766   -1.7626    0.0000 C   0  0  0  0  0  0  0  0  0  0  0  0
    2.8576   -0.4261    0.0000 C   0  0  0  0  0  0  0  0  0  0  0  0
    2.0406    0.8320    0.0000 O   0  0  0  0  0  0  0  0  0  0  0  0
    4.3555   -0.3475    0.0000 N   0  0  0  0  0  0  0  0  0  0  0  0
    5.0365    0.9890    0.0000 C   0  0  0  0  0  0  0  0  0  0  0  0
    6.5344    1.0675    0.0000 N   0  0  0  0  0  0  0  0  0  0  0  0
    7.2154    2.4040    0.0000 N   0  0  0  0  0  0  0  0  0  0  0  0
    6.3985    3.6620    0.0000 N   0  0  0  0  0  0  0  0  0  0  0  0
    4.9005    3.5835    0.0000 N   0  0  0  0  0  0  0  0  0  0  0  0
    4.2195    2.2470    0.0000 N   0  0  0  0  0  0  0  0  0  0  0  0
    0.7500   -1.2990    0.0000 C   0  0  0  0  0  0  0  0  0  0  0  0
    1.5000    0.0000    0.0000 C   0  0  0  0  0  0  0  0  0  0  0  0
    0.7500    1.2990    0.0000 C   0  0  0  0  0  0  0  0  0  0  0  0
   -0.7500    1.2990    0.0000 C   0  0  0  0  0  0  0  0  0  0  0  0
   -1.5000    0.0000    0.0000 C   0  0  0  0  0  0  0  0  0  0  0  0
   -0.7500   -1.2990    0.0000 C   0  0  0  0  0  0  0  0  0  0  0  0
   -2.1766   -1.7626    0.0000 C   0  0  0  0  0  0  0  0  0  0  0  0
   -2.3334   -0.2708    0.0000 C   0  0  0  0  0  0  0  0  0  0  0  0
   -3.7037    0.3393    0.0000 C   0  0  0  0  0  0  0  0  0  0  0  0
   -4.9172   -0.5424    0.0000 C   0  0  0  0  0  0  0  0  0  0  0  0
   -4.7604   -2.0341    0.0000 C   0  0  0  0  0  0  0  0  0  0  0  0
   -3.3901   -2.6442    0.0000 C   0  0  0  0  0  0  0  0  0  0  0  0
   -4.2718   -3.8578    0.0000 C   0  0  0  0  0  0  0  0  0  0  0  0
   -5.2755   -2.7430    0.0000 C   0  0  0  0  0  0  0  0  0  0  0  0
   -6.7427   -3.0549    0.0000 C   0  0  0  0  0  0  0  0  0  0  0  0
   -7.2062   -4.4815    0.0000 C   0  0  0  0  0  0  0  0  0  0  0  0
   -6.2025   -5.5962    0.0000 C   0  0  0  0  0  0  0  0  0  0  0  0
   -4.7353   -5.2844    0.0000 C   0  0  0  0  0  0  0  0  0  0  0  0
   -4.7353   -6.7844    0.0000 C   0  0  0  0  0  0  0  0  0  0  0  0
   -6.2025   -6.4725    0.0000 C   0  0  0  0  0  0  0  0  0  0  0  0
   -7.2062   -7.5872    0.0000 C   0  0  0  0  0  0  0  0  0  0  0  0
   -6.7427   -9.0138    0.0000 C   0  0  0  0  0  0  0  0  0  0  0  0
   -5.2755   -9.3257    0.0000 C   0  0  0  0  0  0  0  0  0  0  0  0
   -4.2718   -8.2109    0.0000 C   0  0  0  0  0  0  0  0  0  0  0  0
   -3.3901   -9.4245    0.0000 C   0  0  0  0  0  0  0  0  0  0  0  0
   -4.7604  -10.0346    0.0000 C   0  0  0  0  0  0  0  0  0  0  0  0
   -4.9172  -11.5263    0.0000 C   0  0  0  0  0  0  0  0  0  0  0  0
   -3.7037  -12.4080    0.0000 C   0  0  0  0  0  0  0  0  0  0  0  0
   -2.3334  -11.7979    0.0000 C   0  0  0  0  0  0  0  0  0  0  0  0
   -2.1766  -10.3061    0.0000 C   0  0  0  0  0  0  0  0  0  0  0  0
   -0.7500  -10.7697    0.0000 C   0  0  0  0  0  0  0  0  0  0  0  0
   -1.5000  -12.0687    0.0000 C   0  0  0  0  0  0  0  0  0  0  0  0
   -0.7500  -13.3677    0.0000 C   0  0  0  0  0  0  0  0  0  0  0  0
    0.7500  -13.3677    0.0000 C   0  0  0  0  0  0  0  0  0  0  0  0
    1.5000  -12.0687    0.0000 C   0  0  0  0  0  0  0  0  0  0  0  0
    0.7500  -10.7697    0.0000 C   0  0  0  0  0  0  0  0  0  0  0  0
    2.1766  -10.3061    0.0000 C   0  0  0  0  0  0  0  0  0  0  0  0
    2.3334  -11.7979    0.0000 C   0  0  0  0  0  0  0  0  0  0  0  0
    3.7037  -12.4080    0.0000 C   0  0  0  0  0  0  0  0  0  0  0  0
    4.9172  -11.5263    0.0000 C   0  0  0  0  0  0  0  0  0  0  0  0
    4.7604  -10.0346    0.0000 C   0  0  0  0  0  0  0  0  0  0  0  0
    3.3901   -9.4245    0.0000 C   0  0  0  0  0  0  0  0  0  0  0  0
    4.2718   -8.2109    0.0000 C   0  0  0  0  0  0  0  0  0  0  0  0
    5.2755   -9.3257    0.0000 C   0  0  0  0  0  0  0  0  0  0  0  0
    6.7427   -9.0138    0.0000 C   0  0  0  0  0  0  0  0  0  0  0  0
    7.2062   -7.5872    0.0000 C   0  0  0  0  0  0  0  0  0  0  0  0
    6.2025   -6.4725    0.0000 C   0  0  0  0  0  0  0  0  0  0  0  0
    4.7353   -6.7844    0.0000 C   0  0  0  0  0  0  0  0  0  0  0  0
  1  2  1  0
  2  3  1  0
  3  4  1  0
  4  5  1  0
  5  6  1  0
  6  7  2  0
  6  8  1  0
  8  9  1  0
  9 10  2  0
 10 11  1  0
 11 12  2  0
 12 13  1  0
 13 14  2  0
  5 15  1  0
 15 16  2  0
 16 17  1  0
 17 18  2  0
 18 19  1  0
 19 20  2  0
 20 21  1  0
 21 22  2  0
 22 23  1  0
 23 24  2  0
 24 25  1  0
 25 26  2  0
 26 27  1  0
 27 28  2  0
 28 29  1  0
 29 30  2  0
 30 31  1  0
 31 32  2  0
 32 33  1  0
 33 34  2  0
 34 35  1  0
 35 36  2  0
 36 37  1  0
 37 38  2  0
 38 39  1  0
 39 40  2  0
 40 41  1  0
 41 42  2  0
 42 43  1  0
 43 44  2  0
 44 45  1  0
 45 46  2  0
 46 47  1  0
 47 48  2  0
 48 49  1  0
 49 50  2  0
 50 51  1  0
 51 52  2  0
 52 53  1  0
 53 54  2  0
 54 55  1  0
 55 56  2  0
 56 57  1  0
 57 58  2  0
 58 59  1  0
 59 60  2  0
 60 61  1  0
 61 62  2  0
 62  2  1  0
 14  9  1  0
 20 15  1  0
 26 21  1  0
 32 27  1  0
 38 33  1  0
 44 39  1  0
 50 45  1  0
 56 51  1  0
 62 57  1  0
M  END
>  <Title>  (800) 
idABCZgen7

$$$$

     RDKit          2D

 24 26  0  0  0  0  0  0  0  0999 V2000
   10.2547   -9.8571    0.0000 O   0  0  0  0  0  0  0  0  0  0  0  0
    8.7547   -9.8571    0.0000 C   0  0  0  0  0  0  0  0  0  0  0  0
    8.0047  -11.1562    0.0000 O   0  0  0  0  0  0  0  0  0  0  0  0
    8.0047   -8.5581    0.0000 C   0  0  0  0  0  0  0  0  0  0  0  0
    8.6148   -7.1878    0.0000 C   0  0  0  0  0  0  0  0  0  0  0  0
    7.5001   -6.1841    0.0000 C   0  0  0  0  0  0  0  0  0  0  0  0
    6.2011   -6.9341    0.0000 N   0  0  0  0  0  0  0  0  0  0  0  0
    4.8308   -6.3240    0.0000 C   0  0  0  0  0  0  0  0  0  0  0  0
    3.6172   -7.2057    0.0000 O   0  0  0  0  0  0  0  0  0  0  0  0
    4.6740   -4.8322    0.0000 C   0  0  0  0  0  0  0  0  0  0  0  0
    5.8875   -3.9505    0.0000 O   0  0  0  0  0  0  0  0  0  0  0  0
    3.3037   -4.2221    0.0000 N   0  0  0  0  0  0  0  0  0  0  0  0
    2.0046   -4.9721    0.0000 C   0  0  0  0  0  0  0  0  0  0  0  0
    0.8899   -3.9684    0.0000 C   0  0  0  0  0  0  0  0  0  0  0  0
    1.5000   -2.5981    0.0000 C   0  0  0  0  0  0  0  0  0  0  0  0
    0.7500   -1.2990    0.0000 C   0  0  0  0  0  0  0  0  0  0  0  0
    1.5000    0.0000    0.0000 C   0  0  0  0  0  0  0  0  0  0  0  0
    0.7500    1.2990    0.0000 C   0  0  0  0  0  0  0  0  0  0  0  0
   -0.7500    1.2990    0.0000 C   0  0  0  0  0  0  0  0  0  0  0  0
   -1.5000    0.0000    0.0000 C   0  0  0  0  0  0  0  0  0  0  0  0
   -0.7500   -1.2990    0.0000 C   0  0  0  0  0  0  0  0  0  0  0  0
    2.9918   -2.7549    0.0000 C   0  0  0  0  0  0  0  0  0  0  0  0
    6.5129   -8.4013    0.0000 C   0  0  0  0  0  0  0  0  0  0  0  0
    5.5093   -9.5160    0.0000 O   0  0  0  0  0  0  0  0  0  0  0  0
  1  2  2  0
  2  3  1  0
  2  4  1  0
  4  5  1  0
  5  6  1  0
  6  7  1  0
  7  8  1  0
  8  9  2  0
  8 10  1  0
 10 11  2  0
 10 12  1  0
 12 13  1  0
 13 14  1  0
 14 15  1  0
 15 16  1  0
 16 17  2  0
 17 18  1  0
 18 19  2  0
 19 20  1  0
 20 21  2  0
 15 22  1  0
  7 23  1  0
 23 24  2  0
 23  4  1  0
 22 12  1  0
 21 16  1  0
M  END
>  <Title>  (801) 
idABDAgen7

$$$$

     RDKit          2D

 36 36  0  0  0  0  0  0  0  0999 V2000
    9.8669    0.0000    0.0000 C   0  0  0  0  0  0  0  0  0  0  0  0
    8.3669    0.0000    0.0000 C   0  0  0  0  0  0  0  0  0  0  0  0
    8.2324    1.4940    0.0000 C   0  0  0  0  0  0  0  0  0  0  0  0
    7.8334    2.9399    0.0000 C   0  0  0  0  0  0  0  0  0  0  0  0
    7.1825    4.2914    0.0000 C   0  0  0  0  0  0  0  0  0  0  0  0
    6.3008    5.5049    0.0000 C   0  0  0  0  0  0  0  0  0  0  0  0
    5.2167    6.5415    0.0000 C   0  0  0  0  0  0  0  0  0  0  0  0
    3.9648    7.3678    0.0000 C   0  0  0  0  0  0  0  0  0  0  0  0
    2.5855    7.9574    0.0000 C   0  0  0  0  0  0  0  0  0  0  0  0
    1.1231    8.2911    0.0000 C   0  0  0  0  0  0  0  0  0  0  0  0
   -0.3754    8.3584    0.0000 C   0  0  0  0  0  0  0  0  0  0  0  0
   -1.8618    8.1571    0.0000 C   0  0  0  0  0  0  0  0  0  0  0  0
   -3.2884    7.6936    0.0000 C   0  0  0  0  0  0  0  0  0  0  0  0
   -4.6093    6.9828    0.0000 C   0  0  0  0  0  0  0  0  0  0  0  0
   -5.7820    6.0475    0.0000 C   0  0  0  0  0  0  0  0  0  0  0  0
   -6.7689    4.9179    0.0000 C   0  0  0  0  0  0  0  0  0  0  0  0
   -7.5383    3.6302    0.0000 C   0  0  0  0  0  0  0  0  0  0  0  0
   -8.0653    2.2259    0.0000 C   0  0  0  0  0  0  0  0  0  0  0  0
   -8.3332    0.7500    0.0000 C   0  0  0  0  0  0  0  0  0  0  0  0
   -8.3332   -0.7500    0.0000 C   0  0  0  0  0  0  0  0  0  0  0  0
   -8.0653   -2.2259    0.0000 C   0  0  0  0  0  0  0  0  0  0  0  0
   -7.5383   -3.6302    0.0000 C   0  0  0  0  0  0  0  0  0  0  0  0
   -6.7689   -4.9179    0.0000 C   0  0  0  0  0  0  0  0  0  0  0  0
   -5.7820   -6.0475    0.0000 C   0  0  0  0  0  0  0  0  0  0  0  0
   -4.6093   -6.9828    0.0000 C   0  0  0  0  0  0  0  0  0  0  0  0
   -3.2884   -7.6936    0.0000 C   0  0  0  0  0  0  0  0  0  0  0  0
   -1.8618   -8.1571    0.0000 C   0  0  0  0  0  0  0  0  0  0  0  0
   -0.3754   -8.3584    0.0000 C   0  0  0  0  0  0  0  0  0  0  0  0
    1.1231   -8.2911    0.0000 C   0  0  0  0  0  0  0  0  0  0  0  0
    2.5855   -7.9574    0.0000 C   0  0  0  0  0  0  0  0  0  0  0  0
    3.9648   -7.3678    0.0000 C   0  0  0  0  0  0  0  0  0  0  0  0
    5.2167   -6.5415    0.0000 C   0  0  0  0  0  0  0  0  0  0  0  0
    6.3008   -5.5049    0.0000 C   0  0  0  0  0  0  0  0  0  0  0  0
    7.1825   -4.2914    0.0000 C   0  0  0  0  0  0  0  0  0  0  0  0
    7.8334   -2.9399    0.0000 C   0  0  0  0  0  0  0  0  0  0  0  0
    8.2324   -1.4940    0.0000 C   0  0  0  0  0  0  0  0  0  0  0  0
  1  2  1  0
  2  3  2  0
  3  4  1  0
  4  5  1  0
  5  6  1  0
  6  7  1  0
  7  8  1  0
  8  9  1  0
  9 10  1  0
 10 11  1  0
 11 12  1  0
 12 13  1  0
 13 14  1  0
 14 15  1  0
 15 16  1  0
 16 17  1  0
 17 18  1  0
 18 19  2  0
 19 20  1  0
 20 21  2  0
 21 22  1  0
 22 23  2  0
 23 24  1  0
 24 25  2  0
 25 26  1  0
 26 27  2  0
 27 28  1  0
 28 29  2  0
 29 30  1  0
 30 31  2  0
 31 32  1  0
 32 33  2  0
 33 34  1  0
 34 35  2  0
 35 36  1  0
 36  2  1  0
M  END
>  <Title>  (802) 
idABDBgen7

$$$$

     RDKit          2D

 33 37  0  0  0  0  0  0  0  0999 V2000
   -0.0000   -8.0154    0.0000 C   0  0  0  0  0  0  0  0  0  0  0  0
   -0.0000   -6.5154    0.0000 C   0  0  0  0  0  0  0  0  0  0  0  0
    1.4392   -6.0928    0.0000 C   0  0  0  0  0  0  0  0  0  0  0  0
    2.4215   -4.9592    0.0000 C   0  0  0  0  0  0  0  0  0  0  0  0
    2.6350   -3.4744    0.0000 C   0  0  0  0  0  0  0  0  0  0  0  0
    2.0119   -2.1100    0.0000 C   0  0  0  0  0  0  0  0  0  0  0  0
    3.1455   -1.1277    0.0000 C   0  0  0  0  0  0  0  0  0  0  0  0
    2.8616    0.3452    0.0000 O   0  0  0  0  0  0  0  0  0  0  0  0
    4.5630   -1.6183    0.0000 N   0  0  0  0  0  0  0  0  0  0  0  0
    5.6966   -0.6360    0.0000 C   0  0  0  0  0  0  0  0  0  0  0  0
    7.1141   -1.1266    0.0000 N   0  0  0  0  0  0  0  0  0  0  0  0
    8.2478   -0.1443    0.0000 N   0  0  0  0  0  0  0  0  0  0  0  0
    7.9639    1.3286    0.0000 N   0  0  0  0  0  0  0  0  0  0  0  0
    6.5464    1.8192    0.0000 N   0  0  0  0  0  0  0  0  0  0  0  0
    5.4128    0.8369    0.0000 N   0  0  0  0  0  0  0  0  0  0  0  0
    0.7500   -1.2990    0.0000 C   0  0  0  0  0  0  0  0  0  0  0  0
    1.5000    0.0000    0.0000 C   0  0  0  0  0  0  0  0  0  0  0  0
    0.7500    1.2990    0.0000 C   0  0  0  0  0  0  0  0  0  0  0  0
   -0.7500    1.2990    0.0000 C   0  0  0  0  0  0  0  0  0  0  0  0
   -1.5000    0.0000    0.0000 C   0  0  0  0  0  0  0  0  0  0  0  0
   -0.7500   -1.2990    0.0000 C   0  0  0  0  0  0  0  0  0  0  0  0
   -2.0119   -2.1100    0.0000 C   0  0  0  0  0  0  0  0  0  0  0  0
   -2.8820   -0.8881    0.0000 C   0  0  0  0  0  0  0  0  0  0  0  0
   -4.3752   -1.0307    0.0000 C   0  0  0  0  0  0  0  0  0  0  0  0
   -4.9983   -2.3952    0.0000 C   0  0  0  0  0  0  0  0  0  0  0  0
   -4.1282   -3.6170    0.0000 C   0  0  0  0  0  0  0  0  0  0  0  0
   -2.6350   -3.4744    0.0000 C   0  0  0  0  0  0  0  0  0  0  0  0
   -2.4215   -4.9592    0.0000 C   0  0  0  0  0  0  0  0  0  0  0  0
   -3.8944   -5.2431    0.0000 C   0  0  0  0  0  0  0  0  0  0  0  0
   -4.3850   -6.6606    0.0000 C   0  0  0  0  0  0  0  0  0  0  0  0
   -3.4027   -7.7942    0.0000 C   0  0  0  0  0  0  0  0  0  0  0  0
   -1.9298   -7.5103    0.0000 C   0  0  0  0  0  0  0  0  0  0  0  0
   -1.4392   -6.0928    0.0000 C   0  0  0  0  0  0  0  0  0  0  0  0
  1  2  1  0
  2  3  2  0
  3  4  1  0
  4  5  1  0
  5  6  1  0
  6  7  1  0
  7  8  2  0
  7  9  1  0
  9 10  1  0
 10 11  2  0
 11 12  1  0
 12 13  2  0
 13 14  1  0
 14 15  2  0
  6 16  1  0
 16 17  2  0
 17 18  1  0
 18 19  2  0
 19 20  1  0
 20 21  2  0
 21 22  1  0
 22 23  2  0
 23 24  1  0
 24 25  2  0
 25 26  1  0
 26 27  2  0
 27 28  1  0
 28 29  2  0
 29 30  1  0
 30 31  2  0
 31 32  1  0
 32 33  2  0
 33  2  1  0
 15 10  1  0
 21 16  1  0
 27 22  1  0
 33 28  1  0
M  END
>  <Title>  (803) 
idABDCgen7

$$$$

     RDKit          2D

 17 18  0  0  0  0  0  0  0  0999 V2000
    4.5000    0.0000    0.0000 N   0  0  0  0  0  0  0  0  0  0  0  0
    3.0000    0.0000    0.0000 C   0  0  0  0  0  0  0  0  0  0  0  0
    1.5000    0.0000    0.0000 C   0  0  0  0  0  0  0  0  0  0  0  0
    0.7500   -1.2990    0.0000 C   0  0  0  0  0  0  0  0  0  0  0  0
   -0.7500   -1.2990    0.0000 C   0  0  0  0  0  0  0  0  0  0  0  0
   -1.5000    0.0000    0.0000 N   0  0  0  0  0  0  0  0  0  0  0  0
   -3.0000    0.0000    0.0000 C   0  0  0  0  0  0  0  0  0  0  0  0
   -3.7500   -1.2990    0.0000 O   0  0  0  0  0  0  0  0  0  0  0  0
   -3.7500    1.2990    0.0000 N   0  0  0  0  0  0  0  0  0  0  0  0
   -5.2500    1.2990    0.0000 C   0  0  0  0  0  0  0  0  0  0  0  0
   -6.0000    2.5981    0.0000 N   0  0  0  0  0  0  0  0  0  0  0  0
   -7.5000    2.5981    0.0000 N   0  0  0  0  0  0  0  0  0  0  0  0
   -8.2500    1.2990    0.0000 N   0  0  0  0  0  0  0  0  0  0  0  0
   -7.5000    0.0000    0.0000 N   0  0  0  0  0  0  0  0  0  0  0  0
   -6.0000    0.0000    0.0000 N   0  0  0  0  0  0  0  0  0  0  0  0
   -0.7500    1.2990    0.0000 C   0  0  0  0  0  0  0  0  0  0  0  0
    0.7500    1.2990    0.0000 C   0  0  0  0  0  0  0  0  0  0  0  0
  1  2  3  0
  2  3  1  0
  3  4  1  0
  4  5  1  0
  5  6  1  0
  6  7  1  0
  7  8  2  0
  7  9  1  0
  9 10  1  0
 10 11  2  0
 11 12  1  0
 12 13  2  0
 13 14  1  0
 14 15  2  0
  6 16  1  0
 16 17  1  0
 17  3  1  0
 15 10  1  0
M  END
>  <Title>  (804) 
idABDDgen7

$$$$

     RDKit          2D

 30 33  0  0  0  0  0  0  0  0999 V2000
   -3.1476   -2.1380    0.0000 C   0  0  0  0  0  0  0  0  0  0  0  0
   -1.6852   -2.4718    0.0000 C   0  0  0  0  0  0  0  0  0  0  0  0
   -1.3515   -3.9342    0.0000 C   0  0  0  0  0  0  0  0  0  0  0  0
   -0.0000   -4.5850    0.0000 C   0  0  0  0  0  0  0  0  0  0  0  0
    1.3515   -3.9342    0.0000 C   0  0  0  0  0  0  0  0  0  0  0  0
    1.6852   -2.4718    0.0000 C   0  0  0  0  0  0  0  0  0  0  0  0
    3.1476   -2.1380    0.0000 C   0  0  0  0  0  0  0  0  0  0  0  0
    3.5898   -0.7046    0.0000 O   0  0  0  0  0  0  0  0  0  0  0  0
    4.1679   -3.2376    0.0000 N   0  0  0  0  0  0  0  0  0  0  0  0
    5.6303   -2.9038    0.0000 C   0  0  0  0  0  0  0  0  0  0  0  0
    6.6505   -4.0034    0.0000 N   0  0  0  0  0  0  0  0  0  0  0  0
    8.1129   -3.6696    0.0000 N   0  0  0  0  0  0  0  0  0  0  0  0
    8.5551   -2.2362    0.0000 N   0  0  0  0  0  0  0  0  0  0  0  0
    7.5348   -1.1367    0.0000 N   0  0  0  0  0  0  0  0  0  0  0  0
    6.0724   -1.4704    0.0000 N   0  0  0  0  0  0  0  0  0  0  0  0
    0.7500   -1.2990    0.0000 C   0  0  0  0  0  0  0  0  0  0  0  0
    1.5000    0.0000    0.0000 C   0  0  0  0  0  0  0  0  0  0  0  0
    0.7500    1.2990    0.0000 C   0  0  0  0  0  0  0  0  0  0  0  0
   -0.7500    1.2990    0.0000 C   0  0  0  0  0  0  0  0  0  0  0  0
   -1.5000    2.5981    0.0000 C   0  0  0  0  0  0  0  0  0  0  0  0
   -3.0000    2.5981    0.0000 O   0  0  0  0  0  0  0  0  0  0  0  0
   -0.7500    3.8971    0.0000 O   0  0  0  0  0  0  0  0  0  0  0  0
   -1.5000    5.1962    0.0000 C   0  0  0  0  0  0  0  0  0  0  0  0
   -0.7500    6.4952    0.0000 C   0  0  0  0  0  0  0  0  0  0  0  0
   -1.5000    7.7942    0.0000 C   0  0  0  0  0  0  0  0  0  0  0  0
   -3.0000    7.7942    0.0000 C   0  0  0  0  0  0  0  0  0  0  0  0
   -3.7500    6.4952    0.0000 C   0  0  0  0  0  0  0  0  0  0  0  0
   -3.0000    5.1962    0.0000 C   0  0  0  0  0  0  0  0  0  0  0  0
   -1.5000    0.0000    0.0000 C   0  0  0  0  0  0  0  0  0  0  0  0
   -0.7500   -1.2990    0.0000 C   0  0  0  0  0  0  0  0  0  0  0  0
  1  2  1  0
  2  3  2  0
  3  4  1  0
  4  5  1  0
  5  6  1  0
  6  7  1  0
  7  8  2  0
  7  9  1  0
  9 10  1  0
 10 11  2  0
 11 12  1  0
 12 13  2  0
 13 14  1  0
 14 15  2  0
  6 16  1  0
 16 17  2  0
 17 18  1  0
 18 19  2  0
 19 20  1  0
 20 21  2  0
 20 22  1  0
 22 23  1  0
 23 24  2  0
 24 25  1  0
 25 26  2  0
 26 27  1  0
 27 28  2  0
 19 29  1  0
 29 30  2  0
 30  2  1  0
 15 10  1  0
 30 16  1  0
 28 23  1  0
M  END
>  <Title>  (805) 
idABDEgen7

$$$$

     RDKit          2D

 11 11  0  0  0  0  0  0  0  0999 V2000
    5.2500    1.2990    0.0000 C   0  0  0  0  0  0  0  0  0  0  0  0
    3.7500    1.2990    0.0000 N   0  0  0  0  0  0  0  0  0  0  0  0
    3.0000    0.0000    0.0000 C   0  0  0  0  0  0  0  0  0  0  0  0
    3.7500   -1.2990    0.0000 C   0  0  0  0  0  0  0  0  0  0  0  0
    1.5000    0.0000    0.0000 C   0  0  0  0  0  0  0  0  0  0  0  0
    0.7500   -1.2990    0.0000 C   0  0  0  0  0  0  0  0  0  0  0  0
   -0.7500   -1.2990    0.0000 C   0  0  0  0  0  0  0  0  0  0  0  0
   -1.5000    0.0000    0.0000 C   0  0  0  0  0  0  0  0  0  0  0  0
   -3.0000    0.0000    0.0000 C   0  0  0  0  0  0  0  0  0  0  0  0
   -0.7500    1.2990    0.0000 C   0  0  0  0  0  0  0  0  0  0  0  0
    0.7500    1.2990    0.0000 C   0  0  0  0  0  0  0  0  0  0  0  0
  1  2  1  0
  2  3  1  0
  3  4  1  0
  3  5  1  0
  5  6  1  0
  6  7  1  0
  7  8  1  0
  8  9  1  0
  8 10  1  0
 10 11  1  0
 11  5  1  0
M  END
>  <Title>  (806) 
idABDFgen7

$$$$

     RDKit          2D

 27 27  0  0  0  0  0  0  0  0999 V2000
    7.7222    0.0000    0.0000 C   0  0  0  0  0  0  0  0  0  0  0  0
    6.2222    0.0000    0.0000 C   0  0  0  0  0  0  0  0  0  0  0  0
    6.0414   -1.4891    0.0000 C   0  0  0  0  0  0  0  0  0  0  0  0
    5.5095   -2.8916    0.0000 C   0  0  0  0  0  0  0  0  0  0  0  0
    4.6574   -4.1261    0.0000 C   0  0  0  0  0  0  0  0  0  0  0  0
    3.5346   -5.1207    0.0000 C   0  0  0  0  0  0  0  0  0  0  0  0
    2.2064   -5.8178    0.0000 C   0  0  0  0  0  0  0  0  0  0  0  0
    0.7500   -6.1768    0.0000 C   0  0  0  0  0  0  0  0  0  0  0  0
   -0.7500   -6.1768    0.0000 C   0  0  0  0  0  0  0  0  0  0  0  0
   -2.2064   -5.8178    0.0000 C   0  0  0  0  0  0  0  0  0  0  0  0
   -3.5346   -5.1207    0.0000 C   0  0  0  0  0  0  0  0  0  0  0  0
   -4.6574   -4.1261    0.0000 C   0  0  0  0  0  0  0  0  0  0  0  0
   -5.5095   -2.8916    0.0000 C   0  0  0  0  0  0  0  0  0  0  0  0
   -6.0414   -1.4891    0.0000 C   0  0  0  0  0  0  0  0  0  0  0  0
   -6.2222    0.0000    0.0000 C   0  0  0  0  0  0  0  0  0  0  0  0
   -6.0414    1.4891    0.0000 C   0  0  0  0  0  0  0  0  0  0  0  0
   -5.5095    2.8916    0.0000 C   0  0  0  0  0  0  0  0  0  0  0  0
   -4.6574    4.1261    0.0000 C   0  0  0  0  0  0  0  0  0  0  0  0
   -3.5346    5.1207    0.0000 C   0  0  0  0  0  0  0  0  0  0  0  0
   -2.2064    5.8178    0.0000 C   0  0  0  0  0  0  0  0  0  0  0  0
   -0.7500    6.1768    0.0000 C   0  0  0  0  0  0  0  0  0  0  0  0
    0.7500    6.1768    0.0000 C   0  0  0  0  0  0  0  0  0  0  0  0
    2.2064    5.8178    0.0000 C   0  0  0  0  0  0  0  0  0  0  0  0
    3.5346    5.1207    0.0000 C   0  0  0  0  0  0  0  0  0  0  0  0
    4.6574    4.1261    0.0000 C   0  0  0  0  0  0  0  0  0  0  0  0
    5.5095    2.8916    0.0000 C   0  0  0  0  0  0  0  0  0  0  0  0
    6.0414    1.4891    0.0000 C   0  0  0  0  0  0  0  0  0  0  0  0
  1  2  1  0
  2  3  1  0
  3  4  2  0
  4  5  1  0
  5  6  2  0
  6  7  1  0
  7  8  2  0
  8  9  1  0
  9 10  2  0
 10 11  1  0
 11 12  1  0
 12 13  1  0
 13 14  1  0
 14 15  1  0
 15 16  1  0
 16 17  1  0
 17 18  1  0
 18 19  1  0
 19 20  1  0
 20 21  1  0
 21 22  1  0
 22 23  1  0
 23 24  1  0
 24 25  1  0
 25 26  1  0
 26 27  1  0
 27  2  1  0
M  END
>  <Title>  (807) 
idABDGgen7

$$$$

     RDKit          2D

 23 25  0  0  0  0  0  0  0  0999 V2000
   -3.1965   -4.4337    0.0000 C   0  0  0  0  0  0  0  0  0  0  0  0
   -1.8107   -3.8597    0.0000 C   0  0  0  0  0  0  0  0  0  0  0  0
   -0.7500   -4.9204    0.0000 C   0  0  0  0  0  0  0  0  0  0  0  0
    0.7500   -4.9204    0.0000 C   0  0  0  0  0  0  0  0  0  0  0  0
    1.8107   -3.8597    0.0000 C   0  0  0  0  0  0  0  0  0  0  0  0
    1.8107   -2.3597    0.0000 C   0  0  0  0  0  0  0  0  0  0  0  0
    3.1965   -1.7857    0.0000 C   0  0  0  0  0  0  0  0  0  0  0  0
    3.3923   -0.2985    0.0000 O   0  0  0  0  0  0  0  0  0  0  0  0
    4.3865   -2.6988    0.0000 N   0  0  0  0  0  0  0  0  0  0  0  0
    5.7723   -2.1248    0.0000 C   0  0  0  0  0  0  0  0  0  0  0  0
    6.9624   -3.0379    0.0000 N   0  0  0  0  0  0  0  0  0  0  0  0
    8.3482   -2.4639    0.0000 N   0  0  0  0  0  0  0  0  0  0  0  0
    8.5440   -0.9767    0.0000 N   0  0  0  0  0  0  0  0  0  0  0  0
    7.3539   -0.0636    0.0000 N   0  0  0  0  0  0  0  0  0  0  0  0
    5.9681   -0.6376    0.0000 N   0  0  0  0  0  0  0  0  0  0  0  0
    0.7500   -1.2990    0.0000 C   0  0  0  0  0  0  0  0  0  0  0  0
    1.5000    0.0000    0.0000 C   0  0  0  0  0  0  0  0  0  0  0  0
    0.7500    1.2990    0.0000 C   0  0  0  0  0  0  0  0  0  0  0  0
   -0.7500    1.2990    0.0000 C   0  0  0  0  0  0  0  0  0  0  0  0
   -1.5000    0.0000    0.0000 C   0  0  0  0  0  0  0  0  0  0  0  0
   -0.7500   -1.2990    0.0000 C   0  0  0  0  0  0  0  0  0  0  0  0
   -1.8107   -2.3597    0.0000 C   0  0  0  0  0  0  0  0  0  0  0  0
   -3.1965   -1.7857    0.0000 O   0  0  0  0  0  0  0  0  0  0  0  0
  1  2  1  0
  2  3  2  0
  3  4  1  0
  4  5  1  0
  5  6  1  0
  6  7  1  0
  7  8  2  0
  7  9  1  0
  9 10  1  0
 10 11  2  0
 11 12  1  0
 12 13  2  0
 13 14  1  0
 14 15  2  0
  6 16  1  0
 16 17  2  0
 17 18  1  0
 18 19  2  0
 19 20  1  0
 20 21  2  0
 21 22  1  0
 22 23  2  0
 22  2  1  0
 15 10  1  0
 21 16  1  0
M  END
>  <Title>  (808) 
idABDHgen7

$$$$

     RDKit          2D

 61 62  0  0  0  0  0  0  0  0999 V2000
   13.6831    0.0000    0.0000 C   0  0  0  0  0  0  0  0  0  0  0  0
   12.1831    0.0000    0.0000 C   0  0  0  0  0  0  0  0  0  0  0  0
   12.0907    1.4972    0.0000 C   0  0  0  0  0  0  0  0  0  0  0  0
   11.8151    2.9716    0.0000 C   0  0  0  0  0  0  0  0  0  0  0  0
   11.3604    4.4010    0.0000 C   0  0  0  0  0  0  0  0  0  0  0  0
   10.7334    5.7637    0.0000 C   0  0  0  0  0  0  0  0  0  0  0  0
    9.9438    7.0391    0.0000 C   0  0  0  0  0  0  0  0  0  0  0  0
    9.0034    8.2077    0.0000 C   0  0  0  0  0  0  0  0  0  0  0  0
    7.9265    9.2519    0.0000 C   0  0  0  0  0  0  0  0  0  0  0  0
    6.7295   10.1558    0.0000 C   0  0  0  0  0  0  0  0  0  0  0  0
    5.4305   10.9058    0.0000 C   0  0  0  0  0  0  0  0  0  0  0  0
    4.0491   11.4905    0.0000 C   0  0  0  0  0  0  0  0  0  0  0  0
    2.6064   11.9010    0.0000 C   0  0  0  0  0  0  0  0  0  0  0  0
    1.1241   12.1311    0.0000 C   0  0  0  0  0  0  0  0  0  0  0  0
   -0.3752   12.1773    0.0000 C   0  0  0  0  0  0  0  0  0  0  0  0
   -1.8688   12.0389    0.0000 C   0  0  0  0  0  0  0  0  0  0  0  0
   -3.3341   11.7180    0.0000 C   0  0  0  0  0  0  0  0  0  0  0  0
   -4.7488   11.2194    0.0000 C   0  0  0  0  0  0  0  0  0  0  0  0
   -6.0915   10.5508    0.0000 C   0  0  0  0  0  0  0  0  0  0  0  0
   -7.3419    9.7223    0.0000 C   0  0  0  0  0  0  0  0  0  0  0  0
   -8.4810    8.7464    0.0000 C   0  0  0  0  0  0  0  0  0  0  0  0
   -9.4916    7.6378    0.0000 C   0  0  0  0  0  0  0  0  0  0  0  0
  -10.3582    6.4136    0.0000 C   0  0  0  0  0  0  0  0  0  0  0  0
  -11.0679    5.0920    0.0000 C   0  0  0  0  0  0  0  0  0  0  0  0
  -11.6097    3.6933    0.0000 C   0  0  0  0  0  0  0  0  0  0  0  0
  -11.9756    2.2386    0.0000 C   0  0  0  0  0  0  0  0  0  0  0  0
  -12.1599    0.7500    0.0000 C   0  0  0  0  0  0  0  0  0  0  0  0
  -12.1599   -0.7500    0.0000 C   0  0  0  0  0  0  0  0  0  0  0  0
  -11.9756   -2.2386    0.0000 C   0  0  0  0  0  0  0  0  0  0  0  0
  -11.6097   -3.6933    0.0000 C   0  0  0  0  0  0  0  0  0  0  0  0
  -11.0679   -5.0920    0.0000 C   0  0  0  0  0  0  0  0  0  0  0  0
  -10.3582   -6.4136    0.0000 C   0  0  0  0  0  0  0  0  0  0  0  0
   -9.4916   -7.6378    0.0000 C   0  0  0  0  0  0  0  0  0  0  0  0
   -8.4810   -8.7464    0.0000 C   0  0  0  0  0  0  0  0  0  0  0  0
   -7.3419   -9.7223    0.0000 C   0  0  0  0  0  0  0  0  0  0  0  0
   -6.0915  -10.5508    0.0000 C   0  0  0  0  0  0  0  0  0  0  0  0
   -4.7488  -11.2194    0.0000 C   0  0  0  0  0  0  0  0  0  0  0  0
   -3.3341  -11.7180    0.0000 C   0  0  0  0  0  0  0  0  0  0  0  0
   -1.8688  -12.0389    0.0000 C   0  0  0  0  0  0  0  0  0  0  0  0
   -0.3752  -12.1773    0.0000 C   0  0  0  0  0  0  0  0  0  0  0  0
    1.1241  -12.1311    0.0000 C   0  0  0  0  0  0  0  0  0  0  0  0
    2.6064  -11.9010    0.0000 C   0  0  0  0  0  0  0  0  0  0  0  0
    4.0491  -11.4905    0.0000 C   0  0  0  0  0  0  0  0  0  0  0  0
    5.4305  -10.9058    0.0000 C   0  0  0  0  0  0  0  0  0  0  0  0
    6.7295  -10.1558    0.0000 C   0  0  0  0  0  0  0  0  0  0  0  0
    7.9265   -9.2519    0.0000 C   0  0  0  0  0  0  0  0  0  0  0  0
    9.0034   -8.2077    0.0000 C   0  0  0  0  0  0  0  0  0  0  0  0
    9.9438   -7.0391    0.0000 C   0  0  0  0  0  0  0  0  0  0  0  0
   10.7334   -5.7637    0.0000 C   0  0  0  0  0  0  0  0  0  0  0  0
   11.3604   -4.4010    0.0000 C   0  0  0  0  0  0  0  0  0  0  0  0
   11.8151   -2.9716    0.0000 C   0  0  0  0  0  0  0  0  0  0  0  0
   13.2698   -3.3375    0.0000 C   0  0  0  0  0  0  0  0  0  0  0  0
   14.3140   -2.2606    0.0000 O   0  0  0  0  0  0  0  0  0  0  0  0
   13.6803   -4.7802    0.0000 N   0  0  0  0  0  0  0  0  0  0  0  0
   15.1350   -5.1461    0.0000 C   0  0  0  0  0  0  0  0  0  0  0  0
   15.5455   -6.5888    0.0000 N   0  0  0  0  0  0  0  0  0  0  0  0
   17.0002   -6.9547    0.0000 N   0  0  0  0  0  0  0  0  0  0  0  0
   18.0444   -5.8778    0.0000 N   0  0  0  0  0  0  0  0  0  0  0  0
   17.6339   -4.4351    0.0000 N   0  0  0  0  0  0  0  0  0  0  0  0
   16.1792   -4.0692    0.0000 N   0  0  0  0  0  0  0  0  0  0  0  0
   12.0907   -1.4972    0.0000 C   0  0  0  0  0  0  0  0  0  0  0  0
  1  2  1  0
  2  3  1  0
  3  4  1  0
  4  5  1  0
  5  6  1  0
  6  7  1  0
  7  8  1  0
  8  9  1  0
  9 10  1  0
 10 11  1  0
 11 12  1  0
 12 13  1  0
 13 14  1  0
 14 15  1  0
 15 16  1  0
 16 17  1  0
 17 18  1  0
 18 19  1  0
 19 20  1  0
 20 21  1  0
 21 22  1  0
 22 23  1  0
 23 24  1  0
 24 25  1  0
 25 26  1  0
 26 27  1  0
 27 28  1  0
 28 29  1  0
 29 30  1  0
 30 31  1  0
 31 32  1  0
 32 33  1  0
 33 34  1  0
 34 35  1  0
 35 36  1  0
 36 37  1  0
 37 38  1  0
 38 39  1  0
 39 40  1  0
 40 41  1  0
 41 42  1  0
 42 43  1  0
 43 44  1  0
 44 45  1  0
 45 46  1  0
 46 47  1  0
 47 48  1  0
 48 49  1  0
 49 50  1  0
 50 51  1  0
 51 52  1  0
 52 53  2  0
 52 54  1  0
 54 55  1  0
 55 56  2  0
 56 57  1  0
 57 58  2  0
 58 59  1  0
 59 60  2  0
 51 61  1  0
 61  2  1  0
 60 55  1  0
M  END
>  <Title>  (809) 
idABDIgen7

$$$$

     RDKit          2D

 34 38  0  0  0  0  0  0  0  0999 V2000
    1.2135   -7.3421    0.0000 C   0  0  0  0  0  0  0  0  0  0  0  0
    0.7500   -5.9156    0.0000 C   0  0  0  0  0  0  0  0  0  0  0  0
    1.9635   -5.0339    0.0000 C   0  0  0  0  0  0  0  0  0  0  0  0
    2.4271   -3.6073    0.0000 C   0  0  0  0  0  0  0  0  0  0  0  0
    1.9635   -2.1807    0.0000 C   0  0  0  0  0  0  0  0  0  0  0  0
    3.1771   -1.2990    0.0000 C   0  0  0  0  0  0  0  0  0  0  0  0
    3.0203    0.1927    0.0000 O   0  0  0  0  0  0  0  0  0  0  0  0
    4.5474   -1.9091    0.0000 N   0  0  0  0  0  0  0  0  0  0  0  0
    5.7609   -1.0275    0.0000 C   0  0  0  0  0  0  0  0  0  0  0  0
    7.1312   -1.6376    0.0000 N   0  0  0  0  0  0  0  0  0  0  0  0
    8.3447   -0.7559    0.0000 N   0  0  0  0  0  0  0  0  0  0  0  0
    8.1879    0.7359    0.0000 N   0  0  0  0  0  0  0  0  0  0  0  0
    6.8176    1.3460    0.0000 N   0  0  0  0  0  0  0  0  0  0  0  0
    5.6041    0.4643    0.0000 N   0  0  0  0  0  0  0  0  0  0  0  0
    0.7500   -1.2990    0.0000 C   0  0  0  0  0  0  0  0  0  0  0  0
    1.5000    0.0000    0.0000 C   0  0  0  0  0  0  0  0  0  0  0  0
    0.7500    1.2990    0.0000 C   0  0  0  0  0  0  0  0  0  0  0  0
   -0.7500    1.2990    0.0000 C   0  0  0  0  0  0  0  0  0  0  0  0
   -1.5000    0.0000    0.0000 C   0  0  0  0  0  0  0  0  0  0  0  0
   -0.7500   -1.2990    0.0000 C   0  0  0  0  0  0  0  0  0  0  0  0
   -1.9635   -2.1807    0.0000 C   0  0  0  0  0  0  0  0  0  0  0  0
   -2.9672   -1.0660    0.0000 C   0  0  0  0  0  0  0  0  0  0  0  0
   -4.4344   -1.3779    0.0000 C   0  0  0  0  0  0  0  0  0  0  0  0
   -4.8980   -2.8045    0.0000 C   0  0  0  0  0  0  0  0  0  0  0  0
   -3.8943   -3.9192    0.0000 C   0  0  0  0  0  0  0  0  0  0  0  0
   -2.4271   -3.6073    0.0000 C   0  0  0  0  0  0  0  0  0  0  0  0
   -1.9635   -5.0339    0.0000 C   0  0  0  0  0  0  0  0  0  0  0  0
   -3.3338   -5.6440    0.0000 C   0  0  0  0  0  0  0  0  0  0  0  0
   -3.4906   -7.1358    0.0000 C   0  0  0  0  0  0  0  0  0  0  0  0
   -2.2771   -8.0175    0.0000 C   0  0  0  0  0  0  0  0  0  0  0  0
   -2.4339   -9.5092    0.0000 C   0  0  0  0  0  0  0  0  0  0  0  0
   -2.5907  -11.0010    0.0000 N   0  0  0  0  0  0  0  0  0  0  0  0
   -0.9068   -7.4073    0.0000 C   0  0  0  0  0  0  0  0  0  0  0  0
   -0.7500   -5.9156    0.0000 C   0  0  0  0  0  0  0  0  0  0  0  0
  1  2  1  0
  2  3  1  0
  3  4  1  0
  4  5  1  0
  5  6  1  0
  6  7  2  0
  6  8  1  0
  8  9  1  0
  9 10  2  0
 10 11  1  0
 11 12  2  0
 12 13  1  0
 13 14  2  0
  5 15  1  0
 15 16  2  0
 16 17  1  0
 17 18  2  0
 18 19  1  0
 19 20  2  0
 20 21  1  0
 21 22  2  0
 22 23  1  0
 23 24  2  0
 24 25  1  0
 25 26  2  0
 26 27  1  0
 27 28  2  0
 28 29  1  0
 29 30  2  0
 30 31  1  0
 31 32  3  0
 30 33  1  0
 33 34  2  0
 34  2  1  0
 14  9  1  0
 20 15  1  0
 26 21  1  0
 34 27  1  0
M  END
>  <Title>  (810) 
idABDJgen7

$$$$

     RDKit          2D

  8  8  0  0  0  0  0  0  0  0999 V2000
    4.2760   -0.0000    0.0000 N   0  0  0  0  0  0  0  0  0  0  0  0
    2.7760    0.0000    0.0000 C   0  0  0  0  0  0  0  0  0  0  0  0
    1.2760    0.0000    0.0000 C   0  0  0  0  0  0  0  0  0  0  0  0
    0.3943    1.2135    0.0000 C   0  0  0  0  0  0  0  0  0  0  0  0
   -1.0323    0.7500    0.0000 C   0  0  0  0  0  0  0  0  0  0  0  0
   -1.0323   -0.7500    0.0000 C   0  0  0  0  0  0  0  0  0  0  0  0
   -2.2458   -1.6317    0.0000 O   0  0  0  0  0  0  0  0  0  0  0  0
    0.3943   -1.2135    0.0000 C   0  0  0  0  0  0  0  0  0  0  0  0
  1  2  3  0
  2  3  1  0
  3  4  2  0
  4  5  1  0
  5  6  1  0
  6  7  1  0
  6  8  1  0
  8  3  1  0
M  END
>  <Title>  (811) 
idABDKgen7

$$$$

     RDKit          2D

119119  0  0  0  0  0  0  0  0999 V2000
   28.4125    0.0000    0.0000 C   0  0  0  0  0  0  0  0  0  0  0  0
   28.3729    1.4995    0.0000 C   0  0  0  0  0  0  0  0  0  0  0  0
   28.2542    2.9948    0.0000 C   0  0  0  0  0  0  0  0  0  0  0  0
   28.0568    4.4817    0.0000 C   0  0  0  0  0  0  0  0  0  0  0  0
   27.7811    5.9562    0.0000 C   0  0  0  0  0  0  0  0  0  0  0  0
   27.4281    7.4140    0.0000 C   0  0  0  0  0  0  0  0  0  0  0  0
   26.9986    8.8512    0.0000 C   0  0  0  0  0  0  0  0  0  0  0  0
   26.4938   10.2638    0.0000 C   0  0  0  0  0  0  0  0  0  0  0  0
   25.9152   11.6477    0.0000 C   0  0  0  0  0  0  0  0  0  0  0  0
   25.2644   12.9991    0.0000 C   0  0  0  0  0  0  0  0  0  0  0  0
   24.5432   14.3144    0.0000 C   0  0  0  0  0  0  0  0  0  0  0  0
   23.7535   15.5897    0.0000 C   0  0  0  0  0  0  0  0  0  0  0  0
   22.8977   16.8216    0.0000 C   0  0  0  0  0  0  0  0  0  0  0  0
   21.9780   18.0065    0.0000 C   0  0  0  0  0  0  0  0  0  0  0  0
   20.9971   19.1413    0.0000 C   0  0  0  0  0  0  0  0  0  0  0  0
   19.9576   20.2228    0.0000 C   0  0  0  0  0  0  0  0  0  0  0  0
   18.8625   21.2479    0.0000 C   0  0  0  0  0  0  0  0  0  0  0  0
   17.7149   22.2138    0.0000 C   0  0  0  0  0  0  0  0  0  0  0  0
   16.5179   23.1177    0.0000 C   0  0  0  0  0  0  0  0  0  0  0  0
   15.2748   23.9572    0.0000 C   0  0  0  0  0  0  0  0  0  0  0  0
   13.9892   24.7300    0.0000 C   0  0  0  0  0  0  0  0  0  0  0  0
   12.6645   25.4338    0.0000 C   0  0  0  0  0  0  0  0  0  0  0  0
   11.3046   26.0667    0.0000 C   0  0  0  0  0  0  0  0  0  0  0  0
    9.9132   26.6270    0.0000 C   0  0  0  0  0  0  0  0  0  0  0  0
    8.4941   27.1131    0.0000 C   0  0  0  0  0  0  0  0  0  0  0  0
    7.0514   27.5236    0.0000 C   0  0  0  0  0  0  0  0  0  0  0  0
    5.5890   27.8573    0.0000 C   0  0  0  0  0  0  0  0  0  0  0  0
    4.1110   28.1135    0.0000 C   0  0  0  0  0  0  0  0  0  0  0  0
    2.6216   28.2913    0.0000 C   0  0  0  0  0  0  0  0  0  0  0  0
    1.1248   28.3902    0.0000 C   0  0  0  0  0  0  0  0  0  0  0  0
   -0.3750   28.4100    0.0000 C   0  0  0  0  0  0  0  0  0  0  0  0
   -1.8739   28.3506    0.0000 C   0  0  0  0  0  0  0  0  0  0  0  0
   -3.3675   28.2122    0.0000 C   0  0  0  0  0  0  0  0  0  0  0  0
   -4.8517   27.9952    0.0000 C   0  0  0  0  0  0  0  0  0  0  0  0
   -6.3224   27.7001    0.0000 C   0  0  0  0  0  0  0  0  0  0  0  0
   -7.7754   27.3278    0.0000 C   0  0  0  0  0  0  0  0  0  0  0  0
   -9.2068   26.8794    0.0000 C   0  0  0  0  0  0  0  0  0  0  0  0
  -10.6126   26.3560    0.0000 C   0  0  0  0  0  0  0  0  0  0  0  0
  -11.9887   25.7592    0.0000 C   0  0  0  0  0  0  0  0  0  0  0  0
  -13.3315   25.0906    0.0000 C   0  0  0  0  0  0  0  0  0  0  0  0
  -14.6371   24.3521    0.0000 C   0  0  0  0  0  0  0  0  0  0  0  0
  -15.9019   23.5457    0.0000 C   0  0  0  0  0  0  0  0  0  0  0  0
  -17.1223   22.6736    0.0000 C   0  0  0  0  0  0  0  0  0  0  0  0
  -18.2951   21.7384    0.0000 C   0  0  0  0  0  0  0  0  0  0  0  0
  -19.4168   20.7426    0.0000 C   0  0  0  0  0  0  0  0  0  0  0  0
  -20.4845   19.6889    0.0000 C   0  0  0  0  0  0  0  0  0  0  0  0
  -21.4950   18.5804    0.0000 C   0  0  0  0  0  0  0  0  0  0  0  0
  -22.4456   17.4201    0.0000 C   0  0  0  0  0  0  0  0  0  0  0  0
  -23.3337   16.2113    0.0000 C   0  0  0  0  0  0  0  0  0  0  0  0
  -24.1568   14.9572    0.0000 C   0  0  0  0  0  0  0  0  0  0  0  0
  -24.9125   13.6615    0.0000 C   0  0  0  0  0  0  0  0  0  0  0  0
  -25.5987   12.3277    0.0000 C   0  0  0  0  0  0  0  0  0  0  0  0
  -26.2137   10.9595    0.0000 C   0  0  0  0  0  0  0  0  0  0  0  0
  -26.7555    9.5608    0.0000 C   0  0  0  0  0  0  0  0  0  0  0  0
  -27.2228    8.1355    0.0000 C   0  0  0  0  0  0  0  0  0  0  0  0
  -27.6142    6.6874    0.0000 C   0  0  0  0  0  0  0  0  0  0  0  0
  -27.9287    5.2208    0.0000 C   0  0  0  0  0  0  0  0  0  0  0  0
  -28.1653    3.7396    0.0000 C   0  0  0  0  0  0  0  0  0  0  0  0
  -28.3234    2.2479    0.0000 C   0  0  0  0  0  0  0  0  0  0  0  0
  -28.4026    0.7500    0.0000 C   0  0  0  0  0  0  0  0  0  0  0  0
  -28.4026   -0.7500    0.0000 N   0  0  0  0  0  0  0  0  0  0  0  0
  -28.3234   -2.2479    0.0000 C   0  0  0  0  0  0  0  0  0  0  0  0
  -28.1653   -3.7396    0.0000 C   0  0  0  0  0  0  0  0  0  0  0  0
  -27.9287   -5.2208    0.0000 C   0  0  0  0  0  0  0  0  0  0  0  0
  -27.6142   -6.6874    0.0000 C   0  0  0  0  0  0  0  0  0  0  0  0
  -27.2228   -8.1355    0.0000 C   0  0  0  0  0  0  0  0  0  0  0  0
  -26.7555   -9.5608    0.0000 C   0  0  0  0  0  0  0  0  0  0  0  0
  -26.2137  -10.9595    0.0000 C   0  0  0  0  0  0  0  0  0  0  0  0
  -25.5987  -12.3277    0.0000 C   0  0  0  0  0  0  0  0  0  0  0  0
  -24.9125  -13.6615    0.0000 C   0  0  0  0  0  0  0  0  0  0  0  0
  -24.1568  -14.9572    0.0000 C   0  0  0  0  0  0  0  0  0  0  0  0
  -23.3337  -16.2113    0.0000 C   0  0  0  0  0  0  0  0  0  0  0  0
  -22.4456  -17.4201    0.0000 C   0  0  0  0  0  0  0  0  0  0  0  0
  -21.4950  -18.5804    0.0000 C   0  0  0  0  0  0  0  0  0  0  0  0
  -20.4845  -19.6889    0.0000 C   0  0  0  0  0  0  0  0  0  0  0  0
  -19.4168  -20.7426    0.0000 C   0  0  0  0  0  0  0  0  0  0  0  0
  -18.2951  -21.7384    0.0000 C   0  0  0  0  0  0  0  0  0  0  0  0
  -17.1223  -22.6736    0.0000 C   0  0  0  0  0  0  0  0  0  0  0  0
  -15.9019  -23.5457    0.0000 C   0  0  0  0  0  0  0  0  0  0  0  0
  -14.6371  -24.3521    0.0000 C   0  0  0  0  0  0  0  0  0  0  0  0
  -13.3315  -25.0906    0.0000 C   0  0  0  0  0  0  0  0  0  0  0  0
  -11.9887  -25.7592    0.0000 C   0  0  0  0  0  0  0  0  0  0  0  0
  -10.6126  -26.3560    0.0000 C   0  0  0  0  0  0  0  0  0  0  0  0
   -9.2068  -26.8794    0.0000 C   0  0  0  0  0  0  0  0  0  0  0  0
   -7.7754  -27.3278    0.0000 C   0  0  0  0  0  0  0  0  0  0  0  0
   -6.3224  -27.7001    0.0000 C   0  0  0  0  0  0  0  0  0  0  0  0
   -4.8517  -27.9952    0.0000 C   0  0  0  0  0  0  0  0  0  0  0  0
   -3.3675  -28.2122    0.0000 C   0  0  0  0  0  0  0  0  0  0  0  0
   -1.8739  -28.3506    0.0000 C   0  0  0  0  0  0  0  0  0  0  0  0
   -0.3750  -28.4100    0.0000 C   0  0  0  0  0  0  0  0  0  0  0  0
    1.1248  -28.3902    0.0000 C   0  0  0  0  0  0  0  0  0  0  0  0
    2.6216  -28.2913    0.0000 C   0  0  0  0  0  0  0  0  0  0  0  0
    4.1110  -28.1135    0.0000 C   0  0  0  0  0  0  0  0  0  0  0  0
    5.5890  -27.8573    0.0000 C   0  0  0  0  0  0  0  0  0  0  0  0
    7.0514  -27.5236    0.0000 C   0  0  0  0  0  0  0  0  0  0  0  0
    8.4941  -27.1131    0.0000 C   0  0  0  0  0  0  0  0  0  0  0  0
    9.9132  -26.6270    0.0000 C   0  0  0  0  0  0  0  0  0  0  0  0
   11.3046  -26.0667    0.0000 C   0  0  0  0  0  0  0  0  0  0  0  0
   12.6645  -25.4338    0.0000 C   0  0  0  0  0  0  0  0  0  0  0  0
   13.9892  -24.7300    0.0000 C   0  0  0  0  0  0  0  0  0  0  0  0
   15.2748  -23.9572    0.0000 C   0  0  0  0  0  0  0  0  0  0  0  0
   16.5179  -23.1177    0.0000 C   0  0  0  0  0  0  0  0  0  0  0  0
   17.7149  -22.2138    0.0000 C   0  0  0  0  0  0  0  0  0  0  0  0
   18.8625  -21.2479    0.0000 C   0  0  0  0  0  0  0  0  0  0  0  0
   19.9576  -20.2228    0.0000 C   0  0  0  0  0  0  0  0  0  0  0  0
   20.9971  -19.1413    0.0000 C   0  0  0  0  0  0  0  0  0  0  0  0
   21.9780  -18.0065    0.0000 C   0  0  0  0  0  0  0  0  0  0  0  0
   22.8977  -16.8216    0.0000 C   0  0  0  0  0  0  0  0  0  0  0  0
   23.7535  -15.5897    0.0000 C   0  0  0  0  0  0  0  0  0  0  0  0
   24.5432  -14.3144    0.0000 C   0  0  0  0  0  0  0  0  0  0  0  0
   25.2644  -12.9991    0.0000 C   0  0  0  0  0  0  0  0  0  0  0  0
   25.9152  -11.6477    0.0000 C   0  0  0  0  0  0  0  0  0  0  0  0
   26.4938  -10.2638    0.0000 C   0  0  0  0  0  0  0  0  0  0  0  0
   26.9986   -8.8512    0.0000 C   0  0  0  0  0  0  0  0  0  0  0  0
   27.4281   -7.4140    0.0000 C   0  0  0  0  0  0  0  0  0  0  0  0
   27.7811   -5.9562    0.0000 C   0  0  0  0  0  0  0  0  0  0  0  0
   28.0568   -4.4817    0.0000 C   0  0  0  0  0  0  0  0  0  0  0  0
   28.2542   -2.9948    0.0000 C   0  0  0  0  0  0  0  0  0  0  0  0
   28.3729   -1.4995    0.0000 C   0  0  0  0  0  0  0  0  0  0  0  0
  1  2  1  0
  2  3  1  0
  3  4  1  0
  4  5  1  0
  5  6  1  0
  6  7  1  0
  7  8  1  0
  8  9  1  0
  9 10  1  0
 10 11  1  0
 11 12  1  0
 12 13  1  0
 13 14  1  0
 14 15  1  0
 15 16  1  0
 16 17  1  0
 17 18  1  0
 18 19  1  0
 19 20  1  0
 20 21  1  0
 21 22  1  0
 22 23  1  0
 23 24  1  0
 24 25  1  0
 25 26  1  0
 26 27  1  0
 27 28  1  0
 28 29  1  0
 29 30  1  0
 30 31  1  0
 31 32  1  0
 32 33  1  0
 33 34  1  0
 34 35  1  0
 35 36  1  0
 36 37  1  0
 37 38  1  0
 38 39  1  0
 39 40  1  0
 40 41  1  0
 41 42  1  0
 42 43  1  0
 43 44  1  0
 44 45  1  0
 45 46  1  0
 46 47  1  0
 47 48  1  0
 48 49  1  0
 49 50  1  0
 50 51  1  0
 51 52  1  0
 52 53  1  0
 53 54  1  0
 54 55  1  0
 55 56  1  0
 56 57  1  0
 57 58  1  0
 58 59  1  0
 59 60  1  0
 60 61  1  0
 61 62  1  0
 62 63  1  0
 63 64  1  0
 64 65  1  0
 65 66  1  0
 66 67  1  0
 67 68  1  0
 68 69  1  0
 69 70  1  0
 70 71  1  0
 71 72  1  0
 72 73  1  0
 73 74  1  0
 74 75  1  0
 75 76  1  0
 76 77  1  0
 77 78  1  0
 78 79  1  0
 79 80  1  0
 80 81  1  0
 81 82  1  0
 82 83  1  0
 83 84  1  0
 84 85  1  0
 85 86  1  0
 86 87  1  0
 87 88  1  0
 88 89  1  0
 89 90  1  0
 90 91  1  0
 91 92  1  0
 92 93  1  0
 93 94  1  0
 94 95  1  0
 95 96  1  0
 96 97  1  0
 97 98  1  0
 98 99  1  0
 99100  1  0
100101  1  0
101102  1  0
102103  1  0
103104  1  0
104105  1  0
105106  1  0
106107  1  0
107108  1  0
108109  1  0
109110  1  0
110111  1  0
111112  1  0
112113  1  0
113114  1  0
114115  1  0
115116  1  0
116117  1  0
117118  1  0
118119  1  0
119  1  1  0
M  END
>  <Title>  (812) 
idABDLgen7

$$$$

     RDKit          2D

 25 27  0  0  0  0  0  0  0  0999 V2000
   -0.7500   -3.8971    0.0000 O   0  0  0  0  0  0  0  0  0  0  0  0
    0.7500   -3.8971    0.0000 C   0  0  0  0  0  0  0  0  0  0  0  0
    1.5000   -2.5981    0.0000 N   0  0  0  0  0  0  0  0  0  0  0  0
    0.7500   -1.2990    0.0000 C   0  0  0  0  0  0  0  0  0  0  0  0
    1.5000    0.0000    0.0000 C   0  0  0  0  0  0  0  0  0  0  0  0
    0.7500    1.2990    0.0000 C   0  0  0  0  0  0  0  0  0  0  0  0
   -0.7500    1.2990    0.0000 C   0  0  0  0  0  0  0  0  0  0  0  0
   -1.5000    0.0000    0.0000 C   0  0  0  0  0  0  0  0  0  0  0  0
   -0.7500   -1.2990    0.0000 C   0  0  0  0  0  0  0  0  0  0  0  0
    1.5000   -5.1962    0.0000 C   0  0  0  0  0  0  0  0  0  0  0  0
    3.0000   -5.1962    0.0000 O   0  0  0  0  0  0  0  0  0  0  0  0
    0.7500   -6.4952    0.0000 N   0  0  0  0  0  0  0  0  0  0  0  0
    1.3601   -7.8655    0.0000 C   0  0  0  0  0  0  0  0  0  0  0  0
    0.2454   -8.8692    0.0000 C   0  0  0  0  0  0  0  0  0  0  0  0
   -1.0537   -8.1192    0.0000 C   0  0  0  0  0  0  0  0  0  0  0  0
   -2.4240   -8.7293    0.0000 C   0  0  0  0  0  0  0  0  0  0  0  0
   -2.5808  -10.2211    0.0000 O   0  0  0  0  0  0  0  0  0  0  0  0
   -3.6375   -7.8476    0.0000 N   0  0  0  0  0  0  0  0  0  0  0  0
   -5.0078   -8.4577    0.0000 C   0  0  0  0  0  0  0  0  0  0  0  0
   -6.2213   -7.5761    0.0000 C   0  0  0  0  0  0  0  0  0  0  0  0
   -7.5917   -8.1862    0.0000 C   0  0  0  0  0  0  0  0  0  0  0  0
   -7.7484   -9.6779    0.0000 C   0  0  0  0  0  0  0  0  0  0  0  0
   -6.5349  -10.5596    0.0000 C   0  0  0  0  0  0  0  0  0  0  0  0
   -5.1646   -9.9495    0.0000 C   0  0  0  0  0  0  0  0  0  0  0  0
   -0.7418   -6.6520    0.0000 C   0  0  0  0  0  0  0  0  0  0  0  0
  1  2  2  0
  2  3  1  0
  3  4  1  0
  4  5  2  0
  5  6  1  0
  6  7  1  0
  7  8  1  0
  8  9  2  0
  2 10  1  0
 10 11  2  0
 10 12  1  0
 12 13  1  0
 13 14  1  0
 14 15  1  0
 15 16  1  0
 16 17  2  0
 16 18  1  0
 18 19  1  0
 19 20  2  0
 20 21  1  0
 21 22  2  0
 22 23  1  0
 23 24  2  0
 15 25  1  0
  9  4  1  0
 25 12  1  0
 24 19  1  0
M  END
>  <Title>  (813) 
idABDMgen7

$$$$

     RDKit          2D

 23 25  0  0  0  0  0  0  0  0999 V2000
    4.5000   -5.1962    0.0000 N   0  0  0  0  0  0  0  0  0  0  0  0
    3.7500   -3.8971    0.0000 C   0  0  0  0  0  0  0  0  0  0  0  0
    3.0000   -2.5981    0.0000 C   0  0  0  0  0  0  0  0  0  0  0  0
    3.7500   -1.2990    0.0000 O   0  0  0  0  0  0  0  0  0  0  0  0
    1.5000   -2.5981    0.0000 C   0  0  0  0  0  0  0  0  0  0  0  0
    0.7500   -3.8971    0.0000 C   0  0  0  0  0  0  0  0  0  0  0  0
    1.5000   -5.1962    0.0000 C   0  0  0  0  0  0  0  0  0  0  0  0
    2.9918   -5.3529    0.0000 C   0  0  0  0  0  0  0  0  0  0  0  0
    3.3037   -6.8202    0.0000 C   0  0  0  0  0  0  0  0  0  0  0  0
    2.0046   -7.5702    0.0000 C   0  0  0  0  0  0  0  0  0  0  0  0
    0.8899   -6.5665    0.0000 C   0  0  0  0  0  0  0  0  0  0  0  0
    0.7500   -1.2990    0.0000 N   0  0  0  0  0  0  0  0  0  0  0  0
    1.5000    0.0000    0.0000 C   0  0  0  0  0  0  0  0  0  0  0  0
    0.7500    1.2990    0.0000 C   0  0  0  0  0  0  0  0  0  0  0  0
   -0.7500    1.2990    0.0000 N   0  0  0  0  0  0  0  0  0  0  0  0
   -1.5000    2.5981    0.0000 C   0  0  0  0  0  0  0  0  0  0  0  0
   -0.7500    3.8971    0.0000 C   0  0  0  0  0  0  0  0  0  0  0  0
   -1.5000    5.1962    0.0000 C   0  0  0  0  0  0  0  0  0  0  0  0
   -3.0000    5.1962    0.0000 C   0  0  0  0  0  0  0  0  0  0  0  0
   -3.7500    3.8971    0.0000 C   0  0  0  0  0  0  0  0  0  0  0  0
   -3.0000    2.5981    0.0000 C   0  0  0  0  0  0  0  0  0  0  0  0
   -1.5000    0.0000    0.0000 C   0  0  0  0  0  0  0  0  0  0  0  0
   -0.7500   -1.2990    0.0000 C   0  0  0  0  0  0  0  0  0  0  0  0
  1  2  3  0
  2  3  1  0
  3  4  2  0
  3  5  1  0
  5  6  1  0
  6  7  1  0
  7  8  2  0
  8  9  1  0
  9 10  1  0
 10 11  1  0
  5 12  1  0
 12 13  1  0
 13 14  1  0
 14 15  1  0
 15 16  1  0
 16 17  2  0
 17 18  1  0
 18 19  2  0
 19 20  1  0
 20 21  2  0
 15 22  1  0
 22 23  1  0
 11  7  1  0
 23 12  1  0
 21 16  1  0
M  END
>  <Title>  (814) 
idABDNgen7

$$$$

     RDKit          2D

  8  8  0  0  0  0  0  0  0  0999 V2000
    5.0260   -1.2990    0.0000 O   0  0  0  0  0  0  0  0  0  0  0  0
    3.5260   -1.2990    0.0000 C   0  0  0  0  0  0  0  0  0  0  0  0
    2.7760    0.0000    0.0000 C   0  0  0  0  0  0  0  0  0  0  0  0
    1.2760    0.0000    0.0000 C   0  0  0  0  0  0  0  0  0  0  0  0
    0.3943    1.2135    0.0000 C   0  0  0  0  0  0  0  0  0  0  0  0
   -1.0323    0.7500    0.0000 C   0  0  0  0  0  0  0  0  0  0  0  0
   -1.0323   -0.7500    0.0000 C   0  0  0  0  0  0  0  0  0  0  0  0
    0.3943   -1.2135    0.0000 C   0  0  0  0  0  0  0  0  0  0  0  0
  1  2  1  0
  2  3  2  3
  3  4  1  0
  4  5  2  0
  5  6  1  0
  6  7  2  0
  7  8  1  0
  8  4  1  0
M  END
>  <Title>  (815) 
idABDOgen7

$$$$

     RDKit          2D

 13 14  0  0  0  0  0  0  0  0999 V2000
    2.7760    0.0000    0.0000 C   0  0  0  0  0  0  0  0  0  0  0  0
    1.2760    0.0000    0.0000 C   0  0  0  0  0  0  0  0  0  0  0  0
    0.3943    1.2135    0.0000 C   0  0  0  0  0  0  0  0  0  0  0  0
   -1.0323    0.7500    0.0000 C   0  0  0  0  0  0  0  0  0  0  0  0
   -1.0323   -0.7500    0.0000 C   0  0  0  0  0  0  0  0  0  0  0  0
   -2.2458   -1.6317    0.0000 O   0  0  0  0  0  0  0  0  0  0  0  0
    0.3943   -1.2135    0.0000 C   0  0  0  0  0  0  0  0  0  0  0  0
    0.8578   -2.6401    0.0000 C   0  0  0  0  0  0  0  0  0  0  0  0
   -0.1459   -3.7548    0.0000 C   0  0  0  0  0  0  0  0  0  0  0  0
    0.1660   -5.2220    0.0000 C   0  0  0  0  0  0  0  0  0  0  0  0
   -1.1330   -5.9720    0.0000 C   0  0  0  0  0  0  0  0  0  0  0  0
   -2.2478   -4.9684    0.0000 C   0  0  0  0  0  0  0  0  0  0  0  0
   -1.6377   -3.5980    0.0000 C   0  0  0  0  0  0  0  0  0  0  0  0
  1  2  1  0
  2  3  1  0
  3  4  1  0
  4  5  1  0
  5  6  1  0
  5  7  1  0
  7  8  1  0
  8  9  1  0
  9 10  2  0
 10 11  1  0
 11 12  1  0
 12 13  2  0
  7  2  1  0
 13  9  1  0
M  END
>  <Title>  (816) 
idABDPgen7

$$$$

     RDKit          2D

  9  9  0  0  0  0  0  0  0  0999 V2000
    3.7500   -1.2990    0.0000 N   0  0  0  0  0  0  0  0  0  0  0  0
    3.0000    0.0000    0.0000 C   0  0  0  0  0  0  0  0  0  0  0  0
    3.7500    1.2990    0.0000 O   0  0  0  0  0  0  0  0  0  0  0  0
    1.5000    0.0000    0.0000 C   0  0  0  0  0  0  0  0  0  0  0  0
    0.7500   -1.2990    0.0000 C   0  0  0  0  0  0  0  0  0  0  0  0
   -0.7500   -1.2990    0.0000 C   0  0  0  0  0  0  0  0  0  0  0  0
   -1.5000    0.0000    0.0000 C   0  0  0  0  0  0  0  0  0  0  0  0
   -0.7500    1.2990    0.0000 C   0  0  0  0  0  0  0  0  0  0  0  0
    0.7500    1.2990    0.0000 C   0  0  0  0  0  0  0  0  0  0  0  0
  1  2  2  0
  2  3  1  0
  2  4  1  0
  4  5  2  0
  5  6  1  0
  6  7  2  0
  7  8  1  0
  8  9  2  0
  9  4  1  0
M  END
>  <Title>  (817) 
idABDQgen7

$$$$

     RDKit          2D

 79 82  0  0  0  0  0  0  0  0999 V2000
   -5.6417   -0.7157    0.0000 C   0  0  0  0  0  0  0  0  0  0  0  0
   -5.1581   -2.1357    0.0000 C   0  0  0  0  0  0  0  0  0  0  0  0
   -6.5538   -2.6852    0.0000 C   0  0  0  0  0  0  0  0  0  0  0  0
   -7.8919   -3.3631    0.0000 C   0  0  0  0  0  0  0  0  0  0  0  0
   -9.1607   -4.1632    0.0000 C   0  0  0  0  0  0  0  0  0  0  0  0
  -10.3489   -5.0787    0.0000 C   0  0  0  0  0  0  0  0  0  0  0  0
  -11.4462   -6.1014    0.0000 C   0  0  0  0  0  0  0  0  0  0  0  0
  -12.4429   -7.2224    0.0000 C   0  0  0  0  0  0  0  0  0  0  0  0
  -13.3303   -8.4318    0.0000 C   0  0  0  0  0  0  0  0  0  0  0  0
  -14.1005   -9.7189    0.0000 C   0  0  0  0  0  0  0  0  0  0  0  0
  -14.7468  -11.0726    0.0000 C   0  0  0  0  0  0  0  0  0  0  0  0
  -15.2635  -12.4808    0.0000 C   0  0  0  0  0  0  0  0  0  0  0  0
  -15.6461  -13.9311    0.0000 C   0  0  0  0  0  0  0  0  0  0  0  0
  -15.8911  -15.4110    0.0000 C   0  0  0  0  0  0  0  0  0  0  0  0
  -15.9965  -16.9073    0.0000 C   0  0  0  0  0  0  0  0  0  0  0  0
  -15.9614  -18.4069    0.0000 C   0  0  0  0  0  0  0  0  0  0  0  0
  -15.7859  -19.8966    0.0000 C   0  0  0  0  0  0  0  0  0  0  0  0
  -15.4718  -21.3633    0.0000 C   0  0  0  0  0  0  0  0  0  0  0  0
  -15.0217  -22.7942    0.0000 C   0  0  0  0  0  0  0  0  0  0  0  0
  -14.4395  -24.1766    0.0000 C   0  0  0  0  0  0  0  0  0  0  0  0
  -13.7305  -25.4985    0.0000 C   0  0  0  0  0  0  0  0  0  0  0  0
  -12.9008  -26.7481    0.0000 C   0  0  0  0  0  0  0  0  0  0  0  0
  -11.9577  -27.9146    0.0000 C   0  0  0  0  0  0  0  0  0  0  0  0
  -10.9096  -28.9876    0.0000 C   0  0  0  0  0  0  0  0  0  0  0  0
   -9.7655  -29.9577    0.0000 C   0  0  0  0  0  0  0  0  0  0  0  0
   -8.5357  -30.8165    0.0000 C   0  0  0  0  0  0  0  0  0  0  0  0
   -7.2308  -31.5563    0.0000 C   0  0  0  0  0  0  0  0  0  0  0  0
   -5.8624  -32.1707    0.0000 C   0  0  0  0  0  0  0  0  0  0  0  0
   -4.4425  -32.6542    0.0000 C   0  0  0  0  0  0  0  0  0  0  0  0
   -2.9835  -33.0027    0.0000 C   0  0  0  0  0  0  0  0  0  0  0  0
   -1.4984  -33.2130    0.0000 C   0  0  0  0  0  0  0  0  0  0  0  0
   -0.0000  -33.2833    0.0000 C   0  0  0  0  0  0  0  0  0  0  0  0
    1.4984  -33.2130    0.0000 C   0  0  0  0  0  0  0  0  0  0  0  0
    2.9835  -33.0027    0.0000 C   0  0  0  0  0  0  0  0  0  0  0  0
    4.4425  -32.6542    0.0000 C   0  0  0  0  0  0  0  0  0  0  0  0
    5.8624  -32.1707    0.0000 C   0  0  0  0  0  0  0  0  0  0  0  0
    7.2308  -31.5563    0.0000 C   0  0  0  0  0  0  0  0  0  0  0  0
    8.5357  -30.8165    0.0000 C   0  0  0  0  0  0  0  0  0  0  0  0
    9.7655  -29.9577    0.0000 C   0  0  0  0  0  0  0  0  0  0  0  0
   10.9096  -28.9876    0.0000 C   0  0  0  0  0  0  0  0  0  0  0  0
   11.9577  -27.9146    0.0000 C   0  0  0  0  0  0  0  0  0  0  0  0
   12.9008  -26.7481    0.0000 C   0  0  0  0  0  0  0  0  0  0  0  0
   13.7305  -25.4985    0.0000 C   0  0  0  0  0  0  0  0  0  0  0  0
   14.4395  -24.1766    0.0000 C   0  0  0  0  0  0  0  0  0  0  0  0
   15.0217  -22.7942    0.0000 C   0  0  0  0  0  0  0  0  0  0  0  0
   15.4718  -21.3633    0.0000 C   0  0  0  0  0  0  0  0  0  0  0  0
   15.7859  -19.8966    0.0000 C   0  0  0  0  0  0  0  0  0  0  0  0
   15.9614  -18.4069    0.0000 C   0  0  0  0  0  0  0  0  0  0  0  0
   15.9965  -16.9073    0.0000 C   0  0  0  0  0  0  0  0  0  0  0  0
   15.8911  -15.4110    0.0000 C   0  0  0  0  0  0  0  0  0  0  0  0
   15.6461  -13.9311    0.0000 C   0  0  0  0  0  0  0  0  0  0  0  0
   15.2635  -12.4808    0.0000 C   0  0  0  0  0  0  0  0  0  0  0  0
   14.7468  -11.0726    0.0000 C   0  0  0  0  0  0  0  0  0  0  0  0
   14.1005   -9.7189    0.0000 C   0  0  0  0  0  0  0  0  0  0  0  0
   13.3303   -8.4318    0.0000 C   0  0  0  0  0  0  0  0  0  0  0  0
   12.4429   -7.2224    0.0000 C   0  0  0  0  0  0  0  0  0  0  0  0
   11.4462   -6.1014    0.0000 C   0  0  0  0  0  0  0  0  0  0  0  0
   10.3489   -5.0787    0.0000 C   0  0  0  0  0  0  0  0  0  0  0  0
    9.1607   -4.1632    0.0000 C   0  0  0  0  0  0  0  0  0  0  0  0
    7.8919   -3.3631    0.0000 C   0  0  0  0  0  0  0  0  0  0  0  0
    6.5538   -2.6852    0.0000 C   0  0  0  0  0  0  0  0  0  0  0  0
    5.1581   -2.1357    0.0000 C   0  0  0  0  0  0  0  0  0  0  0  0
    3.7171   -1.7192    0.0000 C   0  0  0  0  0  0  0  0  0  0  0  0
    3.9065   -3.2072    0.0000 C   0  0  0  0  0  0  0  0  0  0  0  0
    2.5499   -3.8471    0.0000 C   0  0  0  0  0  0  0  0  0  0  0  0
    1.5220   -2.7546    0.0000 C   0  0  0  0  0  0  0  0  0  0  0  0
    2.2434   -1.4395    0.0000 C   0  0  0  0  0  0  0  0  0  0  0  0
    0.7500   -1.2990    0.0000 C   0  0  0  0  0  0  0  0  0  0  0  0
    1.5000    0.0000    0.0000 C   0  0  0  0  0  0  0  0  0  0  0  0
    0.7500    1.2990    0.0000 C   0  0  0  0  0  0  0  0  0  0  0  0
   -0.7500    1.2990    0.0000 C   0  0  0  0  0  0  0  0  0  0  0  0
   -1.5000    0.0000    0.0000 C   0  0  0  0  0  0  0  0  0  0  0  0
   -0.7500   -1.2990    0.0000 C   0  0  0  0  0  0  0  0  0  0  0  0
   -2.2434   -1.4395    0.0000 C   0  0  0  0  0  0  0  0  0  0  0  0
   -1.2643   -2.5759    0.0000 C   0  0  0  0  0  0  0  0  0  0  0  0
   -1.7590   -3.9920    0.0000 C   0  0  0  0  0  0  0  0  0  0  0  0
   -3.2327   -4.2717    0.0000 C   0  0  0  0  0  0  0  0  0  0  0  0
   -4.2117   -3.1353    0.0000 C   0  0  0  0  0  0  0  0  0  0  0  0
   -3.7171   -1.7192    0.0000 C   0  0  0  0  0  0  0  0  0  0  0  0
  1  2  1  0
  2  3  1  0
  3  4  1  0
  4  5  1  0
  5  6  1  0
  6  7  1  0
  7  8  1  0
  8  9  1  0
  9 10  1  0
 10 11  1  0
 11 12  1  0
 12 13  1  0
 13 14  1  0
 14 15  1  0
 15 16  1  0
 16 17  1  0
 17 18  1  0
 18 19  1  0
 19 20  1  0
 20 21  1  0
 21 22  1  0
 22 23  1  0
 23 24  1  0
 24 25  1  0
 25 26  1  0
 26 27  1  0
 27 28  1  0
 28 29  1  0
 29 30  1  0
 30 31  1  0
 31 32  1  0
 32 33  1  0
 33 34  1  0
 34 35  1  0
 35 36  1  0
 36 37  1  0
 37 38  1  0
 38 39  1  0
 39 40  1  0
 40 41  1  0
 41 42  1  0
 42 43  1  0
 43 44  1  0
 44 45  2  0
 45 46  1  0
 46 47  2  0
 47 48  1  0
 48 49  2  0
 49 50  1  0
 50 51  2  0
 51 52  1  0
 52 53  2  0
 53 54  1  0
 54 55  2  0
 55 56  1  0
 56 57  2  0
 57 58  1  0
 58 59  2  0
 59 60  1  0
 60 61  2  0
 61 62  1  0
 62 63  2  0
 63 64  1  0
 64 65  2  0
 65 66  1  0
 66 67  2  0
 67 68  1  0
 68 69  2  0
 69 70  1  0
 70 71  2  0
 71 72  1  0
 72 73  2  0
 73 74  1  0
 74 75  2  0
 75 76  1  0
 76 77  2  0
 77 78  1  0
 78 79  2  0
 79  2  1  0
 67 63  1  0
 73 68  1  0
 79 74  1  0
M  END
>  <Title>  (818) 
idABDRgen7

$$$$

     RDKit          2D

 83 83  0  0  0  0  0  0  0  0999 V2000
   19.8195    0.0000    0.0000 C   0  0  0  0  0  0  0  0  0  0  0  0
   19.7628    1.4989    0.0000 C   0  0  0  0  0  0  0  0  0  0  0  0
   19.5928    2.9893    0.0000 C   0  0  0  0  0  0  0  0  0  0  0  0
   19.3106    4.4625    0.0000 C   0  0  0  0  0  0  0  0  0  0  0  0
   18.9178    5.9101    0.0000 C   0  0  0  0  0  0  0  0  0  0  0  0
   18.4167    7.3239    0.0000 C   0  0  0  0  0  0  0  0  0  0  0  0
   17.8100    8.6958    0.0000 C   0  0  0  0  0  0  0  0  0  0  0  0
   17.1014   10.0178    0.0000 C   0  0  0  0  0  0  0  0  0  0  0  0
   16.2947   11.2825    0.0000 C   0  0  0  0  0  0  0  0  0  0  0  0
   15.3948   12.4825    0.0000 C   0  0  0  0  0  0  0  0  0  0  0  0
   14.4067   13.6111    0.0000 C   0  0  0  0  0  0  0  0  0  0  0  0
   13.3360   14.6617    0.0000 C   0  0  0  0  0  0  0  0  0  0  0  0
   12.1890   15.6283    0.0000 C   0  0  0  0  0  0  0  0  0  0  0  0
   10.9721   16.5053    0.0000 C   0  0  0  0  0  0  0  0  0  0  0  0
    9.6924   17.2879    0.0000 C   0  0  0  0  0  0  0  0  0  0  0  0
    8.3572   17.9714    0.0000 C   0  0  0  0  0  0  0  0  0  0  0  0
    6.9741   18.5520    0.0000 C   0  0  0  0  0  0  0  0  0  0  0  0
    5.5511   19.0263    0.0000 C   0  0  0  0  0  0  0  0  0  0  0  0
    4.0962   19.3916    0.0000 C   0  0  0  0  0  0  0  0  0  0  0  0
    2.6180   19.6459    0.0000 C   0  0  0  0  0  0  0  0  0  0  0  0
    1.1247   19.7876    0.0000 C   0  0  0  0  0  0  0  0  0  0  0  0
   -0.3751   19.8160    0.0000 C   0  0  0  0  0  0  0  0  0  0  0  0
   -1.8727   19.7309    0.0000 C   0  0  0  0  0  0  0  0  0  0  0  0
   -3.3595   19.5327    0.0000 C   0  0  0  0  0  0  0  0  0  0  0  0
   -4.8271   19.2227    0.0000 C   0  0  0  0  0  0  0  0  0  0  0  0
   -6.2671   18.8026    0.0000 C   0  0  0  0  0  0  0  0  0  0  0  0
   -7.6712   18.2748    0.0000 C   0  0  0  0  0  0  0  0  0  0  0  0
   -9.0313   17.6423    0.0000 C   0  0  0  0  0  0  0  0  0  0  0  0
  -10.3397   16.9087    0.0000 C   0  0  0  0  0  0  0  0  0  0  0  0
  -11.5888   16.0783    0.0000 C   0  0  0  0  0  0  0  0  0  0  0  0
  -12.7716   15.1558    0.0000 C   0  0  0  0  0  0  0  0  0  0  0  0
  -13.8813   14.1465    0.0000 C   0  0  0  0  0  0  0  0  0  0  0  0
  -14.9114   13.0562    0.0000 C   0  0  0  0  0  0  0  0  0  0  0  0
  -15.8561   11.8910    0.0000 C   0  0  0  0  0  0  0  0  0  0  0  0
  -16.7100   10.6578    0.0000 C   0  0  0  0  0  0  0  0  0  0  0  0
  -17.4682    9.3635    0.0000 C   0  0  0  0  0  0  0  0  0  0  0  0
  -18.1263    8.0156    0.0000 C   0  0  0  0  0  0  0  0  0  0  0  0
  -18.6806    6.6218    0.0000 C   0  0  0  0  0  0  0  0  0  0  0  0
  -19.1279    5.1900    0.0000 C   0  0  0  0  0  0  0  0  0  0  0  0
  -19.4656    3.7285    0.0000 C   0  0  0  0  0  0  0  0  0  0  0  0
  -19.6919    2.2457    0.0000 C   0  0  0  0  0  0  0  0  0  0  0  0
  -19.8053    0.7500    0.0000 C   0  0  0  0  0  0  0  0  0  0  0  0
  -19.8053   -0.7500    0.0000 C   0  0  0  0  0  0  0  0  0  0  0  0
  -19.6919   -2.2457    0.0000 C   0  0  0  0  0  0  0  0  0  0  0  0
  -19.4656   -3.7285    0.0000 C   0  0  0  0  0  0  0  0  0  0  0  0
  -19.1279   -5.1900    0.0000 C   0  0  0  0  0  0  0  0  0  0  0  0
  -18.6806   -6.6218    0.0000 C   0  0  0  0  0  0  0  0  0  0  0  0
  -18.1263   -8.0156    0.0000 C   0  0  0  0  0  0  0  0  0  0  0  0
  -17.4682   -9.3635    0.0000 C   0  0  0  0  0  0  0  0  0  0  0  0
  -16.7100  -10.6578    0.0000 C   0  0  0  0  0  0  0  0  0  0  0  0
  -15.8561  -11.8910    0.0000 C   0  0  0  0  0  0  0  0  0  0  0  0
  -14.9114  -13.0562    0.0000 C   0  0  0  0  0  0  0  0  0  0  0  0
  -13.8813  -14.1465    0.0000 C   0  0  0  0  0  0  0  0  0  0  0  0
  -12.7716  -15.1558    0.0000 C   0  0  0  0  0  0  0  0  0  0  0  0
  -11.5888  -16.0783    0.0000 C   0  0  0  0  0  0  0  0  0  0  0  0
  -10.3397  -16.9087    0.0000 C   0  0  0  0  0  0  0  0  0  0  0  0
   -9.0313  -17.6423    0.0000 C   0  0  0  0  0  0  0  0  0  0  0  0
   -7.6712  -18.2748    0.0000 C   0  0  0  0  0  0  0  0  0  0  0  0
   -6.2671  -18.8026    0.0000 C   0  0  0  0  0  0  0  0  0  0  0  0
   -4.8271  -19.2227    0.0000 C   0  0  0  0  0  0  0  0  0  0  0  0
   -3.3595  -19.5327    0.0000 C   0  0  0  0  0  0  0  0  0  0  0  0
   -1.8727  -19.7309    0.0000 C   0  0  0  0  0  0  0  0  0  0  0  0
   -0.3751  -19.8160    0.0000 C   0  0  0  0  0  0  0  0  0  0  0  0
    1.1247  -19.7876    0.0000 C   0  0  0  0  0  0  0  0  0  0  0  0
    2.6180  -19.6459    0.0000 C   0  0  0  0  0  0  0  0  0  0  0  0
    4.0962  -19.3916    0.0000 C   0  0  0  0  0  0  0  0  0  0  0  0
    5.5511  -19.0263    0.0000 C   0  0  0  0  0  0  0  0  0  0  0  0
    6.9741  -18.5520    0.0000 C   0  0  0  0  0  0  0  0  0  0  0  0
    8.3572  -17.9714    0.0000 C   0  0  0  0  0  0  0  0  0  0  0  0
    9.6924  -17.2879    0.0000 C   0  0  0  0  0  0  0  0  0  0  0  0
   10.9721  -16.5053    0.0000 C   0  0  0  0  0  0  0  0  0  0  0  0
   12.1890  -15.6283    0.0000 C   0  0  0  0  0  0  0  0  0  0  0  0
   13.3360  -14.6617    0.0000 C   0  0  0  0  0  0  0  0  0  0  0  0
   14.4067  -13.6111    0.0000 C   0  0  0  0  0  0  0  0  0  0  0  0
   15.3948  -12.4825    0.0000 C   0  0  0  0  0  0  0  0  0  0  0  0
   16.2947  -11.2825    0.0000 C   0  0  0  0  0  0  0  0  0  0  0  0
   17.1014  -10.0178    0.0000 C   0  0  0  0  0  0  0  0  0  0  0  0
   17.8100   -8.6958    0.0000 C   0  0  0  0  0  0  0  0  0  0  0  0
   18.4167   -7.3239    0.0000 C   0  0  0  0  0  0  0  0  0  0  0  0
   18.9178   -5.9101    0.0000 C   0  0  0  0  0  0  0  0  0  0  0  0
   19.3106   -4.4625    0.0000 C   0  0  0  0  0  0  0  0  0  0  0  0
   19.5928   -2.9893    0.0000 C   0  0  0  0  0  0  0  0  0  0  0  0
   19.7628   -1.4989    0.0000 C   0  0  0  0  0  0  0  0  0  0  0  0
  1  2  1  0
  2  3  1  0
  3  4  1  0
  4  5  1  0
  5  6  1  0
  6  7  1  0
  7  8  1  0
  8  9  1  0
  9 10  1  0
 10 11  1  0
 11 12  1  0
 12 13  1  0
 13 14  1  0
 14 15  1  0
 15 16  1  0
 16 17  1  0
 17 18  1  0
 18 19  1  0
 19 20  1  0
 20 21  1  0
 21 22  1  0
 22 23  1  0
 23 24  1  0
 24 25  1  0
 25 26  1  0
 26 27  1  0
 27 28  1  0
 28 29  1  0
 29 30  1  0
 30 31  1  0
 31 32  1  0
 32 33  1  0
 33 34  1  0
 34 35  1  0
 35 36  1  0
 36 37  1  0
 37 38  1  0
 38 39  1  0
 39 40  1  0
 40 41  1  0
 41 42  1  0
 42 43  1  0
 43 44  1  0
 44 45  1  0
 45 46  1  0
 46 47  1  0
 47 48  1  0
 48 49  1  0
 49 50  1  0
 50 51  1  0
 51 52  1  0
 52 53  1  0
 53 54  1  0
 54 55  1  0
 55 56  1  0
 56 57  1  0
 57 58  1  0
 58 59  1  0
 59 60  1  0
 60 61  1  0
 61 62  1  0
 62 63  1  0
 63 64  1  0
 64 65  1  0
 65 66  1  0
 66 67  1  0
 67 68  1  0
 68 69  1  0
 69 70  1  0
 70 71  1  0
 71 72  1  0
 72 73  1  0
 73 74  1  0
 74 75  1  0
 75 76  1  0
 76 77  1  0
 77 78  1  0
 78 79  1  0
 79 80  1  0
 80 81  1  0
 81 82  1  0
 82 83  1  0
 83  1  1  0
M  END
>  <Title>  (819) 
idABDSgen7

$$$$

     RDKit          2D

  7  7  0  0  0  0  0  0  0  0999 V2000
    4.2760   -0.0000    0.0000 C   0  0  0  0  0  0  0  0  0  0  0  0
    2.7760    0.0000    0.0000 C   0  0  0  0  0  0  0  0  0  0  0  0
    1.2760    0.0000    0.0000 C   0  0  0  0  0  0  0  0  0  0  0  0
    0.3943    1.2135    0.0000 C   0  0  0  0  0  0  0  0  0  0  0  0
   -1.0323    0.7500    0.0000 C   0  0  0  0  0  0  0  0  0  0  0  0
   -1.0323   -0.7500    0.0000 C   0  0  0  0  0  0  0  0  0  0  0  0
    0.3943   -1.2135    0.0000 C   0  0  0  0  0  0  0  0  0  0  0  0
  1  2  3  0
  2  3  1  0
  3  4  2  0
  4  5  1  0
  5  6  1  0
  6  7  1  0
  7  3  1  0
M  END
>  <Title>  (820) 
idABDTgen7

$$$$

     RDKit          2D

 37 41  0  0  0  0  0  0  0  0999 V2000
   -4.5120   -7.5641    0.0000 C   0  0  0  0  0  0  0  0  0  0  0  0
   -3.0203   -7.4073    0.0000 C   0  0  0  0  0  0  0  0  0  0  0  0
   -1.5285   -7.2506    0.0000 C   0  0  0  0  0  0  0  0  0  0  0  0
   -2.8635   -8.8991    0.0000 C   0  0  0  0  0  0  0  0  0  0  0  0
   -3.1771   -5.9156    0.0000 O   0  0  0  0  0  0  0  0  0  0  0  0
   -1.9635   -5.0339    0.0000 C   0  0  0  0  0  0  0  0  0  0  0  0
   -0.7500   -5.9156    0.0000 C   0  0  0  0  0  0  0  0  0  0  0  0
    0.7500   -5.9156    0.0000 C   0  0  0  0  0  0  0  0  0  0  0  0
    1.9635   -5.0339    0.0000 N   0  0  0  0  0  0  0  0  0  0  0  0
    3.1771   -5.9156    0.0000 C   0  0  0  0  0  0  0  0  0  0  0  0
    4.5474   -5.3055    0.0000 O   0  0  0  0  0  0  0  0  0  0  0  0
    3.0203   -7.4073    0.0000 N   0  0  0  0  0  0  0  0  0  0  0  0
    4.2338   -8.2890    0.0000 C   0  0  0  0  0  0  0  0  0  0  0  0
    4.0770   -9.7808    0.0000 N   0  0  0  0  0  0  0  0  0  0  0  0
    5.2905  -10.6625    0.0000 N   0  0  0  0  0  0  0  0  0  0  0  0
    6.6608  -10.0524    0.0000 N   0  0  0  0  0  0  0  0  0  0  0  0
    6.8176   -8.5606    0.0000 N   0  0  0  0  0  0  0  0  0  0  0  0
    5.6041   -7.6789    0.0000 N   0  0  0  0  0  0  0  0  0  0  0  0
    2.4271   -3.6073    0.0000 C   0  0  0  0  0  0  0  0  0  0  0  0
    3.8943   -3.9192    0.0000 C   0  0  0  0  0  0  0  0  0  0  0  0
    4.8980   -2.8045    0.0000 C   0  0  0  0  0  0  0  0  0  0  0  0
    4.4344   -1.3779    0.0000 C   0  0  0  0  0  0  0  0  0  0  0  0
    5.4381   -0.2631    0.0000 O   0  0  0  0  0  0  0  0  0  0  0  0
    2.9672   -1.0660    0.0000 C   0  0  0  0  0  0  0  0  0  0  0  0
    1.9635   -2.1807    0.0000 C   0  0  0  0  0  0  0  0  0  0  0  0
    0.7500   -1.2990    0.0000 C   0  0  0  0  0  0  0  0  0  0  0  0
    1.5000    0.0000    0.0000 C   0  0  0  0  0  0  0  0  0  0  0  0
    0.7500    1.2990    0.0000 C   0  0  0  0  0  0  0  0  0  0  0  0
   -0.7500    1.2990    0.0000 C   0  0  0  0  0  0  0  0  0  0  0  0
   -1.5000    0.0000    0.0000 C   0  0  0  0  0  0  0  0  0  0  0  0
   -0.7500   -1.2990    0.0000 C   0  0  0  0  0  0  0  0  0  0  0  0
   -1.9635   -2.1807    0.0000 C   0  0  0  0  0  0  0  0  0  0  0  0
   -2.9672   -1.0660    0.0000 C   0  0  0  0  0  0  0  0  0  0  0  0
   -4.4344   -1.3779    0.0000 C   0  0  0  0  0  0  0  0  0  0  0  0
   -4.8980   -2.8045    0.0000 C   0  0  0  0  0  0  0  0  0  0  0  0
   -3.8943   -3.9192    0.0000 C   0  0  0  0  0  0  0  0  0  0  0  0
   -2.4271   -3.6073    0.0000 C   0  0  0  0  0  0  0  0  0  0  0  0
  1  2  1  0
  2  3  1  0
  2  4  1  0
  2  5  1  0
  5  6  1  0
  6  7  1  0
  7  8  1  0
  8  9  1  0
  9 10  1  0
 10 11  2  0
 10 12  1  0
 12 13  1  0
 13 14  2  0
 14 15  1  0
 15 16  2  0
 16 17  1  0
 17 18  2  0
  9 19  1  0
 19 20  2  0
 20 21  1  0
 21 22  2  0
 22 23  1  0
 22 24  1  0
 24 25  2  0
 25 26  1  0
 26 27  2  0
 27 28  1  0
 28 29  2  0
 29 30  1  0
 30 31  2  0
 31 32  1  0
 32 33  2  0
 33 34  1  0
 34 35  2  0
 35 36  1  0
 36 37  2  0
 37  6  1  0
 18 13  1  0
 25 19  1  0
 31 26  1  0
 37 32  1  0
M  END
>  <Title>  (821) 
idABDUgen7

$$$$

     RDKit          2D

 49 56  0  0  0  0  0  0  0  0999 V2000
    4.3881   -6.6982    0.0000 C   0  0  0  0  0  0  0  0  0  0  0  0
    3.0367   -6.0474    0.0000 C   0  0  0  0  0  0  0  0  0  0  0  0
    3.3705   -4.5850    0.0000 C   0  0  0  0  0  0  0  0  0  0  0  0
    3.0367   -3.1226    0.0000 C   0  0  0  0  0  0  0  0  0  0  0  0
    2.1015   -1.9499    0.0000 C   0  0  0  0  0  0  0  0  0  0  0  0
    3.0367   -0.7771    0.0000 C   0  0  0  0  0  0  0  0  0  0  0  0
    2.4887    0.6192    0.0000 O   0  0  0  0  0  0  0  0  0  0  0  0
    4.5199   -1.0007    0.0000 N   0  0  0  0  0  0  0  0  0  0  0  0
    5.4552    0.1721    0.0000 C   0  0  0  0  0  0  0  0  0  0  0  0
    5.0561    1.6180    0.0000 N   0  0  0  0  0  0  0  0  0  0  0  0
    6.3080    2.4444    0.0000 N   0  0  0  0  0  0  0  0  0  0  0  0
    7.4807    1.5091    0.0000 N   0  0  0  0  0  0  0  0  0  0  0  0
    6.9537    0.1048    0.0000 N   0  0  0  0  0  0  0  0  0  0  0  0
    7.7800   -1.1471    0.0000 C   0  0  0  0  0  0  0  0  0  0  0  0
    7.1090   -2.4887    0.0000 C   0  0  0  0  0  0  0  0  0  0  0  0
    7.9354   -3.7405    0.0000 C   0  0  0  0  0  0  0  0  0  0  0  0
    9.4327   -3.6508    0.0000 C   0  0  0  0  0  0  0  0  0  0  0  0
   10.1037   -2.3092    0.0000 C   0  0  0  0  0  0  0  0  0  0  0  0
    9.2773   -1.0574    0.0000 C   0  0  0  0  0  0  0  0  0  0  0  0
    0.7500   -1.2990    0.0000 C   0  0  0  0  0  0  0  0  0  0  0  0
    1.5000    0.0000    0.0000 C   0  0  0  0  0  0  0  0  0  0  0  0
    0.7500    1.2990    0.0000 C   0  0  0  0  0  0  0  0  0  0  0  0
   -0.7500    1.2990    0.0000 C   0  0  0  0  0  0  0  0  0  0  0  0
   -1.5000    0.0000    0.0000 C   0  0  0  0  0  0  0  0  0  0  0  0
   -0.7500   -1.2990    0.0000 C   0  0  0  0  0  0  0  0  0  0  0  0
   -2.1015   -1.9499    0.0000 C   0  0  0  0  0  0  0  0  0  0  0  0
   -2.6495   -0.5536    0.0000 C   0  0  0  0  0  0  0  0  0  0  0  0
   -4.1327   -0.3300    0.0000 C   0  0  0  0  0  0  0  0  0  0  0  0
   -5.0679   -1.5027    0.0000 C   0  0  0  0  0  0  0  0  0  0  0  0
   -4.5199   -2.8990    0.0000 C   0  0  0  0  0  0  0  0  0  0  0  0
   -3.0367   -3.1226    0.0000 C   0  0  0  0  0  0  0  0  0  0  0  0
   -3.3705   -4.5850    0.0000 C   0  0  0  0  0  0  0  0  0  0  0  0
   -4.8038   -4.1429    0.0000 C   0  0  0  0  0  0  0  0  0  0  0  0
   -5.9034   -5.1631    0.0000 C   0  0  0  0  0  0  0  0  0  0  0  0
   -5.5696   -6.6255    0.0000 C   0  0  0  0  0  0  0  0  0  0  0  0
   -4.1363   -7.0677    0.0000 C   0  0  0  0  0  0  0  0  0  0  0  0
   -3.0367   -6.0474    0.0000 C   0  0  0  0  0  0  0  0  0  0  0  0
   -2.1015   -7.2201    0.0000 C   0  0  0  0  0  0  0  0  0  0  0  0
   -3.3408   -8.0651    0.0000 C   0  0  0  0  0  0  0  0  0  0  0  0
   -3.2287   -9.5609    0.0000 C   0  0  0  0  0  0  0  0  0  0  0  0
   -1.8773  -10.2118    0.0000 C   0  0  0  0  0  0  0  0  0  0  0  0
   -0.6379   -9.3668    0.0000 C   0  0  0  0  0  0  0  0  0  0  0  0
   -0.7500   -7.8710    0.0000 C   0  0  0  0  0  0  0  0  0  0  0  0
    0.7500   -7.8710    0.0000 C   0  0  0  0  0  0  0  0  0  0  0  0
    0.6379   -9.3668    0.0000 C   0  0  0  0  0  0  0  0  0  0  0  0
    1.8773  -10.2118    0.0000 C   0  0  0  0  0  0  0  0  0  0  0  0
    3.2287   -9.5609    0.0000 C   0  0  0  0  0  0  0  0  0  0  0  0
    3.3408   -8.0651    0.0000 C   0  0  0  0  0  0  0  0  0  0  0  0
    2.1015   -7.2201    0.0000 C   0  0  0  0  0  0  0  0  0  0  0  0
  1  2  1  0
  2  3  1  0
  3  4  1  0
  4  5  1  0
  5  6  1  0
  6  7  2  0
  6  8  1  0
  8  9  1  0
  9 10  2  0
 10 11  1  0
 11 12  2  0
 12 13  1  0
 13 14  1  0
 14 15  2  0
 15 16  1  0
 16 17  2  0
 17 18  1  0
 18 19  2  0
  5 20  1  0
 20 21  2  0
 21 22  1  0
 22 23  2  0
 23 24  1  0
 24 25  2  0
 25 26  1  0
 26 27  2  0
 27 28  1  0
 28 29  2  0
 29 30  1  0
 30 31  2  0
 31 32  1  0
 32 33  2  0
 33 34  1  0
 34 35  2  0
 35 36  1  0
 36 37  2  0
 37 38  1  0
 38 39  2  0
 39 40  1  0
 40 41  2  0
 41 42  1  0
 42 43  2  0
 43 44  1  0
 44 45  2  0
 45 46  1  0
 46 47  2  0
 47 48  1  0
 48 49  2  0
 49  2  1  0
 13  9  1  0
 19 14  1  0
 25 20  1  0
 31 26  1  0
 37 32  1  0
 43 38  1  0
 49 44  1  0
M  END
>  <Title>  (822) 
idABDVgen7

$$$$

     RDKit          2D

  7  7  0  0  0  0  0  0  0  0999 V2000
    4.2760   -0.0000    0.0000 N   0  0  0  0  0  0  0  0  0  0  0  0
    2.7760    0.0000    0.0000 C   0  0  0  0  0  0  0  0  0  0  0  0
    1.2760    0.0000    0.0000 C   0  0  0  0  0  0  0  0  0  0  0  0
    0.3943    1.2135    0.0000 C   0  0  0  0  0  0  0  0  0  0  0  0
   -1.0323    0.7500    0.0000 C   0  0  0  0  0  0  0  0  0  0  0  0
   -1.0323   -0.7500    0.0000 C   0  0  0  0  0  0  0  0  0  0  0  0
    0.3943   -1.2135    0.0000 C   0  0  0  0  0  0  0  0  0  0  0  0
  1  2  3  0
  2  3  1  0
  3  4  1  0
  4  5  1  0
  5  6  1  0
  6  7  1  0
  7  3  1  0
M  END
>  <Title>  (823) 
idABDWgen7

$$$$

     RDKit          2D

 10 10  0  0  0  0  0  0  0  0999 V2000
    8.7760   -0.0000    0.0000 O   0  0  0  0  0  0  0  0  0  0  0  0
    7.2760   -0.0000    0.0000 C   0  0  0  0  0  0  0  0  0  0  0  0
    5.7760   -0.0000    0.0000 C   0  0  0  0  0  0  0  0  0  0  0  0
    4.2760   -0.0000    0.0000 C   0  0  0  0  0  0  0  0  0  0  0  0
    2.7760    0.0000    0.0000 C   0  0  0  0  0  0  0  0  0  0  0  0
    1.2760    0.0000    0.0000 C   0  0  0  0  0  0  0  0  0  0  0  0
    0.3943    1.2135    0.0000 C   0  0  0  0  0  0  0  0  0  0  0  0
   -1.0323    0.7500    0.0000 C   0  0  0  0  0  0  0  0  0  0  0  0
   -1.0323   -0.7500    0.0000 C   0  0  0  0  0  0  0  0  0  0  0  0
    0.3943   -1.2135    0.0000 C   0  0  0  0  0  0  0  0  0  0  0  0
  1  2  1  0
  2  3  3  0
  3  4  1  0
  4  5  3  0
  5  6  1  0
  6  7  2  0
  7  8  1  0
  8  9  1  0
  9 10  1  0
 10  6  1  0
M  END
>  <Title>  (824) 
idABDXgen7

$$$$

     RDKit          2D

 78 80  0  0  0  0  0  0  0  0999 V2000
   -2.4661    0.0349    0.0000 C   0  0  0  0  0  0  0  0  0  0  0  0
   -2.2425   -1.4484    0.0000 C   0  0  0  0  0  0  0  0  0  0  0  0
   -3.7128   -1.7456    0.0000 C   0  0  0  0  0  0  0  0  0  0  0  0
   -5.1462   -2.1877    0.0000 C   0  0  0  0  0  0  0  0  0  0  0  0
   -6.5284   -2.7704    0.0000 C   0  0  0  0  0  0  0  0  0  0  0  0
   -7.8457   -3.4878    0.0000 C   0  0  0  0  0  0  0  0  0  0  0  0
   -9.0851   -4.3328    0.0000 C   0  0  0  0  0  0  0  0  0  0  0  0
  -10.2341   -5.2969    0.0000 C   0  0  0  0  0  0  0  0  0  0  0  0
  -11.2815   -6.3707    0.0000 C   0  0  0  0  0  0  0  0  0  0  0  0
  -12.2167   -7.5435    0.0000 C   0  0  0  0  0  0  0  0  0  0  0  0
  -13.0305   -8.8035    0.0000 C   0  0  0  0  0  0  0  0  0  0  0  0
  -13.7149  -10.1383    0.0000 C   0  0  0  0  0  0  0  0  0  0  0  0
  -14.2629  -11.5346    0.0000 C   0  0  0  0  0  0  0  0  0  0  0  0
  -14.6691  -12.9786    0.0000 C   0  0  0  0  0  0  0  0  0  0  0  0
  -14.9296  -14.4558    0.0000 C   0  0  0  0  0  0  0  0  0  0  0  0
  -15.0417  -15.9516    0.0000 C   0  0  0  0  0  0  0  0  0  0  0  0
  -15.0043  -17.4511    0.0000 C   0  0  0  0  0  0  0  0  0  0  0  0
  -14.8178  -18.9395    0.0000 C   0  0  0  0  0  0  0  0  0  0  0  0
  -14.4840  -20.4019    0.0000 C   0  0  0  0  0  0  0  0  0  0  0  0
  -14.0063  -21.8238    0.0000 C   0  0  0  0  0  0  0  0  0  0  0  0
  -13.3893  -23.1910    0.0000 C   0  0  0  0  0  0  0  0  0  0  0  0
  -12.6393  -24.4901    0.0000 C   0  0  0  0  0  0  0  0  0  0  0  0
  -11.7637  -25.7080    0.0000 C   0  0  0  0  0  0  0  0  0  0  0  0
  -10.7712  -26.8326    0.0000 C   0  0  0  0  0  0  0  0  0  0  0  0
   -9.6716  -27.8529    0.0000 C   0  0  0  0  0  0  0  0  0  0  0  0
   -8.4759  -28.7586    0.0000 C   0  0  0  0  0  0  0  0  0  0  0  0
   -7.1960  -29.5408    0.0000 C   0  0  0  0  0  0  0  0  0  0  0  0
   -5.8445  -30.1916    0.0000 C   0  0  0  0  0  0  0  0  0  0  0  0
   -4.4350  -30.7046    0.0000 C   0  0  0  0  0  0  0  0  0  0  0  0
   -2.9814  -31.0748    0.0000 C   0  0  0  0  0  0  0  0  0  0  0  0
   -1.4981  -31.2983    0.0000 C   0  0  0  0  0  0  0  0  0  0  0  0
   -0.0000  -31.3731    0.0000 C   0  0  0  0  0  0  0  0  0  0  0  0
    1.4981  -31.2983    0.0000 N   0  0  0  0  0  0  0  0  0  0  0  0
    1.6475  -32.7909    0.0000 C   0  0  0  0  0  0  0  0  0  0  0  0
    2.9814  -31.0748    0.0000 C   0  0  0  0  0  0  0  0  0  0  0  0
    4.4350  -30.7046    0.0000 C   0  0  0  0  0  0  0  0  0  0  0  0
    5.8445  -30.1916    0.0000 C   0  0  0  0  0  0  0  0  0  0  0  0
    7.1960  -29.5408    0.0000 C   0  0  0  0  0  0  0  0  0  0  0  0
    8.4759  -28.7586    0.0000 C   0  0  0  0  0  0  0  0  0  0  0  0
    9.6716  -27.8529    0.0000 C   0  0  0  0  0  0  0  0  0  0  0  0
   10.7712  -26.8326    0.0000 C   0  0  0  0  0  0  0  0  0  0  0  0
   11.7637  -25.7080    0.0000 C   0  0  0  0  0  0  0  0  0  0  0  0
   12.6393  -24.4901    0.0000 C   0  0  0  0  0  0  0  0  0  0  0  0
   13.3893  -23.1910    0.0000 C   0  0  0  0  0  0  0  0  0  0  0  0
   14.0063  -21.8238    0.0000 C   0  0  0  0  0  0  0  0  0  0  0  0
   14.4840  -20.4019    0.0000 C   0  0  0  0  0  0  0  0  0  0  0  0
   14.8178  -18.9395    0.0000 C   0  0  0  0  0  0  0  0  0  0  0  0
   15.0043  -17.4511    0.0000 C   0  0  0  0  0  0  0  0  0  0  0  0
   15.0417  -15.9516    0.0000 C   0  0  0  0  0  0  0  0  0  0  0  0
   14.9296  -14.4558    0.0000 C   0  0  0  0  0  0  0  0  0  0  0  0
   14.6691  -12.9786    0.0000 C   0  0  0  0  0  0  0  0  0  0  0  0
   14.2629  -11.5346    0.0000 C   0  0  0  0  0  0  0  0  0  0  0  0
   13.7149  -10.1383    0.0000 C   0  0  0  0  0  0  0  0  0  0  0  0
   13.0305   -8.8035    0.0000 C   0  0  0  0  0  0  0  0  0  0  0  0
   12.2167   -7.5435    0.0000 C   0  0  0  0  0  0  0  0  0  0  0  0
   11.2815   -6.3707    0.0000 C   0  0  0  0  0  0  0  0  0  0  0  0
   10.2341   -5.2969    0.0000 C   0  0  0  0  0  0  0  0  0  0  0  0
    9.0851   -4.3328    0.0000 C   0  0  0  0  0  0  0  0  0  0  0  0
    7.8457   -3.4878    0.0000 C   0  0  0  0  0  0  0  0  0  0  0  0
    6.5284   -2.7704    0.0000 C   0  0  0  0  0  0  0  0  0  0  0  0
    5.1462   -2.1877    0.0000 C   0  0  0  0  0  0  0  0  0  0  0  0
    3.7128   -1.7456    0.0000 C   0  0  0  0  0  0  0  0  0  0  0  0
    2.2425   -1.4484    0.0000 C   0  0  0  0  0  0  0  0  0  0  0  0
    2.4661    0.0349    0.0000 C   0  0  0  0  0  0  0  0  0  0  0  0
    1.5545    1.2261    0.0000 O   0  0  0  0  0  0  0  0  0  0  0  0
    3.8624    0.5829    0.0000 N   0  0  0  0  0  0  0  0  0  0  0  0
    4.0860    2.0661    0.0000 C   0  0  0  0  0  0  0  0  0  0  0  0
    5.4823    2.6141    0.0000 N   0  0  0  0  0  0  0  0  0  0  0  0
    5.7059    4.0974    0.0000 N   0  0  0  0  0  0  0  0  0  0  0  0
    4.5331    5.0326    0.0000 N   0  0  0  0  0  0  0  0  0  0  0  0
    3.1368    4.4846    0.0000 N   0  0  0  0  0  0  0  0  0  0  0  0
    2.9132    3.0013    0.0000 N   0  0  0  0  0  0  0  0  0  0  0  0
    0.7500   -1.2990    0.0000 C   0  0  0  0  0  0  0  0  0  0  0  0
    1.5000    0.0000    0.0000 C   0  0  0  0  0  0  0  0  0  0  0  0
    0.7500    1.2990    0.0000 C   0  0  0  0  0  0  0  0  0  0  0  0
   -0.7500    1.2990    0.0000 C   0  0  0  0  0  0  0  0  0  0  0  0
   -1.5000    0.0000    0.0000 C   0  0  0  0  0  0  0  0  0  0  0  0
   -0.7500   -1.2990    0.0000 C   0  0  0  0  0  0  0  0  0  0  0  0
  1  2  1  0
  2  3  1  0
  3  4  1  0
  4  5  1  0
  5  6  1  0
  6  7  1  0
  7  8  1  0
  8  9  1  0
  9 10  1  0
 10 11  1  0
 11 12  1  0
 12 13  1  0
 13 14  1  0
 14 15  1  0
 15 16  1  0
 16 17  1  0
 17 18  1  0
 18 19  1  0
 19 20  1  0
 20 21  1  0
 21 22  1  0
 22 23  1  0
 23 24  1  0
 24 25  1  0
 25 26  1  0
 26 27  1  0
 27 28  1  0
 28 29  1  0
 29 30  1  0
 30 31  1  0
 31 32  1  0
 32 33  1  0
 33 34  1  0
 33 35  1  0
 35 36  1  0
 36 37  1  0
 37 38  2  0
 38 39  1  0
 39 40  2  0
 40 41  1  0
 41 42  1  0
 42 43  1  0
 43 44  1  0
 44 45  1  0
 45 46  1  0
 46 47  1  0
 47 48  1  0
 48 49  1  0
 49 50  1  0
 50 51  1  0
 51 52  1  0
 52 53  1  0
 53 54  1  0
 54 55  1  0
 55 56  1  0
 56 57  1  0
 57 58  1  0
 58 59  2  0
 59 60  1  0
 60 61  2  0
 61 62  1  0
 62 63  2  0
 63 64  1  0
 64 65  2  0
 64 66  1  0
 66 67  1  0
 67 68  2  0
 68 69  1  0
 69 70  2  0
 70 71  1  0
 71 72  2  0
 63 73  1  0
 73 74  2  0
 74 75  1  0
 75 76  2  0
 76 77  1  0
 77 78  2  0
 78  2  1  0
 72 67  1  0
 78 73  1  0
M  END
>  <Title>  (825) 
idABDYgen7

$$$$

     RDKit          2D

 36 36  0  0  0  0  0  0  0  0999 V2000
    9.8669    0.0000    0.0000 C   0  0  0  0  0  0  0  0  0  0  0  0
    8.3669    0.0000    0.0000 C   0  0  0  0  0  0  0  0  0  0  0  0
    8.2324    1.4940    0.0000 C   0  0  0  0  0  0  0  0  0  0  0  0
    7.8334    2.9399    0.0000 C   0  0  0  0  0  0  0  0  0  0  0  0
    7.1825    4.2914    0.0000 C   0  0  0  0  0  0  0  0  0  0  0  0
    6.3008    5.5049    0.0000 C   0  0  0  0  0  0  0  0  0  0  0  0
    5.2167    6.5415    0.0000 C   0  0  0  0  0  0  0  0  0  0  0  0
    3.9648    7.3678    0.0000 C   0  0  0  0  0  0  0  0  0  0  0  0
    2.5855    7.9574    0.0000 C   0  0  0  0  0  0  0  0  0  0  0  0
    1.1231    8.2911    0.0000 C   0  0  0  0  0  0  0  0  0  0  0  0
   -0.3754    8.3584    0.0000 C   0  0  0  0  0  0  0  0  0  0  0  0
   -1.8618    8.1571    0.0000 C   0  0  0  0  0  0  0  0  0  0  0  0
   -3.2884    7.6936    0.0000 C   0  0  0  0  0  0  0  0  0  0  0  0
   -4.6093    6.9828    0.0000 C   0  0  0  0  0  0  0  0  0  0  0  0
   -5.7820    6.0475    0.0000 C   0  0  0  0  0  0  0  0  0  0  0  0
   -6.7689    4.9179    0.0000 C   0  0  0  0  0  0  0  0  0  0  0  0
   -7.5383    3.6302    0.0000 C   0  0  0  0  0  0  0  0  0  0  0  0
   -8.0653    2.2259    0.0000 C   0  0  0  0  0  0  0  0  0  0  0  0
   -8.3332    0.7500    0.0000 C   0  0  0  0  0  0  0  0  0  0  0  0
   -8.3332   -0.7500    0.0000 C   0  0  0  0  0  0  0  0  0  0  0  0
   -8.0653   -2.2259    0.0000 C   0  0  0  0  0  0  0  0  0  0  0  0
   -7.5383   -3.6302    0.0000 C   0  0  0  0  0  0  0  0  0  0  0  0
   -6.7689   -4.9179    0.0000 C   0  0  0  0  0  0  0  0  0  0  0  0
   -5.7820   -6.0475    0.0000 C   0  0  0  0  0  0  0  0  0  0  0  0
   -4.6093   -6.9828    0.0000 C   0  0  0  0  0  0  0  0  0  0  0  0
   -3.2884   -7.6936    0.0000 C   0  0  0  0  0  0  0  0  0  0  0  0
   -1.8618   -8.1571    0.0000 C   0  0  0  0  0  0  0  0  0  0  0  0
   -0.3754   -8.3584    0.0000 C   0  0  0  0  0  0  0  0  0  0  0  0
    1.1231   -8.2911    0.0000 C   0  0  0  0  0  0  0  0  0  0  0  0
    2.5855   -7.9574    0.0000 C   0  0  0  0  0  0  0  0  0  0  0  0
    3.9648   -7.3678    0.0000 C   0  0  0  0  0  0  0  0  0  0  0  0
    5.2167   -6.5415    0.0000 C   0  0  0  0  0  0  0  0  0  0  0  0
    6.3008   -5.5049    0.0000 C   0  0  0  0  0  0  0  0  0  0  0  0
    7.1825   -4.2914    0.0000 C   0  0  0  0  0  0  0  0  0  0  0  0
    7.8334   -2.9399    0.0000 C   0  0  0  0  0  0  0  0  0  0  0  0
    8.2324   -1.4940    0.0000 C   0  0  0  0  0  0  0  0  0  0  0  0
  1  2  1  0
  2  3  1  0
  3  4  1  0
  4  5  2  0
  5  6  1  0
  6  7  2  0
  7  8  1  0
  8  9  1  0
  9 10  1  0
 10 11  1  0
 11 12  1  0
 12 13  1  0
 13 14  1  0
 14 15  1  0
 15 16  1  0
 16 17  1  0
 17 18  1  0
 18 19  1  0
 19 20  1  0
 20 21  1  0
 21 22  1  0
 22 23  1  0
 23 24  1  0
 24 25  1  0
 25 26  1  0
 26 27  1  0
 27 28  1  0
 28 29  1  0
 29 30  1  0
 30 31  1  0
 31 32  1  0
 32 33  1  0
 33 34  1  0
 34 35  1  0
 35 36  1  0
 36  2  1  0
M  END
>  <Title>  (826) 
idABDZgen7

$$$$

     RDKit          2D

  8  8  0  0  0  0  0  0  0  0999 V2000
    4.5000    0.0000    0.0000 N   0  0  0  0  0  0  0  0  0  0  0  0
    3.0000    0.0000    0.0000 C   0  0  0  0  0  0  0  0  0  0  0  0
    1.5000    0.0000    0.0000 C   0  0  0  0  0  0  0  0  0  0  0  0
    0.7500   -1.2990    0.0000 C   0  0  0  0  0  0  0  0  0  0  0  0
   -0.7500   -1.2990    0.0000 C   0  0  0  0  0  0  0  0  0  0  0  0
   -1.5000    0.0000    0.0000 C   0  0  0  0  0  0  0  0  0  0  0  0
   -0.7500    1.2990    0.0000 C   0  0  0  0  0  0  0  0  0  0  0  0
    0.7500    1.2990    0.0000 C   0  0  0  0  0  0  0  0  0  0  0  0
  1  2  3  0
  2  3  1  0
  3  4  1  0
  4  5  2  0
  5  6  1  0
  6  7  2  0
  7  8  1  0
  8  3  1  0
M  END
>  <Title>  (827) 
idABEAgen7

$$$$

     RDKit          2D

108108  0  0  0  0  0  0  0  0999 V2000
   28.3093   -0.0000    0.0000 N   0  0  0  0  0  0  0  0  0  0  0  0
   26.8093    0.0000    0.0000 C   0  0  0  0  0  0  0  0  0  0  0  0
   25.3093    0.0000    0.0000 C   0  0  0  0  0  0  0  0  0  0  0  0
   25.2649   -1.4993    0.0000 C   0  0  0  0  0  0  0  0  0  0  0  0
   25.1317   -2.9934    0.0000 C   0  0  0  0  0  0  0  0  0  0  0  0
   24.9102   -4.4770    0.0000 C   0  0  0  0  0  0  0  0  0  0  0  0
   24.6013   -5.9448    0.0000 C   0  0  0  0  0  0  0  0  0  0  0  0
   24.2059   -7.3918    0.0000 C   0  0  0  0  0  0  0  0  0  0  0  0
   23.7255   -8.8128    0.0000 C   0  0  0  0  0  0  0  0  0  0  0  0
   23.1617  -10.2028    0.0000 C   0  0  0  0  0  0  0  0  0  0  0  0
   22.5166  -11.5570    0.0000 C   0  0  0  0  0  0  0  0  0  0  0  0
   21.7924  -12.8706    0.0000 C   0  0  0  0  0  0  0  0  0  0  0  0
   20.9917  -14.1390    0.0000 C   0  0  0  0  0  0  0  0  0  0  0  0
   20.1172  -15.3577    0.0000 C   0  0  0  0  0  0  0  0  0  0  0  0
   19.1721  -16.5225    0.0000 C   0  0  0  0  0  0  0  0  0  0  0  0
   18.1596  -17.6292    0.0000 C   0  0  0  0  0  0  0  0  0  0  0  0
   17.0834  -18.6741    0.0000 C   0  0  0  0  0  0  0  0  0  0  0  0
   15.9471  -19.6533    0.0000 C   0  0  0  0  0  0  0  0  0  0  0  0
   14.7548  -20.5635    0.0000 C   0  0  0  0  0  0  0  0  0  0  0  0
   13.5107  -21.4015    0.0000 C   0  0  0  0  0  0  0  0  0  0  0  0
   12.2192  -22.1643    0.0000 C   0  0  0  0  0  0  0  0  0  0  0  0
   10.8847  -22.8492    0.0000 C   0  0  0  0  0  0  0  0  0  0  0  0
    9.5119  -23.4539    0.0000 C   0  0  0  0  0  0  0  0  0  0  0  0
    8.1058  -23.9762    0.0000 C   0  0  0  0  0  0  0  0  0  0  0  0
    6.6712  -24.4143    0.0000 C   0  0  0  0  0  0  0  0  0  0  0  0
    5.2132  -24.7666    0.0000 C   0  0  0  0  0  0  0  0  0  0  0  0
    3.7368  -25.0320    0.0000 C   0  0  0  0  0  0  0  0  0  0  0  0
    2.2474  -25.2094    0.0000 C   0  0  0  0  0  0  0  0  0  0  0  0
    0.7500  -25.2982    0.0000 C   0  0  0  0  0  0  0  0  0  0  0  0
   -0.7500  -25.2982    0.0000 C   0  0  0  0  0  0  0  0  0  0  0  0
   -2.2474  -25.2094    0.0000 C   0  0  0  0  0  0  0  0  0  0  0  0
   -3.7368  -25.0320    0.0000 C   0  0  0  0  0  0  0  0  0  0  0  0
   -5.2132  -24.7666    0.0000 C   0  0  0  0  0  0  0  0  0  0  0  0
   -6.6712  -24.4143    0.0000 C   0  0  0  0  0  0  0  0  0  0  0  0
   -8.1058  -23.9762    0.0000 C   0  0  0  0  0  0  0  0  0  0  0  0
   -9.5119  -23.4539    0.0000 C   0  0  0  0  0  0  0  0  0  0  0  0
  -10.8847  -22.8492    0.0000 C   0  0  0  0  0  0  0  0  0  0  0  0
  -12.2192  -22.1643    0.0000 C   0  0  0  0  0  0  0  0  0  0  0  0
  -13.5107  -21.4015    0.0000 C   0  0  0  0  0  0  0  0  0  0  0  0
  -14.7548  -20.5635    0.0000 C   0  0  0  0  0  0  0  0  0  0  0  0
  -15.9471  -19.6533    0.0000 C   0  0  0  0  0  0  0  0  0  0  0  0
  -17.0834  -18.6741    0.0000 C   0  0  0  0  0  0  0  0  0  0  0  0
  -18.1596  -17.6292    0.0000 C   0  0  0  0  0  0  0  0  0  0  0  0
  -19.1721  -16.5225    0.0000 C   0  0  0  0  0  0  0  0  0  0  0  0
  -20.1172  -15.3577    0.0000 C   0  0  0  0  0  0  0  0  0  0  0  0
  -20.9917  -14.1390    0.0000 C   0  0  0  0  0  0  0  0  0  0  0  0
  -21.7924  -12.8706    0.0000 C   0  0  0  0  0  0  0  0  0  0  0  0
  -22.5166  -11.5570    0.0000 C   0  0  0  0  0  0  0  0  0  0  0  0
  -23.1617  -10.2028    0.0000 C   0  0  0  0  0  0  0  0  0  0  0  0
  -23.7255   -8.8128    0.0000 C   0  0  0  0  0  0  0  0  0  0  0  0
  -24.2059   -7.3918    0.0000 C   0  0  0  0  0  0  0  0  0  0  0  0
  -24.6013   -5.9448    0.0000 C   0  0  0  0  0  0  0  0  0  0  0  0
  -24.9102   -4.4770    0.0000 C   0  0  0  0  0  0  0  0  0  0  0  0
  -25.1317   -2.9934    0.0000 C   0  0  0  0  0  0  0  0  0  0  0  0
  -25.2649   -1.4993    0.0000 C   0  0  0  0  0  0  0  0  0  0  0  0
  -25.3093    0.0000    0.0000 C   0  0  0  0  0  0  0  0  0  0  0  0
  -25.2649    1.4993    0.0000 C   0  0  0  0  0  0  0  0  0  0  0  0
  -25.1317    2.9934    0.0000 C   0  0  0  0  0  0  0  0  0  0  0  0
  -24.9102    4.4770    0.0000 C   0  0  0  0  0  0  0  0  0  0  0  0
  -24.6013    5.9448    0.0000 C   0  0  0  0  0  0  0  0  0  0  0  0
  -24.2059    7.3918    0.0000 C   0  0  0  0  0  0  0  0  0  0  0  0
  -23.7255    8.8128    0.0000 C   0  0  0  0  0  0  0  0  0  0  0  0
  -23.1617   10.2028    0.0000 C   0  0  0  0  0  0  0  0  0  0  0  0
  -22.5166   11.5570    0.0000 C   0  0  0  0  0  0  0  0  0  0  0  0
  -21.7924   12.8706    0.0000 C   0  0  0  0  0  0  0  0  0  0  0  0
  -20.9917   14.1390    0.0000 C   0  0  0  0  0  0  0  0  0  0  0  0
  -20.1172   15.3577    0.0000 C   0  0  0  0  0  0  0  0  0  0  0  0
  -19.1721   16.5225    0.0000 C   0  0  0  0  0  0  0  0  0  0  0  0
  -18.1596   17.6292    0.0000 C   0  0  0  0  0  0  0  0  0  0  0  0
  -17.0834   18.6741    0.0000 C   0  0  0  0  0  0  0  0  0  0  0  0
  -15.9471   19.6533    0.0000 C   0  0  0  0  0  0  0  0  0  0  0  0
  -14.7548   20.5635    0.0000 C   0  0  0  0  0  0  0  0  0  0  0  0
  -13.5107   21.4015    0.0000 C   0  0  0  0  0  0  0  0  0  0  0  0
  -12.2192   22.1643    0.0000 C   0  0  0  0  0  0  0  0  0  0  0  0
  -10.8847   22.8492    0.0000 C   0  0  0  0  0  0  0  0  0  0  0  0
   -9.5119   23.4539    0.0000 C   0  0  0  0  0  0  0  0  0  0  0  0
   -8.1058   23.9762    0.0000 C   0  0  0  0  0  0  0  0  0  0  0  0
   -6.6712   24.4143    0.0000 C   0  0  0  0  0  0  0  0  0  0  0  0
   -5.2132   24.7666    0.0000 C   0  0  0  0  0  0  0  0  0  0  0  0
   -3.7368   25.0320    0.0000 C   0  0  0  0  0  0  0  0  0  0  0  0
   -2.2474   25.2094    0.0000 C   0  0  0  0  0  0  0  0  0  0  0  0
   -0.7500   25.2982    0.0000 C   0  0  0  0  0  0  0  0  0  0  0  0
    0.7500   25.2982    0.0000 C   0  0  0  0  0  0  0  0  0  0  0  0
    2.2474   25.2094    0.0000 C   0  0  0  0  0  0  0  0  0  0  0  0
    3.7368   25.0320    0.0000 C   0  0  0  0  0  0  0  0  0  0  0  0
    5.2132   24.7666    0.0000 C   0  0  0  0  0  0  0  0  0  0  0  0
    6.6712   24.4143    0.0000 C   0  0  0  0  0  0  0  0  0  0  0  0
    8.1058   23.9762    0.0000 C   0  0  0  0  0  0  0  0  0  0  0  0
    9.5119   23.4539    0.0000 C   0  0  0  0  0  0  0  0  0  0  0  0
   10.8847   22.8492    0.0000 C   0  0  0  0  0  0  0  0  0  0  0  0
   12.2192   22.1643    0.0000 C   0  0  0  0  0  0  0  0  0  0  0  0
   13.5107   21.4015    0.0000 C   0  0  0  0  0  0  0  0  0  0  0  0
   14.7548   20.5635    0.0000 C   0  0  0  0  0  0  0  0  0  0  0  0
   15.9471   19.6533    0.0000 C   0  0  0  0  0  0  0  0  0  0  0  0
   17.0834   18.6741    0.0000 C   0  0  0  0  0  0  0  0  0  0  0  0
   18.1596   17.6292    0.0000 C   0  0  0  0  0  0  0  0  0  0  0  0
   19.1721   16.5225    0.0000 C   0  0  0  0  0  0  0  0  0  0  0  0
   20.1172   15.3577    0.0000 C   0  0  0  0  0  0  0  0  0  0  0  0
   20.9917   14.1390    0.0000 C   0  0  0  0  0  0  0  0  0  0  0  0
   21.7924   12.8706    0.0000 C   0  0  0  0  0  0  0  0  0  0  0  0
   22.5166   11.5570    0.0000 C   0  0  0  0  0  0  0  0  0  0  0  0
   23.1617   10.2028    0.0000 C   0  0  0  0  0  0  0  0  0  0  0  0
   23.7255    8.8128    0.0000 C   0  0  0  0  0  0  0  0  0  0  0  0
   24.2059    7.3918    0.0000 C   0  0  0  0  0  0  0  0  0  0  0  0
   24.6013    5.9448    0.0000 C   0  0  0  0  0  0  0  0  0  0  0  0
   24.9102    4.4770    0.0000 C   0  0  0  0  0  0  0  0  0  0  0  0
   25.1317    2.9934    0.0000 C   0  0  0  0  0  0  0  0  0  0  0  0
   25.2649    1.4993    0.0000 C   0  0  0  0  0  0  0  0  0  0  0  0
  1  2  3  0
  2  3  1  0
  3  4  1  0
  4  5  1  0
  5  6  1  0
  6  7  1  0
  7  8  1  0
  8  9  1  0
  9 10  1  0
 10 11  1  0
 11 12  1  0
 12 13  1  0
 13 14  1  0
 14 15  1  0
 15 16  1  0
 16 17  1  0
 17 18  1  0
 18 19  1  0
 19 20  1  0
 20 21  1  0
 21 22  1  0
 22 23  1  0
 23 24  1  0
 24 25  1  0
 25 26  1  0
 26 27  1  0
 27 28  1  0
 28 29  1  0
 29 30  1  0
 30 31  1  0
 31 32  1  0
 32 33  1  0
 33 34  1  0
 34 35  1  0
 35 36  1  0
 36 37  1  0
 37 38  1  0
 38 39  1  0
 39 40  1  0
 40 41  1  0
 41 42  1  0
 42 43  1  0
 43 44  1  0
 44 45  1  0
 45 46  1  0
 46 47  1  0
 47 48  1  0
 48 49  1  0
 49 50  1  0
 50 51  1  0
 51 52  1  0
 52 53  1  0
 53 54  1  0
 54 55  1  0
 55 56  1  0
 56 57  1  0
 57 58  1  0
 58 59  1  0
 59 60  1  0
 60 61  1  0
 61 62  1  0
 62 63  1  0
 63 64  1  0
 64 65  1  0
 65 66  1  0
 66 67  1  0
 67 68  1  0
 68 69  1  0
 69 70  1  0
 70 71  1  0
 71 72  1  0
 72 73  1  0
 73 74  1  0
 74 75  1  0
 75 76  1  0
 76 77  1  0
 77 78  1  0
 78 79  1  0
 79 80  1  0
 80 81  1  0
 81 82  1  0
 82 83  1  0
 83 84  1  0
 84 85  1  0
 85 86  1  0
 86 87  1  0
 87 88  1  0
 88 89  1  0
 89 90  1  0
 90 91  1  0
 91 92  1  0
 92 93  1  0
 93 94  1  0
 94 95  1  0
 95 96  1  0
 96 97  1  0
 97 98  1  0
 98 99  1  0
 99100  1  0
100101  1  0
101102  1  0
102103  1  0
103104  1  0
104105  1  0
105106  1  0
106107  1  0
107108  1  0
108  3  1  0
M  END
>  <Title>  (828) 
idABEBgen7

$$$$

     RDKit          2D

 76 76  0  0  0  0  0  0  0  0999 V2000
   18.1488    0.0000    0.0000 C   0  0  0  0  0  0  0  0  0  0  0  0
   18.0868   -1.4987    0.0000 C   0  0  0  0  0  0  0  0  0  0  0  0
   17.9013   -2.9872    0.0000 C   0  0  0  0  0  0  0  0  0  0  0  0
   17.5935   -4.4553    0.0000 C   0  0  0  0  0  0  0  0  0  0  0  0
   17.1655   -5.8929    0.0000 C   0  0  0  0  0  0  0  0  0  0  0  0
   16.6202   -7.2903    0.0000 C   0  0  0  0  0  0  0  0  0  0  0  0
   15.9614   -8.6379    0.0000 C   0  0  0  0  0  0  0  0  0  0  0  0
   15.1936   -9.9265    0.0000 C   0  0  0  0  0  0  0  0  0  0  0  0
   14.3220  -11.1472    0.0000 C   0  0  0  0  0  0  0  0  0  0  0  0
   13.3525  -12.2919    0.0000 C   0  0  0  0  0  0  0  0  0  0  0  0
   12.2919  -13.3525    0.0000 C   0  0  0  0  0  0  0  0  0  0  0  0
   11.1472  -14.3220    0.0000 C   0  0  0  0  0  0  0  0  0  0  0  0
    9.9265  -15.1936    0.0000 C   0  0  0  0  0  0  0  0  0  0  0  0
    8.6379  -15.9614    0.0000 C   0  0  0  0  0  0  0  0  0  0  0  0
    7.2903  -16.6202    0.0000 C   0  0  0  0  0  0  0  0  0  0  0  0
    5.8929  -17.1655    0.0000 C   0  0  0  0  0  0  0  0  0  0  0  0
    4.4553  -17.5935    0.0000 C   0  0  0  0  0  0  0  0  0  0  0  0
    2.9872  -17.9013    0.0000 C   0  0  0  0  0  0  0  0  0  0  0  0
    1.4987  -18.0868    0.0000 C   0  0  0  0  0  0  0  0  0  0  0  0
   -0.0000  -18.1488    0.0000 C   0  0  0  0  0  0  0  0  0  0  0  0
   -1.4987  -18.0868    0.0000 C   0  0  0  0  0  0  0  0  0  0  0  0
   -2.9872  -17.9013    0.0000 C   0  0  0  0  0  0  0  0  0  0  0  0
   -4.4553  -17.5935    0.0000 C   0  0  0  0  0  0  0  0  0  0  0  0
   -5.8929  -17.1655    0.0000 C   0  0  0  0  0  0  0  0  0  0  0  0
   -7.2903  -16.6202    0.0000 C   0  0  0  0  0  0  0  0  0  0  0  0
   -8.6379  -15.9614    0.0000 C   0  0  0  0  0  0  0  0  0  0  0  0
   -9.9265  -15.1936    0.0000 C   0  0  0  0  0  0  0  0  0  0  0  0
  -11.1472  -14.3220    0.0000 C   0  0  0  0  0  0  0  0  0  0  0  0
  -12.2919  -13.3525    0.0000 C   0  0  0  0  0  0  0  0  0  0  0  0
  -13.3525  -12.2919    0.0000 C   0  0  0  0  0  0  0  0  0  0  0  0
  -14.3220  -11.1472    0.0000 C   0  0  0  0  0  0  0  0  0  0  0  0
  -15.1936   -9.9265    0.0000 C   0  0  0  0  0  0  0  0  0  0  0  0
  -15.9614   -8.6379    0.0000 C   0  0  0  0  0  0  0  0  0  0  0  0
  -16.6202   -7.2903    0.0000 C   0  0  0  0  0  0  0  0  0  0  0  0
  -17.1655   -5.8929    0.0000 C   0  0  0  0  0  0  0  0  0  0  0  0
  -17.5935   -4.4553    0.0000 C   0  0  0  0  0  0  0  0  0  0  0  0
  -17.9013   -2.9872    0.0000 C   0  0  0  0  0  0  0  0  0  0  0  0
  -18.0868   -1.4987    0.0000 C   0  0  0  0  0  0  0  0  0  0  0  0
  -18.1488    0.0000    0.0000 C   0  0  0  0  0  0  0  0  0  0  0  0
  -18.0868    1.4987    0.0000 C   0  0  0  0  0  0  0  0  0  0  0  0
  -17.9013    2.9872    0.0000 C   0  0  0  0  0  0  0  0  0  0  0  0
  -17.5935    4.4553    0.0000 C   0  0  0  0  0  0  0  0  0  0  0  0
  -17.1655    5.8929    0.0000 C   0  0  0  0  0  0  0  0  0  0  0  0
  -16.6202    7.2903    0.0000 C   0  0  0  0  0  0  0  0  0  0  0  0
  -15.9614    8.6379    0.0000 C   0  0  0  0  0  0  0  0  0  0  0  0
  -15.1936    9.9265    0.0000 C   0  0  0  0  0  0  0  0  0  0  0  0
  -14.3220   11.1472    0.0000 C   0  0  0  0  0  0  0  0  0  0  0  0
  -13.3525   12.2919    0.0000 C   0  0  0  0  0  0  0  0  0  0  0  0
  -12.2919   13.3525    0.0000 C   0  0  0  0  0  0  0  0  0  0  0  0
  -11.1472   14.3220    0.0000 C   0  0  0  0  0  0  0  0  0  0  0  0
   -9.9265   15.1936    0.0000 C   0  0  0  0  0  0  0  0  0  0  0  0
   -8.6379   15.9614    0.0000 C   0  0  0  0  0  0  0  0  0  0  0  0
   -7.2903   16.6202    0.0000 C   0  0  0  0  0  0  0  0  0  0  0  0
   -5.8929   17.1655    0.0000 C   0  0  0  0  0  0  0  0  0  0  0  0
   -4.4553   17.5935    0.0000 C   0  0  0  0  0  0  0  0  0  0  0  0
   -2.9872   17.9013    0.0000 C   0  0  0  0  0  0  0  0  0  0  0  0
   -1.4987   18.0868    0.0000 C   0  0  0  0  0  0  0  0  0  0  0  0
    0.0000   18.1488    0.0000 C   0  0  0  0  0  0  0  0  0  0  0  0
    1.4987   18.0868    0.0000 C   0  0  0  0  0  0  0  0  0  0  0  0
    2.9872   17.9013    0.0000 C   0  0  0  0  0  0  0  0  0  0  0  0
    4.4553   17.5935    0.0000 C   0  0  0  0  0  0  0  0  0  0  0  0
    5.8929   17.1655    0.0000 C   0  0  0  0  0  0  0  0  0  0  0  0
    7.2903   16.6202    0.0000 C   0  0  0  0  0  0  0  0  0  0  0  0
    8.6379   15.9614    0.0000 C   0  0  0  0  0  0  0  0  0  0  0  0
    9.9265   15.1936    0.0000 C   0  0  0  0  0  0  0  0  0  0  0  0
   11.1472   14.3220    0.0000 C   0  0  0  0  0  0  0  0  0  0  0  0
   12.2919   13.3525    0.0000 C   0  0  0  0  0  0  0  0  0  0  0  0
   13.3525   12.2919    0.0000 C   0  0  0  0  0  0  0  0  0  0  0  0
   14.3220   11.1472    0.0000 C   0  0  0  0  0  0  0  0  0  0  0  0
   15.1936    9.9265    0.0000 C   0  0  0  0  0  0  0  0  0  0  0  0
   15.9614    8.6379    0.0000 C   0  0  0  0  0  0  0  0  0  0  0  0
   16.6202    7.2903    0.0000 C   0  0  0  0  0  0  0  0  0  0  0  0
   17.1655    5.8929    0.0000 C   0  0  0  0  0  0  0  0  0  0  0  0
   17.5935    4.4553    0.0000 C   0  0  0  0  0  0  0  0  0  0  0  0
   17.9013    2.9872    0.0000 C   0  0  0  0  0  0  0  0  0  0  0  0
   18.0868    1.4987    0.0000 C   0  0  0  0  0  0  0  0  0  0  0  0
  1  2  1  0
  2  3  1  0
  3  4  1  0
  4  5  1  0
  5  6  1  0
  6  7  1  0
  7  8  1  0
  8  9  1  0
  9 10  1  0
 10 11  1  0
 11 12  1  0
 12 13  1  0
 13 14  1  0
 14 15  1  0
 15 16  1  0
 16 17  1  0
 17 18  1  0
 18 19  1  0
 19 20  1  0
 20 21  1  0
 21 22  1  0
 22 23  1  0
 23 24  1  0
 24 25  1  0
 25 26  1  0
 26 27  1  0
 27 28  1  0
 28 29  1  0
 29 30  1  0
 30 31  1  0
 31 32  1  0
 32 33  1  0
 33 34  1  0
 34 35  1  0
 35 36  1  0
 36 37  1  0
 37 38  1  0
 38 39  1  0
 39 40  1  0
 40 41  1  0
 41 42  1  0
 42 43  1  0
 43 44  1  0
 44 45  1  0
 45 46  1  0
 46 47  1  0
 47 48  1  0
 48 49  1  0
 49 50  1  0
 50 51  1  0
 51 52  1  0
 52 53  1  0
 53 54  1  0
 54 55  1  0
 55 56  1  0
 56 57  1  0
 57 58  1  0
 58 59  1  0
 59 60  1  0
 60 61  1  0
 61 62  1  0
 62 63  1  0
 63 64  1  0
 64 65  1  0
 65 66  1  0
 66 67  1  0
 67 68  1  0
 68 69  1  0
 69 70  1  0
 70 71  1  0
 71 72  1  0
 72 73  1  0
 73 74  1  0
 74 75  1  0
 75 76  1  0
 76  1  1  0
M  END
>  <Title>  (829) 
idABECgen7

$$$$

     RDKit          2D

 11 11  0  0  0  0  0  0  0  0999 V2000
    3.2286   -0.0000    0.0000 C   0  0  0  0  0  0  0  0  0  0  0  0
    1.7286    0.0000    0.0000 C   0  0  0  0  0  0  0  0  0  0  0  0
    1.0777    1.3515    0.0000 C   0  0  0  0  0  0  0  0  0  0  0  0
   -0.3846    1.6852    0.0000 C   0  0  0  0  0  0  0  0  0  0  0  0
   -1.5574    0.7500    0.0000 C   0  0  0  0  0  0  0  0  0  0  0  0
   -1.5574   -0.7500    0.0000 C   0  0  0  0  0  0  0  0  0  0  0  0
   -0.3846   -1.6852    0.0000 C   0  0  0  0  0  0  0  0  0  0  0  0
   -0.7184   -3.1476    0.0000 C   0  0  0  0  0  0  0  0  0  0  0  0
   -2.1518   -3.5898    0.0000 N   0  0  0  0  0  0  0  0  0  0  0  0
    0.3812   -4.1679    0.0000 O   0  0  0  0  0  0  0  0  0  0  0  0
    1.0777   -1.3515    0.0000 C   0  0  0  0  0  0  0  0  0  0  0  0
  1  2  1  0
  2  3  1  0
  3  4  1  0
  4  5  1  0
  5  6  1  0
  6  7  1  0
  7  8  1  0
  8  9  1  0
  8 10  2  0
  7 11  1  0
 11  2  1  0
M  END
>  <Title>  (830) 
idABEDgen7

$$$$

     RDKit          2D

 91 96  0  0  0  0  0  0  0  0999 V2000
  -11.2544   -4.1974    0.0000 C   0  0  0  0  0  0  0  0  0  0  0  0
  -10.2341   -5.2969    0.0000 C   0  0  0  0  0  0  0  0  0  0  0  0
  -11.2815   -6.3707    0.0000 C   0  0  0  0  0  0  0  0  0  0  0  0
  -12.2167   -7.5435    0.0000 C   0  0  0  0  0  0  0  0  0  0  0  0
  -13.0305   -8.8035    0.0000 C   0  0  0  0  0  0  0  0  0  0  0  0
  -13.7149  -10.1383    0.0000 C   0  0  0  0  0  0  0  0  0  0  0  0
  -14.2629  -11.5346    0.0000 C   0  0  0  0  0  0  0  0  0  0  0  0
  -14.6691  -12.9786    0.0000 C   0  0  0  0  0  0  0  0  0  0  0  0
  -14.9296  -14.4558    0.0000 C   0  0  0  0  0  0  0  0  0  0  0  0
  -15.0417  -15.9516    0.0000 C   0  0  0  0  0  0  0  0  0  0  0  0
  -15.0043  -17.4511    0.0000 C   0  0  0  0  0  0  0  0  0  0  0  0
  -14.8178  -18.9395    0.0000 C   0  0  0  0  0  0  0  0  0  0  0  0
  -14.4840  -20.4019    0.0000 C   0  0  0  0  0  0  0  0  0  0  0  0
  -14.0063  -21.8238    0.0000 C   0  0  0  0  0  0  0  0  0  0  0  0
  -13.3893  -23.1910    0.0000 C   0  0  0  0  0  0  0  0  0  0  0  0
  -12.6393  -24.4901    0.0000 C   0  0  0  0  0  0  0  0  0  0  0  0
  -11.7637  -25.7080    0.0000 C   0  0  0  0  0  0  0  0  0  0  0  0
  -10.7712  -26.8326    0.0000 C   0  0  0  0  0  0  0  0  0  0  0  0
   -9.6716  -27.8529    0.0000 C   0  0  0  0  0  0  0  0  0  0  0  0
   -8.4759  -28.7586    0.0000 C   0  0  0  0  0  0  0  0  0  0  0  0
   -7.1960  -29.5408    0.0000 C   0  0  0  0  0  0  0  0  0  0  0  0
   -5.8445  -30.1916    0.0000 C   0  0  0  0  0  0  0  0  0  0  0  0
   -4.4350  -30.7046    0.0000 C   0  0  0  0  0  0  0  0  0  0  0  0
   -2.9814  -31.0748    0.0000 C   0  0  0  0  0  0  0  0  0  0  0  0
   -1.4981  -31.2983    0.0000 C   0  0  0  0  0  0  0  0  0  0  0  0
   -0.0000  -31.3731    0.0000 C   0  0  0  0  0  0  0  0  0  0  0  0
    1.4981  -31.2983    0.0000 C   0  0  0  0  0  0  0  0  0  0  0  0
    2.9814  -31.0748    0.0000 C   0  0  0  0  0  0  0  0  0  0  0  0
    4.4350  -30.7046    0.0000 C   0  0  0  0  0  0  0  0  0  0  0  0
    5.8445  -30.1916    0.0000 C   0  0  0  0  0  0  0  0  0  0  0  0
    7.1960  -29.5408    0.0000 C   0  0  0  0  0  0  0  0  0  0  0  0
    8.4759  -28.7586    0.0000 C   0  0  0  0  0  0  0  0  0  0  0  0
    9.6716  -27.8529    0.0000 C   0  0  0  0  0  0  0  0  0  0  0  0
   10.7712  -26.8326    0.0000 C   0  0  0  0  0  0  0  0  0  0  0  0
   11.7637  -25.7080    0.0000 C   0  0  0  0  0  0  0  0  0  0  0  0
   12.6393  -24.4901    0.0000 C   0  0  0  0  0  0  0  0  0  0  0  0
   13.3893  -23.1910    0.0000 C   0  0  0  0  0  0  0  0  0  0  0  0
   14.0063  -21.8238    0.0000 C   0  0  0  0  0  0  0  0  0  0  0  0
   14.4840  -20.4019    0.0000 C   0  0  0  0  0  0  0  0  0  0  0  0
   14.8178  -18.9395    0.0000 C   0  0  0  0  0  0  0  0  0  0  0  0
   15.0043  -17.4511    0.0000 C   0  0  0  0  0  0  0  0  0  0  0  0
   15.0417  -15.9516    0.0000 C   0  0  0  0  0  0  0  0  0  0  0  0
   14.9296  -14.4558    0.0000 C   0  0  0  0  0  0  0  0  0  0  0  0
   14.6691  -12.9786    0.0000 C   0  0  0  0  0  0  0  0  0  0  0  0
   14.2629  -11.5346    0.0000 C   0  0  0  0  0  0  0  0  0  0  0  0
   13.7149  -10.1383    0.0000 C   0  0  0  0  0  0  0  0  0  0  0  0
   13.0305   -8.8035    0.0000 C   0  0  0  0  0  0  0  0  0  0  0  0
   12.2167   -7.5435    0.0000 C   0  0  0  0  0  0  0  0  0  0  0  0
   11.2815   -6.3707    0.0000 C   0  0  0  0  0  0  0  0  0  0  0  0
   10.2341   -5.2969    0.0000 C   0  0  0  0  0  0  0  0  0  0  0  0
    9.0851   -4.3328    0.0000 C   0  0  0  0  0  0  0  0  0  0  0  0
    7.8457   -3.4878    0.0000 C   0  0  0  0  0  0  0  0  0  0  0  0
    6.5284   -2.7704    0.0000 C   0  0  0  0  0  0  0  0  0  0  0  0
    5.1462   -2.1877    0.0000 C   0  0  0  0  0  0  0  0  0  0  0  0
    3.7128   -1.7456    0.0000 C   0  0  0  0  0  0  0  0  0  0  0  0
    2.2425   -1.4484    0.0000 C   0  0  0  0  0  0  0  0  0  0  0  0
    2.4661    0.0349    0.0000 C   0  0  0  0  0  0  0  0  0  0  0  0
    3.8624    0.5829    0.0000 C   0  0  0  0  0  0  0  0  0  0  0  0
    4.0860    2.0661    0.0000 C   0  0  0  0  0  0  0  0  0  0  0  0
    2.9132    3.0013    0.0000 O   0  0  0  0  0  0  0  0  0  0  0  0
    5.4823    2.6141    0.0000 N   0  0  0  0  0  0  0  0  0  0  0  0
    5.7059    4.0974    0.0000 C   0  0  0  0  0  0  0  0  0  0  0  0
    7.1022    4.6454    0.0000 N   0  0  0  0  0  0  0  0  0  0  0  0
    7.3257    6.1286    0.0000 N   0  0  0  0  0  0  0  0  0  0  0  0
    6.1530    7.0639    0.0000 N   0  0  0  0  0  0  0  0  0  0  0  0
    4.7567    6.5159    0.0000 N   0  0  0  0  0  0  0  0  0  0  0  0
    4.5331    5.0326    0.0000 N   0  0  0  0  0  0  0  0  0  0  0  0
    0.7500   -1.2990    0.0000 C   0  0  0  0  0  0  0  0  0  0  0  0
    1.5000    0.0000    0.0000 C   0  0  0  0  0  0  0  0  0  0  0  0
    0.7500    1.2990    0.0000 C   0  0  0  0  0  0  0  0  0  0  0  0
   -0.7500    1.2990    0.0000 C   0  0  0  0  0  0  0  0  0  0  0  0
   -1.5000    0.0000    0.0000 C   0  0  0  0  0  0  0  0  0  0  0  0
   -0.7500   -1.2990    0.0000 C   0  0  0  0  0  0  0  0  0  0  0  0
   -2.2425   -1.4484    0.0000 C   0  0  0  0  0  0  0  0  0  0  0  0
   -1.2500   -2.5731    0.0000 C   0  0  0  0  0  0  0  0  0  0  0  0
   -1.7277   -3.9950    0.0000 C   0  0  0  0  0  0  0  0  0  0  0  0
   -3.1980   -4.2922    0.0000 C   0  0  0  0  0  0  0  0  0  0  0  0
   -4.1905   -3.1675    0.0000 C   0  0  0  0  0  0  0  0  0  0  0  0
   -3.7128   -1.7456    0.0000 C   0  0  0  0  0  0  0  0  0  0  0  0
   -5.1462   -2.1877    0.0000 C   0  0  0  0  0  0  0  0  0  0  0  0
   -4.9596   -0.6994    0.0000 C   0  0  0  0  0  0  0  0  0  0  0  0
   -6.1553    0.2063    0.0000 C   0  0  0  0  0  0  0  0  0  0  0  0
   -7.5376   -0.3763    0.0000 C   0  0  0  0  0  0  0  0  0  0  0  0
   -7.7241   -1.8647    0.0000 C   0  0  0  0  0  0  0  0  0  0  0  0
   -6.5284   -2.7704    0.0000 C   0  0  0  0  0  0  0  0  0  0  0  0
   -7.8457   -3.4878    0.0000 C   0  0  0  0  0  0  0  0  0  0  0  0
   -6.4943   -4.1386    0.0000 C   0  0  0  0  0  0  0  0  0  0  0  0
   -6.3822   -5.6344    0.0000 C   0  0  0  0  0  0  0  0  0  0  0  0
   -7.6215   -6.4794    0.0000 C   0  0  0  0  0  0  0  0  0  0  0  0
   -8.9730   -5.8286    0.0000 C   0  0  0  0  0  0  0  0  0  0  0  0
   -9.0851   -4.3328    0.0000 C   0  0  0  0  0  0  0  0  0  0  0  0
  1  2  1  0
  2  3  1  0
  3  4  1  0
  4  5  1  0
  5  6  1  0
  6  7  1  0
  7  8  1  0
  8  9  1  0
  9 10  1  0
 10 11  1  0
 11 12  1  0
 12 13  1  0
 13 14  1  0
 14 15  1  0
 15 16  1  0
 16 17  1  0
 17 18  1  0
 18 19  1  0
 19 20  1  0
 20 21  1  0
 21 22  1  0
 22 23  1  0
 23 24  1  0
 24 25  1  0
 25 26  1  0
 26 27  1  0
 27 28  1  0
 28 29  1  0
 29 30  1  0
 30 31  1  0
 31 32  1  0
 32 33  1  0
 33 34  1  0
 34 35  1  0
 35 36  1  0
 36 37  1  0
 37 38  1  0
 38 39  1  0
 39 40  1  0
 40 41  1  0
 41 42  1  0
 42 43  1  0
 43 44  1  0
 44 45  1  0
 45 46  1  0
 46 47  1  0
 47 48  1  0
 48 49  1  0
 49 50  1  0
 50 51  1  0
 51 52  1  0
 52 53  1  0
 53 54  1  0
 54 55  1  0
 55 56  1  0
 56 57  1  0
 57 58  1  0
 58 59  1  0
 59 60  2  0
 59 61  1  0
 61 62  1  0
 62 63  2  0
 63 64  1  0
 64 65  2  0
 65 66  1  0
 66 67  2  0
 56 68  1  0
 68 69  2  0
 69 70  1  0
 70 71  2  0
 71 72  1  0
 72 73  2  0
 73 74  1  0
 74 75  2  0
 75 76  1  0
 76 77  2  0
 77 78  1  0
 78 79  2  0
 79 80  1  0
 80 81  2  0
 81 82  1  0
 82 83  2  0
 83 84  1  0
 84 85  2  0
 85 86  1  0
 86 87  2  0
 87 88  1  0
 88 89  2  0
 89 90  1  0
 90 91  2  0
 91  2  1  0
 67 62  1  0
 73 68  1  0
 79 74  1  0
 85 80  1  0
 91 86  1  0
M  END
>  <Title>  (831) 
idABEEgen7

$$$$

     RDKit          2D

 10 10  0  0  0  0  0  0  0  0999 V2000
    3.9786    1.2990    0.0000 O   0  0  0  0  0  0  0  0  0  0  0  0
    3.2286   -0.0000    0.0000 C   0  0  0  0  0  0  0  0  0  0  0  0
    3.9786   -1.2990    0.0000 O   0  0  0  0  0  0  0  0  0  0  0  0
    1.7286    0.0000    0.0000 C   0  0  0  0  0  0  0  0  0  0  0  0
    1.0777    1.3515    0.0000 C   0  0  0  0  0  0  0  0  0  0  0  0
   -0.3846    1.6852    0.0000 C   0  0  0  0  0  0  0  0  0  0  0  0
   -1.5574    0.7500    0.0000 C   0  0  0  0  0  0  0  0  0  0  0  0
   -1.5574   -0.7500    0.0000 C   0  0  0  0  0  0  0  0  0  0  0  0
   -0.3846   -1.6852    0.0000 C   0  0  0  0  0  0  0  0  0  0  0  0
    1.0777   -1.3515    0.0000 C   0  0  0  0  0  0  0  0  0  0  0  0
  1  2  2  0
  2  3  1  0
  2  4  1  0
  4  5  1  0
  5  6  1  0
  6  7  1  0
  7  8  1  0
  8  9  1  0
  9 10  1  0
 10  4  1  0
M  END
>  <Title>  (832) 
idABEFgen7

$$$$

     RDKit          2D

 50 52  0  0  0  0  0  0  0  0999 V2000
   -2.6249   -0.1209    0.0000 C   0  0  0  0  0  0  0  0  0  0  0  0
   -2.2259   -1.5669    0.0000 C   0  0  0  0  0  0  0  0  0  0  0  0
   -3.6302   -2.0939    0.0000 C   0  0  0  0  0  0  0  0  0  0  0  0
   -4.9179   -2.8633    0.0000 C   0  0  0  0  0  0  0  0  0  0  0  0
   -6.0475   -3.8502    0.0000 C   0  0  0  0  0  0  0  0  0  0  0  0
   -6.9828   -5.0229    0.0000 C   0  0  0  0  0  0  0  0  0  0  0  0
   -7.6936   -6.3438    0.0000 C   0  0  0  0  0  0  0  0  0  0  0  0
   -8.1571   -7.7704    0.0000 C   0  0  0  0  0  0  0  0  0  0  0  0
   -8.3584   -9.2568    0.0000 C   0  0  0  0  0  0  0  0  0  0  0  0
   -8.2911  -10.7553    0.0000 C   0  0  0  0  0  0  0  0  0  0  0  0
   -7.9574  -12.2177    0.0000 C   0  0  0  0  0  0  0  0  0  0  0  0
   -7.3678  -13.5970    0.0000 C   0  0  0  0  0  0  0  0  0  0  0  0
   -6.5415  -14.8489    0.0000 C   0  0  0  0  0  0  0  0  0  0  0  0
   -5.5049  -15.9331    0.0000 C   0  0  0  0  0  0  0  0  0  0  0  0
   -4.2914  -16.8147    0.0000 C   0  0  0  0  0  0  0  0  0  0  0  0
   -2.9399  -17.4656    0.0000 C   0  0  0  0  0  0  0  0  0  0  0  0
   -1.4940  -17.8646    0.0000 C   0  0  0  0  0  0  0  0  0  0  0  0
   -0.0000  -17.9991    0.0000 C   0  0  0  0  0  0  0  0  0  0  0  0
    1.4940  -17.8646    0.0000 C   0  0  0  0  0  0  0  0  0  0  0  0
    2.9399  -17.4656    0.0000 C   0  0  0  0  0  0  0  0  0  0  0  0
    4.2914  -16.8147    0.0000 C   0  0  0  0  0  0  0  0  0  0  0  0
    5.5049  -15.9331    0.0000 C   0  0  0  0  0  0  0  0  0  0  0  0
    6.5415  -14.8489    0.0000 C   0  0  0  0  0  0  0  0  0  0  0  0
    7.3678  -13.5970    0.0000 C   0  0  0  0  0  0  0  0  0  0  0  0
    7.9574  -12.2177    0.0000 C   0  0  0  0  0  0  0  0  0  0  0  0
    8.2911  -10.7553    0.0000 C   0  0  0  0  0  0  0  0  0  0  0  0
    8.3584   -9.2568    0.0000 C   0  0  0  0  0  0  0  0  0  0  0  0
    8.1571   -7.7704    0.0000 C   0  0  0  0  0  0  0  0  0  0  0  0
    7.6936   -6.3438    0.0000 C   0  0  0  0  0  0  0  0  0  0  0  0
    6.9828   -5.0229    0.0000 C   0  0  0  0  0  0  0  0  0  0  0  0
    6.0475   -3.8502    0.0000 C   0  0  0  0  0  0  0  0  0  0  0  0
    4.9179   -2.8633    0.0000 C   0  0  0  0  0  0  0  0  0  0  0  0
    3.6302   -2.0939    0.0000 C   0  0  0  0  0  0  0  0  0  0  0  0
    2.2259   -1.5669    0.0000 C   0  0  0  0  0  0  0  0  0  0  0  0
    2.6249   -0.1209    0.0000 N   0  0  0  0  0  0  0  0  0  0  0  0
    4.0767    0.2565    0.0000 C   0  0  0  0  0  0  0  0  0  0  0  0
    5.1294   -0.8121    0.0000 O   0  0  0  0  0  0  0  0  0  0  0  0
    4.4758    1.7024    0.0000 N   0  0  0  0  0  0  0  0  0  0  0  0
    5.9275    2.0798    0.0000 C   0  0  0  0  0  0  0  0  0  0  0  0
    6.9802    1.0112    0.0000 N   0  0  0  0  0  0  0  0  0  0  0  0
    8.4320    1.3886    0.0000 N   0  0  0  0  0  0  0  0  0  0  0  0
    8.8310    2.8345    0.0000 N   0  0  0  0  0  0  0  0  0  0  0  0
    7.7783    3.9031    0.0000 N   0  0  0  0  0  0  0  0  0  0  0  0
    6.3266    3.5257    0.0000 N   0  0  0  0  0  0  0  0  0  0  0  0
    0.7500   -1.2990    0.0000 C   0  0  0  0  0  0  0  0  0  0  0  0
    1.5000    0.0000    0.0000 C   0  0  0  0  0  0  0  0  0  0  0  0
    0.7500    1.2990    0.0000 C   0  0  0  0  0  0  0  0  0  0  0  0
   -0.7500    1.2990    0.0000 C   0  0  0  0  0  0  0  0  0  0  0  0
   -1.5000    0.0000    0.0000 C   0  0  0  0  0  0  0  0  0  0  0  0
   -0.7500   -1.2990    0.0000 C   0  0  0  0  0  0  0  0  0  0  0  0
  1  2  1  0
  2  3  1  0
  3  4  1  0
  4  5  1  0
  5  6  1  0
  6  7  1  0
  7  8  1  0
  8  9  1  0
  9 10  1  0
 10 11  1  0
 11 12  1  0
 12 13  1  0
 13 14  1  0
 14 15  1  0
 15 16  1  0
 16 17  1  0
 17 18  1  0
 18 19  1  0
 19 20  1  0
 20 21  1  0
 21 22  1  0
 22 23  1  0
 23 24  1  0
 24 25  1  0
 25 26  1  0
 26 27  1  0
 27 28  1  0
 28 29  1  0
 29 30  1  0
 30 31  1  0
 31 32  1  0
 32 33  1  0
 33 34  1  0
 34 35  1  0
 35 36  1  0
 36 37  2  0
 36 38  1  0
 38 39  1  0
 39 40  2  0
 40 41  1  0
 41 42  2  0
 42 43  1  0
 43 44  2  0
 34 45  1  0
 45 46  2  0
 46 47  1  0
 47 48  2  0
 48 49  1  0
 49 50  2  0
 50  2  1  0
 44 39  1  0
 50 45  1  0
M  END
>  <Title>  (833) 
idABEGgen7

$$$$

     RDKit          2D

 23 23  0  0  0  0  0  0  0  0999 V2000
    9.8067   -1.2990    0.0000 O   0  0  0  0  0  0  0  0  0  0  0  0
    9.0567   -0.0000    0.0000 C   0  0  0  0  0  0  0  0  0  0  0  0
    7.5567   -0.0000    0.0000 C   0  0  0  0  0  0  0  0  0  0  0  0
    6.0567    0.0000    0.0000 C   0  0  0  0  0  0  0  0  0  0  0  0
    4.5567    0.0000    0.0000 C   0  0  0  0  0  0  0  0  0  0  0  0
    4.3098    1.4795    0.0000 C   0  0  0  0  0  0  0  0  0  0  0  0
    3.5958    2.7988    0.0000 C   0  0  0  0  0  0  0  0  0  0  0  0
    2.4923    3.8147    0.0000 C   0  0  0  0  0  0  0  0  0  0  0  0
    1.1186    4.4172    0.0000 C   0  0  0  0  0  0  0  0  0  0  0  0
   -0.3763    4.5411    0.0000 C   0  0  0  0  0  0  0  0  0  0  0  0
   -1.8304    4.1729    0.0000 C   0  0  0  0  0  0  0  0  0  0  0  0
   -3.0861    3.3524    0.0000 C   0  0  0  0  0  0  0  0  0  0  0  0
   -4.0075    2.1687    0.0000 C   0  0  0  0  0  0  0  0  0  0  0  0
   -4.4945    0.7500    0.0000 C   0  0  0  0  0  0  0  0  0  0  0  0
   -4.4945   -0.7500    0.0000 C   0  0  0  0  0  0  0  0  0  0  0  0
   -4.0075   -2.1687    0.0000 C   0  0  0  0  0  0  0  0  0  0  0  0
   -3.0861   -3.3524    0.0000 C   0  0  0  0  0  0  0  0  0  0  0  0
   -1.8304   -4.1729    0.0000 C   0  0  0  0  0  0  0  0  0  0  0  0
   -0.3763   -4.5411    0.0000 C   0  0  0  0  0  0  0  0  0  0  0  0
    1.1186   -4.4172    0.0000 C   0  0  0  0  0  0  0  0  0  0  0  0
    2.4923   -3.8147    0.0000 C   0  0  0  0  0  0  0  0  0  0  0  0
    3.5958   -2.7988    0.0000 C   0  0  0  0  0  0  0  0  0  0  0  0
    4.3098   -1.4795    0.0000 C   0  0  0  0  0  0  0  0  0  0  0  0
  1  2  1  0
  2  3  1  0
  3  4  3  0
  4  5  1  0
  5  6  1  0
  6  7  1  0
  7  8  1  0
  8  9  1  0
  9 10  1  0
 10 11  1  0
 11 12  1  0
 12 13  1  0
 13 14  1  0
 14 15  1  0
 15 16  1  0
 16 17  1  0
 17 18  1  0
 18 19  1  0
 19 20  1  0
 20 21  1  0
 21 22  1  0
 22 23  1  0
 23  5  1  0
M  END
>  <Title>  (834) 
idABEHgen7

$$$$

     RDKit          2D

 12 12  0  0  0  0  0  0  0  0999 V2000
    3.5260    1.2990    0.0000 O   0  0  0  0  0  0  0  0  0  0  0  0
    2.7760    0.0000    0.0000 C   0  0  0  0  0  0  0  0  0  0  0  0
    3.5260   -1.2990    0.0000 O   0  0  0  0  0  0  0  0  0  0  0  0
    1.2760    0.0000    0.0000 C   0  0  0  0  0  0  0  0  0  0  0  0
    0.3943    1.2135    0.0000 C   0  0  0  0  0  0  0  0  0  0  0  0
   -1.0323    0.7500    0.0000 C   0  0  0  0  0  0  0  0  0  0  0  0
   -1.0323   -0.7500    0.0000 N   0  0  0  0  0  0  0  0  0  0  0  0
   -2.2458   -1.6317    0.0000 C   0  0  0  0  0  0  0  0  0  0  0  0
   -2.0890   -3.1235    0.0000 O   0  0  0  0  0  0  0  0  0  0  0  0
   -3.6161   -1.0216    0.0000 O   0  0  0  0  0  0  0  0  0  0  0  0
    0.3943   -1.2135    0.0000 C   0  0  0  0  0  0  0  0  0  0  0  0
    0.8578   -2.6401    0.0000 O   0  0  0  0  0  0  0  0  0  0  0  0
  1  2  2  0
  2  3  1  0
  2  4  1  0
  4  5  1  0
  5  6  1  0
  6  7  1  0
  7  8  1  0
  8  9  2  0
  8 10  1  0
  7 11  1  0
 11 12  2  0
 11  4  1  0
M  END
>  <Title>  (835) 
idABEIgen7

$$$$

     RDKit          2D

  8  8  0  0  0  0  0  0  0  0999 V2000
    3.7500   -1.2990    0.0000 O   0  0  0  0  0  0  0  0  0  0  0  0
    3.0000    0.0000    0.0000 C   0  0  0  0  0  0  0  0  0  0  0  0
    1.5000    0.0000    0.0000 C   0  0  0  0  0  0  0  0  0  0  0  0
    0.7500   -1.2990    0.0000 C   0  0  0  0  0  0  0  0  0  0  0  0
   -0.7500   -1.2990    0.0000 C   0  0  0  0  0  0  0  0  0  0  0  0
   -1.5000    0.0000    0.0000 C   0  0  0  0  0  0  0  0  0  0  0  0
   -0.7500    1.2990    0.0000 C   0  0  0  0  0  0  0  0  0  0  0  0
    0.7500    1.2990    0.0000 C   0  0  0  0  0  0  0  0  0  0  0  0
  1  2  1  0
  2  3  1  0
  3  4  2  0
  4  5  1  0
  5  6  1  0
  6  7  1  0
  7  8  1  0
  8  3  1  0
M  END
>  <Title>  (836) 
idABEJgen7

$$$$

     RDKit          2D

 87 89  0  0  0  0  0  0  0  0999 V2000
   18.6942    0.0000    0.0000 C   0  0  0  0  0  0  0  0  0  0  0  0
   17.1942    0.0000    0.0000 C   0  0  0  0  0  0  0  0  0  0  0  0
   17.1288   -1.4986    0.0000 C   0  0  0  0  0  0  0  0  0  0  0  0
   16.9330   -2.9857    0.0000 C   0  0  0  0  0  0  0  0  0  0  0  0
   16.6083   -4.4502    0.0000 C   0  0  0  0  0  0  0  0  0  0  0  0
   16.1573   -5.8808    0.0000 C   0  0  0  0  0  0  0  0  0  0  0  0
   15.5832   -7.2666    0.0000 C   0  0  0  0  0  0  0  0  0  0  0  0
   14.8906   -8.5971    0.0000 C   0  0  0  0  0  0  0  0  0  0  0  0
   16.1896   -9.3471    0.0000 C   0  0  0  0  0  0  0  0  0  0  0  0
   16.1896  -10.8471    0.0000 C   0  0  0  0  0  0  0  0  0  0  0  0
   17.4887  -11.5971    0.0000 C   0  0  0  0  0  0  0  0  0  0  0  0
   17.4887  -13.0971    0.0000 C   0  0  0  0  0  0  0  0  0  0  0  0
   18.7877  -13.8471    0.0000 C   0  0  0  0  0  0  0  0  0  0  0  0
   20.0868  -13.0971    0.0000 C   0  0  0  0  0  0  0  0  0  0  0  0
   20.0868  -11.5971    0.0000 C   0  0  0  0  0  0  0  0  0  0  0  0
   18.7877  -10.8471    0.0000 C   0  0  0  0  0  0  0  0  0  0  0  0
   18.7877   -9.3471    0.0000 C   0  0  0  0  0  0  0  0  0  0  0  0
   20.0868   -8.5971    0.0000 C   0  0  0  0  0  0  0  0  0  0  0  0
   20.0868   -7.0971    0.0000 C   0  0  0  0  0  0  0  0  0  0  0  0
   18.7877   -6.3471    0.0000 C   0  0  0  0  0  0  0  0  0  0  0  0
   17.4887   -7.0971    0.0000 C   0  0  0  0  0  0  0  0  0  0  0  0
   17.4887   -8.5971    0.0000 C   0  0  0  0  0  0  0  0  0  0  0  0
   14.0847   -9.8622    0.0000 C   0  0  0  0  0  0  0  0  0  0  0  0
   13.1715  -11.0522    0.0000 C   0  0  0  0  0  0  0  0  0  0  0  0
   12.1581  -12.1581    0.0000 C   0  0  0  0  0  0  0  0  0  0  0  0
   11.0522  -13.1715    0.0000 C   0  0  0  0  0  0  0  0  0  0  0  0
    9.8622  -14.0847    0.0000 C   0  0  0  0  0  0  0  0  0  0  0  0
    8.5971  -14.8906    0.0000 C   0  0  0  0  0  0  0  0  0  0  0  0
    7.2666  -15.5832    0.0000 C   0  0  0  0  0  0  0  0  0  0  0  0
    5.8808  -16.1573    0.0000 C   0  0  0  0  0  0  0  0  0  0  0  0
    4.4502  -16.6083    0.0000 C   0  0  0  0  0  0  0  0  0  0  0  0
    2.9857  -16.9330    0.0000 C   0  0  0  0  0  0  0  0  0  0  0  0
    1.4986  -17.1288    0.0000 C   0  0  0  0  0  0  0  0  0  0  0  0
   -0.0000  -17.1942    0.0000 C   0  0  0  0  0  0  0  0  0  0  0  0
   -1.4986  -17.1288    0.0000 C   0  0  0  0  0  0  0  0  0  0  0  0
   -2.9857  -16.9330    0.0000 C   0  0  0  0  0  0  0  0  0  0  0  0
   -4.4502  -16.6083    0.0000 C   0  0  0  0  0  0  0  0  0  0  0  0
   -5.8808  -16.1573    0.0000 C   0  0  0  0  0  0  0  0  0  0  0  0
   -7.2666  -15.5832    0.0000 C   0  0  0  0  0  0  0  0  0  0  0  0
   -8.5971  -14.8906    0.0000 C   0  0  0  0  0  0  0  0  0  0  0  0
   -9.8622  -14.0847    0.0000 C   0  0  0  0  0  0  0  0  0  0  0  0
  -11.0522  -13.1715    0.0000 C   0  0  0  0  0  0  0  0  0  0  0  0
  -12.1581  -12.1581    0.0000 C   0  0  0  0  0  0  0  0  0  0  0  0
  -13.1715  -11.0522    0.0000 C   0  0  0  0  0  0  0  0  0  0  0  0
  -14.0847   -9.8622    0.0000 C   0  0  0  0  0  0  0  0  0  0  0  0
  -14.8906   -8.5971    0.0000 C   0  0  0  0  0  0  0  0  0  0  0  0
  -15.5832   -7.2666    0.0000 C   0  0  0  0  0  0  0  0  0  0  0  0
  -16.1573   -5.8808    0.0000 C   0  0  0  0  0  0  0  0  0  0  0  0
  -16.6083   -4.4502    0.0000 C   0  0  0  0  0  0  0  0  0  0  0  0
  -16.9330   -2.9857    0.0000 C   0  0  0  0  0  0  0  0  0  0  0  0
  -17.1288   -1.4986    0.0000 C   0  0  0  0  0  0  0  0  0  0  0  0
  -17.1942    0.0000    0.0000 C   0  0  0  0  0  0  0  0  0  0  0  0
  -17.1288    1.4986    0.0000 C   0  0  0  0  0  0  0  0  0  0  0  0
  -16.9330    2.9857    0.0000 C   0  0  0  0  0  0  0  0  0  0  0  0
  -16.6083    4.4502    0.0000 C   0  0  0  0  0  0  0  0  0  0  0  0
  -16.1573    5.8808    0.0000 C   0  0  0  0  0  0  0  0  0  0  0  0
  -15.5832    7.2666    0.0000 C   0  0  0  0  0  0  0  0  0  0  0  0
  -14.8906    8.5971    0.0000 C   0  0  0  0  0  0  0  0  0  0  0  0
  -14.0847    9.8622    0.0000 C   0  0  0  0  0  0  0  0  0  0  0  0
  -13.1715   11.0522    0.0000 C   0  0  0  0  0  0  0  0  0  0  0  0
  -12.1581   12.1581    0.0000 C   0  0  0  0  0  0  0  0  0  0  0  0
  -11.0522   13.1715    0.0000 C   0  0  0  0  0  0  0  0  0  0  0  0
   -9.8622   14.0847    0.0000 C   0  0  0  0  0  0  0  0  0  0  0  0
   -8.5971   14.8906    0.0000 C   0  0  0  0  0  0  0  0  0  0  0  0
   -7.2666   15.5832    0.0000 C   0  0  0  0  0  0  0  0  0  0  0  0
   -5.8808   16.1573    0.0000 C   0  0  0  0  0  0  0  0  0  0  0  0
   -4.4502   16.6083    0.0000 C   0  0  0  0  0  0  0  0  0  0  0  0
   -2.9857   16.9330    0.0000 C   0  0  0  0  0  0  0  0  0  0  0  0
   -1.4986   17.1288    0.0000 C   0  0  0  0  0  0  0  0  0  0  0  0
    0.0000   17.1942    0.0000 C   0  0  0  0  0  0  0  0  0  0  0  0
    1.4986   17.1288    0.0000 C   0  0  0  0  0  0  0  0  0  0  0  0
    2.9857   16.9330    0.0000 C   0  0  0  0  0  0  0  0  0  0  0  0
    4.4502   16.6083    0.0000 C   0  0  0  0  0  0  0  0  0  0  0  0
    5.8808   16.1573    0.0000 C   0  0  0  0  0  0  0  0  0  0  0  0
    7.2666   15.5832    0.0000 C   0  0  0  0  0  0  0  0  0  0  0  0
    8.5971   14.8906    0.0000 C   0  0  0  0  0  0  0  0  0  0  0  0
    9.8622   14.0847    0.0000 C   0  0  0  0  0  0  0  0  0  0  0  0
   11.0522   13.1715    0.0000 C   0  0  0  0  0  0  0  0  0  0  0  0
   12.1581   12.1581    0.0000 C   0  0  0  0  0  0  0  0  0  0  0  0
   13.1715   11.0522    0.0000 C   0  0  0  0  0  0  0  0  0  0  0  0
   14.0847    9.8622    0.0000 C   0  0  0  0  0  0  0  0  0  0  0  0
   14.8906    8.5971    0.0000 C   0  0  0  0  0  0  0  0  0  0  0  0
   15.5832    7.2666    0.0000 C   0  0  0  0  0  0  0  0  0  0  0  0
   16.1573    5.8808    0.0000 C   0  0  0  0  0  0  0  0  0  0  0  0
   16.6083    4.4502    0.0000 C   0  0  0  0  0  0  0  0  0  0  0  0
   16.9330    2.9857    0.0000 C   0  0  0  0  0  0  0  0  0  0  0  0
   17.1288    1.4986    0.0000 C   0  0  0  0  0  0  0  0  0  0  0  0
  1  2  1  0
  2  3  1  0
  3  4  2  0
  4  5  1  0
  5  6  2  0
  6  7  1  0
  7  8  2  0
  8  9  1  0
  9 10  1  0
 10 11  1  0
 11 12  2  0
 12 13  1  0
 13 14  2  0
 14 15  1  0
 15 16  2  0
 16 17  1  0
 17 18  2  0
 18 19  1  0
 19 20  2  0
 20 21  1  0
 21 22  2  0
  8 23  1  0
 23 24  1  0
 24 25  1  0
 25 26  1  0
 26 27  1  0
 27 28  1  0
 28 29  1  0
 29 30  1  0
 30 31  1  0
 31 32  1  0
 32 33  1  0
 33 34  1  0
 34 35  1  0
 35 36  1  0
 36 37  1  0
 37 38  1  0
 38 39  1  0
 39 40  1  0
 40 41  1  0
 41 42  1  0
 42 43  1  0
 43 44  1  0
 44 45  1  0
 45 46  1  0
 46 47  1  0
 47 48  1  0
 48 49  1  0
 49 50  1  0
 50 51  1  0
 51 52  1  0
 52 53  1  0
 53 54  1  0
 54 55  1  0
 55 56  1  0
 56 57  1  0
 57 58  1  0
 58 59  1  0
 59 60  1  0
 60 61  1  0
 61 62  1  0
 62 63  1  0
 63 64  1  0
 64 65  1  0
 65 66  1  0
 66 67  1  0
 67 68  1  0
 68 69  1  0
 69 70  1  0
 70 71  1  0
 71 72  1  0
 72 73  1  0
 73 74  1  0
 74 75  1  0
 75 76  1  0
 76 77  1  0
 77 78  1  0
 78 79  1  0
 79 80  1  0
 80 81  1  0
 81 82  1  0
 82 83  1  0
 83 84  1  0
 84 85  1  0
 85 86  1  0
 86 87  1  0
 87  2  1  0
 16 11  1  0
 22 17  1  0
M  END
>  <Title>  (837) 
idABEKgen7

$$$$

     RDKit          2D

 46 46  0  0  0  0  0  0  0  0999 V2000
   12.2517    0.0000    0.0000 O   0  0  0  0  0  0  0  0  0  0  0  0
   10.7517    0.0000    0.0000 C   0  0  0  0  0  0  0  0  0  0  0  0
   10.6471    1.4963    0.0000 C   0  0  0  0  0  0  0  0  0  0  0  0
   10.3352    2.9636    0.0000 C   0  0  0  0  0  0  0  0  0  0  0  0
    9.8222    4.3731    0.0000 C   0  0  0  0  0  0  0  0  0  0  0  0
    9.1180    5.6975    0.0000 C   0  0  0  0  0  0  0  0  0  0  0  0
    8.2363    6.9111    0.0000 C   0  0  0  0  0  0  0  0  0  0  0  0
    7.1943    7.9901    0.0000 C   0  0  0  0  0  0  0  0  0  0  0  0
    6.0123    8.9136    0.0000 C   0  0  0  0  0  0  0  0  0  0  0  0
    4.7132    9.6636    0.0000 C   0  0  0  0  0  0  0  0  0  0  0  0
    3.3225   10.2255    0.0000 C   0  0  0  0  0  0  0  0  0  0  0  0
    1.8670   10.5883    0.0000 C   0  0  0  0  0  0  0  0  0  0  0  0
    0.3752   10.7451    0.0000 C   0  0  0  0  0  0  0  0  0  0  0  0
   -1.1239   10.6928    0.0000 C   0  0  0  0  0  0  0  0  0  0  0  0
   -2.6011   10.4323    0.0000 C   0  0  0  0  0  0  0  0  0  0  0  0
   -4.0277    9.9688    0.0000 C   0  0  0  0  0  0  0  0  0  0  0  0
   -5.3758    9.3112    0.0000 C   0  0  0  0  0  0  0  0  0  0  0  0
   -6.6194    8.4724    0.0000 C   0  0  0  0  0  0  0  0  0  0  0  0
   -7.7341    7.4688    0.0000 C   0  0  0  0  0  0  0  0  0  0  0  0
   -8.6983    6.3197    0.0000 C   0  0  0  0  0  0  0  0  0  0  0  0
   -9.4932    5.0476    0.0000 C   0  0  0  0  0  0  0  0  0  0  0  0
  -10.1033    3.6773    0.0000 C   0  0  0  0  0  0  0  0  0  0  0  0
  -10.5167    2.2354    0.0000 C   0  0  0  0  0  0  0  0  0  0  0  0
  -10.7255    0.7500    0.0000 C   0  0  0  0  0  0  0  0  0  0  0  0
  -10.7255   -0.7500    0.0000 C   0  0  0  0  0  0  0  0  0  0  0  0
  -10.5167   -2.2354    0.0000 C   0  0  0  0  0  0  0  0  0  0  0  0
  -10.1033   -3.6773    0.0000 C   0  0  0  0  0  0  0  0  0  0  0  0
   -9.4932   -5.0476    0.0000 C   0  0  0  0  0  0  0  0  0  0  0  0
   -8.6983   -6.3197    0.0000 C   0  0  0  0  0  0  0  0  0  0  0  0
   -7.7341   -7.4688    0.0000 C   0  0  0  0  0  0  0  0  0  0  0  0
   -6.6194   -8.4724    0.0000 C   0  0  0  0  0  0  0  0  0  0  0  0
   -5.3758   -9.3112    0.0000 C   0  0  0  0  0  0  0  0  0  0  0  0
   -4.0277   -9.9688    0.0000 C   0  0  0  0  0  0  0  0  0  0  0  0
   -2.6011  -10.4323    0.0000 C   0  0  0  0  0  0  0  0  0  0  0  0
   -1.1239  -10.6928    0.0000 C   0  0  0  0  0  0  0  0  0  0  0  0
    0.3752  -10.7451    0.0000 C   0  0  0  0  0  0  0  0  0  0  0  0
    1.8670  -10.5883    0.0000 C   0  0  0  0  0  0  0  0  0  0  0  0
    3.3225  -10.2255    0.0000 C   0  0  0  0  0  0  0  0  0  0  0  0
    4.7132   -9.6636    0.0000 C   0  0  0  0  0  0  0  0  0  0  0  0
    6.0123   -8.9136    0.0000 C   0  0  0  0  0  0  0  0  0  0  0  0
    7.1943   -7.9901    0.0000 C   0  0  0  0  0  0  0  0  0  0  0  0
    8.2363   -6.9111    0.0000 C   0  0  0  0  0  0  0  0  0  0  0  0
    9.1180   -5.6975    0.0000 C   0  0  0  0  0  0  0  0  0  0  0  0
    9.8222   -4.3731    0.0000 C   0  0  0  0  0  0  0  0  0  0  0  0
   10.3352   -2.9636    0.0000 C   0  0  0  0  0  0  0  0  0  0  0  0
   10.6471   -1.4963    0.0000 C   0  0  0  0  0  0  0  0  0  0  0  0
  1  2  1  0
  2  3  2  0
  3  4  1  0
  4  5  1  0
  5  6  1  0
  6  7  1  0
  7  8  1  0
  8  9  1  0
  9 10  1  0
 10 11  1  0
 11 12  1  0
 12 13  1  0
 13 14  1  0
 14 15  1  0
 15 16  1  0
 16 17  1  0
 17 18  1  0
 18 19  1  0
 19 20  1  0
 20 21  1  0
 21 22  1  0
 22 23  1  0
 23 24  1  0
 24 25  1  0
 25 26  1  0
 26 27  1  0
 27 28  1  0
 28 29  1  0
 29 30  1  0
 30 31  1  0
 31 32  1  0
 32 33  1  0
 33 34  1  0
 34 35  1  0
 35 36  1  0
 36 37  1  0
 37 38  1  0
 38 39  1  0
 39 40  1  0
 40 41  1  0
 41 42  1  0
 42 43  1  0
 43 44  1  0
 44 45  1  0
 45 46  1  0
 46  2  1  0
M  END
>  <Title>  (838) 
idABELgen7

$$$$

     RDKit          2D

  9  9  0  0  0  0  0  0  0  0999 V2000
    3.7500   -1.2990    0.0000 N   0  0  0  0  0  0  0  0  0  0  0  0
    3.0000    0.0000    0.0000 C   0  0  0  0  0  0  0  0  0  0  0  0
    3.7500    1.2990    0.0000 O   0  0  0  0  0  0  0  0  0  0  0  0
    1.5000    0.0000    0.0000 C   0  0  0  0  0  0  0  0  0  0  0  0
    0.7500   -1.2990    0.0000 C   0  0  0  0  0  0  0  0  0  0  0  0
   -0.7500   -1.2990    0.0000 C   0  0  0  0  0  0  0  0  0  0  0  0
   -1.5000    0.0000    0.0000 C   0  0  0  0  0  0  0  0  0  0  0  0
   -0.7500    1.2990    0.0000 C   0  0  0  0  0  0  0  0  0  0  0  0
    0.7500    1.2990    0.0000 C   0  0  0  0  0  0  0  0  0  0  0  0
  1  2  2  0
  2  3  1  0
  2  4  1  0
  4  5  1  0
  5  6  1  0
  6  7  1  0
  7  8  1  0
  8  9  1  0
  9  4  1  0
M  END
>  <Title>  (839) 
idABEMgen7

$$$$

     RDKit          2D

 40 45  0  0  0  0  0  0  0  0999 V2000
   -1.3240   -6.3062    0.0000 C   0  0  0  0  0  0  0  0  0  0  0  0
   -0.7500   -4.9204    0.0000 C   0  0  0  0  0  0  0  0  0  0  0  0
    0.7500   -4.9204    0.0000 C   0  0  0  0  0  0  0  0  0  0  0  0
    1.8107   -3.8597    0.0000 C   0  0  0  0  0  0  0  0  0  0  0  0
    1.8107   -2.3597    0.0000 C   0  0  0  0  0  0  0  0  0  0  0  0
    3.1965   -1.7857    0.0000 C   0  0  0  0  0  0  0  0  0  0  0  0
    3.3923   -0.2985    0.0000 O   0  0  0  0  0  0  0  0  0  0  0  0
    4.3865   -2.6988    0.0000 N   0  0  0  0  0  0  0  0  0  0  0  0
    5.7723   -2.1248    0.0000 C   0  0  0  0  0  0  0  0  0  0  0  0
    6.1225   -0.6662    0.0000 N   0  0  0  0  0  0  0  0  0  0  0  0
    7.6179   -0.5485    0.0000 N   0  0  0  0  0  0  0  0  0  0  0  0
    8.1919   -1.9344    0.0000 N   0  0  0  0  0  0  0  0  0  0  0  0
    7.0513   -2.9085    0.0000 N   0  0  0  0  0  0  0  0  0  0  0  0
    7.1690   -4.4039    0.0000 N   0  0  0  0  0  0  0  0  0  0  0  0
    8.4479   -5.1877    0.0000 C   0  0  0  0  0  0  0  0  0  0  0  0
    8.0978   -6.6462    0.0000 C   0  0  0  0  0  0  0  0  0  0  0  0
    6.6024   -6.7639    0.0000 C   0  0  0  0  0  0  0  0  0  0  0  0
    5.8186   -8.0429    0.0000 C   0  0  0  0  0  0  0  0  0  0  0  0
    6.5344   -9.3611    0.0000 O   0  0  0  0  0  0  0  0  0  0  0  0
    4.3192   -8.0036    0.0000 N   0  0  0  0  0  0  0  0  0  0  0  0
    3.5354   -9.2826    0.0000 C   0  0  0  0  0  0  0  0  0  0  0  0
    2.0359   -9.2433    0.0000 N   0  0  0  0  0  0  0  0  0  0  0  0
    1.2522  -10.5223    0.0000 N   0  0  0  0  0  0  0  0  0  0  0  0
    1.9679  -11.8405    0.0000 N   0  0  0  0  0  0  0  0  0  0  0  0
    3.4674  -11.8797    0.0000 N   0  0  0  0  0  0  0  0  0  0  0  0
    4.2512  -10.6008    0.0000 N   0  0  0  0  0  0  0  0  0  0  0  0
    6.0284   -5.3781    0.0000 C   0  0  0  0  0  0  0  0  0  0  0  0
    4.5698   -5.0279    0.0000 O   0  0  0  0  0  0  0  0  0  0  0  0
    0.7500   -1.2990    0.0000 C   0  0  0  0  0  0  0  0  0  0  0  0
    1.5000    0.0000    0.0000 C   0  0  0  0  0  0  0  0  0  0  0  0
    0.7500    1.2990    0.0000 C   0  0  0  0  0  0  0  0  0  0  0  0
   -0.7500    1.2990    0.0000 C   0  0  0  0  0  0  0  0  0  0  0  0
   -1.5000    0.0000    0.0000 C   0  0  0  0  0  0  0  0  0  0  0  0
   -0.7500   -1.2990    0.0000 C   0  0  0  0  0  0  0  0  0  0  0  0
   -1.8107   -2.3597    0.0000 C   0  0  0  0  0  0  0  0  0  0  0  0
   -3.1097   -1.6097    0.0000 C   0  0  0  0  0  0  0  0  0  0  0  0
   -4.4087   -2.3597    0.0000 C   0  0  0  0  0  0  0  0  0  0  0  0
   -4.4087   -3.8597    0.0000 C   0  0  0  0  0  0  0  0  0  0  0  0
   -3.1097   -4.6097    0.0000 C   0  0  0  0  0  0  0  0  0  0  0  0
   -1.8107   -3.8597    0.0000 C   0  0  0  0  0  0  0  0  0  0  0  0
  1  2  1  0
  2  3  1  0
  3  4  1  0
  4  5  1  0
  5  6  1  0
  6  7  2  0
  6  8  1  0
  8  9  1  0
  9 10  2  0
 10 11  1  0
 11 12  2  0
 12 13  1  0
 13 14  1  0
 14 15  1  0
 15 16  1  0
 16 17  1  0
 17 18  1  0
 18 19  2  0
 18 20  1  0
 20 21  1  0
 21 22  2  0
 22 23  1  0
 23 24  2  0
 24 25  1  0
 25 26  2  0
 17 27  1  0
 27 28  2  0
  5 29  1  0
 29 30  2  0
 30 31  1  0
 31 32  2  0
 32 33  1  0
 33 34  2  0
 34 35  1  0
 35 36  2  0
 36 37  1  0
 37 38  2  0
 38 39  1  0
 39 40  2  0
 40  2  1  0
 13  9  1  0
 27 14  1  0
 34 29  1  0
 40 35  1  0
 26 21  1  0
M  END
>  <Title>  (840) 
idABENgen7

$$$$

     RDKit          2D

 39 44  0  0  0  0  0  0  0  0999 V2000
    2.1535   -8.4451    0.0000 C   0  0  0  0  0  0  0  0  0  0  0  0
    1.4564   -7.1169    0.0000 C   0  0  0  0  0  0  0  0  0  0  0  0
    2.5792   -6.1222    0.0000 C   0  0  0  0  0  0  0  0  0  0  0  0
    3.1111   -4.7197    0.0000 C   0  0  0  0  0  0  0  0  0  0  0  0
    2.9303   -3.2306    0.0000 C   0  0  0  0  0  0  0  0  0  0  0  0
    2.0782   -1.9961    0.0000 C   0  0  0  0  0  0  0  0  0  0  0  0
    3.0729   -0.8734    0.0000 C   0  0  0  0  0  0  0  0  0  0  0  0
    2.5979    0.5494    0.0000 O   0  0  0  0  0  0  0  0  0  0  0  0
    4.5426   -1.1734    0.0000 N   0  0  0  0  0  0  0  0  0  0  0  0
    5.5372   -0.0506    0.0000 C   0  0  0  0  0  0  0  0  0  0  0  0
    7.0069   -0.3507    0.0000 N   0  0  0  0  0  0  0  0  0  0  0  0
    8.0016    0.7721    0.0000 N   0  0  0  0  0  0  0  0  0  0  0  0
    7.5266    2.1949    0.0000 N   0  0  0  0  0  0  0  0  0  0  0  0
    6.0569    2.4949    0.0000 N   0  0  0  0  0  0  0  0  0  0  0  0
    5.0622    1.3722    0.0000 N   0  0  0  0  0  0  0  0  0  0  0  0
    0.7500   -1.2990    0.0000 C   0  0  0  0  0  0  0  0  0  0  0  0
    1.5000    0.0000    0.0000 C   0  0  0  0  0  0  0  0  0  0  0  0
    0.7500    1.2990    0.0000 C   0  0  0  0  0  0  0  0  0  0  0  0
   -0.7500    1.2990    0.0000 C   0  0  0  0  0  0  0  0  0  0  0  0
   -1.5000    0.0000    0.0000 C   0  0  0  0  0  0  0  0  0  0  0  0
   -0.7500   -1.2990    0.0000 C   0  0  0  0  0  0  0  0  0  0  0  0
   -2.0782   -1.9961    0.0000 C   0  0  0  0  0  0  0  0  0  0  0  0
   -2.7212   -0.6409    0.0000 C   0  0  0  0  0  0  0  0  0  0  0  0
   -4.2164   -0.5202    0.0000 C   0  0  0  0  0  0  0  0  0  0  0  0
   -5.0685   -1.7547    0.0000 C   0  0  0  0  0  0  0  0  0  0  0  0
   -4.4254   -3.1099    0.0000 C   0  0  0  0  0  0  0  0  0  0  0  0
   -2.9303   -3.2306    0.0000 C   0  0  0  0  0  0  0  0  0  0  0  0
   -3.1111   -4.7197    0.0000 C   0  0  0  0  0  0  0  0  0  0  0  0
   -4.5917   -4.4790    0.0000 C   0  0  0  0  0  0  0  0  0  0  0  0
   -5.5403   -5.6410    0.0000 C   0  0  0  0  0  0  0  0  0  0  0  0
   -5.0084   -7.0435    0.0000 C   0  0  0  0  0  0  0  0  0  0  0  0
   -3.5278   -7.2841    0.0000 C   0  0  0  0  0  0  0  0  0  0  0  0
   -2.5792   -6.1222    0.0000 C   0  0  0  0  0  0  0  0  0  0  0  0
   -1.4564   -7.1169    0.0000 C   0  0  0  0  0  0  0  0  0  0  0  0
   -2.4955   -8.1987    0.0000 C   0  0  0  0  0  0  0  0  0  0  0  0
   -2.0782   -9.6395    0.0000 C   0  0  0  0  0  0  0  0  0  0  0  0
   -0.6218   -9.9984    0.0000 C   0  0  0  0  0  0  0  0  0  0  0  0
    0.4173   -8.9166    0.0000 C   0  0  0  0  0  0  0  0  0  0  0  0
   -0.0000   -7.4758    0.0000 C   0  0  0  0  0  0  0  0  0  0  0  0
  1  2  1  0
  2  3  1  0
  3  4  1  0
  4  5  1  0
  5  6  2  0
  6  7  1  0
  7  8  2  0
  7  9  1  0
  9 10  1  0
 10 11  2  0
 11 12  1  0
 12 13  2  0
 13 14  1  0
 14 15  2  0
  6 16  1  0
 16 17  2  0
 17 18  1  0
 18 19  2  0
 19 20  1  0
 20 21  2  0
 21 22  1  0
 22 23  2  0
 23 24  1  0
 24 25  2  0
 25 26  1  0
 26 27  2  0
 27 28  1  0
 28 29  2  0
 29 30  1  0
 30 31  2  0
 31 32  1  0
 32 33  2  0
 33 34  1  0
 34 35  2  0
 35 36  1  0
 36 37  2  0
 37 38  1  0
 38 39  2  0
 39  2  1  0
 15 10  1  0
 21 16  1  0
 27 22  1  0
 33 28  1  0
 39 34  1  0
M  END
>  <Title>  (841) 
idABEOgen7

$$$$

     RDKit          2D

 20 22  0  0  0  0  0  0  0  0999 V2000
   -3.1771   -5.9156    0.0000 C   0  0  0  0  0  0  0  0  0  0  0  0
   -1.9635   -5.0339    0.0000 C   0  0  0  0  0  0  0  0  0  0  0  0
   -0.7500   -5.9156    0.0000 C   0  0  0  0  0  0  0  0  0  0  0  0
    0.7500   -5.9156    0.0000 C   0  0  0  0  0  0  0  0  0  0  0  0
    1.9635   -5.0339    0.0000 C   0  0  0  0  0  0  0  0  0  0  0  0
    2.4271   -3.6073    0.0000 C   0  0  0  0  0  0  0  0  0  0  0  0
    3.9271   -3.6073    0.0000 O   0  0  0  0  0  0  0  0  0  0  0  0
    1.9635   -2.1807    0.0000 N   0  0  0  0  0  0  0  0  0  0  0  0
    0.7500   -1.2990    0.0000 C   0  0  0  0  0  0  0  0  0  0  0  0
    1.5000    0.0000    0.0000 C   0  0  0  0  0  0  0  0  0  0  0  0
    0.7500    1.2990    0.0000 C   0  0  0  0  0  0  0  0  0  0  0  0
   -0.7500    1.2990    0.0000 C   0  0  0  0  0  0  0  0  0  0  0  0
   -1.5000    0.0000    0.0000 C   0  0  0  0  0  0  0  0  0  0  0  0
   -0.7500   -1.2990    0.0000 C   0  0  0  0  0  0  0  0  0  0  0  0
   -1.9635   -2.1807    0.0000 C   0  0  0  0  0  0  0  0  0  0  0  0
   -2.9672   -1.0660    0.0000 C   0  0  0  0  0  0  0  0  0  0  0  0
   -4.4344   -1.3779    0.0000 C   0  0  0  0  0  0  0  0  0  0  0  0
   -4.8980   -2.8045    0.0000 C   0  0  0  0  0  0  0  0  0  0  0  0
   -3.8943   -3.9192    0.0000 C   0  0  0  0  0  0  0  0  0  0  0  0
   -2.4271   -3.6073    0.0000 C   0  0  0  0  0  0  0  0  0  0  0  0
  1  2  1  0
  2  3  2  0
  3  4  1  0
  4  5  1  0
  5  6  1  0
  6  7  2  0
  6  8  1  0
  8  9  1  0
  9 10  2  0
 10 11  1  0
 11 12  2  0
 12 13  1  0
 13 14  2  0
 14 15  1  0
 15 16  2  0
 16 17  1  0
 17 18  2  0
 18 19  1  0
 19 20  2  0
 20  2  1  0
 14  9  1  0
 20 15  1  0
M  END
>  <Title>  (842) 
idABEPgen7

$$$$

     RDKit          2D

112112  0  0  0  0  0  0  0  0999 V2000
   28.0028    0.0000    0.0000 C   0  0  0  0  0  0  0  0  0  0  0  0
   26.5028    0.0000    0.0000 C   0  0  0  0  0  0  0  0  0  0  0  0
   26.4604    1.4994    0.0000 C   0  0  0  0  0  0  0  0  0  0  0  0
   26.3332    2.9940    0.0000 C   0  0  0  0  0  0  0  0  0  0  0  0
   26.1216    4.4790    0.0000 C   0  0  0  0  0  0  0  0  0  0  0  0
   25.8264    5.9497    0.0000 C   0  0  0  0  0  0  0  0  0  0  0  0
   25.4484    7.4013    0.0000 C   0  0  0  0  0  0  0  0  0  0  0  0
   24.9889    8.8291    0.0000 C   0  0  0  0  0  0  0  0  0  0  0  0
   24.4494   10.2288    0.0000 C   0  0  0  0  0  0  0  0  0  0  0  0
   23.8315   11.5956    0.0000 C   0  0  0  0  0  0  0  0  0  0  0  0
   23.1374   12.9253    0.0000 C   0  0  0  0  0  0  0  0  0  0  0  0
   22.3690   14.2136    0.0000 C   0  0  0  0  0  0  0  0  0  0  0  0
   21.5291   15.4564    0.0000 C   0  0  0  0  0  0  0  0  0  0  0  0
   20.6202   16.6496    0.0000 C   0  0  0  0  0  0  0  0  0  0  0  0
   19.6452   17.7895    0.0000 C   0  0  0  0  0  0  0  0  0  0  0  0
   18.6073   18.8725    0.0000 C   0  0  0  0  0  0  0  0  0  0  0  0
   17.5098   19.8949    0.0000 C   0  0  0  0  0  0  0  0  0  0  0  0
   16.3562   20.8537    0.0000 C   0  0  0  0  0  0  0  0  0  0  0  0
   15.1502   21.7456    0.0000 C   0  0  0  0  0  0  0  0  0  0  0  0
   13.8956   22.5679    0.0000 C   0  0  0  0  0  0  0  0  0  0  0  0
   12.5966   23.3179    0.0000 C   0  0  0  0  0  0  0  0  0  0  0  0
   11.2572   23.9932    0.0000 C   0  0  0  0  0  0  0  0  0  0  0  0
    9.8818   24.5917    0.0000 C   0  0  0  0  0  0  0  0  0  0  0  0
    8.4747   25.1114    0.0000 C   0  0  0  0  0  0  0  0  0  0  0  0
    7.0404   25.5506    0.0000 C   0  0  0  0  0  0  0  0  0  0  0  0
    5.5836   25.9080    0.0000 C   0  0  0  0  0  0  0  0  0  0  0  0
    4.1089   26.1824    0.0000 C   0  0  0  0  0  0  0  0  0  0  0  0
    2.6211   26.3729    0.0000 C   0  0  0  0  0  0  0  0  0  0  0  0
    1.1248   26.4790    0.0000 C   0  0  0  0  0  0  0  0  0  0  0  0
   -0.3750   26.5002    0.0000 C   0  0  0  0  0  0  0  0  0  0  0  0
   -1.8737   26.4365    0.0000 C   0  0  0  0  0  0  0  0  0  0  0  0
   -3.3663   26.2882    0.0000 C   0  0  0  0  0  0  0  0  0  0  0  0
   -4.8482   26.0556    0.0000 C   0  0  0  0  0  0  0  0  0  0  0  0
   -6.3145   25.7396    0.0000 C   0  0  0  0  0  0  0  0  0  0  0  0
   -7.7606   25.3411    0.0000 C   0  0  0  0  0  0  0  0  0  0  0  0
   -9.1819   24.8615    0.0000 C   0  0  0  0  0  0  0  0  0  0  0  0
  -10.5737   24.3022    0.0000 C   0  0  0  0  0  0  0  0  0  0  0  0
  -11.9317   23.6651    0.0000 C   0  0  0  0  0  0  0  0  0  0  0  0
  -13.2514   22.9521    0.0000 C   0  0  0  0  0  0  0  0  0  0  0  0
  -14.5287   22.1657    0.0000 C   0  0  0  0  0  0  0  0  0  0  0  0
  -15.7595   21.3082    0.0000 C   0  0  0  0  0  0  0  0  0  0  0  0
  -16.9397   20.3825    0.0000 C   0  0  0  0  0  0  0  0  0  0  0  0
  -18.0657   19.3915    0.0000 C   0  0  0  0  0  0  0  0  0  0  0  0
  -19.1339   18.3383    0.0000 C   0  0  0  0  0  0  0  0  0  0  0  0
  -20.1407   17.2265    0.0000 C   0  0  0  0  0  0  0  0  0  0  0  0
  -21.0831   16.0594    0.0000 C   0  0  0  0  0  0  0  0  0  0  0  0
  -21.9579   14.8409    0.0000 C   0  0  0  0  0  0  0  0  0  0  0  0
  -22.7623   13.5749    0.0000 C   0  0  0  0  0  0  0  0  0  0  0  0
  -23.4939   12.2654    0.0000 C   0  0  0  0  0  0  0  0  0  0  0  0
  -24.1501   10.9166    0.0000 C   0  0  0  0  0  0  0  0  0  0  0  0
  -24.7291    9.5328    0.0000 C   0  0  0  0  0  0  0  0  0  0  0  0
  -25.2288    8.1185    0.0000 C   0  0  0  0  0  0  0  0  0  0  0  0
  -25.6477    6.6781    0.0000 C   0  0  0  0  0  0  0  0  0  0  0  0
  -25.9844    5.2164    0.0000 C   0  0  0  0  0  0  0  0  0  0  0  0
  -26.2379    3.7380    0.0000 C   0  0  0  0  0  0  0  0  0  0  0  0
  -26.4074    2.2476    0.0000 C   0  0  0  0  0  0  0  0  0  0  0  0
  -26.4922    0.7500    0.0000 C   0  0  0  0  0  0  0  0  0  0  0  0
  -26.4922   -0.7500    0.0000 C   0  0  0  0  0  0  0  0  0  0  0  0
  -26.4074   -2.2476    0.0000 C   0  0  0  0  0  0  0  0  0  0  0  0
  -26.2379   -3.7380    0.0000 C   0  0  0  0  0  0  0  0  0  0  0  0
  -25.9844   -5.2164    0.0000 C   0  0  0  0  0  0  0  0  0  0  0  0
  -25.6477   -6.6781    0.0000 C   0  0  0  0  0  0  0  0  0  0  0  0
  -25.2288   -8.1185    0.0000 C   0  0  0  0  0  0  0  0  0  0  0  0
  -24.7291   -9.5328    0.0000 C   0  0  0  0  0  0  0  0  0  0  0  0
  -24.1501  -10.9166    0.0000 C   0  0  0  0  0  0  0  0  0  0  0  0
  -23.4939  -12.2654    0.0000 C   0  0  0  0  0  0  0  0  0  0  0  0
  -22.7623  -13.5749    0.0000 C   0  0  0  0  0  0  0  0  0  0  0  0
  -21.9579  -14.8409    0.0000 C   0  0  0  0  0  0  0  0  0  0  0  0
  -21.0831  -16.0594    0.0000 C   0  0  0  0  0  0  0  0  0  0  0  0
  -20.1407  -17.2265    0.0000 C   0  0  0  0  0  0  0  0  0  0  0  0
  -19.1339  -18.3383    0.0000 C   0  0  0  0  0  0  0  0  0  0  0  0
  -18.0657  -19.3915    0.0000 C   0  0  0  0  0  0  0  0  0  0  0  0
  -16.9397  -20.3825    0.0000 C   0  0  0  0  0  0  0  0  0  0  0  0
  -15.7595  -21.3082    0.0000 C   0  0  0  0  0  0  0  0  0  0  0  0
  -14.5287  -22.1657    0.0000 C   0  0  0  0  0  0  0  0  0  0  0  0
  -13.2514  -22.9521    0.0000 C   0  0  0  0  0  0  0  0  0  0  0  0
  -11.9317  -23.6651    0.0000 C   0  0  0  0  0  0  0  0  0  0  0  0
  -10.5737  -24.3022    0.0000 C   0  0  0  0  0  0  0  0  0  0  0  0
   -9.1819  -24.8615    0.0000 C   0  0  0  0  0  0  0  0  0  0  0  0
   -7.7606  -25.3411    0.0000 C   0  0  0  0  0  0  0  0  0  0  0  0
   -6.3145  -25.7396    0.0000 C   0  0  0  0  0  0  0  0  0  0  0  0
   -4.8482  -26.0556    0.0000 C   0  0  0  0  0  0  0  0  0  0  0  0
   -3.3663  -26.2882    0.0000 C   0  0  0  0  0  0  0  0  0  0  0  0
   -1.8737  -26.4365    0.0000 C   0  0  0  0  0  0  0  0  0  0  0  0
   -0.3750  -26.5002    0.0000 C   0  0  0  0  0  0  0  0  0  0  0  0
    1.1248  -26.4790    0.0000 C   0  0  0  0  0  0  0  0  0  0  0  0
    2.6211  -26.3729    0.0000 C   0  0  0  0  0  0  0  0  0  0  0  0
    4.1089  -26.1824    0.0000 C   0  0  0  0  0  0  0  0  0  0  0  0
    5.5836  -25.9080    0.0000 C   0  0  0  0  0  0  0  0  0  0  0  0
    7.0404  -25.5506    0.0000 C   0  0  0  0  0  0  0  0  0  0  0  0
    8.4747  -25.1114    0.0000 C   0  0  0  0  0  0  0  0  0  0  0  0
    9.8818  -24.5917    0.0000 C   0  0  0  0  0  0  0  0  0  0  0  0
   11.2572  -23.9932    0.0000 C   0  0  0  0  0  0  0  0  0  0  0  0
   12.5966  -23.3179    0.0000 C   0  0  0  0  0  0  0  0  0  0  0  0
   13.8956  -22.5679    0.0000 C   0  0  0  0  0  0  0  0  0  0  0  0
   15.1502  -21.7456    0.0000 C   0  0  0  0  0  0  0  0  0  0  0  0
   16.3562  -20.8537    0.0000 C   0  0  0  0  0  0  0  0  0  0  0  0
   17.5098  -19.8949    0.0000 C   0  0  0  0  0  0  0  0  0  0  0  0
   18.6073  -18.8725    0.0000 C   0  0  0  0  0  0  0  0  0  0  0  0
   19.6452  -17.7895    0.0000 C   0  0  0  0  0  0  0  0  0  0  0  0
   20.6202  -16.6496    0.0000 C   0  0  0  0  0  0  0  0  0  0  0  0
   21.5291  -15.4564    0.0000 C   0  0  0  0  0  0  0  0  0  0  0  0
   22.3690  -14.2136    0.0000 C   0  0  0  0  0  0  0  0  0  0  0  0
   23.1374  -12.9253    0.0000 C   0  0  0  0  0  0  0  0  0  0  0  0
   23.8315  -11.5956    0.0000 C   0  0  0  0  0  0  0  0  0  0  0  0
   24.4494  -10.2288    0.0000 C   0  0  0  0  0  0  0  0  0  0  0  0
   24.9889   -8.8291    0.0000 C   0  0  0  0  0  0  0  0  0  0  0  0
   25.4484   -7.4013    0.0000 C   0  0  0  0  0  0  0  0  0  0  0  0
   25.8264   -5.9497    0.0000 C   0  0  0  0  0  0  0  0  0  0  0  0
   26.1216   -4.4790    0.0000 C   0  0  0  0  0  0  0  0  0  0  0  0
   26.3332   -2.9940    0.0000 C   0  0  0  0  0  0  0  0  0  0  0  0
   26.4604   -1.4994    0.0000 C   0  0  0  0  0  0  0  0  0  0  0  0
  1  2  1  0
  2  3  1  0
  3  4  1  0
  4  5  1  0
  5  6  1  0
  6  7  1  0
  7  8  1  0
  8  9  1  0
  9 10  1  0
 10 11  1  0
 11 12  1  0
 12 13  1  0
 13 14  1  0
 14 15  1  0
 15 16  1  0
 16 17  1  0
 17 18  1  0
 18 19  1  0
 19 20  1  0
 20 21  1  0
 21 22  1  0
 22 23  1  0
 23 24  1  0
 24 25  1  0
 25 26  1  0
 26 27  1  0
 27 28  1  0
 28 29  1  0
 29 30  1  0
 30 31  1  0
 31 32  1  0
 32 33  1  0
 33 34  1  0
 34 35  1  0
 35 36  1  0
 36 37  1  0
 37 38  1  0
 38 39  1  0
 39 40  1  0
 40 41  1  0
 41 42  1  0
 42 43  1  0
 43 44  1  0
 44 45  1  0
 45 46  1  0
 46 47  1  0
 47 48  1  0
 48 49  1  0
 49 50  1  0
 50 51  1  0
 51 52  1  0
 52 53  1  0
 53 54  1  0
 54 55  1  0
 55 56  1  0
 56 57  1  0
 57 58  1  0
 58 59  1  0
 59 60  1  0
 60 61  1  0
 61 62  1  0
 62 63  1  0
 63 64  1  0
 64 65  1  0
 65 66  1  0
 66 67  1  0
 67 68  1  0
 68 69  1  0
 69 70  1  0
 70 71  1  0
 71 72  1  0
 72 73  1  0
 73 74  1  0
 74 75  1  0
 75 76  1  0
 76 77  1  0
 77 78  1  0
 78 79  1  0
 79 80  1  0
 80 81  1  0
 81 82  1  0
 82 83  1  0
 83 84  1  0
 84 85  1  0
 85 86  1  0
 86 87  1  0
 87 88  1  0
 88 89  1  0
 89 90  1  0
 90 91  1  0
 91 92  1  0
 92 93  1  0
 93 94  1  0
 94 95  1  0
 95 96  1  0
 96 97  1  0
 97 98  1  0
 98 99  1  0
 99100  1  0
100101  1  0
101102  1  0
102103  1  0
103104  1  0
104105  1  0
105106  1  0
106107  1  0
107108  1  0
108109  1  0
109110  1  0
110111  1  0
111112  1  0
112  2  1  0
M  END
>  <Title>  (843) 
idABEQgen7

$$$$

     RDKit          2D

 24 24  0  0  0  0  0  0  0  0999 V2000
    5.7460    0.0000    0.0000 C   0  0  0  0  0  0  0  0  0  0  0  0
    5.5502   -1.4872    0.0000 C   0  0  0  0  0  0  0  0  0  0  0  0
    4.9762   -2.8730    0.0000 C   0  0  0  0  0  0  0  0  0  0  0  0
    4.0630   -4.0630    0.0000 C   0  0  0  0  0  0  0  0  0  0  0  0
    2.8730   -4.9762    0.0000 C   0  0  0  0  0  0  0  0  0  0  0  0
    1.4872   -5.5502    0.0000 C   0  0  0  0  0  0  0  0  0  0  0  0
   -0.0000   -5.7460    0.0000 C   0  0  0  0  0  0  0  0  0  0  0  0
   -1.4872   -5.5502    0.0000 C   0  0  0  0  0  0  0  0  0  0  0  0
   -2.8730   -4.9762    0.0000 C   0  0  0  0  0  0  0  0  0  0  0  0
   -4.0630   -4.0630    0.0000 C   0  0  0  0  0  0  0  0  0  0  0  0
   -4.9762   -2.8730    0.0000 C   0  0  0  0  0  0  0  0  0  0  0  0
   -5.5502   -1.4872    0.0000 C   0  0  0  0  0  0  0  0  0  0  0  0
   -5.7460    0.0000    0.0000 C   0  0  0  0  0  0  0  0  0  0  0  0
   -5.5502    1.4872    0.0000 C   0  0  0  0  0  0  0  0  0  0  0  0
   -4.9762    2.8730    0.0000 C   0  0  0  0  0  0  0  0  0  0  0  0
   -4.0630    4.0630    0.0000 C   0  0  0  0  0  0  0  0  0  0  0  0
   -2.8730    4.9762    0.0000 C   0  0  0  0  0  0  0  0  0  0  0  0
   -1.4872    5.5502    0.0000 C   0  0  0  0  0  0  0  0  0  0  0  0
    0.0000    5.7460    0.0000 C   0  0  0  0  0  0  0  0  0  0  0  0
    1.4872    5.5502    0.0000 C   0  0  0  0  0  0  0  0  0  0  0  0
    2.8730    4.9762    0.0000 C   0  0  0  0  0  0  0  0  0  0  0  0
    4.0630    4.0630    0.0000 C   0  0  0  0  0  0  0  0  0  0  0  0
    4.9762    2.8730    0.0000 C   0  0  0  0  0  0  0  0  0  0  0  0
    5.5502    1.4872    0.0000 C   0  0  0  0  0  0  0  0  0  0  0  0
  1  2  1  0
  2  3  1  0
  3  4  1  0
  4  5  1  0
  5  6  1  0
  6  7  1  0
  7  8  1  0
  8  9  1  0
  9 10  1  0
 10 11  1  0
 11 12  1  0
 12 13  1  0
 13 14  1  0
 14 15  1  0
 15 16  1  0
 16 17  1  0
 17 18  1  0
 18 19  1  0
 19 20  1  0
 20 21  1  0
 21 22  1  0
 22 23  1  0
 23 24  1  0
 24  1  1  0
M  END
>  <Title>  (844) 
idABERgen7

$$$$

     RDKit          2D

  9  9  0  0  0  0  0  0  0  0999 V2000
    2.7760    0.0000    0.0000 C   0  0  0  0  0  0  0  0  0  0  0  0
    1.2760    0.0000    0.0000 C   0  0  0  0  0  0  0  0  0  0  0  0
    0.3943    1.2135    0.0000 C   0  0  0  0  0  0  0  0  0  0  0  0
   -1.0323    0.7500    0.0000 C   0  0  0  0  0  0  0  0  0  0  0  0
   -1.0323   -0.7500    0.0000 C   0  0  0  0  0  0  0  0  0  0  0  0
   -2.2458   -1.6317    0.0000 C   0  0  0  0  0  0  0  0  0  0  0  0
   -3.6161   -1.0216    0.0000 N   0  0  0  0  0  0  0  0  0  0  0  0
   -2.0890   -3.1235    0.0000 O   0  0  0  0  0  0  0  0  0  0  0  0
    0.3943   -1.2135    0.0000 C   0  0  0  0  0  0  0  0  0  0  0  0
  1  2  1  0
  2  3  1  0
  3  4  1  0
  4  5  1  0
  5  6  1  0
  6  7  1  0
  6  8  2  0
  5  9  1  0
  9  2  1  0
M  END
>  <Title>  (845) 
idABESgen7

$$$$

     RDKit          2D

 30 31  0  0  0  0  0  0  0  0999 V2000
   -2.7551   -0.2774    0.0000 C   0  0  0  0  0  0  0  0  0  0  0  0
   -2.2029   -1.6721    0.0000 C   0  0  0  0  0  0  0  0  0  0  0  0
   -3.5173   -2.3947    0.0000 C   0  0  0  0  0  0  0  0  0  0  0  0
   -4.6108   -3.4215    0.0000 C   0  0  0  0  0  0  0  0  0  0  0  0
   -5.4145   -4.6880    0.0000 C   0  0  0  0  0  0  0  0  0  0  0  0
   -5.8781   -6.1146    0.0000 C   0  0  0  0  0  0  0  0  0  0  0  0
   -5.9722   -7.6116    0.0000 C   0  0  0  0  0  0  0  0  0  0  0  0
   -5.6912   -9.0851    0.0000 C   0  0  0  0  0  0  0  0  0  0  0  0
   -5.0525  -10.4423    0.0000 C   0  0  0  0  0  0  0  0  0  0  0  0
   -4.0964  -11.5981    0.0000 C   0  0  0  0  0  0  0  0  0  0  0  0
   -2.8828  -12.4798    0.0000 C   0  0  0  0  0  0  0  0  0  0  0  0
   -1.4882  -13.0319    0.0000 C   0  0  0  0  0  0  0  0  0  0  0  0
   -0.0000  -13.2199    0.0000 C   0  0  0  0  0  0  0  0  0  0  0  0
    1.4882  -13.0319    0.0000 C   0  0  0  0  0  0  0  0  0  0  0  0
    2.8828  -12.4798    0.0000 C   0  0  0  0  0  0  0  0  0  0  0  0
    4.0964  -11.5981    0.0000 C   0  0  0  0  0  0  0  0  0  0  0  0
    5.0525  -10.4423    0.0000 C   0  0  0  0  0  0  0  0  0  0  0  0
    5.6912   -9.0851    0.0000 C   0  0  0  0  0  0  0  0  0  0  0  0
    5.9722   -7.6116    0.0000 C   0  0  0  0  0  0  0  0  0  0  0  0
    5.8781   -6.1146    0.0000 C   0  0  0  0  0  0  0  0  0  0  0  0
    5.4145   -4.6880    0.0000 C   0  0  0  0  0  0  0  0  0  0  0  0
    4.6108   -3.4215    0.0000 C   0  0  0  0  0  0  0  0  0  0  0  0
    3.5173   -2.3947    0.0000 C   0  0  0  0  0  0  0  0  0  0  0  0
    2.2029   -1.6721    0.0000 N   0  0  0  0  0  0  0  0  0  0  0  0
    0.7500   -1.2990    0.0000 C   0  0  0  0  0  0  0  0  0  0  0  0
    1.5000    0.0000    0.0000 C   0  0  0  0  0  0  0  0  0  0  0  0
    0.7500    1.2990    0.0000 C   0  0  0  0  0  0  0  0  0  0  0  0
   -0.7500    1.2990    0.0000 C   0  0  0  0  0  0  0  0  0  0  0  0
   -1.5000    0.0000    0.0000 C   0  0  0  0  0  0  0  0  0  0  0  0
   -0.7500   -1.2990    0.0000 C   0  0  0  0  0  0  0  0  0  0  0  0
  1  2  1  0
  2  3  1  0
  3  4  1  0
  4  5  2  0
  5  6  1  0
  6  7  1  0
  7  8  1  0
  8  9  1  0
  9 10  1  0
 10 11  1  0
 11 12  1  0
 12 13  1  0
 13 14  1  0
 14 15  1  0
 15 16  1  0
 16 17  1  0
 17 18  1  0
 18 19  1  0
 19 20  1  0
 20 21  1  0
 21 22  1  0
 22 23  1  0
 23 24  1  0
 24 25  1  0
 25 26  2  0
 26 27  1  0
 27 28  2  0
 28 29  1  0
 29 30  2  0
 30  2  1  0
 30 25  1  0
M  END
>  <Title>  (846) 
idABETgen7

$$$$

     RDKit          2D

 99 99  0  0  0  0  0  0  0  0999 V2000
   24.8998    0.0000    0.0000 C   0  0  0  0  0  0  0  0  0  0  0  0
   23.3998    0.0000    0.0000 C   0  0  0  0  0  0  0  0  0  0  0  0
   23.3517   -1.4992    0.0000 C   0  0  0  0  0  0  0  0  0  0  0  0
   23.2077   -2.9923    0.0000 C   0  0  0  0  0  0  0  0  0  0  0  0
   22.9683   -4.4731    0.0000 C   0  0  0  0  0  0  0  0  0  0  0  0
   22.6345   -5.9355    0.0000 C   0  0  0  0  0  0  0  0  0  0  0  0
   22.2077   -7.3735    0.0000 C   0  0  0  0  0  0  0  0  0  0  0  0
   21.6897   -8.7812    0.0000 C   0  0  0  0  0  0  0  0  0  0  0  0
   21.0825  -10.1528    0.0000 C   0  0  0  0  0  0  0  0  0  0  0  0
   20.3887  -11.4827    0.0000 C   0  0  0  0  0  0  0  0  0  0  0  0
   19.6111  -12.7654    0.0000 C   0  0  0  0  0  0  0  0  0  0  0  0
   18.7529  -13.9957    0.0000 C   0  0  0  0  0  0  0  0  0  0  0  0
   17.8177  -15.1684    0.0000 C   0  0  0  0  0  0  0  0  0  0  0  0
   16.8092  -16.2788    0.0000 C   0  0  0  0  0  0  0  0  0  0  0  0
   15.7317  -17.3223    0.0000 C   0  0  0  0  0  0  0  0  0  0  0  0
   14.5895  -18.2947    0.0000 C   0  0  0  0  0  0  0  0  0  0  0  0
   13.3874  -19.1919    0.0000 C   0  0  0  0  0  0  0  0  0  0  0  0
   12.1303  -20.0102    0.0000 C   0  0  0  0  0  0  0  0  0  0  0  0
   10.8233  -20.7462    0.0000 C   0  0  0  0  0  0  0  0  0  0  0  0
    9.4718  -21.3971    0.0000 C   0  0  0  0  0  0  0  0  0  0  0  0
    8.0815  -21.9600    0.0000 C   0  0  0  0  0  0  0  0  0  0  0  0
    6.6579  -22.4326    0.0000 C   0  0  0  0  0  0  0  0  0  0  0  0
    5.2069  -22.8131    0.0000 C   0  0  0  0  0  0  0  0  0  0  0  0
    3.7346  -23.0998    0.0000 C   0  0  0  0  0  0  0  0  0  0  0  0
    2.2469  -23.2917    0.0000 C   0  0  0  0  0  0  0  0  0  0  0  0
    0.7500  -23.3878    0.0000 C   0  0  0  0  0  0  0  0  0  0  0  0
   -0.7500  -23.3878    0.0000 C   0  0  0  0  0  0  0  0  0  0  0  0
   -2.2469  -23.2917    0.0000 C   0  0  0  0  0  0  0  0  0  0  0  0
   -3.7346  -23.0998    0.0000 C   0  0  0  0  0  0  0  0  0  0  0  0
   -5.2069  -22.8131    0.0000 C   0  0  0  0  0  0  0  0  0  0  0  0
   -6.6579  -22.4326    0.0000 C   0  0  0  0  0  0  0  0  0  0  0  0
   -8.0815  -21.9600    0.0000 C   0  0  0  0  0  0  0  0  0  0  0  0
   -9.4718  -21.3971    0.0000 C   0  0  0  0  0  0  0  0  0  0  0  0
  -10.8233  -20.7462    0.0000 C   0  0  0  0  0  0  0  0  0  0  0  0
  -12.1303  -20.0102    0.0000 C   0  0  0  0  0  0  0  0  0  0  0  0
  -13.3874  -19.1919    0.0000 C   0  0  0  0  0  0  0  0  0  0  0  0
  -14.5895  -18.2947    0.0000 C   0  0  0  0  0  0  0  0  0  0  0  0
  -15.7317  -17.3223    0.0000 C   0  0  0  0  0  0  0  0  0  0  0  0
  -16.8092  -16.2788    0.0000 C   0  0  0  0  0  0  0  0  0  0  0  0
  -17.8177  -15.1684    0.0000 C   0  0  0  0  0  0  0  0  0  0  0  0
  -18.7529  -13.9957    0.0000 C   0  0  0  0  0  0  0  0  0  0  0  0
  -19.6111  -12.7654    0.0000 C   0  0  0  0  0  0  0  0  0  0  0  0
  -20.3887  -11.4827    0.0000 C   0  0  0  0  0  0  0  0  0  0  0  0
  -21.0825  -10.1528    0.0000 C   0  0  0  0  0  0  0  0  0  0  0  0
  -21.6897   -8.7812    0.0000 C   0  0  0  0  0  0  0  0  0  0  0  0
  -22.2077   -7.3735    0.0000 C   0  0  0  0  0  0  0  0  0  0  0  0
  -22.6345   -5.9355    0.0000 C   0  0  0  0  0  0  0  0  0  0  0  0
  -22.9683   -4.4731    0.0000 C   0  0  0  0  0  0  0  0  0  0  0  0
  -23.2077   -2.9923    0.0000 C   0  0  0  0  0  0  0  0  0  0  0  0
  -23.3517   -1.4992    0.0000 C   0  0  0  0  0  0  0  0  0  0  0  0
  -23.3998    0.0000    0.0000 C   0  0  0  0  0  0  0  0  0  0  0  0
  -23.3517    1.4992    0.0000 C   0  0  0  0  0  0  0  0  0  0  0  0
  -23.2077    2.9923    0.0000 C   0  0  0  0  0  0  0  0  0  0  0  0
  -22.9683    4.4731    0.0000 C   0  0  0  0  0  0  0  0  0  0  0  0
  -22.6345    5.9355    0.0000 C   0  0  0  0  0  0  0  0  0  0  0  0
  -22.2077    7.3735    0.0000 C   0  0  0  0  0  0  0  0  0  0  0  0
  -21.6897    8.7812    0.0000 C   0  0  0  0  0  0  0  0  0  0  0  0
  -21.0825   10.1528    0.0000 C   0  0  0  0  0  0  0  0  0  0  0  0
  -20.3887   11.4827    0.0000 C   0  0  0  0  0  0  0  0  0  0  0  0
  -19.6111   12.7654    0.0000 C   0  0  0  0  0  0  0  0  0  0  0  0
  -18.7529   13.9957    0.0000 C   0  0  0  0  0  0  0  0  0  0  0  0
  -17.8177   15.1684    0.0000 C   0  0  0  0  0  0  0  0  0  0  0  0
  -16.8092   16.2788    0.0000 C   0  0  0  0  0  0  0  0  0  0  0  0
  -15.7317   17.3223    0.0000 C   0  0  0  0  0  0  0  0  0  0  0  0
  -14.5895   18.2947    0.0000 C   0  0  0  0  0  0  0  0  0  0  0  0
  -13.3874   19.1919    0.0000 C   0  0  0  0  0  0  0  0  0  0  0  0
  -12.1303   20.0102    0.0000 C   0  0  0  0  0  0  0  0  0  0  0  0
  -10.8233   20.7462    0.0000 C   0  0  0  0  0  0  0  0  0  0  0  0
   -9.4718   21.3971    0.0000 C   0  0  0  0  0  0  0  0  0  0  0  0
   -8.0815   21.9600    0.0000 C   0  0  0  0  0  0  0  0  0  0  0  0
   -6.6579   22.4326    0.0000 C   0  0  0  0  0  0  0  0  0  0  0  0
   -5.2069   22.8131    0.0000 C   0  0  0  0  0  0  0  0  0  0  0  0
   -3.7346   23.0998    0.0000 C   0  0  0  0  0  0  0  0  0  0  0  0
   -2.2469   23.2917    0.0000 C   0  0  0  0  0  0  0  0  0  0  0  0
   -0.7500   23.3878    0.0000 C   0  0  0  0  0  0  0  0  0  0  0  0
    0.7500   23.3878    0.0000 C   0  0  0  0  0  0  0  0  0  0  0  0
    2.2469   23.2917    0.0000 C   0  0  0  0  0  0  0  0  0  0  0  0
    3.7346   23.0998    0.0000 C   0  0  0  0  0  0  0  0  0  0  0  0
    5.2069   22.8131    0.0000 C   0  0  0  0  0  0  0  0  0  0  0  0
    6.6579   22.4326    0.0000 C   0  0  0  0  0  0  0  0  0  0  0  0
    8.0815   21.9600    0.0000 C   0  0  0  0  0  0  0  0  0  0  0  0
    9.4718   21.3971    0.0000 C   0  0  0  0  0  0  0  0  0  0  0  0
   10.8233   20.7462    0.0000 C   0  0  0  0  0  0  0  0  0  0  0  0
   12.1303   20.0102    0.0000 C   0  0  0  0  0  0  0  0  0  0  0  0
   13.3874   19.1919    0.0000 C   0  0  0  0  0  0  0  0  0  0  0  0
   14.5895   18.2947    0.0000 C   0  0  0  0  0  0  0  0  0  0  0  0
   15.7317   17.3223    0.0000 C   0  0  0  0  0  0  0  0  0  0  0  0
   16.8092   16.2788    0.0000 C   0  0  0  0  0  0  0  0  0  0  0  0
   17.8177   15.1684    0.0000 C   0  0  0  0  0  0  0  0  0  0  0  0
   18.7529   13.9957    0.0000 C   0  0  0  0  0  0  0  0  0  0  0  0
   19.6111   12.7654    0.0000 C   0  0  0  0  0  0  0  0  0  0  0  0
   20.3887   11.4827    0.0000 C   0  0  0  0  0  0  0  0  0  0  0  0
   21.0825   10.1528    0.0000 C   0  0  0  0  0  0  0  0  0  0  0  0
   21.6897    8.7812    0.0000 C   0  0  0  0  0  0  0  0  0  0  0  0
   22.2077    7.3735    0.0000 C   0  0  0  0  0  0  0  0  0  0  0  0
   22.6345    5.9355    0.0000 C   0  0  0  0  0  0  0  0  0  0  0  0
   22.9683    4.4731    0.0000 C   0  0  0  0  0  0  0  0  0  0  0  0
   23.2077    2.9923    0.0000 C   0  0  0  0  0  0  0  0  0  0  0  0
   23.3517    1.4992    0.0000 C   0  0  0  0  0  0  0  0  0  0  0  0
  1  2  1  0
  2  3  1  0
  3  4  1  0
  4  5  2  0
  5  6  1  0
  6  7  2  0
  7  8  1  0
  8  9  1  0
  9 10  1  0
 10 11  1  0
 11 12  1  0
 12 13  1  0
 13 14  1  0
 14 15  1  0
 15 16  1  0
 16 17  1  0
 17 18  1  0
 18 19  1  0
 19 20  1  0
 20 21  1  0
 21 22  1  0
 22 23  1  0
 23 24  1  0
 24 25  1  0
 25 26  1  0
 26 27  1  0
 27 28  1  0
 28 29  1  0
 29 30  1  0
 30 31  1  0
 31 32  1  0
 32 33  1  0
 33 34  1  0
 34 35  1  0
 35 36  1  0
 36 37  1  0
 37 38  1  0
 38 39  1  0
 39 40  1  0
 40 41  1  0
 41 42  1  0
 42 43  1  0
 43 44  1  0
 44 45  1  0
 45 46  1  0
 46 47  1  0
 47 48  1  0
 48 49  1  0
 49 50  1  0
 50 51  1  0
 51 52  1  0
 52 53  1  0
 53 54  1  0
 54 55  1  0
 55 56  1  0
 56 57  1  0
 57 58  1  0
 58 59  1  0
 59 60  1  0
 60 61  1  0
 61 62  1  0
 62 63  1  0
 63 64  1  0
 64 65  1  0
 65 66  1  0
 66 67  1  0
 67 68  1  0
 68 69  1  0
 69 70  1  0
 70 71  1  0
 71 72  1  0
 72 73  1  0
 73 74  1  0
 74 75  1  0
 75 76  1  0
 76 77  1  0
 77 78  1  0
 78 79  1  0
 79 80  1  0
 80 81  1  0
 81 82  1  0
 82 83  1  0
 83 84  1  0
 84 85  1  0
 85 86  1  0
 86 87  1  0
 87 88  1  0
 88 89  1  0
 89 90  1  0
 90 91  1  0
 91 92  1  0
 92 93  1  0
 93 94  1  0
 94 95  1  0
 95 96  1  0
 96 97  1  0
 97 98  1  0
 98 99  1  0
 99  2  1  0
M  END
>  <Title>  (847) 
idABEUgen7

$$$$

     RDKit          2D

  8  8  0  0  0  0  0  0  0  0999 V2000
    3.7500   -1.2990    0.0000 C   0  0  0  0  0  0  0  0  0  0  0  0
    3.0000    0.0000    0.0000 O   0  0  0  0  0  0  0  0  0  0  0  0
    1.5000    0.0000    0.0000 C   0  0  0  0  0  0  0  0  0  0  0  0
    0.7500   -1.2990    0.0000 C   0  0  0  0  0  0  0  0  0  0  0  0
   -0.7500   -1.2990    0.0000 C   0  0  0  0  0  0  0  0  0  0  0  0
   -1.5000    0.0000    0.0000 C   0  0  0  0  0  0  0  0  0  0  0  0
   -0.7500    1.2990    0.0000 C   0  0  0  0  0  0  0  0  0  0  0  0
    0.7500    1.2990    0.0000 C   0  0  0  0  0  0  0  0  0  0  0  0
  1  2  1  0
  2  3  1  0
  3  4  2  0
  4  5  1  0
  5  6  1  0
  6  7  1  0
  7  8  1  0
  8  3  1  0
M  END
>  <Title>  (848) 
idABEVgen7

$$$$

     RDKit          2D

 69 69  0  0  0  0  0  0  0  0999 V2000
   17.7396    0.0000    0.0000 C   0  0  0  0  0  0  0  0  0  0  0  0
   16.2396    0.0000    0.0000 C   0  0  0  0  0  0  0  0  0  0  0  0
   16.1703   -1.4984    0.0000 C   0  0  0  0  0  0  0  0  0  0  0  0
   15.9631   -2.9840    0.0000 C   0  0  0  0  0  0  0  0  0  0  0  0
   15.6196   -4.4442    0.0000 C   0  0  0  0  0  0  0  0  0  0  0  0
   15.1430   -5.8664    0.0000 C   0  0  0  0  0  0  0  0  0  0  0  0
   14.5371   -7.2386    0.0000 C   0  0  0  0  0  0  0  0  0  0  0  0
   13.8072   -8.5490    0.0000 C   0  0  0  0  0  0  0  0  0  0  0  0
   12.9595   -9.7865    0.0000 C   0  0  0  0  0  0  0  0  0  0  0  0
   12.0012  -10.9405    0.0000 C   0  0  0  0  0  0  0  0  0  0  0  0
   10.9405  -12.0012    0.0000 C   0  0  0  0  0  0  0  0  0  0  0  0
    9.7865  -12.9595    0.0000 C   0  0  0  0  0  0  0  0  0  0  0  0
    8.5490  -13.8072    0.0000 C   0  0  0  0  0  0  0  0  0  0  0  0
    7.2386  -14.5371    0.0000 C   0  0  0  0  0  0  0  0  0  0  0  0
    5.8664  -15.1430    0.0000 C   0  0  0  0  0  0  0  0  0  0  0  0
    4.4442  -15.6196    0.0000 C   0  0  0  0  0  0  0  0  0  0  0  0
    2.9840  -15.9631    0.0000 C   0  0  0  0  0  0  0  0  0  0  0  0
    1.4984  -16.1703    0.0000 C   0  0  0  0  0  0  0  0  0  0  0  0
   -0.0000  -16.2396    0.0000 C   0  0  0  0  0  0  0  0  0  0  0  0
   -1.4984  -16.1703    0.0000 C   0  0  0  0  0  0  0  0  0  0  0  0
   -2.9840  -15.9631    0.0000 C   0  0  0  0  0  0  0  0  0  0  0  0
   -4.4442  -15.6196    0.0000 C   0  0  0  0  0  0  0  0  0  0  0  0
   -5.8664  -15.1430    0.0000 C   0  0  0  0  0  0  0  0  0  0  0  0
   -7.2386  -14.5371    0.0000 C   0  0  0  0  0  0  0  0  0  0  0  0
   -8.5490  -13.8072    0.0000 C   0  0  0  0  0  0  0  0  0  0  0  0
   -9.7865  -12.9595    0.0000 C   0  0  0  0  0  0  0  0  0  0  0  0
  -10.9405  -12.0012    0.0000 C   0  0  0  0  0  0  0  0  0  0  0  0
  -12.0012  -10.9405    0.0000 C   0  0  0  0  0  0  0  0  0  0  0  0
  -12.9595   -9.7865    0.0000 C   0  0  0  0  0  0  0  0  0  0  0  0
  -13.8072   -8.5490    0.0000 C   0  0  0  0  0  0  0  0  0  0  0  0
  -14.5371   -7.2386    0.0000 C   0  0  0  0  0  0  0  0  0  0  0  0
  -15.1430   -5.8664    0.0000 C   0  0  0  0  0  0  0  0  0  0  0  0
  -15.6196   -4.4442    0.0000 C   0  0  0  0  0  0  0  0  0  0  0  0
  -15.9631   -2.9840    0.0000 C   0  0  0  0  0  0  0  0  0  0  0  0
  -16.1703   -1.4984    0.0000 C   0  0  0  0  0  0  0  0  0  0  0  0
  -16.2396    0.0000    0.0000 C   0  0  0  0  0  0  0  0  0  0  0  0
  -16.1703    1.4984    0.0000 C   0  0  0  0  0  0  0  0  0  0  0  0
  -15.9631    2.9840    0.0000 C   0  0  0  0  0  0  0  0  0  0  0  0
  -15.6196    4.4442    0.0000 C   0  0  0  0  0  0  0  0  0  0  0  0
  -15.1430    5.8664    0.0000 C   0  0  0  0  0  0  0  0  0  0  0  0
  -14.5371    7.2386    0.0000 C   0  0  0  0  0  0  0  0  0  0  0  0
  -13.8072    8.5490    0.0000 C   0  0  0  0  0  0  0  0  0  0  0  0
  -12.9595    9.7865    0.0000 C   0  0  0  0  0  0  0  0  0  0  0  0
  -12.0012   10.9405    0.0000 C   0  0  0  0  0  0  0  0  0  0  0  0
  -10.9405   12.0012    0.0000 C   0  0  0  0  0  0  0  0  0  0  0  0
   -9.7865   12.9595    0.0000 C   0  0  0  0  0  0  0  0  0  0  0  0
   -8.5490   13.8072    0.0000 C   0  0  0  0  0  0  0  0  0  0  0  0
   -7.2386   14.5371    0.0000 C   0  0  0  0  0  0  0  0  0  0  0  0
   -5.8664   15.1430    0.0000 C   0  0  0  0  0  0  0  0  0  0  0  0
   -4.4442   15.6196    0.0000 C   0  0  0  0  0  0  0  0  0  0  0  0
   -2.9840   15.9631    0.0000 C   0  0  0  0  0  0  0  0  0  0  0  0
   -1.4984   16.1703    0.0000 C   0  0  0  0  0  0  0  0  0  0  0  0
    0.0000   16.2396    0.0000 C   0  0  0  0  0  0  0  0  0  0  0  0
    1.4984   16.1703    0.0000 C   0  0  0  0  0  0  0  0  0  0  0  0
    2.9840   15.9631    0.0000 C   0  0  0  0  0  0  0  0  0  0  0  0
    4.4442   15.6196    0.0000 C   0  0  0  0  0  0  0  0  0  0  0  0
    5.8664   15.1430    0.0000 C   0  0  0  0  0  0  0  0  0  0  0  0
    7.2386   14.5371    0.0000 C   0  0  0  0  0  0  0  0  0  0  0  0
    8.5490   13.8072    0.0000 C   0  0  0  0  0  0  0  0  0  0  0  0
    9.7865   12.9595    0.0000 C   0  0  0  0  0  0  0  0  0  0  0  0
   10.9405   12.0012    0.0000 C   0  0  0  0  0  0  0  0  0  0  0  0
   12.0012   10.9405    0.0000 C   0  0  0  0  0  0  0  0  0  0  0  0
   12.9595    9.7865    0.0000 C   0  0  0  0  0  0  0  0  0  0  0  0
   13.8072    8.5490    0.0000 C   0  0  0  0  0  0  0  0  0  0  0  0
   14.5371    7.2386    0.0000 C   0  0  0  0  0  0  0  0  0  0  0  0
   15.1430    5.8664    0.0000 C   0  0  0  0  0  0  0  0  0  0  0  0
   15.6196    4.4442    0.0000 C   0  0  0  0  0  0  0  0  0  0  0  0
   15.9631    2.9840    0.0000 C   0  0  0  0  0  0  0  0  0  0  0  0
   16.1703    1.4984    0.0000 C   0  0  0  0  0  0  0  0  0  0  0  0
  1  2  1  0
  2  3  1  0
  3  4  1  0
  4  5  1  0
  5  6  1  0
  6  7  1  0
  7  8  1  0
  8  9  1  0
  9 10  1  0
 10 11  1  0
 11 12  1  0
 12 13  1  0
 13 14  1  0
 14 15  1  0
 15 16  1  0
 16 17  1  0
 17 18  1  0
 18 19  1  0
 19 20  1  0
 20 21  1  0
 21 22  1  0
 22 23  1  0
 23 24  1  0
 24 25  1  0
 25 26  1  0
 26 27  1  0
 27 28  1  0
 28 29  1  0
 29 30  1  0
 30 31  1  0
 31 32  1  0
 32 33  1  0
 33 34  1  0
 34 35  1  0
 35 36  1  0
 36 37  1  0
 37 38  1  0
 38 39  1  0
 39 40  1  0
 40 41  1  0
 41 42  1  0
 42 43  1  0
 43 44  1  0
 44 45  1  0
 45 46  1  0
 46 47  1  0
 47 48  1  0
 48 49  1  0
 49 50  1  0
 50 51  1  0
 51 52  1  0
 52 53  1  0
 53 54  1  0
 54 55  1  0
 55 56  1  0
 56 57  1  0
 57 58  1  0
 58 59  1  0
 59 60  1  0
 60 61  1  0
 61 62  1  0
 62 63  1  0
 63 64  1  0
 64 65  1  0
 65 66  1  0
 66 67  1  0
 67 68  1  0
 68 69  1  0
 69  2  1  0
M  END
>  <Title>  (849) 
idABEWgen7

$$$$

     RDKit          2D

 88 88  0  0  0  0  0  0  0  0999 V2000
   22.2742   -0.0000    0.0000 C   0  0  0  0  0  0  0  0  0  0  0  0
   20.7742    0.0000    0.0000 C   0  0  0  0  0  0  0  0  0  0  0  0
   20.7201    1.4990    0.0000 C   0  0  0  0  0  0  0  0  0  0  0  0
   20.5579    2.9902    0.0000 C   0  0  0  0  0  0  0  0  0  0  0  0
   20.2885    4.4658    0.0000 C   0  0  0  0  0  0  0  0  0  0  0  0
   19.9134    5.9182    0.0000 C   0  0  0  0  0  0  0  0  0  0  0  0
   19.4345    7.3397    0.0000 C   0  0  0  0  0  0  0  0  0  0  0  0
   18.8542    8.7229    0.0000 C   0  0  0  0  0  0  0  0  0  0  0  0
   18.1756   10.0606    0.0000 C   0  0  0  0  0  0  0  0  0  0  0  0
   17.4023   11.3459    0.0000 C   0  0  0  0  0  0  0  0  0  0  0  0
   16.5382   12.5720    0.0000 C   0  0  0  0  0  0  0  0  0  0  0  0
   15.5879   13.7326    0.0000 C   0  0  0  0  0  0  0  0  0  0  0  0
   14.5564   14.8216    0.0000 C   0  0  0  0  0  0  0  0  0  0  0  0
   13.4490   15.8333    0.0000 C   0  0  0  0  0  0  0  0  0  0  0  0
   12.2714   16.7625    0.0000 C   0  0  0  0  0  0  0  0  0  0  0  0
   11.0299   17.6043    0.0000 C   0  0  0  0  0  0  0  0  0  0  0  0
    9.7308   18.3543    0.0000 C   0  0  0  0  0  0  0  0  0  0  0  0
    8.3811   19.0086    0.0000 C   0  0  0  0  0  0  0  0  0  0  0  0
    6.9876   19.5638    0.0000 C   0  0  0  0  0  0  0  0  0  0  0  0
    5.5577   20.0170    0.0000 C   0  0  0  0  0  0  0  0  0  0  0  0
    4.0988   20.3659    0.0000 C   0  0  0  0  0  0  0  0  0  0  0  0
    2.6186   20.6085    0.0000 C   0  0  0  0  0  0  0  0  0  0  0  0
    1.1247   20.7438    0.0000 C   0  0  0  0  0  0  0  0  0  0  0  0
   -0.3751   20.7708    0.0000 C   0  0  0  0  0  0  0  0  0  0  0  0
   -1.8729   20.6896    0.0000 C   0  0  0  0  0  0  0  0  0  0  0  0
   -3.3609   20.5006    0.0000 C   0  0  0  0  0  0  0  0  0  0  0  0
   -4.8314   20.2046    0.0000 C   0  0  0  0  0  0  0  0  0  0  0  0
   -6.2767   19.8033    0.0000 C   0  0  0  0  0  0  0  0  0  0  0  0
   -7.6893   19.2988    0.0000 C   0  0  0  0  0  0  0  0  0  0  0  0
   -9.0618   18.6936    0.0000 C   0  0  0  0  0  0  0  0  0  0  0  0
  -10.3871   17.9910    0.0000 C   0  0  0  0  0  0  0  0  0  0  0  0
  -11.6582   17.1946    0.0000 C   0  0  0  0  0  0  0  0  0  0  0  0
  -12.8686   16.3086    0.0000 C   0  0  0  0  0  0  0  0  0  0  0  0
  -14.0118   15.3375    0.0000 C   0  0  0  0  0  0  0  0  0  0  0  0
  -15.0820   14.2864    0.0000 C   0  0  0  0  0  0  0  0  0  0  0  0
  -16.0736   13.1609    0.0000 C   0  0  0  0  0  0  0  0  0  0  0  0
  -16.9813   11.9668    0.0000 C   0  0  0  0  0  0  0  0  0  0  0  0
  -17.8006   10.7102    0.0000 C   0  0  0  0  0  0  0  0  0  0  0  0
  -18.5270    9.3979    0.0000 C   0  0  0  0  0  0  0  0  0  0  0  0
  -19.1568    8.0365    0.0000 C   0  0  0  0  0  0  0  0  0  0  0  0
  -19.6868    6.6332    0.0000 C   0  0  0  0  0  0  0  0  0  0  0  0
  -20.1141    5.1954    0.0000 C   0  0  0  0  0  0  0  0  0  0  0  0
  -20.4365    3.7305    0.0000 C   0  0  0  0  0  0  0  0  0  0  0  0
  -20.6525    2.2461    0.0000 C   0  0  0  0  0  0  0  0  0  0  0  0
  -20.7607    0.7500    0.0000 C   0  0  0  0  0  0  0  0  0  0  0  0
  -20.7607   -0.7500    0.0000 C   0  0  0  0  0  0  0  0  0  0  0  0
  -20.6525   -2.2461    0.0000 C   0  0  0  0  0  0  0  0  0  0  0  0
  -20.4365   -3.7305    0.0000 C   0  0  0  0  0  0  0  0  0  0  0  0
  -20.1141   -5.1954    0.0000 C   0  0  0  0  0  0  0  0  0  0  0  0
  -19.6868   -6.6332    0.0000 C   0  0  0  0  0  0  0  0  0  0  0  0
  -19.1568   -8.0365    0.0000 C   0  0  0  0  0  0  0  0  0  0  0  0
  -18.5270   -9.3979    0.0000 C   0  0  0  0  0  0  0  0  0  0  0  0
  -17.8006  -10.7102    0.0000 C   0  0  0  0  0  0  0  0  0  0  0  0
  -16.9813  -11.9668    0.0000 C   0  0  0  0  0  0  0  0  0  0  0  0
  -16.0736  -13.1609    0.0000 C   0  0  0  0  0  0  0  0  0  0  0  0
  -15.0820  -14.2864    0.0000 C   0  0  0  0  0  0  0  0  0  0  0  0
  -14.0118  -15.3375    0.0000 C   0  0  0  0  0  0  0  0  0  0  0  0
  -12.8686  -16.3086    0.0000 C   0  0  0  0  0  0  0  0  0  0  0  0
  -11.6582  -17.1946    0.0000 C   0  0  0  0  0  0  0  0  0  0  0  0
  -10.3871  -17.9910    0.0000 C   0  0  0  0  0  0  0  0  0  0  0  0
   -9.0618  -18.6936    0.0000 C   0  0  0  0  0  0  0  0  0  0  0  0
   -7.6893  -19.2988    0.0000 C   0  0  0  0  0  0  0  0  0  0  0  0
   -6.2767  -19.8033    0.0000 C   0  0  0  0  0  0  0  0  0  0  0  0
   -4.8314  -20.2046    0.0000 C   0  0  0  0  0  0  0  0  0  0  0  0
   -3.3609  -20.5006    0.0000 C   0  0  0  0  0  0  0  0  0  0  0  0
   -1.8729  -20.6896    0.0000 C   0  0  0  0  0  0  0  0  0  0  0  0
   -0.3751  -20.7708    0.0000 C   0  0  0  0  0  0  0  0  0  0  0  0
    1.1247  -20.7438    0.0000 C   0  0  0  0  0  0  0  0  0  0  0  0
    2.6186  -20.6085    0.0000 C   0  0  0  0  0  0  0  0  0  0  0  0
    4.0988  -20.3659    0.0000 C   0  0  0  0  0  0  0  0  0  0  0  0
    5.5577  -20.0170    0.0000 C   0  0  0  0  0  0  0  0  0  0  0  0
    6.9876  -19.5638    0.0000 C   0  0  0  0  0  0  0  0  0  0  0  0
    8.3811  -19.0086    0.0000 C   0  0  0  0  0  0  0  0  0  0  0  0
    9.7308  -18.3543    0.0000 C   0  0  0  0  0  0  0  0  0  0  0  0
   11.0299  -17.6043    0.0000 C   0  0  0  0  0  0  0  0  0  0  0  0
   12.2714  -16.7625    0.0000 C   0  0  0  0  0  0  0  0  0  0  0  0
   13.4490  -15.8333    0.0000 C   0  0  0  0  0  0  0  0  0  0  0  0
   14.5564  -14.8216    0.0000 C   0  0  0  0  0  0  0  0  0  0  0  0
   15.5879  -13.7326    0.0000 C   0  0  0  0  0  0  0  0  0  0  0  0
   16.5382  -12.5720    0.0000 C   0  0  0  0  0  0  0  0  0  0  0  0
   17.4023  -11.3459    0.0000 C   0  0  0  0  0  0  0  0  0  0  0  0
   18.1756  -10.0606    0.0000 C   0  0  0  0  0  0  0  0  0  0  0  0
   18.8542   -8.7229    0.0000 C   0  0  0  0  0  0  0  0  0  0  0  0
   19.4345   -7.3397    0.0000 C   0  0  0  0  0  0  0  0  0  0  0  0
   19.9134   -5.9182    0.0000 C   0  0  0  0  0  0  0  0  0  0  0  0
   20.2885   -4.4658    0.0000 C   0  0  0  0  0  0  0  0  0  0  0  0
   20.5579   -2.9902    0.0000 C   0  0  0  0  0  0  0  0  0  0  0  0
   20.7201   -1.4990    0.0000 C   0  0  0  0  0  0  0  0  0  0  0  0
  1  2  1  0
  2  3  1  0
  3  4  1  0
  4  5  1  0
  5  6  1  0
  6  7  1  0
  7  8  1  0
  8  9  1  0
  9 10  1  0
 10 11  1  0
 11 12  1  0
 12 13  1  0
 13 14  1  0
 14 15  1  0
 15 16  1  0
 16 17  1  0
 17 18  1  0
 18 19  1  0
 19 20  1  0
 20 21  1  0
 21 22  1  0
 22 23  1  0
 23 24  1  0
 24 25  1  0
 25 26  1  0
 26 27  1  0
 27 28  1  0
 28 29  1  0
 29 30  1  0
 30 31  1  0
 31 32  1  0
 32 33  2  0
 33 34  1  0
 34 35  2  0
 35 36  1  0
 36 37  2  0
 37 38  1  0
 38 39  2  0
 39 40  1  0
 40 41  2  0
 41 42  1  0
 42 43  2  0
 43 44  1  0
 44 45  2  0
 45 46  1  0
 46 47  1  0
 47 48  1  0
 48 49  1  0
 49 50  1  0
 50 51  1  0
 51 52  1  0
 52 53  1  0
 53 54  1  0
 54 55  1  0
 55 56  1  0
 56 57  1  0
 57 58  1  0
 58 59  1  0
 59 60  1  0
 60 61  1  0
 61 62  1  0
 62 63  1  0
 63 64  1  0
 64 65  1  0
 65 66  1  0
 66 67  1  0
 67 68  1  0
 68 69  1  0
 69 70  1  0
 70 71  1  0
 71 72  1  0
 72 73  1  0
 73 74  1  0
 74 75  1  0
 75 76  1  0
 76 77  1  0
 77 78  1  0
 78 79  1  0
 79 80  1  0
 80 81  1  0
 81 82  1  0
 82 83  1  0
 83 84  1  0
 84 85  1  0
 85 86  1  0
 86 87  1  0
 87 88  1  0
 88  2  1  0
M  END
>  <Title>  (850) 
idABEXgen7

$$$$

     RDKit          2D

 39 44  0  0  0  0  0  0  0  0999 V2000
    3.1097   -7.2078    0.0000 C   0  0  0  0  0  0  0  0  0  0  0  0
    2.0490   -6.1471    0.0000 C   0  0  0  0  0  0  0  0  0  0  0  0
    2.7990   -4.8481    0.0000 C   0  0  0  0  0  0  0  0  0  0  0  0
    2.7990   -3.3481    0.0000 C   0  0  0  0  0  0  0  0  0  0  0  0
    2.0490   -2.0490    0.0000 C   0  0  0  0  0  0  0  0  0  0  0  0
    3.1097   -0.9884    0.0000 C   0  0  0  0  0  0  0  0  0  0  0  0
    2.7215    0.4605    0.0000 O   0  0  0  0  0  0  0  0  0  0  0  0
    4.5586   -1.3766    0.0000 N   0  0  0  0  0  0  0  0  0  0  0  0
    5.6192   -0.3159    0.0000 C   0  0  0  0  0  0  0  0  0  0  0  0
    7.0681   -0.7042    0.0000 N   0  0  0  0  0  0  0  0  0  0  0  0
    8.1288    0.3565    0.0000 N   0  0  0  0  0  0  0  0  0  0  0  0
    7.7406    1.8054    0.0000 N   0  0  0  0  0  0  0  0  0  0  0  0
    6.2917    2.1936    0.0000 N   0  0  0  0  0  0  0  0  0  0  0  0
    5.2310    1.1329    0.0000 N   0  0  0  0  0  0  0  0  0  0  0  0
    0.7500   -1.2990    0.0000 C   0  0  0  0  0  0  0  0  0  0  0  0
    1.5000    0.0000    0.0000 C   0  0  0  0  0  0  0  0  0  0  0  0
    0.7500    1.2990    0.0000 C   0  0  0  0  0  0  0  0  0  0  0  0
   -0.7500    1.2990    0.0000 C   0  0  0  0  0  0  0  0  0  0  0  0
   -1.5000    0.0000    0.0000 C   0  0  0  0  0  0  0  0  0  0  0  0
   -0.7500   -1.2990    0.0000 C   0  0  0  0  0  0  0  0  0  0  0  0
   -2.0490   -2.0490    0.0000 C   0  0  0  0  0  0  0  0  0  0  0  0
   -2.7990   -0.7500    0.0000 C   0  0  0  0  0  0  0  0  0  0  0  0
   -4.2990   -0.7500    0.0000 C   0  0  0  0  0  0  0  0  0  0  0  0
   -5.0490   -2.0490    0.0000 C   0  0  0  0  0  0  0  0  0  0  0  0
   -4.2990   -3.3481    0.0000 C   0  0  0  0  0  0  0  0  0  0  0  0
   -2.7990   -3.3481    0.0000 C   0  0  0  0  0  0  0  0  0  0  0  0
   -2.7990   -4.8481    0.0000 C   0  0  0  0  0  0  0  0  0  0  0  0
   -4.2990   -4.8481    0.0000 C   0  0  0  0  0  0  0  0  0  0  0  0
   -5.0490   -6.1471    0.0000 C   0  0  0  0  0  0  0  0  0  0  0  0
   -4.2990   -7.4462    0.0000 C   0  0  0  0  0  0  0  0  0  0  0  0
   -2.7990   -7.4462    0.0000 C   0  0  0  0  0  0  0  0  0  0  0  0
   -2.0490   -6.1471    0.0000 C   0  0  0  0  0  0  0  0  0  0  0  0
   -0.7500   -6.8971    0.0000 C   0  0  0  0  0  0  0  0  0  0  0  0
   -1.5000   -8.1962    0.0000 C   0  0  0  0  0  0  0  0  0  0  0  0
   -0.7500   -9.4952    0.0000 C   0  0  0  0  0  0  0  0  0  0  0  0
    0.7500   -9.4952    0.0000 C   0  0  0  0  0  0  0  0  0  0  0  0
    1.5000  -10.7942    0.0000 Cl  0  0  0  0  0  0  0  0  0  0  0  0
    1.5000   -8.1962    0.0000 C   0  0  0  0  0  0  0  0  0  0  0  0
    0.7500   -6.8971    0.0000 C   0  0  0  0  0  0  0  0  0  0  0  0
  1  2  1  0
  2  3  1  0
  3  4  1  0
  4  5  1  0
  5  6  1  0
  6  7  2  0
  6  8  1  0
  8  9  1  0
  9 10  2  0
 10 11  1  0
 11 12  2  0
 12 13  1  0
 13 14  2  0
  5 15  1  0
 15 16  2  0
 16 17  1  0
 17 18  2  0
 18 19  1  0
 19 20  2  0
 20 21  1  0
 21 22  2  0
 22 23  1  0
 23 24  2  0
 24 25  1  0
 25 26  2  0
 26 27  1  0
 27 28  2  0
 28 29  1  0
 29 30  2  0
 30 31  1  0
 31 32  2  0
 32 33  1  0
 33 34  2  0
 34 35  1  0
 35 36  2  0
 36 37  1  0
 36 38  1  0
 38 39  2  0
 39  2  1  0
 14  9  1  0
 20 15  1  0
 26 21  1  0
 32 27  1  0
 39 33  1  0
M  END
>  <Title>  (851) 
idABEYgen7

$$$$

     RDKit          2D

 30 30  0  0  0  0  0  0  0  0999 V2000
    8.4368    0.0000    0.0000 C   0  0  0  0  0  0  0  0  0  0  0  0
    6.9368    0.0000    0.0000 C   0  0  0  0  0  0  0  0  0  0  0  0
    6.7746    1.4912    0.0000 C   0  0  0  0  0  0  0  0  0  0  0  0
    6.2957    2.9127    0.0000 C   0  0  0  0  0  0  0  0  0  0  0  0
    5.5223    4.1980    0.0000 C   0  0  0  0  0  0  0  0  0  0  0  0
    4.4908    5.2870    0.0000 C   0  0  0  0  0  0  0  0  0  0  0  0
    3.2493    6.1287    0.0000 C   0  0  0  0  0  0  0  0  0  0  0  0
    1.8558    6.6840    0.0000 C   0  0  0  0  0  0  0  0  0  0  0  0
    0.3756    6.9266    0.0000 C   0  0  0  0  0  0  0  0  0  0  0  0
   -1.1222    6.8454    0.0000 C   0  0  0  0  0  0  0  0  0  0  0  0
   -2.5676    6.4441    0.0000 C   0  0  0  0  0  0  0  0  0  0  0  0
   -3.8928    5.7415    0.0000 C   0  0  0  0  0  0  0  0  0  0  0  0
   -5.0361    4.7704    0.0000 C   0  0  0  0  0  0  0  0  0  0  0  0
   -5.9438    3.5763    0.0000 C   0  0  0  0  0  0  0  0  0  0  0  0
   -6.5737    2.2149    0.0000 C   0  0  0  0  0  0  0  0  0  0  0  0
   -6.8961    0.7500    0.0000 C   0  0  0  0  0  0  0  0  0  0  0  0
   -6.8961   -0.7500    0.0000 C   0  0  0  0  0  0  0  0  0  0  0  0
   -6.5737   -2.2149    0.0000 C   0  0  0  0  0  0  0  0  0  0  0  0
   -5.9438   -3.5763    0.0000 C   0  0  0  0  0  0  0  0  0  0  0  0
   -5.0361   -4.7704    0.0000 C   0  0  0  0  0  0  0  0  0  0  0  0
   -3.8928   -5.7415    0.0000 C   0  0  0  0  0  0  0  0  0  0  0  0
   -2.5676   -6.4441    0.0000 C   0  0  0  0  0  0  0  0  0  0  0  0
   -1.1222   -6.8454    0.0000 C   0  0  0  0  0  0  0  0  0  0  0  0
    0.3756   -6.9266    0.0000 C   0  0  0  0  0  0  0  0  0  0  0  0
    1.8558   -6.6840    0.0000 C   0  0  0  0  0  0  0  0  0  0  0  0
    3.2493   -6.1287    0.0000 C   0  0  0  0  0  0  0  0  0  0  0  0
    4.4908   -5.2870    0.0000 C   0  0  0  0  0  0  0  0  0  0  0  0
    5.5223   -4.1980    0.0000 C   0  0  0  0  0  0  0  0  0  0  0  0
    6.2957   -2.9127    0.0000 C   0  0  0  0  0  0  0  0  0  0  0  0
    6.7746   -1.4912    0.0000 C   0  0  0  0  0  0  0  0  0  0  0  0
  1  2  1  0
  2  3  1  0
  3  4  1  0
  4  5  1  0
  5  6  1  0
  6  7  1  0
  7  8  1  0
  8  9  1  0
  9 10  1  0
 10 11  1  0
 11 12  1  0
 12 13  1  0
 13 14  1  0
 14 15  1  0
 15 16  1  0
 16 17  1  0
 17 18  1  0
 18 19  1  0
 19 20  1  0
 20 21  1  0
 21 22  1  0
 22 23  1  0
 23 24  1  0
 24 25  1  0
 25 26  1  0
 26 27  1  0
 27 28  1  0
 28 29  1  0
 29 30  1  0
 30  2  1  0
M  END
>  <Title>  (852) 
idABEZgen7

$$$$

     RDKit          2D

 18 19  0  0  0  0  0  0  0  0999 V2000
    4.5000    0.0000    0.0000 N   0  0  0  0  0  0  0  0  0  0  0  0
    3.0000    0.0000    0.0000 C   0  0  0  0  0  0  0  0  0  0  0  0
    1.5000    0.0000    0.0000 C   0  0  0  0  0  0  0  0  0  0  0  0
    0.7500   -1.2990    0.0000 C   0  0  0  0  0  0  0  0  0  0  0  0
   -0.7500   -1.2990    0.0000 C   0  0  0  0  0  0  0  0  0  0  0  0
   -1.5000    0.0000    0.0000 C   0  0  0  0  0  0  0  0  0  0  0  0
   -3.0000    0.0000    0.0000 N   0  0  0  0  0  0  0  0  0  0  0  0
   -3.7500    1.2990    0.0000 C   0  0  0  0  0  0  0  0  0  0  0  0
   -5.2500    1.2990    0.0000 C   0  0  0  0  0  0  0  0  0  0  0  0
   -6.0000    0.0000    0.0000 N   0  0  0  0  0  0  0  0  0  0  0  0
   -7.5000    0.0000    0.0000 C   0  0  0  0  0  0  0  0  0  0  0  0
   -8.2500    1.2990    0.0000 C   0  0  0  0  0  0  0  0  0  0  0  0
   -9.7500    1.2990    0.0000 N   0  0  0  0  0  0  0  0  0  0  0  0
   -7.5000    2.5981    0.0000 O   0  0  0  0  0  0  0  0  0  0  0  0
   -5.2500   -1.2990    0.0000 C   0  0  0  0  0  0  0  0  0  0  0  0
   -3.7500   -1.2990    0.0000 C   0  0  0  0  0  0  0  0  0  0  0  0
   -0.7500    1.2990    0.0000 C   0  0  0  0  0  0  0  0  0  0  0  0
    0.7500    1.2990    0.0000 C   0  0  0  0  0  0  0  0  0  0  0  0
  1  2  3  0
  2  3  1  0
  3  4  2  0
  4  5  1  0
  5  6  2  0
  6  7  1  0
  7  8  1  0
  8  9  1  0
  9 10  1  0
 10 11  1  0
 11 12  1  0
 12 13  2  0
 12 14  1  0
 10 15  1  0
 15 16  1  0
  6 17  1  0
 17 18  2  0
 18  3  1  0
 16  7  1  0
M  END
>  <Title>  (853) 
idABFAgen7

$$$$

     RDKit          2D

 12 12  0  0  0  0  0  0  0  0999 V2000
    3.4598   -0.0000    0.0000 C   0  0  0  0  0  0  0  0  0  0  0  0
    1.9598    0.0000    0.0000 C   0  0  0  0  0  0  0  0  0  0  0  0
    1.3858   -1.3858    0.0000 C   0  0  0  0  0  0  0  0  0  0  0  0
   -0.0000   -1.9598    0.0000 C   0  0  0  0  0  0  0  0  0  0  0  0
   -1.3858   -1.3858    0.0000 C   0  0  0  0  0  0  0  0  0  0  0  0
   -2.4465   -2.4465    0.0000 C   0  0  0  0  0  0  0  0  0  0  0  0
   -3.5071   -3.5071    0.0000 N   0  0  0  0  0  0  0  0  0  0  0  0
   -1.9598    0.0000    0.0000 C   0  0  0  0  0  0  0  0  0  0  0  0
   -1.3858    1.3858    0.0000 C   0  0  0  0  0  0  0  0  0  0  0  0
    0.0000    1.9598    0.0000 C   0  0  0  0  0  0  0  0  0  0  0  0
    0.0000    3.4598    0.0000 C   0  0  0  0  0  0  0  0  0  0  0  0
    1.3858    1.3858    0.0000 C   0  0  0  0  0  0  0  0  0  0  0  0
  1  2  1  0
  2  3  1  0
  3  4  1  0
  4  5  2  0
  5  6  1  0
  6  7  3  0
  5  8  1  0
  8  9  1  0
  9 10  1  0
 10 11  1  0
 10 12  1  0
 12  2  1  0
M  END
>  <Title>  (854) 
idABFBgen7

$$$$

     RDKit          2D

  9  9  0  0  0  0  0  0  0  0999 V2000
    6.5260   -1.2990    0.0000 O   0  0  0  0  0  0  0  0  0  0  0  0
    5.7760   -0.0000    0.0000 C   0  0  0  0  0  0  0  0  0  0  0  0
    4.2760   -0.0000    0.0000 C   0  0  0  0  0  0  0  0  0  0  0  0
    2.7760    0.0000    0.0000 C   0  0  0  0  0  0  0  0  0  0  0  0
    1.2760    0.0000    0.0000 C   0  0  0  0  0  0  0  0  0  0  0  0
    0.3943    1.2135    0.0000 C   0  0  0  0  0  0  0  0  0  0  0  0
   -1.0323    0.7500    0.0000 C   0  0  0  0  0  0  0  0  0  0  0  0
   -1.0323   -0.7500    0.0000 C   0  0  0  0  0  0  0  0  0  0  0  0
    0.3943   -1.2135    0.0000 C   0  0  0  0  0  0  0  0  0  0  0  0
  1  2  1  0
  2  3  1  0
  3  4  3  0
  4  5  1  0
  5  6  2  0
  6  7  1  0
  7  8  2  0
  8  9  1  0
  9  5  1  0
M  END
>  <Title>  (855) 
idABFCgen7

$$$$

     RDKit          2D

106106  0  0  0  0  0  0  0  0999 V2000
   26.5706    0.0000    0.0000 C   0  0  0  0  0  0  0  0  0  0  0  0
   25.0706    0.0000    0.0000 C   0  0  0  0  0  0  0  0  0  0  0  0
   25.0258    1.4993    0.0000 C   0  0  0  0  0  0  0  0  0  0  0  0
   24.8913    2.9933    0.0000 C   0  0  0  0  0  0  0  0  0  0  0  0
   24.6677    4.4765    0.0000 C   0  0  0  0  0  0  0  0  0  0  0  0
   24.3559    5.9438    0.0000 C   0  0  0  0  0  0  0  0  0  0  0  0
   23.9568    7.3897    0.0000 C   0  0  0  0  0  0  0  0  0  0  0  0
   23.4720    8.8092    0.0000 C   0  0  0  0  0  0  0  0  0  0  0  0
   22.9032   10.1971    0.0000 C   0  0  0  0  0  0  0  0  0  0  0  0
   22.2523   11.5486    0.0000 C   0  0  0  0  0  0  0  0  0  0  0  0
   21.5219   12.8587    0.0000 C   0  0  0  0  0  0  0  0  0  0  0  0
   20.7143   14.1228    0.0000 C   0  0  0  0  0  0  0  0  0  0  0  0
   19.8327   15.3363    0.0000 C   0  0  0  0  0  0  0  0  0  0  0  0
   18.8800   16.4949    0.0000 C   0  0  0  0  0  0  0  0  0  0  0  0
   17.8597   17.5945    0.0000 C   0  0  0  0  0  0  0  0  0  0  0  0
   16.7755   18.6311    0.0000 C   0  0  0  0  0  0  0  0  0  0  0  0
   15.6313   19.6010    0.0000 C   0  0  0  0  0  0  0  0  0  0  0  0
   14.4311   20.5008    0.0000 C   0  0  0  0  0  0  0  0  0  0  0  0
   13.1792   21.3271    0.0000 C   0  0  0  0  0  0  0  0  0  0  0  0
   11.8802   22.0771    0.0000 C   0  0  0  0  0  0  0  0  0  0  0  0
   10.5386   22.7481    0.0000 C   0  0  0  0  0  0  0  0  0  0  0  0
    9.1593   23.3376    0.0000 C   0  0  0  0  0  0  0  0  0  0  0  0
    7.7473   23.8436    0.0000 C   0  0  0  0  0  0  0  0  0  0  0  0
    6.3074   24.2642    0.0000 C   0  0  0  0  0  0  0  0  0  0  0  0
    4.8451   24.5980    0.0000 C   0  0  0  0  0  0  0  0  0  0  0  0
    3.3653   24.8437    0.0000 C   0  0  0  0  0  0  0  0  0  0  0  0
    1.8735   25.0005    0.0000 C   0  0  0  0  0  0  0  0  0  0  0  0
    0.3750   25.0678    0.0000 C   0  0  0  0  0  0  0  0  0  0  0  0
   -1.1248   25.0454    0.0000 C   0  0  0  0  0  0  0  0  0  0  0  0
   -2.6206   24.9333    0.0000 C   0  0  0  0  0  0  0  0  0  0  0  0
   -4.1070   24.7320    0.0000 C   0  0  0  0  0  0  0  0  0  0  0  0
   -5.5787   24.4421    0.0000 C   0  0  0  0  0  0  0  0  0  0  0  0
   -7.0305   24.0647    0.0000 C   0  0  0  0  0  0  0  0  0  0  0  0
   -8.4571   23.6012    0.0000 C   0  0  0  0  0  0  0  0  0  0  0  0
   -9.8534   23.0532    0.0000 C   0  0  0  0  0  0  0  0  0  0  0  0
  -11.2144   22.4226    0.0000 C   0  0  0  0  0  0  0  0  0  0  0  0
  -12.5353   21.7118    0.0000 C   0  0  0  0  0  0  0  0  0  0  0  0
  -13.8113   20.9233    0.0000 C   0  0  0  0  0  0  0  0  0  0  0  0
  -15.0379   20.0599    0.0000 C   0  0  0  0  0  0  0  0  0  0  0  0
  -16.2107   19.1246    0.0000 C   0  0  0  0  0  0  0  0  0  0  0  0
  -17.3254   18.1209    0.0000 C   0  0  0  0  0  0  0  0  0  0  0  0
  -18.3781   17.0524    0.0000 C   0  0  0  0  0  0  0  0  0  0  0  0
  -19.3650   15.9228    0.0000 C   0  0  0  0  0  0  0  0  0  0  0  0
  -20.2826   14.7362    0.0000 C   0  0  0  0  0  0  0  0  0  0  0  0
  -21.1276   13.4968    0.0000 C   0  0  0  0  0  0  0  0  0  0  0  0
  -21.8969   12.2091    0.0000 C   0  0  0  0  0  0  0  0  0  0  0  0
  -22.5879   10.8777    0.0000 C   0  0  0  0  0  0  0  0  0  0  0  0
  -23.1980    9.5074    0.0000 C   0  0  0  0  0  0  0  0  0  0  0  0
  -23.7250    8.1031    0.0000 C   0  0  0  0  0  0  0  0  0  0  0  0
  -24.1672    6.6697    0.0000 C   0  0  0  0  0  0  0  0  0  0  0  0
  -24.5228    5.2125    0.0000 C   0  0  0  0  0  0  0  0  0  0  0  0
  -24.7906    3.7366    0.0000 C   0  0  0  0  0  0  0  0  0  0  0  0
  -24.9697    2.2473    0.0000 C   0  0  0  0  0  0  0  0  0  0  0  0
  -25.0594    0.7500    0.0000 C   0  0  0  0  0  0  0  0  0  0  0  0
  -25.0594   -0.7500    0.0000 C   0  0  0  0  0  0  0  0  0  0  0  0
  -24.9697   -2.2473    0.0000 C   0  0  0  0  0  0  0  0  0  0  0  0
  -24.7906   -3.7366    0.0000 C   0  0  0  0  0  0  0  0  0  0  0  0
  -24.5228   -5.2125    0.0000 C   0  0  0  0  0  0  0  0  0  0  0  0
  -24.1672   -6.6697    0.0000 C   0  0  0  0  0  0  0  0  0  0  0  0
  -23.7250   -8.1031    0.0000 C   0  0  0  0  0  0  0  0  0  0  0  0
  -23.1980   -9.5074    0.0000 C   0  0  0  0  0  0  0  0  0  0  0  0
  -22.5879  -10.8777    0.0000 C   0  0  0  0  0  0  0  0  0  0  0  0
  -21.8969  -12.2091    0.0000 C   0  0  0  0  0  0  0  0  0  0  0  0
  -21.1276  -13.4968    0.0000 C   0  0  0  0  0  0  0  0  0  0  0  0
  -20.2826  -14.7362    0.0000 C   0  0  0  0  0  0  0  0  0  0  0  0
  -19.3650  -15.9228    0.0000 C   0  0  0  0  0  0  0  0  0  0  0  0
  -18.3781  -17.0524    0.0000 C   0  0  0  0  0  0  0  0  0  0  0  0
  -17.3254  -18.1209    0.0000 C   0  0  0  0  0  0  0  0  0  0  0  0
  -16.2107  -19.1246    0.0000 C   0  0  0  0  0  0  0  0  0  0  0  0
  -15.0379  -20.0599    0.0000 C   0  0  0  0  0  0  0  0  0  0  0  0
  -13.8113  -20.9233    0.0000 C   0  0  0  0  0  0  0  0  0  0  0  0
  -12.5353  -21.7118    0.0000 C   0  0  0  0  0  0  0  0  0  0  0  0
  -11.2144  -22.4226    0.0000 C   0  0  0  0  0  0  0  0  0  0  0  0
   -9.8534  -23.0532    0.0000 C   0  0  0  0  0  0  0  0  0  0  0  0
   -8.4571  -23.6012    0.0000 C   0  0  0  0  0  0  0  0  0  0  0  0
   -7.0305  -24.0647    0.0000 C   0  0  0  0  0  0  0  0  0  0  0  0
   -5.5787  -24.4421    0.0000 C   0  0  0  0  0  0  0  0  0  0  0  0
   -4.1070  -24.7320    0.0000 C   0  0  0  0  0  0  0  0  0  0  0  0
   -2.6206  -24.9333    0.0000 C   0  0  0  0  0  0  0  0  0  0  0  0
   -1.1248  -25.0454    0.0000 C   0  0  0  0  0  0  0  0  0  0  0  0
    0.3750  -25.0678    0.0000 C   0  0  0  0  0  0  0  0  0  0  0  0
    1.8735  -25.0005    0.0000 C   0  0  0  0  0  0  0  0  0  0  0  0
    3.3653  -24.8437    0.0000 C   0  0  0  0  0  0  0  0  0  0  0  0
    4.8451  -24.5980    0.0000 C   0  0  0  0  0  0  0  0  0  0  0  0
    6.3074  -24.2642    0.0000 C   0  0  0  0  0  0  0  0  0  0  0  0
    7.7473  -23.8436    0.0000 C   0  0  0  0  0  0  0  0  0  0  0  0
    9.1593  -23.3376    0.0000 C   0  0  0  0  0  0  0  0  0  0  0  0
   10.5386  -22.7481    0.0000 C   0  0  0  0  0  0  0  0  0  0  0  0
   11.8802  -22.0771    0.0000 C   0  0  0  0  0  0  0  0  0  0  0  0
   13.1792  -21.3271    0.0000 C   0  0  0  0  0  0  0  0  0  0  0  0
   14.4311  -20.5008    0.0000 C   0  0  0  0  0  0  0  0  0  0  0  0
   15.6313  -19.6010    0.0000 C   0  0  0  0  0  0  0  0  0  0  0  0
   16.7755  -18.6311    0.0000 C   0  0  0  0  0  0  0  0  0  0  0  0
   17.8597  -17.5945    0.0000 C   0  0  0  0  0  0  0  0  0  0  0  0
   18.8800  -16.4949    0.0000 C   0  0  0  0  0  0  0  0  0  0  0  0
   19.8327  -15.3363    0.0000 C   0  0  0  0  0  0  0  0  0  0  0  0
   20.7143  -14.1228    0.0000 C   0  0  0  0  0  0  0  0  0  0  0  0
   21.5219  -12.8587    0.0000 C   0  0  0  0  0  0  0  0  0  0  0  0
   22.2523  -11.5486    0.0000 C   0  0  0  0  0  0  0  0  0  0  0  0
   22.9032  -10.1971    0.0000 C   0  0  0  0  0  0  0  0  0  0  0  0
   23.4720   -8.8092    0.0000 C   0  0  0  0  0  0  0  0  0  0  0  0
   23.9568   -7.3897    0.0000 C   0  0  0  0  0  0  0  0  0  0  0  0
   24.3559   -5.9438    0.0000 C   0  0  0  0  0  0  0  0  0  0  0  0
   24.6677   -4.4765    0.0000 C   0  0  0  0  0  0  0  0  0  0  0  0
   24.8913   -2.9933    0.0000 C   0  0  0  0  0  0  0  0  0  0  0  0
   25.0258   -1.4993    0.0000 C   0  0  0  0  0  0  0  0  0  0  0  0
  1  2  1  0
  2  3  1  0
  3  4  1  0
  4  5  1  0
  5  6  1  0
  6  7  1  0
  7  8  1  0
  8  9  1  0
  9 10  1  0
 10 11  1  0
 11 12  1  0
 12 13  1  0
 13 14  1  0
 14 15  1  0
 15 16  1  0
 16 17  1  0
 17 18  1  0
 18 19  1  0
 19 20  1  0
 20 21  1  0
 21 22  1  0
 22 23  1  0
 23 24  1  0
 24 25  1  0
 25 26  1  0
 26 27  1  0
 27 28  1  0
 28 29  1  0
 29 30  1  0
 30 31  1  0
 31 32  1  0
 32 33  1  0
 33 34  1  0
 34 35  1  0
 35 36  1  0
 36 37  1  0
 37 38  1  0
 38 39  1  0
 39 40  1  0
 40 41  1  0
 41 42  1  0
 42 43  1  0
 43 44  1  0
 44 45  1  0
 45 46  1  0
 46 47  1  0
 47 48  1  0
 48 49  1  0
 49 50  1  0
 50 51  1  0
 51 52  1  0
 52 53  1  0
 53 54  1  0
 54 55  1  0
 55 56  1  0
 56 57  1  0
 57 58  1  0
 58 59  1  0
 59 60  1  0
 60 61  1  0
 61 62  1  0
 62 63  1  0
 63 64  1  0
 64 65  1  0
 65 66  1  0
 66 67  1  0
 67 68  1  0
 68 69  1  0
 69 70  1  0
 70 71  1  0
 71 72  1  0
 72 73  1  0
 73 74  1  0
 74 75  1  0
 75 76  1  0
 76 77  1  0
 77 78  1  0
 78 79  1  0
 79 80  1  0
 80 81  1  0
 81 82  1  0
 82 83  1  0
 83 84  1  0
 84 85  1  0
 85 86  1  0
 86 87  1  0
 87 88  1  0
 88 89  1  0
 89 90  1  0
 90 91  1  0
 91 92  1  0
 92 93  1  0
 93 94  1  0
 94 95  1  0
 95 96  1  0
 96 97  1  0
 97 98  1  0
 98 99  1  0
 99100  1  0
100101  1  0
101102  1  0
102103  1  0
103104  1  0
104105  1  0
105106  1  0
106  2  1  0
M  END
>  <Title>  (856) 
idABFDgen7

$$$$

     RDKit          2D

  8  8  0  0  0  0  0  0  0  0999 V2000
    3.5260    1.2990    0.0000 O   0  0  0  0  0  0  0  0  0  0  0  0
    2.7760    0.0000    0.0000 C   0  0  0  0  0  0  0  0  0  0  0  0
    3.5260   -1.2990    0.0000 O   0  0  0  0  0  0  0  0  0  0  0  0
    1.2760    0.0000    0.0000 C   0  0  0  0  0  0  0  0  0  0  0  0
    0.3943    1.2135    0.0000 C   0  0  0  0  0  0  0  0  0  0  0  0
   -1.0323    0.7500    0.0000 C   0  0  0  0  0  0  0  0  0  0  0  0
   -1.0323   -0.7500    0.0000 C   0  0  0  0  0  0  0  0  0  0  0  0
    0.3943   -1.2135    0.0000 C   0  0  0  0  0  0  0  0  0  0  0  0
  1  2  2  0
  2  3  1  0
  2  4  1  0
  4  5  2  0
  5  6  1  0
  6  7  1  0
  7  8  1  0
  8  4  1  0
M  END
>  <Title>  (857) 
idABFEgen7

$$$$

     RDKit          2D

  9  9  0  0  0  0  0  0  0  0999 V2000
    3.5260   -1.2990    0.0000 C   0  0  0  0  0  0  0  0  0  0  0  0
    2.7760    0.0000    0.0000 C   0  0  0  0  0  0  0  0  0  0  0  0
    3.5260    1.2990    0.0000 O   0  0  0  0  0  0  0  0  0  0  0  0
    1.2760    0.0000    0.0000 C   0  0  0  0  0  0  0  0  0  0  0  0
    0.3943    1.2135    0.0000 C   0  0  0  0  0  0  0  0  0  0  0  0
   -1.0323    0.7500    0.0000 C   0  0  0  0  0  0  0  0  0  0  0  0
   -1.0323   -0.7500    0.0000 N   0  0  0  0  0  0  0  0  0  0  0  0
   -2.2458   -1.6317    0.0000 C   0  0  0  0  0  0  0  0  0  0  0  0
    0.3943   -1.2135    0.0000 C   0  0  0  0  0  0  0  0  0  0  0  0
  1  2  1  0
  2  3  2  0
  2  4  1  0
  4  5  1  0
  5  6  1  0
  6  7  1  0
  7  8  1  0
  7  9  1  0
  9  4  1  0
M  END
>  <Title>  (858) 
idABFFgen7

$$$$

     RDKit          2D

 79 79  0  0  0  0  0  0  0  0999 V2000
   20.1262    0.0000    0.0000 C   0  0  0  0  0  0  0  0  0  0  0  0
   18.6262    0.0000    0.0000 C   0  0  0  0  0  0  0  0  0  0  0  0
   18.5658   -1.4988    0.0000 C   0  0  0  0  0  0  0  0  0  0  0  0
   18.3850   -2.9878    0.0000 C   0  0  0  0  0  0  0  0  0  0  0  0
   18.0849   -4.4575    0.0000 C   0  0  0  0  0  0  0  0  0  0  0  0
   17.6676   -5.8983    0.0000 C   0  0  0  0  0  0  0  0  0  0  0  0
   17.1357   -7.3008    0.0000 C   0  0  0  0  0  0  0  0  0  0  0  0
   16.4926   -8.6560    0.0000 C   0  0  0  0  0  0  0  0  0  0  0  0
   15.7426   -9.9550    0.0000 C   0  0  0  0  0  0  0  0  0  0  0  0
   14.8906  -11.1895    0.0000 C   0  0  0  0  0  0  0  0  0  0  0  0
   13.9419  -12.3514    0.0000 C   0  0  0  0  0  0  0  0  0  0  0  0
   12.9028  -13.4332    0.0000 C   0  0  0  0  0  0  0  0  0  0  0  0
   11.7800  -14.4279    0.0000 C   0  0  0  0  0  0  0  0  0  0  0  0
   10.5809  -15.3290    0.0000 C   0  0  0  0  0  0  0  0  0  0  0  0
    9.3131  -16.1307    0.0000 C   0  0  0  0  0  0  0  0  0  0  0  0
    7.9849  -16.8278    0.0000 C   0  0  0  0  0  0  0  0  0  0  0  0
    6.6049  -17.4158    0.0000 C   0  0  0  0  0  0  0  0  0  0  0  0
    5.1821  -17.8908    0.0000 C   0  0  0  0  0  0  0  0  0  0  0  0
    3.7257  -18.2497    0.0000 C   0  0  0  0  0  0  0  0  0  0  0  0
    2.2451  -18.4904    0.0000 C   0  0  0  0  0  0  0  0  0  0  0  0
    0.7500  -18.6111    0.0000 C   0  0  0  0  0  0  0  0  0  0  0  0
   -0.7500  -18.6111    0.0000 C   0  0  0  0  0  0  0  0  0  0  0  0
   -2.2451  -18.4904    0.0000 C   0  0  0  0  0  0  0  0  0  0  0  0
   -3.7257  -18.2497    0.0000 C   0  0  0  0  0  0  0  0  0  0  0  0
   -5.1821  -17.8908    0.0000 C   0  0  0  0  0  0  0  0  0  0  0  0
   -6.6049  -17.4158    0.0000 C   0  0  0  0  0  0  0  0  0  0  0  0
   -7.9849  -16.8278    0.0000 C   0  0  0  0  0  0  0  0  0  0  0  0
   -9.3131  -16.1307    0.0000 C   0  0  0  0  0  0  0  0  0  0  0  0
  -10.5809  -15.3290    0.0000 C   0  0  0  0  0  0  0  0  0  0  0  0
  -11.7800  -14.4279    0.0000 C   0  0  0  0  0  0  0  0  0  0  0  0
  -12.9028  -13.4332    0.0000 C   0  0  0  0  0  0  0  0  0  0  0  0
  -13.9419  -12.3514    0.0000 C   0  0  0  0  0  0  0  0  0  0  0  0
  -14.8906  -11.1895    0.0000 C   0  0  0  0  0  0  0  0  0  0  0  0
  -15.7426   -9.9550    0.0000 C   0  0  0  0  0  0  0  0  0  0  0  0
  -16.4926   -8.6560    0.0000 C   0  0  0  0  0  0  0  0  0  0  0  0
  -17.1357   -7.3008    0.0000 C   0  0  0  0  0  0  0  0  0  0  0  0
  -17.6676   -5.8983    0.0000 C   0  0  0  0  0  0  0  0  0  0  0  0
  -18.0849   -4.4575    0.0000 C   0  0  0  0  0  0  0  0  0  0  0  0
  -18.3850   -2.9878    0.0000 C   0  0  0  0  0  0  0  0  0  0  0  0
  -18.5658   -1.4988    0.0000 C   0  0  0  0  0  0  0  0  0  0  0  0
  -18.6262    0.0000    0.0000 C   0  0  0  0  0  0  0  0  0  0  0  0
  -18.5658    1.4988    0.0000 C   0  0  0  0  0  0  0  0  0  0  0  0
  -18.3850    2.9878    0.0000 C   0  0  0  0  0  0  0  0  0  0  0  0
  -18.0849    4.4575    0.0000 C   0  0  0  0  0  0  0  0  0  0  0  0
  -17.6676    5.8983    0.0000 C   0  0  0  0  0  0  0  0  0  0  0  0
  -17.1357    7.3008    0.0000 C   0  0  0  0  0  0  0  0  0  0  0  0
  -16.4926    8.6560    0.0000 C   0  0  0  0  0  0  0  0  0  0  0  0
  -15.7426    9.9550    0.0000 C   0  0  0  0  0  0  0  0  0  0  0  0
  -14.8906   11.1895    0.0000 C   0  0  0  0  0  0  0  0  0  0  0  0
  -13.9419   12.3514    0.0000 C   0  0  0  0  0  0  0  0  0  0  0  0
  -12.9028   13.4332    0.0000 C   0  0  0  0  0  0  0  0  0  0  0  0
  -11.7800   14.4279    0.0000 C   0  0  0  0  0  0  0  0  0  0  0  0
  -10.5809   15.3290    0.0000 C   0  0  0  0  0  0  0  0  0  0  0  0
   -9.3131   16.1307    0.0000 C   0  0  0  0  0  0  0  0  0  0  0  0
   -7.9849   16.8278    0.0000 C   0  0  0  0  0  0  0  0  0  0  0  0
   -6.6049   17.4158    0.0000 C   0  0  0  0  0  0  0  0  0  0  0  0
   -5.1821   17.8908    0.0000 C   0  0  0  0  0  0  0  0  0  0  0  0
   -3.7257   18.2497    0.0000 C   0  0  0  0  0  0  0  0  0  0  0  0
   -2.2451   18.4904    0.0000 C   0  0  0  0  0  0  0  0  0  0  0  0
   -0.7500   18.6111    0.0000 C   0  0  0  0  0  0  0  0  0  0  0  0
    0.7500   18.6111    0.0000 C   0  0  0  0  0  0  0  0  0  0  0  0
    2.2451   18.4904    0.0000 C   0  0  0  0  0  0  0  0  0  0  0  0
    3.7257   18.2497    0.0000 C   0  0  0  0  0  0  0  0  0  0  0  0
    5.1821   17.8908    0.0000 C   0  0  0  0  0  0  0  0  0  0  0  0
    6.6049   17.4158    0.0000 C   0  0  0  0  0  0  0  0  0  0  0  0
    7.9849   16.8278    0.0000 C   0  0  0  0  0  0  0  0  0  0  0  0
    9.3131   16.1307    0.0000 C   0  0  0  0  0  0  0  0  0  0  0  0
   10.5809   15.3290    0.0000 C   0  0  0  0  0  0  0  0  0  0  0  0
   11.7800   14.4279    0.0000 C   0  0  0  0  0  0  0  0  0  0  0  0
   12.9028   13.4332    0.0000 C   0  0  0  0  0  0  0  0  0  0  0  0
   13.9419   12.3514    0.0000 C   0  0  0  0  0  0  0  0  0  0  0  0
   14.8906   11.1895    0.0000 C   0  0  0  0  0  0  0  0  0  0  0  0
   15.7426    9.9550    0.0000 C   0  0  0  0  0  0  0  0  0  0  0  0
   16.4926    8.6560    0.0000 C   0  0  0  0  0  0  0  0  0  0  0  0
   17.1357    7.3008    0.0000 C   0  0  0  0  0  0  0  0  0  0  0  0
   17.6676    5.8983    0.0000 C   0  0  0  0  0  0  0  0  0  0  0  0
   18.0849    4.4575    0.0000 C   0  0  0  0  0  0  0  0  0  0  0  0
   18.3850    2.9878    0.0000 C   0  0  0  0  0  0  0  0  0  0  0  0
   18.5658    1.4988    0.0000 C   0  0  0  0  0  0  0  0  0  0  0  0
  1  2  1  0
  2  3  1  0
  3  4  1  0
  4  5  1  0
  5  6  1  0
  6  7  1  0
  7  8  1  0
  8  9  1  0
  9 10  2  0
 10 11  1  0
 11 12  1  0
 12 13  1  0
 13 14  1  0
 14 15  1  0
 15 16  1  0
 16 17  1  0
 17 18  1  0
 18 19  1  0
 19 20  1  0
 20 21  1  0
 21 22  1  0
 22 23  1  0
 23 24  1  0
 24 25  1  0
 25 26  1  0
 26 27  1  0
 27 28  1  0
 28 29  1  0
 29 30  1  0
 30 31  1  0
 31 32  1  0
 32 33  1  0
 33 34  1  0
 34 35  1  0
 35 36  1  0
 36 37  1  0
 37 38  1  0
 38 39  1  0
 39 40  1  0
 40 41  1  0
 41 42  1  0
 42 43  1  0
 43 44  1  0
 44 45  1  0
 45 46  1  0
 46 47  1  0
 47 48  1  0
 48 49  1  0
 49 50  1  0
 50 51  1  0
 51 52  1  0
 52 53  1  0
 53 54  1  0
 54 55  1  0
 55 56  1  0
 56 57  1  0
 57 58  1  0
 58 59  1  0
 59 60  1  0
 60 61  1  0
 61 62  1  0
 62 63  1  0
 63 64  1  0
 64 65  1  0
 65 66  1  0
 66 67  1  0
 67 68  1  0
 68 69  1  0
 69 70  1  0
 70 71  1  0
 71 72  1  0
 72 73  1  0
 73 74  1  0
 74 75  1  0
 75 76  1  0
 76 77  1  0
 77 78  1  0
 78 79  1  0
 79  2  1  0
M  END
>  <Title>  (859) 
idABFGgen7

$$$$

     RDKit          2D

  9  9  0  0  0  0  0  0  0  0999 V2000
    3.4598   -0.0000    0.0000 C   0  0  0  0  0  0  0  0  0  0  0  0
    1.9598    0.0000    0.0000 C   0  0  0  0  0  0  0  0  0  0  0  0
    1.3858   -1.3858    0.0000 C   0  0  0  0  0  0  0  0  0  0  0  0
   -0.0000   -1.9598    0.0000 C   0  0  0  0  0  0  0  0  0  0  0  0
   -1.3858   -1.3858    0.0000 C   0  0  0  0  0  0  0  0  0  0  0  0
   -1.9598    0.0000    0.0000 C   0  0  0  0  0  0  0  0  0  0  0  0
   -1.3858    1.3858    0.0000 C   0  0  0  0  0  0  0  0  0  0  0  0
    0.0000    1.9598    0.0000 C   0  0  0  0  0  0  0  0  0  0  0  0
    1.3858    1.3858    0.0000 C   0  0  0  0  0  0  0  0  0  0  0  0
  1  2  1  0
  2  3  1  0
  3  4  1  0
  4  5  1  0
  5  6  1  0
  6  7  1  0
  7  8  1  0
  8  9  1  0
  9  2  1  0
M  END
>  <Title>  (860) 
idABFHgen7

$$$$

     RDKit          2D

 57 57  0  0  0  0  0  0  0  0999 V2000
   14.8760    0.0000    0.0000 C   0  0  0  0  0  0  0  0  0  0  0  0
   13.3760    0.0000    0.0000 C   0  0  0  0  0  0  0  0  0  0  0  0
   13.2919   -1.4976    0.0000 C   0  0  0  0  0  0  0  0  0  0  0  0
   13.0407   -2.9764    0.0000 C   0  0  0  0  0  0  0  0  0  0  0  0
   12.6254   -4.4178    0.0000 C   0  0  0  0  0  0  0  0  0  0  0  0
   12.0514   -5.8036    0.0000 C   0  0  0  0  0  0  0  0  0  0  0  0
   11.3258   -7.1165    0.0000 C   0  0  0  0  0  0  0  0  0  0  0  0
   10.4578   -8.3398    0.0000 C   0  0  0  0  0  0  0  0  0  0  0  0
    9.4583   -9.4583    0.0000 C   0  0  0  0  0  0  0  0  0  0  0  0
    8.3398  -10.4578    0.0000 C   0  0  0  0  0  0  0  0  0  0  0  0
    7.1165  -11.3258    0.0000 C   0  0  0  0  0  0  0  0  0  0  0  0
    5.8036  -12.0514    0.0000 N   0  0  0  0  0  0  0  0  0  0  0  0
    4.4178  -12.6254    0.0000 N   0  0  0  0  0  0  0  0  0  0  0  0
    2.9764  -13.0407    0.0000 N   0  0  0  0  0  0  0  0  0  0  0  0
    1.4976  -13.2919    0.0000 N   0  0  0  0  0  0  0  0  0  0  0  0
   -0.0000  -13.3760    0.0000 N   0  0  0  0  0  0  0  0  0  0  0  0
   -1.4976  -13.2919    0.0000 N   0  0  0  0  0  0  0  0  0  0  0  0
   -2.9764  -13.0407    0.0000 C   0  0  0  0  0  0  0  0  0  0  0  0
   -4.4178  -12.6254    0.0000 C   0  0  0  0  0  0  0  0  0  0  0  0
   -5.8036  -12.0514    0.0000 C   0  0  0  0  0  0  0  0  0  0  0  0
   -7.1165  -11.3258    0.0000 C   0  0  0  0  0  0  0  0  0  0  0  0
   -8.3398  -10.4578    0.0000 C   0  0  0  0  0  0  0  0  0  0  0  0
   -9.4583   -9.4583    0.0000 C   0  0  0  0  0  0  0  0  0  0  0  0
  -10.4578   -8.3398    0.0000 C   0  0  0  0  0  0  0  0  0  0  0  0
  -11.3258   -7.1165    0.0000 C   0  0  0  0  0  0  0  0  0  0  0  0
  -12.0514   -5.8036    0.0000 C   0  0  0  0  0  0  0  0  0  0  0  0
  -12.6254   -4.4178    0.0000 C   0  0  0  0  0  0  0  0  0  0  0  0
  -13.0407   -2.9764    0.0000 C   0  0  0  0  0  0  0  0  0  0  0  0
  -13.2919   -1.4976    0.0000 C   0  0  0  0  0  0  0  0  0  0  0  0
  -13.3760    0.0000    0.0000 C   0  0  0  0  0  0  0  0  0  0  0  0
  -13.2919    1.4976    0.0000 C   0  0  0  0  0  0  0  0  0  0  0  0
  -13.0407    2.9764    0.0000 C   0  0  0  0  0  0  0  0  0  0  0  0
  -12.6254    4.4178    0.0000 C   0  0  0  0  0  0  0  0  0  0  0  0
  -12.0514    5.8036    0.0000 C   0  0  0  0  0  0  0  0  0  0  0  0
  -11.3258    7.1165    0.0000 C   0  0  0  0  0  0  0  0  0  0  0  0
  -10.4578    8.3398    0.0000 C   0  0  0  0  0  0  0  0  0  0  0  0
   -9.4583    9.4583    0.0000 C   0  0  0  0  0  0  0  0  0  0  0  0
   -8.3398   10.4578    0.0000 C   0  0  0  0  0  0  0  0  0  0  0  0
   -7.1165   11.3258    0.0000 C   0  0  0  0  0  0  0  0  0  0  0  0
   -5.8036   12.0514    0.0000 C   0  0  0  0  0  0  0  0  0  0  0  0
   -4.4178   12.6254    0.0000 C   0  0  0  0  0  0  0  0  0  0  0  0
   -2.9764   13.0407    0.0000 C   0  0  0  0  0  0  0  0  0  0  0  0
   -1.4976   13.2919    0.0000 C   0  0  0  0  0  0  0  0  0  0  0  0
    0.0000   13.3760    0.0000 C   0  0  0  0  0  0  0  0  0  0  0  0
    1.4976   13.2919    0.0000 C   0  0  0  0  0  0  0  0  0  0  0  0
    2.9764   13.0407    0.0000 C   0  0  0  0  0  0  0  0  0  0  0  0
    4.4178   12.6254    0.0000 C   0  0  0  0  0  0  0  0  0  0  0  0
    5.8036   12.0514    0.0000 C   0  0  0  0  0  0  0  0  0  0  0  0
    7.1165   11.3258    0.0000 C   0  0  0  0  0  0  0  0  0  0  0  0
    8.3398   10.4578    0.0000 C   0  0  0  0  0  0  0  0  0  0  0  0
    9.4583    9.4583    0.0000 C   0  0  0  0  0  0  0  0  0  0  0  0
   10.4578    8.3398    0.0000 C   0  0  0  0  0  0  0  0  0  0  0  0
   11.3258    7.1165    0.0000 C   0  0  0  0  0  0  0  0  0  0  0  0
   12.0514    5.8036    0.0000 C   0  0  0  0  0  0  0  0  0  0  0  0
   12.6254    4.4178    0.0000 C   0  0  0  0  0  0  0  0  0  0  0  0
   13.0407    2.9764    0.0000 C   0  0  0  0  0  0  0  0  0  0  0  0
   13.2919    1.4976    0.0000 C   0  0  0  0  0  0  0  0  0  0  0  0
  1  2  1  0
  2  3  1  0
  3  4  1  0
  4  5  1  0
  5  6  1  0
  6  7  1  0
  7  8  1  0
  8  9  1  0
  9 10  1  0
 10 11  1  0
 11 12  2  0
 12 13  1  0
 13 14  2  0
 14 15  1  0
 15 16  2  0
 16 17  1  0
 17 18  2  0
 18 19  1  0
 19 20  2  0
 20 21  1  0
 21 22  2  0
 22 23  1  0
 23 24  2  0
 24 25  1  0
 25 26  2  0
 26 27  1  0
 27 28  2  0
 28 29  1  0
 29 30  2  0
 30 31  1  0
 31 32  2  0
 32 33  1  0
 33 34  2  0
 34 35  1  0
 35 36  2  0
 36 37  1  0
 37 38  2  0
 38 39  1  0
 39 40  2  0
 40 41  1  0
 41 42  2  0
 42 43  1  0
 43 44  1  0
 44 45  1  0
 45 46  1  0
 46 47  1  0
 47 48  1  0
 48 49  1  0
 49 50  1  0
 50 51  1  0
 51 52  1  0
 52 53  1  0
 53 54  1  0
 54 55  1  0
 55 56  1  0
 56 57  1  0
 57  2  1  0
M  END
>  <Title>  (861) 
idABFIgen7

$$$$

     RDKit          2D

 73 77  0  0  0  0  0  0  0  0999 V2000
   -2.3309   -1.0130    0.0000 C   0  0  0  0  0  0  0  0  0  0  0  0
   -2.5072    0.4766    0.0000 C   0  0  0  0  0  0  0  0  0  0  0  0
   -4.0051    0.3981    0.0000 C   0  0  0  0  0  0  0  0  0  0  0  0
   -5.5005    0.5158    0.0000 C   0  0  0  0  0  0  0  0  0  0  0  0
   -6.9677    0.8277    0.0000 C   0  0  0  0  0  0  0  0  0  0  0  0
   -8.3817    1.3284    0.0000 C   0  0  0  0  0  0  0  0  0  0  0  0
   -9.7182    2.0094    0.0000 C   0  0  0  0  0  0  0  0  0  0  0  0
  -10.9544    2.8590    0.0000 C   0  0  0  0  0  0  0  0  0  0  0  0
  -12.0691    3.8627    0.0000 C   0  0  0  0  0  0  0  0  0  0  0  0
  -13.0433    5.0033    0.0000 C   0  0  0  0  0  0  0  0  0  0  0  0
  -13.8602    6.2613    0.0000 C   0  0  0  0  0  0  0  0  0  0  0  0
  -14.5060    7.6152    0.0000 C   0  0  0  0  0  0  0  0  0  0  0  0
  -14.9695    9.0418    0.0000 C   0  0  0  0  0  0  0  0  0  0  0  0
  -15.2429   10.5167    0.0000 C   0  0  0  0  0  0  0  0  0  0  0  0
  -15.3214   12.0146    0.0000 C   0  0  0  0  0  0  0  0  0  0  0  0
  -15.2037   13.5100    0.0000 C   0  0  0  0  0  0  0  0  0  0  0  0
  -14.8918   14.9772    0.0000 C   0  0  0  0  0  0  0  0  0  0  0  0
  -14.3911   16.3912    0.0000 C   0  0  0  0  0  0  0  0  0  0  0  0
  -13.7101   17.7277    0.0000 C   0  0  0  0  0  0  0  0  0  0  0  0
  -12.8605   18.9639    0.0000 C   0  0  0  0  0  0  0  0  0  0  0  0
  -11.8568   20.0786    0.0000 C   0  0  0  0  0  0  0  0  0  0  0  0
  -10.7162   21.0528    0.0000 C   0  0  0  0  0  0  0  0  0  0  0  0
   -9.4582   21.8697    0.0000 C   0  0  0  0  0  0  0  0  0  0  0  0
   -8.1043   22.5155    0.0000 C   0  0  0  0  0  0  0  0  0  0  0  0
   -6.6777   22.9790    0.0000 C   0  0  0  0  0  0  0  0  0  0  0  0
   -5.2029   23.2524    0.0000 C   0  0  0  0  0  0  0  0  0  0  0  0
   -3.7049   23.3309    0.0000 C   0  0  0  0  0  0  0  0  0  0  0  0
   -2.2095   23.2132    0.0000 C   0  0  0  0  0  0  0  0  0  0  0  0
   -0.7423   22.9013    0.0000 C   0  0  0  0  0  0  0  0  0  0  0  0
    0.6717   22.4006    0.0000 C   0  0  0  0  0  0  0  0  0  0  0  0
    2.0082   21.7196    0.0000 C   0  0  0  0  0  0  0  0  0  0  0  0
    3.2444   20.8700    0.0000 C   0  0  0  0  0  0  0  0  0  0  0  0
    4.3591   19.8663    0.0000 C   0  0  0  0  0  0  0  0  0  0  0  0
    5.3332   18.7257    0.0000 C   0  0  0  0  0  0  0  0  0  0  0  0
    6.1502   17.4677    0.0000 C   0  0  0  0  0  0  0  0  0  0  0  0
    6.7960   16.1138    0.0000 C   0  0  0  0  0  0  0  0  0  0  0  0
    7.2595   14.6872    0.0000 C   0  0  0  0  0  0  0  0  0  0  0  0
    7.5328   13.2123    0.0000 C   0  0  0  0  0  0  0  0  0  0  0  0
    7.6113   11.7144    0.0000 C   0  0  0  0  0  0  0  0  0  0  0  0
    7.4937   10.2190    0.0000 C   0  0  0  0  0  0  0  0  0  0  0  0
    7.1818    8.7518    0.0000 C   0  0  0  0  0  0  0  0  0  0  0  0
    8.6255    8.3446    0.0000 N   0  0  0  0  0  0  0  0  0  0  0  0
    8.9947    6.8908    0.0000 C   0  0  0  0  0  0  0  0  0  0  0  0
    7.9203    5.8441    0.0000 O   0  0  0  0  0  0  0  0  0  0  0  0
   10.4384    6.4836    0.0000 C   0  0  0  0  0  0  0  0  0  0  0  0
   10.8076    5.0298    0.0000 C   0  0  0  0  0  0  0  0  0  0  0  0
   12.2513    4.6226    0.0000 C   0  0  0  0  0  0  0  0  0  0  0  0
   13.3258    5.6693    0.0000 C   0  0  0  0  0  0  0  0  0  0  0  0
   12.9565    7.1232    0.0000 C   0  0  0  0  0  0  0  0  0  0  0  0
   11.5128    7.5303    0.0000 C   0  0  0  0  0  0  0  0  0  0  0  0
   11.1436    8.9842    0.0000 C   0  0  0  0  0  0  0  0  0  0  0  0
    9.6999    9.3913    0.0000 C   0  0  0  0  0  0  0  0  0  0  0  0
    9.3307   10.8452    0.0000 C   0  0  0  0  0  0  0  0  0  0  0  0
   10.4052   11.8919    0.0000 C   0  0  0  0  0  0  0  0  0  0  0  0
   11.8488   11.4847    0.0000 C   0  0  0  0  0  0  0  0  0  0  0  0
   12.2181   10.0309    0.0000 C   0  0  0  0  0  0  0  0  0  0  0  0
   13.6617    9.6237    0.0000 C   0  0  0  0  0  0  0  0  0  0  0  0
   14.7362   10.6704    0.0000 C   0  0  0  0  0  0  0  0  0  0  0  0
   16.1799   10.2632    0.0000 C   0  0  0  0  0  0  0  0  0  0  0  0
   16.5491    8.8094    0.0000 C   0  0  0  0  0  0  0  0  0  0  0  0
   15.4747    7.7627    0.0000 C   0  0  0  0  0  0  0  0  0  0  0  0
   14.0310    8.1698    0.0000 C   0  0  0  0  0  0  0  0  0  0  0  0
    6.6811    7.3378    0.0000 C   0  0  0  0  0  0  0  0  0  0  0  0
    6.0001    6.0013    0.0000 C   0  0  0  0  0  0  0  0  0  0  0  0
    5.1505    4.7651    0.0000 C   0  0  0  0  0  0  0  0  0  0  0  0
    4.1468    3.6504    0.0000 C   0  0  0  0  0  0  0  0  0  0  0  0
    3.0062    2.6763    0.0000 C   0  0  0  0  0  0  0  0  0  0  0  0
    1.7482    1.8593    0.0000 C   0  0  0  0  0  0  0  0  0  0  0  0
    0.3943    1.2135    0.0000 C   0  0  0  0  0  0  0  0  0  0  0  0
    1.2760    0.0000    0.0000 C   0  0  0  0  0  0  0  0  0  0  0  0
    0.3943   -1.2135    0.0000 C   0  0  0  0  0  0  0  0  0  0  0  0
   -1.0323   -0.7500    0.0000 C   0  0  0  0  0  0  0  0  0  0  0  0
   -1.0323    0.7500    0.0000 C   0  0  0  0  0  0  0  0  0  0  0  0
  1  2  1  0
  2  3  1  0
  3  4  1  0
  4  5  1  0
  5  6  1  0
  6  7  1  0
  7  8  1  0
  8  9  1  0
  9 10  1  0
 10 11  1  0
 11 12  1  0
 12 13  1  0
 13 14  1  0
 14 15  1  0
 15 16  1  0
 16 17  1  0
 17 18  1  0
 18 19  1  0
 19 20  1  0
 20 21  1  0
 21 22  1  0
 22 23  1  0
 23 24  1  0
 24 25  1  0
 25 26  1  0
 26 27  1  0
 27 28  1  0
 28 29  1  0
 29 30  1  0
 30 31  1  0
 31 32  1  0
 32 33  1  0
 33 34  1  0
 34 35  1  0
 35 36  1  0
 36 37  1  0
 37 38  1  0
 38 39  1  0
 39 40  1  0
 40 41  1  0
 41 42  1  0
 42 43  1  0
 43 44  2  0
 43 45  1  0
 45 46  2  0
 46 47  1  0
 47 48  2  0
 48 49  1  0
 49 50  2  0
 50 51  1  0
 51 52  2  0
 52 53  1  0
 53 54  2  0
 54 55  1  0
 55 56  2  0
 56 57  1  0
 57 58  2  0
 58 59  1  0
 59 60  2  0
 60 61  1  0
 61 62  2  0
 41 63  2  0
 63 64  1  0
 64 65  2  0
 65 66  1  0
 66 67  2  0
 67 68  1  0
 68 69  2  0
 69 70  1  0
 70 71  2  0
 71 72  1  0
 72 73  2  0
 73  2  1  0
 50 45  1  0
 56 51  1  0
 62 57  1  0
 73 69  1  0
M  END
>  <Title>  (862) 
idABFJgen7

$$$$

     RDKit          2D

  8  8  0  0  0  0  0  0  0  0999 V2000
    4.5000    0.0000    0.0000 N   0  0  0  0  0  0  0  0  0  0  0  0
    3.0000    0.0000    0.0000 C   0  0  0  0  0  0  0  0  0  0  0  0
    1.5000    0.0000    0.0000 C   0  0  0  0  0  0  0  0  0  0  0  0
    0.7500   -1.2990    0.0000 C   0  0  0  0  0  0  0  0  0  0  0  0
   -0.7500   -1.2990    0.0000 C   0  0  0  0  0  0  0  0  0  0  0  0
   -1.5000    0.0000    0.0000 C   0  0  0  0  0  0  0  0  0  0  0  0
   -0.7500    1.2990    0.0000 C   0  0  0  0  0  0  0  0  0  0  0  0
    0.7500    1.2990    0.0000 C   0  0  0  0  0  0  0  0  0  0  0  0
  1  2  3  0
  2  3  1  0
  3  4  1  0
  4  5  1  0
  5  6  1  0
  6  7  1  0
  7  8  1  0
  8  3  1  0
M  END
>  <Title>  (863) 
idABFKgen7

$$$$

     RDKit          2D

 11 11  0  0  0  0  0  0  0  0999 V2000
    6.5260   -1.2990    0.0000 N   0  0  0  0  0  0  0  0  0  0  0  0
    5.0260   -1.2990    0.0000 C   0  0  0  0  0  0  0  0  0  0  0  0
    3.5260   -1.2990    0.0000 C   0  0  0  0  0  0  0  0  0  0  0  0
    2.7760   -2.5981    0.0000 O   0  0  0  0  0  0  0  0  0  0  0  0
    2.7760    0.0000    0.0000 C   0  0  0  0  0  0  0  0  0  0  0  0
    3.5260    1.2990    0.0000 N   0  0  0  0  0  0  0  0  0  0  0  0
    1.2760    0.0000    0.0000 C   0  0  0  0  0  0  0  0  0  0  0  0
    0.3943    1.2135    0.0000 C   0  0  0  0  0  0  0  0  0  0  0  0
   -1.0323    0.7500    0.0000 C   0  0  0  0  0  0  0  0  0  0  0  0
   -1.0323   -0.7500    0.0000 C   0  0  0  0  0  0  0  0  0  0  0  0
    0.3943   -1.2135    0.0000 C   0  0  0  0  0  0  0  0  0  0  0  0
  1  2  3  0
  2  3  1  0
  3  4  2  0
  3  5  1  0
  5  6  1  0
  5  7  1  0
  7  8  2  0
  8  9  1  0
  9 10  1  0
 10 11  2  0
 11  7  1  0
M  END
>  <Title>  (864) 
idABFLgen7

$$$$

     RDKit          2D

 95 95  0  0  0  0  0  0  0  0999 V2000
   23.9450   -0.0000    0.0000 C   0  0  0  0  0  0  0  0  0  0  0  0
   22.4450    0.0000    0.0000 C   0  0  0  0  0  0  0  0  0  0  0  0
   22.3949   -1.4992    0.0000 C   0  0  0  0  0  0  0  0  0  0  0  0
   22.2448   -2.9916    0.0000 C   0  0  0  0  0  0  0  0  0  0  0  0
   21.9953   -4.4707    0.0000 C   0  0  0  0  0  0  0  0  0  0  0  0
   21.6475   -5.9299    0.0000 C   0  0  0  0  0  0  0  0  0  0  0  0
   21.2031   -7.3625    0.0000 C   0  0  0  0  0  0  0  0  0  0  0  0
   20.6640   -8.7623    0.0000 C   0  0  0  0  0  0  0  0  0  0  0  0
   20.0326  -10.1229    0.0000 C   0  0  0  0  0  0  0  0  0  0  0  0
   19.3117  -11.4384    0.0000 C   0  0  0  0  0  0  0  0  0  0  0  0
   18.5046  -12.7027    0.0000 C   0  0  0  0  0  0  0  0  0  0  0  0
   17.6148  -13.9103    0.0000 C   0  0  0  0  0  0  0  0  0  0  0  0
   16.6464  -15.0558    0.0000 C   0  0  0  0  0  0  0  0  0  0  0  0
   15.6036  -16.1340    0.0000 C   0  0  0  0  0  0  0  0  0  0  0  0
   14.4911  -17.1402    0.0000 C   0  0  0  0  0  0  0  0  0  0  0  0
   13.3139  -18.0698    0.0000 C   0  0  0  0  0  0  0  0  0  0  0  0
   12.0773  -18.9187    0.0000 C   0  0  0  0  0  0  0  0  0  0  0  0
   10.7867  -19.6832    0.0000 C   0  0  0  0  0  0  0  0  0  0  0  0
    9.4479  -20.3597    0.0000 C   0  0  0  0  0  0  0  0  0  0  0  0
    8.0669  -20.9453    0.0000 C   0  0  0  0  0  0  0  0  0  0  0  0
    6.6499  -21.4373    0.0000 C   0  0  0  0  0  0  0  0  0  0  0  0
    5.2032  -21.8336    0.0000 C   0  0  0  0  0  0  0  0  0  0  0  0
    3.7333  -22.1324    0.0000 C   0  0  0  0  0  0  0  0  0  0  0  0
    2.2467  -22.3323    0.0000 C   0  0  0  0  0  0  0  0  0  0  0  0
    0.7500  -22.4325    0.0000 C   0  0  0  0  0  0  0  0  0  0  0  0
   -0.7500  -22.4325    0.0000 C   0  0  0  0  0  0  0  0  0  0  0  0
   -2.2467  -22.3323    0.0000 C   0  0  0  0  0  0  0  0  0  0  0  0
   -3.7333  -22.1324    0.0000 C   0  0  0  0  0  0  0  0  0  0  0  0
   -5.2032  -21.8336    0.0000 C   0  0  0  0  0  0  0  0  0  0  0  0
   -6.6499  -21.4373    0.0000 C   0  0  0  0  0  0  0  0  0  0  0  0
   -8.0669  -20.9453    0.0000 C   0  0  0  0  0  0  0  0  0  0  0  0
   -9.4479  -20.3597    0.0000 C   0  0  0  0  0  0  0  0  0  0  0  0
  -10.7867  -19.6832    0.0000 C   0  0  0  0  0  0  0  0  0  0  0  0
  -12.0773  -18.9187    0.0000 C   0  0  0  0  0  0  0  0  0  0  0  0
  -13.3139  -18.0698    0.0000 C   0  0  0  0  0  0  0  0  0  0  0  0
  -14.4911  -17.1402    0.0000 C   0  0  0  0  0  0  0  0  0  0  0  0
  -15.6036  -16.1340    0.0000 C   0  0  0  0  0  0  0  0  0  0  0  0
  -16.6464  -15.0558    0.0000 C   0  0  0  0  0  0  0  0  0  0  0  0
  -17.6148  -13.9103    0.0000 C   0  0  0  0  0  0  0  0  0  0  0  0
  -18.5046  -12.7027    0.0000 C   0  0  0  0  0  0  0  0  0  0  0  0
  -19.3117  -11.4384    0.0000 C   0  0  0  0  0  0  0  0  0  0  0  0
  -20.0326  -10.1229    0.0000 C   0  0  0  0  0  0  0  0  0  0  0  0
  -20.6640   -8.7623    0.0000 C   0  0  0  0  0  0  0  0  0  0  0  0
  -21.2031   -7.3625    0.0000 C   0  0  0  0  0  0  0  0  0  0  0  0
  -21.6475   -5.9299    0.0000 C   0  0  0  0  0  0  0  0  0  0  0  0
  -21.9953   -4.4707    0.0000 C   0  0  0  0  0  0  0  0  0  0  0  0
  -22.2448   -2.9916    0.0000 C   0  0  0  0  0  0  0  0  0  0  0  0
  -22.3949   -1.4992    0.0000 C   0  0  0  0  0  0  0  0  0  0  0  0
  -22.4450    0.0000    0.0000 C   0  0  0  0  0  0  0  0  0  0  0  0
  -22.3949    1.4992    0.0000 C   0  0  0  0  0  0  0  0  0  0  0  0
  -22.2448    2.9916    0.0000 C   0  0  0  0  0  0  0  0  0  0  0  0
  -21.9953    4.4707    0.0000 C   0  0  0  0  0  0  0  0  0  0  0  0
  -21.6475    5.9299    0.0000 C   0  0  0  0  0  0  0  0  0  0  0  0
  -21.2031    7.3625    0.0000 C   0  0  0  0  0  0  0  0  0  0  0  0
  -20.6640    8.7623    0.0000 C   0  0  0  0  0  0  0  0  0  0  0  0
  -20.0326   10.1229    0.0000 C   0  0  0  0  0  0  0  0  0  0  0  0
  -19.3117   11.4384    0.0000 C   0  0  0  0  0  0  0  0  0  0  0  0
  -18.5046   12.7027    0.0000 C   0  0  0  0  0  0  0  0  0  0  0  0
  -17.6148   13.9103    0.0000 C   0  0  0  0  0  0  0  0  0  0  0  0
  -16.6464   15.0558    0.0000 C   0  0  0  0  0  0  0  0  0  0  0  0
  -15.6036   16.1340    0.0000 C   0  0  0  0  0  0  0  0  0  0  0  0
  -14.4911   17.1402    0.0000 C   0  0  0  0  0  0  0  0  0  0  0  0
  -13.3139   18.0698    0.0000 C   0  0  0  0  0  0  0  0  0  0  0  0
  -12.0773   18.9187    0.0000 C   0  0  0  0  0  0  0  0  0  0  0  0
  -10.7867   19.6832    0.0000 C   0  0  0  0  0  0  0  0  0  0  0  0
   -9.4479   20.3597    0.0000 C   0  0  0  0  0  0  0  0  0  0  0  0
   -8.0669   20.9453    0.0000 C   0  0  0  0  0  0  0  0  0  0  0  0
   -6.6499   21.4373    0.0000 C   0  0  0  0  0  0  0  0  0  0  0  0
   -5.2032   21.8336    0.0000 C   0  0  0  0  0  0  0  0  0  0  0  0
   -3.7333   22.1324    0.0000 C   0  0  0  0  0  0  0  0  0  0  0  0
   -2.2467   22.3323    0.0000 C   0  0  0  0  0  0  0  0  0  0  0  0
   -0.7500   22.4325    0.0000 C   0  0  0  0  0  0  0  0  0  0  0  0
    0.7500   22.4325    0.0000 C   0  0  0  0  0  0  0  0  0  0  0  0
    2.2467   22.3323    0.0000 C   0  0  0  0  0  0  0  0  0  0  0  0
    3.7333   22.1324    0.0000 C   0  0  0  0  0  0  0  0  0  0  0  0
    5.2032   21.8336    0.0000 C   0  0  0  0  0  0  0  0  0  0  0  0
    6.6499   21.4373    0.0000 C   0  0  0  0  0  0  0  0  0  0  0  0
    8.0669   20.9453    0.0000 C   0  0  0  0  0  0  0  0  0  0  0  0
    9.4479   20.3597    0.0000 C   0  0  0  0  0  0  0  0  0  0  0  0
   10.7867   19.6832    0.0000 C   0  0  0  0  0  0  0  0  0  0  0  0
   12.0773   18.9187    0.0000 C   0  0  0  0  0  0  0  0  0  0  0  0
   13.3139   18.0698    0.0000 C   0  0  0  0  0  0  0  0  0  0  0  0
   14.4911   17.1402    0.0000 C   0  0  0  0  0  0  0  0  0  0  0  0
   15.6036   16.1340    0.0000 C   0  0  0  0  0  0  0  0  0  0  0  0
   16.6464   15.0558    0.0000 C   0  0  0  0  0  0  0  0  0  0  0  0
   17.6148   13.9103    0.0000 C   0  0  0  0  0  0  0  0  0  0  0  0
   18.5046   12.7027    0.0000 C   0  0  0  0  0  0  0  0  0  0  0  0
   19.3117   11.4384    0.0000 C   0  0  0  0  0  0  0  0  0  0  0  0
   20.0326   10.1229    0.0000 C   0  0  0  0  0  0  0  0  0  0  0  0
   20.6640    8.7623    0.0000 C   0  0  0  0  0  0  0  0  0  0  0  0
   21.2031    7.3625    0.0000 C   0  0  0  0  0  0  0  0  0  0  0  0
   21.6475    5.9299    0.0000 C   0  0  0  0  0  0  0  0  0  0  0  0
   21.9953    4.4707    0.0000 C   0  0  0  0  0  0  0  0  0  0  0  0
   22.2448    2.9916    0.0000 C   0  0  0  0  0  0  0  0  0  0  0  0
   22.3949    1.4992    0.0000 C   0  0  0  0  0  0  0  0  0  0  0  0
  1  2  1  0
  2  3  1  0
  3  4  1  0
  4  5  1  0
  5  6  1  0
  6  7  1  0
  7  8  1  0
  8  9  1  0
  9 10  1  0
 10 11  1  0
 11 12  1  0
 12 13  1  0
 13 14  1  0
 14 15  1  0
 15 16  1  0
 16 17  1  0
 17 18  1  0
 18 19  1  0
 19 20  1  0
 20 21  1  0
 21 22  1  0
 22 23  1  0
 23 24  1  0
 24 25  1  0
 25 26  1  0
 26 27  1  0
 27 28  1  0
 28 29  1  0
 29 30  1  0
 30 31  1  0
 31 32  1  0
 32 33  1  0
 33 34  1  0
 34 35  1  0
 35 36  1  0
 36 37  1  0
 37 38  1  0
 38 39  1  0
 39 40  1  0
 40 41  1  0
 41 42  1  0
 42 43  1  0
 43 44  1  0
 44 45  1  0
 45 46  1  0
 46 47  1  0
 47 48  1  0
 48 49  1  0
 49 50  1  0
 50 51  1  0
 51 52  1  0
 52 53  1  0
 53 54  1  0
 54 55  1  0
 55 56  1  0
 56 57  1  0
 57 58  1  0
 58 59  1  0
 59 60  1  0
 60 61  1  0
 61 62  1  0
 62 63  1  0
 63 64  1  0
 64 65  1  0
 65 66  1  0
 66 67  1  0
 67 68  1  0
 68 69  1  0
 69 70  1  0
 70 71  1  0
 71 72  1  0
 72 73  1  0
 73 74  1  0
 74 75  1  0
 75 76  1  0
 76 77  1  0
 77 78  1  0
 78 79  1  0
 79 80  1  0
 80 81  1  0
 81 82  1  0
 82 83  1  0
 83 84  1  0
 84 85  1  0
 85 86  1  0
 86 87  1  0
 87 88  1  0
 88 89  1  0
 89 90  1  0
 90 91  1  0
 91 92  1  0
 92 93  1  0
 93 94  1  0
 94 95  1  0
 95  2  1  0
M  END
>  <Title>  (865) 
idABFMgen7

$$$$

     RDKit          2D

 45 47  0  0  0  0  0  0  0  0999 V2000
    1.4868    5.8713    0.0000 C   0  0  0  0  0  0  0  0  0  0  0  0
    1.1186    4.4172    0.0000 C   0  0  0  0  0  0  0  0  0  0  0  0
    2.4923    3.8147    0.0000 C   0  0  0  0  0  0  0  0  0  0  0  0
    3.5958    2.7988    0.0000 C   0  0  0  0  0  0  0  0  0  0  0  0
    4.3098    1.4795    0.0000 C   0  0  0  0  0  0  0  0  0  0  0  0
    4.5567    0.0000    0.0000 C   0  0  0  0  0  0  0  0  0  0  0  0
    4.3098   -1.4795    0.0000 C   0  0  0  0  0  0  0  0  0  0  0  0
    3.5958   -2.7988    0.0000 C   0  0  0  0  0  0  0  0  0  0  0  0
    2.4923   -3.8147    0.0000 C   0  0  0  0  0  0  0  0  0  0  0  0
    1.1186   -4.4172    0.0000 C   0  0  0  0  0  0  0  0  0  0  0  0
   -0.3763   -4.5411    0.0000 C   0  0  0  0  0  0  0  0  0  0  0  0
   -1.8304   -4.1729    0.0000 C   0  0  0  0  0  0  0  0  0  0  0  0
   -3.0861   -3.3524    0.0000 C   0  0  0  0  0  0  0  0  0  0  0  0
   -4.0075   -2.1687    0.0000 C   0  0  0  0  0  0  0  0  0  0  0  0
   -4.4945   -0.7500    0.0000 C   0  0  0  0  0  0  0  0  0  0  0  0
   -4.4945    0.7500    0.0000 C   0  0  0  0  0  0  0  0  0  0  0  0
   -4.0075    2.1687    0.0000 C   0  0  0  0  0  0  0  0  0  0  0  0
   -3.0861    3.3524    0.0000 C   0  0  0  0  0  0  0  0  0  0  0  0
   -1.8304    4.1729    0.0000 C   0  0  0  0  0  0  0  0  0  0  0  0
   -0.3763    4.5411    0.0000 C   0  0  0  0  0  0  0  0  0  0  0  0
   -0.2937    6.0388    0.0000 C   0  0  0  0  0  0  0  0  0  0  0  0
    0.3910    7.3734    0.0000 C   0  0  0  0  0  0  0  0  0  0  0  0
    1.5593    8.3142    0.0000 C   0  0  0  0  0  0  0  0  0  0  0  0
    3.0093    8.6984    0.0000 C   0  0  0  0  0  0  0  0  0  0  0  0
    4.4902    8.4597    0.0000 C   0  0  0  0  0  0  0  0  0  0  0  0
    5.7459    7.6393    0.0000 C   0  0  0  0  0  0  0  0  0  0  0  0
    6.5594    6.3790    0.0000 C   0  0  0  0  0  0  0  0  0  0  0  0
    6.7900    4.8969    0.0000 C   0  0  0  0  0  0  0  0  0  0  0  0
    6.3977    3.4490    0.0000 C   0  0  0  0  0  0  0  0  0  0  0  0
    7.7324    2.7644    0.0000 C   0  0  0  0  0  0  0  0  0  0  0  0
    8.9926    3.5779    0.0000 O   0  0  0  0  0  0  0  0  0  0  0  0
    7.8068    1.2662    0.0000 C   0  0  0  0  0  0  0  0  0  0  0  0
    9.1414    0.5816    0.0000 C   0  0  0  0  0  0  0  0  0  0  0  0
    9.2158   -0.9166    0.0000 C   0  0  0  0  0  0  0  0  0  0  0  0
   10.5504   -1.6013    0.0000 C   0  0  0  0  0  0  0  0  0  0  0  0
   10.6248   -3.0994    0.0000 C   0  0  0  0  0  0  0  0  0  0  0  0
    9.3645   -3.9129    0.0000 O   0  0  0  0  0  0  0  0  0  0  0  0
   11.9594   -3.7841    0.0000 N   0  0  0  0  0  0  0  0  0  0  0  0
   12.0338   -5.2822    0.0000 C   0  0  0  0  0  0  0  0  0  0  0  0
   10.7735   -6.0957    0.0000 N   0  0  0  0  0  0  0  0  0  0  0  0
   10.8479   -7.5939    0.0000 N   0  0  0  0  0  0  0  0  0  0  0  0
   12.1825   -8.2786    0.0000 N   0  0  0  0  0  0  0  0  0  0  0  0
   13.4428   -7.4651    0.0000 N   0  0  0  0  0  0  0  0  0  0  0  0
   13.3684   -5.9669    0.0000 N   0  0  0  0  0  0  0  0  0  0  0  0
    5.4506    2.2859    0.0000 C   0  0  0  0  0  0  0  0  0  0  0  0
  1  2  1  0
  2  3  1  0
  3  4  1  0
  4  5  1  0
  5  6  1  0
  6  7  1  0
  7  8  2  0
  8  9  1  0
  9 10  2  0
 10 11  1  0
 11 12  2  0
 12 13  1  0
 13 14  2  0
 14 15  1  0
 15 16  2  0
 16 17  1  0
 17 18  2  0
 18 19  1  0
 19 20  2  0
 20 21  1  0
 21 22  1  0
 22 23  1  0
 23 24  1  0
 24 25  1  0
 25 26  1  0
 26 27  1  0
 27 28  1  0
 28 29  1  0
 29 30  1  0
 30 31  2  0
 30 32  1  0
 32 33  1  0
 33 34  1  0
 34 35  1  0
 35 36  1  0
 36 37  2  0
 36 38  1  0
 38 39  1  0
 39 40  2  0
 40 41  1  0
 41 42  2  0
 42 43  1  0
 43 44  2  0
 29 45  1  0
 20  2  1  0
 44 39  1  0
 45  5  1  0
M  END
>  <Title>  (866) 
idABFNgen7

$$$$

     RDKit          2D

 16 17  0  0  0  0  0  0  0  0999 V2000
    1.8478   -9.0619    0.0000 C   0  0  0  0  0  0  0  0  0  0  0  0
    2.0046   -7.5702    0.0000 C   0  0  0  0  0  0  0  0  0  0  0  0
    3.3037   -6.8202    0.0000 C   0  0  0  0  0  0  0  0  0  0  0  0
    2.9918   -5.3529    0.0000 C   0  0  0  0  0  0  0  0  0  0  0  0
    1.5000   -5.1962    0.0000 C   0  0  0  0  0  0  0  0  0  0  0  0
    0.7500   -3.8971    0.0000 C   0  0  0  0  0  0  0  0  0  0  0  0
   -0.7500   -3.8971    0.0000 O   0  0  0  0  0  0  0  0  0  0  0  0
    1.5000   -2.5981    0.0000 N   0  0  0  0  0  0  0  0  0  0  0  0
    0.7500   -1.2990    0.0000 C   0  0  0  0  0  0  0  0  0  0  0  0
    1.5000    0.0000    0.0000 C   0  0  0  0  0  0  0  0  0  0  0  0
    0.7500    1.2990    0.0000 N   0  0  0  0  0  0  0  0  0  0  0  0
   -0.7500    1.2990    0.0000 N   0  0  0  0  0  0  0  0  0  0  0  0
   -1.5000    0.0000    0.0000 N   0  0  0  0  0  0  0  0  0  0  0  0
   -0.7500   -1.2990    0.0000 N   0  0  0  0  0  0  0  0  0  0  0  0
    0.8899   -6.5665    0.0000 C   0  0  0  0  0  0  0  0  0  0  0  0
   -0.5773   -6.8783    0.0000 O   0  0  0  0  0  0  0  0  0  0  0  0
  1  2  1  0
  2  3  1  0
  3  4  1  0
  4  5  1  0
  5  6  1  0
  6  7  2  0
  6  8  1  0
  8  9  1  0
  9 10  2  0
 10 11  1  0
 11 12  2  0
 12 13  1  0
 13 14  2  0
  5 15  1  0
 15 16  2  0
 15  2  1  0
 14  9  1  0
M  END
>  <Title>  (867) 
idABFOgen7

$$$$

     RDKit          2D

 28 28  0  0  0  0  0  0  0  0999 V2000
    7.9603    0.0000    0.0000 C   0  0  0  0  0  0  0  0  0  0  0  0
    6.4603    0.0000    0.0000 C   0  0  0  0  0  0  0  0  0  0  0  0
    6.2862    1.4899    0.0000 C   0  0  0  0  0  0  0  0  0  0  0  0
    5.7732    2.8994    0.0000 C   0  0  0  0  0  0  0  0  0  0  0  0
    4.9489    4.1526    0.0000 C   0  0  0  0  0  0  0  0  0  0  0  0
    3.8578    5.1820    0.0000 C   0  0  0  0  0  0  0  0  0  0  0  0
    2.5588    5.9320    0.0000 C   0  0  0  0  0  0  0  0  0  0  0  0
    1.1218    6.3622    0.0000 C   0  0  0  0  0  0  0  0  0  0  0  0
   -0.3756    6.4494    0.0000 C   0  0  0  0  0  0  0  0  0  0  0  0
   -1.8528    6.1889    0.0000 C   0  0  0  0  0  0  0  0  0  0  0  0
   -3.2302    5.5948    0.0000 C   0  0  0  0  0  0  0  0  0  0  0  0
   -4.4334    4.6991    0.0000 C   0  0  0  0  0  0  0  0  0  0  0  0
   -5.3975    3.5500    0.0000 C   0  0  0  0  0  0  0  0  0  0  0  0
   -6.0707    2.2096    0.0000 C   0  0  0  0  0  0  0  0  0  0  0  0
   -6.4167    0.7500    0.0000 C   0  0  0  0  0  0  0  0  0  0  0  0
   -6.4167   -0.7500    0.0000 C   0  0  0  0  0  0  0  0  0  0  0  0
   -6.0707   -2.2096    0.0000 C   0  0  0  0  0  0  0  0  0  0  0  0
   -5.3975   -3.5500    0.0000 C   0  0  0  0  0  0  0  0  0  0  0  0
   -4.4334   -4.6991    0.0000 C   0  0  0  0  0  0  0  0  0  0  0  0
   -3.2302   -5.5948    0.0000 C   0  0  0  0  0  0  0  0  0  0  0  0
   -1.8528   -6.1889    0.0000 C   0  0  0  0  0  0  0  0  0  0  0  0
   -0.3756   -6.4494    0.0000 C   0  0  0  0  0  0  0  0  0  0  0  0
    1.1218   -6.3622    0.0000 C   0  0  0  0  0  0  0  0  0  0  0  0
    2.5588   -5.9320    0.0000 C   0  0  0  0  0  0  0  0  0  0  0  0
    3.8578   -5.1820    0.0000 C   0  0  0  0  0  0  0  0  0  0  0  0
    4.9489   -4.1526    0.0000 C   0  0  0  0  0  0  0  0  0  0  0  0
    5.7732   -2.8994    0.0000 C   0  0  0  0  0  0  0  0  0  0  0  0
    6.2862   -1.4899    0.0000 C   0  0  0  0  0  0  0  0  0  0  0  0
  1  2  1  0
  2  3  1  0
  3  4  1  0
  4  5  1  0
  5  6  1  0
  6  7  1  0
  7  8  1  0
  8  9  1  0
  9 10  1  0
 10 11  1  0
 11 12  1  0
 12 13  1  0
 13 14  1  0
 14 15  1  0
 15 16  1  0
 16 17  1  0
 17 18  1  0
 18 19  1  0
 19 20  1  0
 20 21  1  0
 21 22  1  0
 22 23  1  0
 23 24  1  0
 24 25  1  0
 25 26  1  0
 26 27  1  0
 27 28  1  0
 28  2  1  0
M  END
>  <Title>  (868) 
idABFPgen7

$$$$

     RDKit          2D

 11 11  0  0  0  0  0  0  0  0999 V2000
    3.9271    0.0000    0.0000 C   0  0  0  0  0  0  0  0  0  0  0  0
    2.4271    0.0000    0.0000 C   0  0  0  0  0  0  0  0  0  0  0  0
    1.9635   -1.4266    0.0000 C   0  0  0  0  0  0  0  0  0  0  0  0
    0.7500   -2.3083    0.0000 C   0  0  0  0  0  0  0  0  0  0  0  0
   -0.7500   -2.3083    0.0000 C   0  0  0  0  0  0  0  0  0  0  0  0
   -1.9635   -1.4266    0.0000 C   0  0  0  0  0  0  0  0  0  0  0  0
   -2.4271    0.0000    0.0000 C   0  0  0  0  0  0  0  0  0  0  0  0
   -1.9635    1.4266    0.0000 C   0  0  0  0  0  0  0  0  0  0  0  0
   -0.7500    2.3083    0.0000 C   0  0  0  0  0  0  0  0  0  0  0  0
    0.7500    2.3083    0.0000 C   0  0  0  0  0  0  0  0  0  0  0  0
    1.9635    1.4266    0.0000 C   0  0  0  0  0  0  0  0  0  0  0  0
  1  2  1  0
  2  3  1  0
  3  4  1  0
  4  5  2  0
  5  6  1  0
  6  7  1  0
  7  8  1  0
  8  9  1  0
  9 10  1  0
 10 11  1  0
 11  2  1  0
M  END
>  <Title>  (869) 
idABFQgen7

$$$$

     RDKit          2D

 65 65  0  0  0  0  0  0  0  0999 V2000
   15.5237    0.0000    0.0000 C   0  0  0  0  0  0  0  0  0  0  0  0
   15.4512    1.4982    0.0000 C   0  0  0  0  0  0  0  0  0  0  0  0
   15.2344    2.9825    0.0000 C   0  0  0  0  0  0  0  0  0  0  0  0
   14.8755    4.4389    0.0000 C   0  0  0  0  0  0  0  0  0  0  0  0
   14.3776    5.8539    0.0000 C   0  0  0  0  0  0  0  0  0  0  0  0
   13.7455    7.2142    0.0000 C   0  0  0  0  0  0  0  0  0  0  0  0
   12.9851    8.5072    0.0000 C   0  0  0  0  0  0  0  0  0  0  0  0
   12.1034    9.7207    0.0000 C   0  0  0  0  0  0  0  0  0  0  0  0
   11.1087   10.8434    0.0000 C   0  0  0  0  0  0  0  0  0  0  0  0
   10.0103   11.8650    0.0000 C   0  0  0  0  0  0  0  0  0  0  0  0
    8.8184   12.7757    0.0000 C   0  0  0  0  0  0  0  0  0  0  0  0
    7.5442   13.5672    0.0000 C   0  0  0  0  0  0  0  0  0  0  0  0
    6.1996   14.2320    0.0000 C   0  0  0  0  0  0  0  0  0  0  0  0
    4.7971   14.7639    0.0000 C   0  0  0  0  0  0  0  0  0  0  0  0
    3.3498   15.1579    0.0000 C   0  0  0  0  0  0  0  0  0  0  0  0
    1.8712   15.4105    0.0000 C   0  0  0  0  0  0  0  0  0  0  0  0
    0.3751   15.5191    0.0000 C   0  0  0  0  0  0  0  0  0  0  0  0
   -1.1245   15.4829    0.0000 C   0  0  0  0  0  0  0  0  0  0  0  0
   -2.6135   15.3021    0.0000 C   0  0  0  0  0  0  0  0  0  0  0  0
   -4.0782   14.9784    0.0000 C   0  0  0  0  0  0  0  0  0  0  0  0
   -5.5048   14.5149    0.0000 C   0  0  0  0  0  0  0  0  0  0  0  0
   -6.8800   13.9158    0.0000 C   0  0  0  0  0  0  0  0  0  0  0  0
   -8.1909   13.1868    0.0000 C   0  0  0  0  0  0  0  0  0  0  0  0
   -9.4254   12.3347    0.0000 C   0  0  0  0  0  0  0  0  0  0  0  0
  -10.5719   11.3675    0.0000 C   0  0  0  0  0  0  0  0  0  0  0  0
  -11.6196   10.2941    0.0000 C   0  0  0  0  0  0  0  0  0  0  0  0
  -12.5589    9.1246    0.0000 C   0  0  0  0  0  0  0  0  0  0  0  0
  -13.3809    7.8699    0.0000 C   0  0  0  0  0  0  0  0  0  0  0  0
  -14.0780    6.5417    0.0000 C   0  0  0  0  0  0  0  0  0  0  0  0
  -14.6436    5.1524    0.0000 C   0  0  0  0  0  0  0  0  0  0  0  0
  -15.0726    3.7151    0.0000 C   0  0  0  0  0  0  0  0  0  0  0  0
  -15.3608    2.2430    0.0000 C   0  0  0  0  0  0  0  0  0  0  0  0
  -15.5055    0.7500    0.0000 C   0  0  0  0  0  0  0  0  0  0  0  0
  -15.5055   -0.7500    0.0000 C   0  0  0  0  0  0  0  0  0  0  0  0
  -15.3608   -2.2430    0.0000 C   0  0  0  0  0  0  0  0  0  0  0  0
  -15.0726   -3.7151    0.0000 C   0  0  0  0  0  0  0  0  0  0  0  0
  -14.6436   -5.1524    0.0000 C   0  0  0  0  0  0  0  0  0  0  0  0
  -14.0780   -6.5417    0.0000 C   0  0  0  0  0  0  0  0  0  0  0  0
  -13.3809   -7.8699    0.0000 C   0  0  0  0  0  0  0  0  0  0  0  0
  -12.5589   -9.1246    0.0000 C   0  0  0  0  0  0  0  0  0  0  0  0
  -11.6196  -10.2941    0.0000 C   0  0  0  0  0  0  0  0  0  0  0  0
  -10.5719  -11.3675    0.0000 C   0  0  0  0  0  0  0  0  0  0  0  0
   -9.4254  -12.3347    0.0000 C   0  0  0  0  0  0  0  0  0  0  0  0
   -8.1909  -13.1868    0.0000 C   0  0  0  0  0  0  0  0  0  0  0  0
   -6.8800  -13.9158    0.0000 C   0  0  0  0  0  0  0  0  0  0  0  0
   -5.5048  -14.5149    0.0000 C   0  0  0  0  0  0  0  0  0  0  0  0
   -4.0782  -14.9784    0.0000 C   0  0  0  0  0  0  0  0  0  0  0  0
   -2.6135  -15.3021    0.0000 C   0  0  0  0  0  0  0  0  0  0  0  0
   -1.1245  -15.4829    0.0000 C   0  0  0  0  0  0  0  0  0  0  0  0
    0.3751  -15.5191    0.0000 C   0  0  0  0  0  0  0  0  0  0  0  0
    1.8712  -15.4105    0.0000 C   0  0  0  0  0  0  0  0  0  0  0  0
    3.3498  -15.1579    0.0000 C   0  0  0  0  0  0  0  0  0  0  0  0
    4.7971  -14.7639    0.0000 C   0  0  0  0  0  0  0  0  0  0  0  0
    6.1996  -14.2320    0.0000 C   0  0  0  0  0  0  0  0  0  0  0  0
    7.5442  -13.5672    0.0000 C   0  0  0  0  0  0  0  0  0  0  0  0
    8.8184  -12.7757    0.0000 C   0  0  0  0  0  0  0  0  0  0  0  0
   10.0103  -11.8650    0.0000 C   0  0  0  0  0  0  0  0  0  0  0  0
   11.1087  -10.8434    0.0000 C   0  0  0  0  0  0  0  0  0  0  0  0
   12.1034   -9.7207    0.0000 C   0  0  0  0  0  0  0  0  0  0  0  0
   12.9851   -8.5072    0.0000 C   0  0  0  0  0  0  0  0  0  0  0  0
   13.7455   -7.2142    0.0000 C   0  0  0  0  0  0  0  0  0  0  0  0
   14.3776   -5.8539    0.0000 C   0  0  0  0  0  0  0  0  0  0  0  0
   14.8755   -4.4389    0.0000 C   0  0  0  0  0  0  0  0  0  0  0  0
   15.2344   -2.9825    0.0000 C   0  0  0  0  0  0  0  0  0  0  0  0
   15.4512   -1.4982    0.0000 C   0  0  0  0  0  0  0  0  0  0  0  0
  1  2  1  0
  2  3  1  0
  3  4  1  0
  4  5  1  0
  5  6  1  0
  6  7  1  0
  7  8  1  0
  8  9  1  0
  9 10  1  0
 10 11  1  0
 11 12  1  0
 12 13  1  0
 13 14  1  0
 14 15  1  0
 15 16  1  0
 16 17  1  0
 17 18  1  0
 18 19  1  0
 19 20  1  0
 20 21  1  0
 21 22  1  0
 22 23  1  0
 23 24  1  0
 24 25  1  0
 25 26  1  0
 26 27  1  0
 27 28  1  0
 28 29  1  0
 29 30  1  0
 30 31  1  0
 31 32  1  0
 32 33  1  0
 33 34  1  0
 34 35  1  0
 35 36  1  0
 36 37  1  0
 37 38  1  0
 38 39  1  0
 39 40  1  0
 40 41  1  0
 41 42  1  0
 42 43  1  0
 43 44  1  0
 44 45  1  0
 45 46  1  0
 46 47  1  0
 47 48  1  0
 48 49  1  0
 49 50  1  0
 50 51  1  0
 51 52  1  0
 52 53  1  0
 53 54  1  0
 54 55  1  0
 55 56  1  0
 56 57  1  0
 57 58  1  0
 58 59  1  0
 59 60  1  0
 60 61  1  0
 61 62  1  0
 62 63  1  0
 63 64  1  0
 64 65  1  0
 65  1  1  0
M  END
>  <Title>  (870) 
idABFRgen7

$$$$

     RDKit          2D

  9  9  0  0  0  0  0  0  0  0999 V2000
    5.0260   -1.2990    0.0000 C   0  0  0  0  0  0  0  0  0  0  0  0
    3.5260   -1.2990    0.0000 C   0  0  0  0  0  0  0  0  0  0  0  0
    2.7760   -2.5981    0.0000 O   0  0  0  0  0  0  0  0  0  0  0  0
    2.7760    0.0000    0.0000 N   0  0  0  0  0  0  0  0  0  0  0  0
    1.2760    0.0000    0.0000 C   0  0  0  0  0  0  0  0  0  0  0  0
    0.3943    1.2135    0.0000 C   0  0  0  0  0  0  0  0  0  0  0  0
   -1.0323    0.7500    0.0000 C   0  0  0  0  0  0  0  0  0  0  0  0
   -1.0323   -0.7500    0.0000 C   0  0  0  0  0  0  0  0  0  0  0  0
    0.3943   -1.2135    0.0000 C   0  0  0  0  0  0  0  0  0  0  0  0
  1  2  1  0
  2  3  2  0
  2  4  1  0
  4  5  1  0
  5  6  2  0
  6  7  1  0
  7  8  1  0
  8  9  2  0
  9  5  1  0
M  END
>  <Title>  (871) 
idABFSgen7

$$$$

     RDKit          2D

 34 38  0  0  0  0  0  0  0  0999 V2000
    1.2135   -7.3421    0.0000 C   0  0  0  0  0  0  0  0  0  0  0  0
    0.7500   -5.9156    0.0000 C   0  0  0  0  0  0  0  0  0  0  0  0
    1.9635   -5.0339    0.0000 C   0  0  0  0  0  0  0  0  0  0  0  0
    2.4271   -3.6073    0.0000 C   0  0  0  0  0  0  0  0  0  0  0  0
    1.9635   -2.1807    0.0000 C   0  0  0  0  0  0  0  0  0  0  0  0
    3.1771   -1.2990    0.0000 N   0  0  0  0  0  0  0  0  0  0  0  0
    4.5474   -1.9091    0.0000 C   0  0  0  0  0  0  0  0  0  0  0  0
    3.0203    0.1927    0.0000 C   0  0  0  0  0  0  0  0  0  0  0  0
    1.6499    0.8028    0.0000 O   0  0  0  0  0  0  0  0  0  0  0  0
    4.2338    1.0744    0.0000 N   0  0  0  0  0  0  0  0  0  0  0  0
    4.0770    2.5662    0.0000 C   0  0  0  0  0  0  0  0  0  0  0  0
    5.2905    3.4479    0.0000 N   0  0  0  0  0  0  0  0  0  0  0  0
    5.1337    4.9397    0.0000 N   0  0  0  0  0  0  0  0  0  0  0  0
    3.7634    5.5498    0.0000 N   0  0  0  0  0  0  0  0  0  0  0  0
    2.5499    4.6681    0.0000 N   0  0  0  0  0  0  0  0  0  0  0  0
    2.7067    3.1763    0.0000 N   0  0  0  0  0  0  0  0  0  0  0  0
    0.7500   -1.2990    0.0000 C   0  0  0  0  0  0  0  0  0  0  0  0
    1.5000    0.0000    0.0000 C   0  0  0  0  0  0  0  0  0  0  0  0
    0.7500    1.2990    0.0000 C   0  0  0  0  0  0  0  0  0  0  0  0
   -0.7500    1.2990    0.0000 C   0  0  0  0  0  0  0  0  0  0  0  0
   -1.5000    0.0000    0.0000 C   0  0  0  0  0  0  0  0  0  0  0  0
   -0.7500   -1.2990    0.0000 C   0  0  0  0  0  0  0  0  0  0  0  0
   -1.9635   -2.1807    0.0000 C   0  0  0  0  0  0  0  0  0  0  0  0
   -2.9672   -1.0660    0.0000 C   0  0  0  0  0  0  0  0  0  0  0  0
   -4.4344   -1.3779    0.0000 C   0  0  0  0  0  0  0  0  0  0  0  0
   -4.8980   -2.8045    0.0000 C   0  0  0  0  0  0  0  0  0  0  0  0
   -3.8943   -3.9192    0.0000 C   0  0  0  0  0  0  0  0  0  0  0  0
   -2.4271   -3.6073    0.0000 C   0  0  0  0  0  0  0  0  0  0  0  0
   -1.9635   -5.0339    0.0000 C   0  0  0  0  0  0  0  0  0  0  0  0
   -3.3338   -5.6440    0.0000 C   0  0  0  0  0  0  0  0  0  0  0  0
   -3.4906   -7.1358    0.0000 C   0  0  0  0  0  0  0  0  0  0  0  0
   -2.2771   -8.0175    0.0000 C   0  0  0  0  0  0  0  0  0  0  0  0
   -0.9068   -7.4073    0.0000 C   0  0  0  0  0  0  0  0  0  0  0  0
   -0.7500   -5.9156    0.0000 C   0  0  0  0  0  0  0  0  0  0  0  0
  1  2  1  0
  2  3  2  0
  3  4  1  0
  4  5  2  0
  5  6  1  0
  6  7  1  0
  6  8  1  0
  8  9  2  0
  8 10  1  0
 10 11  1  0
 11 12  2  0
 12 13  1  0
 13 14  2  0
 14 15  1  0
 15 16  2  0
  5 17  1  0
 17 18  2  0
 18 19  1  0
 19 20  2  0
 20 21  1  0
 21 22  2  0
 22 23  1  0
 23 24  2  0
 24 25  1  0
 25 26  2  0
 26 27  1  0
 27 28  2  0
 28 29  1  0
 29 30  2  0
 30 31  1  0
 31 32  2  0
 32 33  1  0
 33 34  2  0
 34  2  1  0
 16 11  1  0
 22 17  1  0
 28 23  1  0
 34 29  1  0
M  END
>  <Title>  (872) 
idABFTgen7

$$$$

     RDKit          2D

 78 85  0  0  0  0  0  0  0  0999 V2000
  -13.0366  -15.0886    0.0000 C   0  0  0  0  0  0  0  0  0  0  0  0
  -11.5559  -14.8492    0.0000 C   0  0  0  0  0  0  0  0  0  0  0  0
  -11.2221  -16.3115    0.0000 C   0  0  0  0  0  0  0  0  0  0  0  0
  -10.7040  -17.7192    0.0000 C   0  0  0  0  0  0  0  0  0  0  0  0
  -10.0102  -19.0491    0.0000 C   0  0  0  0  0  0  0  0  0  0  0  0
   -9.1520  -20.2794    0.0000 C   0  0  0  0  0  0  0  0  0  0  0  0
   -8.1436  -21.3898    0.0000 C   0  0  0  0  0  0  0  0  0  0  0  0
   -7.0014  -22.3622    0.0000 C   0  0  0  0  0  0  0  0  0  0  0  0
   -5.7443  -23.1805    0.0000 C   0  0  0  0  0  0  0  0  0  0  0  0
   -4.3928  -23.8313    0.0000 C   0  0  0  0  0  0  0  0  0  0  0  0
   -2.9693  -24.3040    0.0000 C   0  0  0  0  0  0  0  0  0  0  0  0
   -1.4969  -24.5907    0.0000 C   0  0  0  0  0  0  0  0  0  0  0  0
   -0.0000  -24.6868    0.0000 C   0  0  0  0  0  0  0  0  0  0  0  0
    1.4969  -24.5907    0.0000 C   0  0  0  0  0  0  0  0  0  0  0  0
    2.9693  -24.3040    0.0000 C   0  0  0  0  0  0  0  0  0  0  0  0
    4.3928  -23.8313    0.0000 C   0  0  0  0  0  0  0  0  0  0  0  0
    5.7443  -23.1805    0.0000 C   0  0  0  0  0  0  0  0  0  0  0  0
    7.0014  -22.3622    0.0000 C   0  0  0  0  0  0  0  0  0  0  0  0
    8.1436  -21.3898    0.0000 C   0  0  0  0  0  0  0  0  0  0  0  0
    9.1520  -20.2794    0.0000 C   0  0  0  0  0  0  0  0  0  0  0  0
   10.0102  -19.0491    0.0000 C   0  0  0  0  0  0  0  0  0  0  0  0
   10.7040  -17.7192    0.0000 C   0  0  0  0  0  0  0  0  0  0  0  0
   11.2221  -16.3115    0.0000 C   0  0  0  0  0  0  0  0  0  0  0  0
   11.5559  -14.8492    0.0000 C   0  0  0  0  0  0  0  0  0  0  0  0
   11.6999  -13.3561    0.0000 C   0  0  0  0  0  0  0  0  0  0  0  0
   11.6518  -11.8569    0.0000 C   0  0  0  0  0  0  0  0  0  0  0  0
   11.4124  -10.3761    0.0000 C   0  0  0  0  0  0  0  0  0  0  0  0
   10.9856   -8.9381    0.0000 C   0  0  0  0  0  0  0  0  0  0  0  0
   10.3784   -7.5665    0.0000 C   0  0  0  0  0  0  0  0  0  0  0  0
    9.6009   -6.2837    0.0000 C   0  0  0  0  0  0  0  0  0  0  0  0
    8.6656   -5.1110    0.0000 C   0  0  0  0  0  0  0  0  0  0  0  0
    7.5881   -4.0675    0.0000 C   0  0  0  0  0  0  0  0  0  0  0  0
    6.3860   -3.1703    0.0000 C   0  0  0  0  0  0  0  0  0  0  0  0
    5.0790   -2.4342    0.0000 C   0  0  0  0  0  0  0  0  0  0  0  0
    3.6886   -1.8713    0.0000 C   0  0  0  0  0  0  0  0  0  0  0  0
    2.2377   -1.4909    0.0000 C   0  0  0  0  0  0  0  0  0  0  0  0
    0.7500   -1.2990    0.0000 C   0  0  0  0  0  0  0  0  0  0  0  0
    1.5000    0.0000    0.0000 C   0  0  0  0  0  0  0  0  0  0  0  0
    0.7500    1.2990    0.0000 C   0  0  0  0  0  0  0  0  0  0  0  0
   -0.7500    1.2990    0.0000 C   0  0  0  0  0  0  0  0  0  0  0  0
   -1.5000    0.0000    0.0000 C   0  0  0  0  0  0  0  0  0  0  0  0
   -0.7500   -1.2990    0.0000 C   0  0  0  0  0  0  0  0  0  0  0  0
   -2.2377   -1.4909    0.0000 C   0  0  0  0  0  0  0  0  0  0  0  0
   -1.1827   -2.5572    0.0000 C   0  0  0  0  0  0  0  0  0  0  0  0
   -1.5787   -4.0040    0.0000 C   0  0  0  0  0  0  0  0  0  0  0  0
   -3.0296   -4.3844    0.0000 C   0  0  0  0  0  0  0  0  0  0  0  0
   -4.0846   -3.3181    0.0000 C   0  0  0  0  0  0  0  0  0  0  0  0
   -3.6886   -1.8713    0.0000 C   0  0  0  0  0  0  0  0  0  0  0  0
   -5.0790   -2.4342    0.0000 C   0  0  0  0  0  0  0  0  0  0  0  0
   -5.0630   -0.9343    0.0000 C   0  0  0  0  0  0  0  0  0  0  0  0
   -6.3539   -0.1705    0.0000 C   0  0  0  0  0  0  0  0  0  0  0  0
   -7.6609   -0.9066    0.0000 C   0  0  0  0  0  0  0  0  0  0  0  0
   -7.6769   -2.4065    0.0000 C   0  0  0  0  0  0  0  0  0  0  0  0
   -6.3860   -3.1703    0.0000 C   0  0  0  0  0  0  0  0  0  0  0  0
   -7.5881   -4.0675    0.0000 C   0  0  0  0  0  0  0  0  0  0  0  0
   -6.1456   -4.4789    0.0000 C   0  0  0  0  0  0  0  0  0  0  0  0
   -5.7807   -5.9338    0.0000 C   0  0  0  0  0  0  0  0  0  0  0  0
   -6.8582   -6.9773    0.0000 C   0  0  0  0  0  0  0  0  0  0  0  0
   -8.3007   -6.5659    0.0000 C   0  0  0  0  0  0  0  0  0  0  0  0
   -8.6656   -5.1110    0.0000 C   0  0  0  0  0  0  0  0  0  0  0  0
   -9.6009   -6.2837    0.0000 C   0  0  0  0  0  0  0  0  0  0  0  0
  -10.3229   -4.9690    0.0000 C   0  0  0  0  0  0  0  0  0  0  0  0
  -11.8226   -4.9369    0.0000 C   0  0  0  0  0  0  0  0  0  0  0  0
  -12.6002   -6.2196    0.0000 C   0  0  0  0  0  0  0  0  0  0  0  0
  -11.8781   -7.5344    0.0000 C   0  0  0  0  0  0  0  0  0  0  0  0
  -10.3784   -7.5665    0.0000 C   0  0  0  0  0  0  0  0  0  0  0  0
  -10.9856   -8.9381    0.0000 C   0  0  0  0  0  0  0  0  0  0  0  0
  -12.2167   -8.5205    0.0000 C   0  0  0  0  0  0  0  0  0  0  0  0
  -12.9947   -8.7069    0.0000 C   0  0  0  0  0  0  0  0  0  0  0  0
  -13.2224   -9.4738    0.0000 C   0  0  0  0  0  0  0  0  0  0  0  0
  -12.6720  -10.0544    0.0000 C   0  0  0  0  0  0  0  0  0  0  0  0
  -11.4124  -10.3761    0.0000 C   0  0  0  0  0  0  0  0  0  0  0  0
  -11.6518  -11.8569    0.0000 C   0  0  0  0  0  0  0  0  0  0  0  0
  -10.3294  -11.1489    0.0000 C   0  0  0  0  0  0  0  0  0  0  0  0
   -9.0551  -11.9401    0.0000 C   0  0  0  0  0  0  0  0  0  0  0  0
   -9.1032  -13.4394    0.0000 C   0  0  0  0  0  0  0  0  0  0  0  0
  -10.4256  -14.1473    0.0000 C   0  0  0  0  0  0  0  0  0  0  0  0
  -11.6999  -13.3561    0.0000 C   0  0  0  0  0  0  0  0  0  0  0  0
  1  2  1  0
  2  3  1  0
  3  4  1  0
  4  5  1  0
  5  6  1  0
  6  7  1  0
  7  8  1  0
  8  9  1  0
  9 10  1  0
 10 11  1  0
 11 12  1  0
 12 13  1  0
 13 14  1  0
 14 15  1  0
 15 16  1  0
 16 17  1  0
 17 18  1  0
 18 19  1  0
 19 20  1  0
 20 21  1  0
 21 22  1  0
 22 23  1  0
 23 24  1  0
 24 25  1  0
 25 26  1  0
 26 27  1  0
 27 28  1  0
 28 29  1  0
 29 30  1  0
 30 31  1  0
 31 32  1  0
 32 33  1  0
 33 34  1  0
 34 35  1  0
 35 36  1  0
 36 37  1  0
 37 38  2  0
 38 39  1  0
 39 40  2  0
 40 41  1  0
 41 42  2  0
 42 43  1  0
 43 44  2  0
 44 45  1  0
 45 46  2  0
 46 47  1  0
 47 48  2  0
 48 49  1  0
 49 50  2  0
 50 51  1  0
 51 52  2  0
 52 53  1  0
 53 54  2  0
 54 55  1  0
 55 56  2  0
 56 57  1  0
 57 58  2  0
 58 59  1  0
 59 60  2  0
 60 61  1  0
 61 62  2  0
 62 63  1  0
 63 64  2  0
 64 65  1  0
 65 66  2  0
 66 67  1  0
 67 68  2  0
 68 69  1  0
 69 70  2  0
 70 71  1  0
 71 72  2  0
 72 73  1  0
 73 74  2  0
 74 75  1  0
 75 76  2  0
 76 77  1  0
 77 78  2  0
 78  2  1  0
 42 37  1  0
 48 43  1  0
 54 49  1  0
 60 55  1  0
 66 61  1  0
 72 67  1  0
 78 73  1  0
M  END
>  <Title>  (873) 
idABFUgen7

$$$$

     RDKit          2D

 84 86  0  0  0  0  0  0  0  0999 V2000
   -5.2769    2.1089    0.0000 C   0  0  0  0  0  0  0  0  0  0  0  0
   -4.5295    3.4095    0.0000 C   0  0  0  0  0  0  0  0  0  0  0  0
   -5.7972    4.2114    0.0000 C   0  0  0  0  0  0  0  0  0  0  0  0
   -6.9923    5.1179    0.0000 C   0  0  0  0  0  0  0  0  0  0  0  0
   -8.1062    6.1225    0.0000 C   0  0  0  0  0  0  0  0  0  0  0  0
   -9.1309    7.2179    0.0000 C   0  0  0  0  0  0  0  0  0  0  0  0
  -10.0590    8.3963    0.0000 C   0  0  0  0  0  0  0  0  0  0  0  0
  -10.8838    9.6492    0.0000 C   0  0  0  0  0  0  0  0  0  0  0  0
  -11.5994   10.9675    0.0000 C   0  0  0  0  0  0  0  0  0  0  0  0
  -12.2006   12.3417    0.0000 C   0  0  0  0  0  0  0  0  0  0  0  0
  -12.6831   13.7620    0.0000 C   0  0  0  0  0  0  0  0  0  0  0  0
  -13.0435   15.2181    0.0000 C   0  0  0  0  0  0  0  0  0  0  0  0
  -13.2790   16.6994    0.0000 C   0  0  0  0  0  0  0  0  0  0  0  0
  -13.3881   18.1955    0.0000 C   0  0  0  0  0  0  0  0  0  0  0  0
  -13.3699   19.6954    0.0000 C   0  0  0  0  0  0  0  0  0  0  0  0
  -13.2246   21.1883    0.0000 C   0  0  0  0  0  0  0  0  0  0  0  0
  -12.9532   22.6635    0.0000 C   0  0  0  0  0  0  0  0  0  0  0  0
  -12.5576   24.1105    0.0000 C   0  0  0  0  0  0  0  0  0  0  0  0
  -12.0408   25.5186    0.0000 C   0  0  0  0  0  0  0  0  0  0  0  0
  -11.4064   26.8779    0.0000 C   0  0  0  0  0  0  0  0  0  0  0  0
  -10.6590   28.1784    0.0000 C   0  0  0  0  0  0  0  0  0  0  0  0
   -9.8040   29.4109    0.0000 C   0  0  0  0  0  0  0  0  0  0  0  0
   -8.8476   30.5664    0.0000 C   0  0  0  0  0  0  0  0  0  0  0  0
   -7.7967   31.6367    0.0000 C   0  0  0  0  0  0  0  0  0  0  0  0
   -6.6587   32.6140    0.0000 C   0  0  0  0  0  0  0  0  0  0  0  0
   -5.4420   33.4912    0.0000 C   0  0  0  0  0  0  0  0  0  0  0  0
   -4.1553   34.2621    0.0000 C   0  0  0  0  0  0  0  0  0  0  0  0
   -2.8078   34.9212    0.0000 C   0  0  0  0  0  0  0  0  0  0  0  0
   -1.4093   35.4635    0.0000 C   0  0  0  0  0  0  0  0  0  0  0  0
    0.0302   35.8853    0.0000 C   0  0  0  0  0  0  0  0  0  0  0  0
    1.5003   36.1835    0.0000 C   0  0  0  0  0  0  0  0  0  0  0  0
    2.9903   36.3560    0.0000 C   0  0  0  0  0  0  0  0  0  0  0  0
    4.4896   36.4015    0.0000 C   0  0  0  0  0  0  0  0  0  0  0  0
    5.9874   36.3196    0.0000 C   0  0  0  0  0  0  0  0  0  0  0  0
    7.4728   36.1111    0.0000 C   0  0  0  0  0  0  0  0  0  0  0  0
    8.9352   35.7773    0.0000 C   0  0  0  0  0  0  0  0  0  0  0  0
   10.3640   35.3207    0.0000 C   0  0  0  0  0  0  0  0  0  0  0  0
   11.7490   34.7446    0.0000 C   0  0  0  0  0  0  0  0  0  0  0  0
   13.0801   34.0531    0.0000 C   0  0  0  0  0  0  0  0  0  0  0  0
   14.3477   33.2512    0.0000 C   0  0  0  0  0  0  0  0  0  0  0  0
   15.5428   32.3447    0.0000 C   0  0  0  0  0  0  0  0  0  0  0  0
   16.6567   31.3401    0.0000 C   0  0  0  0  0  0  0  0  0  0  0  0
   17.6814   30.2446    0.0000 C   0  0  0  0  0  0  0  0  0  0  0  0
   18.6095   29.0662    0.0000 C   0  0  0  0  0  0  0  0  0  0  0  0
   19.4344   27.8134    0.0000 C   0  0  0  0  0  0  0  0  0  0  0  0
   20.1500   26.4951    0.0000 C   0  0  0  0  0  0  0  0  0  0  0  0
   20.7512   25.1208    0.0000 C   0  0  0  0  0  0  0  0  0  0  0  0
   21.2337   23.7006    0.0000 C   0  0  0  0  0  0  0  0  0  0  0  0
   21.5941   22.2445    0.0000 C   0  0  0  0  0  0  0  0  0  0  0  0
   21.8296   20.7631    0.0000 C   0  0  0  0  0  0  0  0  0  0  0  0
   21.9387   19.2671    0.0000 C   0  0  0  0  0  0  0  0  0  0  0  0
   21.9205   17.7672    0.0000 C   0  0  0  0  0  0  0  0  0  0  0  0
   21.7751   16.2742    0.0000 C   0  0  0  0  0  0  0  0  0  0  0  0
   21.5037   14.7990    0.0000 C   0  0  0  0  0  0  0  0  0  0  0  0
   21.1082   13.3521    0.0000 C   0  0  0  0  0  0  0  0  0  0  0  0
   20.5914   11.9439    0.0000 C   0  0  0  0  0  0  0  0  0  0  0  0
   19.9570   10.5847    0.0000 C   0  0  0  0  0  0  0  0  0  0  0  0
   19.2096    9.2841    0.0000 C   0  0  0  0  0  0  0  0  0  0  0  0
   18.3546    8.0516    0.0000 C   0  0  0  0  0  0  0  0  0  0  0  0
   17.3982    6.8961    0.0000 C   0  0  0  0  0  0  0  0  0  0  0  0
   16.3472    5.8258    0.0000 C   0  0  0  0  0  0  0  0  0  0  0  0
   15.2093    4.8486    0.0000 C   0  0  0  0  0  0  0  0  0  0  0  0
   13.9926    3.9713    0.0000 C   0  0  0  0  0  0  0  0  0  0  0  0
   12.7058    3.2004    0.0000 C   0  0  0  0  0  0  0  0  0  0  0  0
   11.3584    2.5414    0.0000 C   0  0  0  0  0  0  0  0  0  0  0  0
    9.9598    1.9990    0.0000 C   0  0  0  0  0  0  0  0  0  0  0  0
    8.5204    1.5772    0.0000 C   0  0  0  0  0  0  0  0  0  0  0  0
    7.0503    1.2790    0.0000 C   0  0  0  0  0  0  0  0  0  0  0  0
    5.5603    1.1065    0.0000 C   0  0  0  0  0  0  0  0  0  0  0  0
    4.0609    1.0611    0.0000 C   0  0  0  0  0  0  0  0  0  0  0  0
    2.5632    1.1429    0.0000 C   0  0  0  0  0  0  0  0  0  0  0  0
    1.0777    1.3515    0.0000 C   0  0  0  0  0  0  0  0  0  0  0  0
    1.7286    0.0000    0.0000 C   0  0  0  0  0  0  0  0  0  0  0  0
    1.0777   -1.3515    0.0000 C   0  0  0  0  0  0  0  0  0  0  0  0
   -0.3846   -1.6852    0.0000 C   0  0  0  0  0  0  0  0  0  0  0  0
   -1.5574   -0.7500    0.0000 C   0  0  0  0  0  0  0  0  0  0  0  0
   -1.5574    0.7500    0.0000 C   0  0  0  0  0  0  0  0  0  0  0  0
   -0.3846    1.6852    0.0000 C   0  0  0  0  0  0  0  0  0  0  0  0
   -1.8135    2.1418    0.0000 C   0  0  0  0  0  0  0  0  0  0  0  0
   -0.6220    3.0532    0.0000 C   0  0  0  0  0  0  0  0  0  0  0  0
   -0.8156    4.5406    0.0000 C   0  0  0  0  0  0  0  0  0  0  0  0
   -2.2005    5.1168    0.0000 C   0  0  0  0  0  0  0  0  0  0  0  0
   -3.3919    4.2054    0.0000 C   0  0  0  0  0  0  0  0  0  0  0  0
   -3.1984    2.7180    0.0000 C   0  0  0  0  0  0  0  0  0  0  0  0
  1  2  1  0
  2  3  2  0
  3  4  1  0
  4  5  1  0
  5  6  1  0
  6  7  1  0
  7  8  1  0
  8  9  1  0
  9 10  1  0
 10 11  1  0
 11 12  1  0
 12 13  1  0
 13 14  1  0
 14 15  1  0
 15 16  1  0
 16 17  1  0
 17 18  1  0
 18 19  1  0
 19 20  1  0
 20 21  1  0
 21 22  1  0
 22 23  1  0
 23 24  1  0
 24 25  1  0
 25 26  1  0
 26 27  1  0
 27 28  1  0
 28 29  1  0
 29 30  1  0
 30 31  1  0
 31 32  1  0
 32 33  1  0
 33 34  1  0
 34 35  1  0
 35 36  1  0
 36 37  1  0
 37 38  1  0
 38 39  1  0
 39 40  1  0
 40 41  1  0
 41 42  1  0
 42 43  1  0
 43 44  1  0
 44 45  1  0
 45 46  1  0
 46 47  1  0
 47 48  1  0
 48 49  1  0
 49 50  1  0
 50 51  1  0
 51 52  1  0
 52 53  1  0
 53 54  1  0
 54 55  1  0
 55 56  2  0
 56 57  1  0
 57 58  2  0
 58 59  1  0
 59 60  2  0
 60 61  1  0
 61 62  2  0
 62 63  1  0
 63 64  2  0
 64 65  1  0
 65 66  2  0
 66 67  1  0
 67 68  2  0
 68 69  1  0
 69 70  2  0
 70 71  1  0
 71 72  2  0
 72 73  1  0
 73 74  2  0
 74 75  1  0
 75 76  2  0
 76 77  1  0
 77 78  2  0
 78 79  1  0
 79 80  2  0
 80 81  1  0
 81 82  2  0
 82 83  1  0
 83 84  2  0
 84  2  1  0
 78 72  1  0
 84 79  1  0
M  END
>  <Title>  (874) 
idABFVgen7

$$$$

     RDKit          2D

  6  6  0  0  0  0  0  0  0  0999 V2000
    1.5000    0.0000    0.0000 C   0  0  0  0  0  0  0  0  0  0  0  0
    0.7500   -1.2990    0.0000 C   0  0  0  0  0  0  0  0  0  0  0  0
   -0.7500   -1.2990    0.0000 C   0  0  0  0  0  0  0  0  0  0  0  0
   -1.5000    0.0000    0.0000 C   0  0  0  0  0  0  0  0  0  0  0  0
   -0.7500    1.2990    0.0000 C   0  0  0  0  0  0  0  0  0  0  0  0
    0.7500    1.2990    0.0000 C   0  0  0  0  0  0  0  0  0  0  0  0
  1  2  2  0
  2  3  1  0
  3  4  1  0
  4  5  1  0
  5  6  1  0
  6  1  1  0
M  END
>  <Title>  (875) 
idABFWgen7

$$$$

     RDKit          2D

  8  8  0  0  0  0  0  0  0  0999 V2000
    3.0000    0.0000    0.0000 C   0  0  0  0  0  0  0  0  0  0  0  0
    1.5000    0.0000    0.0000 C   0  0  0  0  0  0  0  0  0  0  0  0
    0.7500   -1.2990    0.0000 C   0  0  0  0  0  0  0  0  0  0  0  0
   -0.7500   -1.2990    0.0000 C   0  0  0  0  0  0  0  0  0  0  0  0
   -1.5000    0.0000    0.0000 C   0  0  0  0  0  0  0  0  0  0  0  0
   -0.7500    1.2990    0.0000 C   0  0  0  0  0  0  0  0  0  0  0  0
   -1.5000    2.5981    0.0000 F   0  0  0  0  0  0  0  0  0  0  0  0
    0.7500    1.2990    0.0000 C   0  0  0  0  0  0  0  0  0  0  0  0
  1  2  1  0
  2  3  1  0
  3  4  1  0
  4  5  1  0
  5  6  1  0
  6  7  1  0
  6  8  1  0
  8  2  1  0
M  END
>  <Title>  (876) 
idABFXgen7

$$$$

     RDKit          2D

  9  9  0  0  0  0  0  0  0  0999 V2000
    5.0260   -1.2990    0.0000 C   0  0  0  0  0  0  0  0  0  0  0  0
    3.5260   -1.2990    0.0000 C   0  0  0  0  0  0  0  0  0  0  0  0
    2.7760   -2.5981    0.0000 O   0  0  0  0  0  0  0  0  0  0  0  0
    2.7760    0.0000    0.0000 O   0  0  0  0  0  0  0  0  0  0  0  0
    1.2760    0.0000    0.0000 C   0  0  0  0  0  0  0  0  0  0  0  0
    0.3943    1.2135    0.0000 C   0  0  0  0  0  0  0  0  0  0  0  0
   -1.0323    0.7500    0.0000 C   0  0  0  0  0  0  0  0  0  0  0  0
   -1.0323   -0.7500    0.0000 C   0  0  0  0  0  0  0  0  0  0  0  0
    0.3943   -1.2135    0.0000 C   0  0  0  0  0  0  0  0  0  0  0  0
  1  2  1  0
  2  3  2  0
  2  4  1  0
  4  5  1  0
  5  6  2  0
  6  7  1  0
  7  8  1  0
  8  9  2  0
  9  5  1  0
M  END
>  <Title>  (877) 
idABFYgen7

$$$$

     RDKit          2D

 10 10  0  0  0  0  0  0  0  0999 V2000
    3.0000    0.0000    0.0000 C   0  0  0  0  0  0  0  0  0  0  0  0
    1.5000    0.0000    0.0000 C   0  0  0  0  0  0  0  0  0  0  0  0
    0.7500   -1.2990    0.0000 C   0  0  0  0  0  0  0  0  0  0  0  0
   -0.7500   -1.2990    0.0000 C   0  0  0  0  0  0  0  0  0  0  0  0
   -1.5000    0.0000    0.0000 C   0  0  0  0  0  0  0  0  0  0  0  0
   -0.7500    1.2990    0.0000 C   0  0  0  0  0  0  0  0  0  0  0  0
    0.7500    1.2990    0.0000 C   0  0  0  0  0  0  0  0  0  0  0  0
    1.5000    2.5981    0.0000 C   0  0  0  0  0  0  0  0  0  0  0  0
    3.0000    2.5981    0.0000 O   0  0  0  0  0  0  0  0  0  0  0  0
    0.7500    3.8971    0.0000 O   0  0  0  0  0  0  0  0  0  0  0  0
  1  2  1  0
  2  3  1  0
  3  4  1  0
  4  5  2  0
  5  6  1  0
  6  7  1  0
  7  8  1  0
  8  9  2  0
  8 10  1  0
  7  2  1  0
M  END
>  <Title>  (878) 
idABFZgen7

$$$$

     RDKit          2D

 83 83  0  0  0  0  0  0  0  0999 V2000
   21.0808    0.0000    0.0000 O   0  0  0  0  0  0  0  0  0  0  0  0
   19.5808    0.0000    0.0000 C   0  0  0  0  0  0  0  0  0  0  0  0
   19.5234   -1.4989    0.0000 C   0  0  0  0  0  0  0  0  0  0  0  0
   19.3514   -2.9890    0.0000 C   0  0  0  0  0  0  0  0  0  0  0  0
   19.0658   -4.4616    0.0000 C   0  0  0  0  0  0  0  0  0  0  0  0
   18.6683   -5.9079    0.0000 C   0  0  0  0  0  0  0  0  0  0  0  0
   18.1613   -7.3197    0.0000 C   0  0  0  0  0  0  0  0  0  0  0  0
   17.5477   -8.6884    0.0000 C   0  0  0  0  0  0  0  0  0  0  0  0
   16.8311  -10.0062    0.0000 C   0  0  0  0  0  0  0  0  0  0  0  0
   16.0158  -11.2652    0.0000 C   0  0  0  0  0  0  0  0  0  0  0  0
   15.1064  -12.4582    0.0000 C   0  0  0  0  0  0  0  0  0  0  0  0
   14.1084  -13.5780    0.0000 C   0  0  0  0  0  0  0  0  0  0  0  0
   13.0276  -14.6181    0.0000 C   0  0  0  0  0  0  0  0  0  0  0  0
   11.8704  -15.5725    0.0000 C   0  0  0  0  0  0  0  0  0  0  0  0
   10.6435  -16.4355    0.0000 C   0  0  0  0  0  0  0  0  0  0  0  0
    9.3542  -17.2020    0.0000 C   0  0  0  0  0  0  0  0  0  0  0  0
    8.0099  -17.8676    0.0000 C   0  0  0  0  0  0  0  0  0  0  0  0
    6.6187  -18.4283    0.0000 C   0  0  0  0  0  0  0  0  0  0  0  0
    5.1886  -18.8809    0.0000 C   0  0  0  0  0  0  0  0  0  0  0  0
    3.7280  -19.2227    0.0000 C   0  0  0  0  0  0  0  0  0  0  0  0
    2.2456  -19.4517    0.0000 C   0  0  0  0  0  0  0  0  0  0  0  0
    0.7500  -19.5665    0.0000 C   0  0  0  0  0  0  0  0  0  0  0  0
   -0.7500  -19.5665    0.0000 C   0  0  0  0  0  0  0  0  0  0  0  0
   -2.2456  -19.4517    0.0000 C   0  0  0  0  0  0  0  0  0  0  0  0
   -3.7280  -19.2227    0.0000 C   0  0  0  0  0  0  0  0  0  0  0  0
   -5.1886  -18.8809    0.0000 C   0  0  0  0  0  0  0  0  0  0  0  0
   -6.6187  -18.4283    0.0000 C   0  0  0  0  0  0  0  0  0  0  0  0
   -8.0099  -17.8676    0.0000 C   0  0  0  0  0  0  0  0  0  0  0  0
   -9.3542  -17.2020    0.0000 C   0  0  0  0  0  0  0  0  0  0  0  0
  -10.6435  -16.4355    0.0000 C   0  0  0  0  0  0  0  0  0  0  0  0
  -11.8704  -15.5725    0.0000 C   0  0  0  0  0  0  0  0  0  0  0  0
  -13.0276  -14.6181    0.0000 C   0  0  0  0  0  0  0  0  0  0  0  0
  -14.1084  -13.5780    0.0000 C   0  0  0  0  0  0  0  0  0  0  0  0
  -15.1064  -12.4582    0.0000 C   0  0  0  0  0  0  0  0  0  0  0  0
  -16.0158  -11.2652    0.0000 C   0  0  0  0  0  0  0  0  0  0  0  0
  -16.8311  -10.0062    0.0000 C   0  0  0  0  0  0  0  0  0  0  0  0
  -17.5477   -8.6884    0.0000 C   0  0  0  0  0  0  0  0  0  0  0  0
  -18.1613   -7.3197    0.0000 C   0  0  0  0  0  0  0  0  0  0  0  0
  -18.6683   -5.9079    0.0000 C   0  0  0  0  0  0  0  0  0  0  0  0
  -19.0658   -4.4616    0.0000 C   0  0  0  0  0  0  0  0  0  0  0  0
  -19.3514   -2.9890    0.0000 C   0  0  0  0  0  0  0  0  0  0  0  0
  -19.5234   -1.4989    0.0000 C   0  0  0  0  0  0  0  0  0  0  0  0
  -19.5808   -0.0000    0.0000 C   0  0  0  0  0  0  0  0  0  0  0  0
  -19.5234    1.4989    0.0000 C   0  0  0  0  0  0  0  0  0  0  0  0
  -19.3514    2.9890    0.0000 C   0  0  0  0  0  0  0  0  0  0  0  0
  -19.0658    4.4616    0.0000 C   0  0  0  0  0  0  0  0  0  0  0  0
  -18.6683    5.9079    0.0000 C   0  0  0  0  0  0  0  0  0  0  0  0
  -18.1613    7.3197    0.0000 C   0  0  0  0  0  0  0  0  0  0  0  0
  -17.5477    8.6884    0.0000 C   0  0  0  0  0  0  0  0  0  0  0  0
  -16.8311   10.0062    0.0000 C   0  0  0  0  0  0  0  0  0  0  0  0
  -16.0158   11.2652    0.0000 C   0  0  0  0  0  0  0  0  0  0  0  0
  -15.1064   12.4582    0.0000 C   0  0  0  0  0  0  0  0  0  0  0  0
  -14.1084   13.5780    0.0000 C   0  0  0  0  0  0  0  0  0  0  0  0
  -13.0276   14.6181    0.0000 C   0  0  0  0  0  0  0  0  0  0  0  0
  -11.8704   15.5725    0.0000 C   0  0  0  0  0  0  0  0  0  0  0  0
  -10.6435   16.4355    0.0000 C   0  0  0  0  0  0  0  0  0  0  0  0
   -9.3542   17.2020    0.0000 C   0  0  0  0  0  0  0  0  0  0  0  0
   -8.0099   17.8676    0.0000 C   0  0  0  0  0  0  0  0  0  0  0  0
   -6.6187   18.4283    0.0000 C   0  0  0  0  0  0  0  0  0  0  0  0
   -5.1886   18.8809    0.0000 C   0  0  0  0  0  0  0  0  0  0  0  0
   -3.7280   19.2227    0.0000 C   0  0  0  0  0  0  0  0  0  0  0  0
   -2.2456   19.4517    0.0000 C   0  0  0  0  0  0  0  0  0  0  0  0
   -0.7500   19.5665    0.0000 C   0  0  0  0  0  0  0  0  0  0  0  0
    0.7500   19.5665    0.0000 C   0  0  0  0  0  0  0  0  0  0  0  0
    2.2456   19.4517    0.0000 C   0  0  0  0  0  0  0  0  0  0  0  0
    3.7280   19.2227    0.0000 C   0  0  0  0  0  0  0  0  0  0  0  0
    5.1886   18.8809    0.0000 C   0  0  0  0  0  0  0  0  0  0  0  0
    6.6187   18.4283    0.0000 C   0  0  0  0  0  0  0  0  0  0  0  0
    8.0099   17.8676    0.0000 C   0  0  0  0  0  0  0  0  0  0  0  0
    9.3542   17.2020    0.0000 C   0  0  0  0  0  0  0  0  0  0  0  0
   10.6435   16.4355    0.0000 C   0  0  0  0  0  0  0  0  0  0  0  0
   11.8704   15.5725    0.0000 C   0  0  0  0  0  0  0  0  0  0  0  0
   13.0276   14.6181    0.0000 C   0  0  0  0  0  0  0  0  0  0  0  0
   14.1084   13.5780    0.0000 C   0  0  0  0  0  0  0  0  0  0  0  0
   15.1064   12.4582    0.0000 C   0  0  0  0  0  0  0  0  0  0  0  0
   16.0158   11.2652    0.0000 C   0  0  0  0  0  0  0  0  0  0  0  0
   16.8311   10.0062    0.0000 C   0  0  0  0  0  0  0  0  0  0  0  0
   17.5477    8.6884    0.0000 C   0  0  0  0  0  0  0  0  0  0  0  0
   18.1613    7.3197    0.0000 C   0  0  0  0  0  0  0  0  0  0  0  0
   18.6683    5.9079    0.0000 C   0  0  0  0  0  0  0  0  0  0  0  0
   19.0658    4.4616    0.0000 C   0  0  0  0  0  0  0  0  0  0  0  0
   19.3514    2.9890    0.0000 C   0  0  0  0  0  0  0  0  0  0  0  0
   19.5234    1.4989    0.0000 C   0  0  0  0  0  0  0  0  0  0  0  0
  1  2  1  0
  2  3  1  0
  3  4  1  0
  4  5  1  0
  5  6  1  0
  6  7  1  0
  7  8  1  0
  8  9  1  0
  9 10  1  0
 10 11  1  0
 11 12  1  0
 12 13  1  0
 13 14  1  0
 14 15  1  0
 15 16  1  0
 16 17  1  0
 17 18  1  0
 18 19  1  0
 19 20  1  0
 20 21  1  0
 21 22  1  0
 22 23  1  0
 23 24  1  0
 24 25  1  0
 25 26  1  0
 26 27  1  0
 27 28  1  0
 28 29  1  0
 29 30  1  0
 30 31  1  0
 31 32  1  0
 32 33  1  0
 33 34  1  0
 34 35  1  0
 35 36  1  0
 36 37  1  0
 37 38  1  0
 38 39  1  0
 39 40  1  0
 40 41  1  0
 41 42  1  0
 42 43  1  0
 43 44  1  0
 44 45  1  0
 45 46  1  0
 46 47  1  0
 47 48  1  0
 48 49  1  0
 49 50  1  0
 50 51  1  0
 51 52  1  0
 52 53  1  0
 53 54  1  0
 54 55  1  0
 55 56  1  0
 56 57  1  0
 57 58  1  0
 58 59  1  0
 59 60  1  0
 60 61  1  0
 61 62  1  0
 62 63  1  0
 63 64  1  0
 64 65  1  0
 65 66  1  0
 66 67  1  0
 67 68  1  0
 68 69  1  0
 69 70  1  0
 70 71  1  0
 71 72  1  0
 72 73  1  0
 73 74  1  0
 74 75  1  0
 75 76  1  0
 76 77  1  0
 77 78  1  0
 78 79  1  0
 79 80  1  0
 80 81  1  0
 81 82  1  0
 82 83  1  0
 83  2  1  0
M  END
>  <Title>  (879) 
idABGAgen7

$$$$

     RDKit          2D

 60 60  0  0  0  0  0  0  0  0999 V2000
   15.5919    0.0000    0.0000 C   0  0  0  0  0  0  0  0  0  0  0  0
   14.0919    0.0000    0.0000 C   0  0  0  0  0  0  0  0  0  0  0  0
   14.0120    1.4979    0.0000 C   0  0  0  0  0  0  0  0  0  0  0  0
   13.7734    2.9788    0.0000 C   0  0  0  0  0  0  0  0  0  0  0  0
   13.3788    4.4259    0.0000 C   0  0  0  0  0  0  0  0  0  0  0  0
   12.8325    5.8229    0.0000 C   0  0  0  0  0  0  0  0  0  0  0  0
   12.1409    7.1540    0.0000 C   0  0  0  0  0  0  0  0  0  0  0  0
   11.3117    8.4039    0.0000 C   0  0  0  0  0  0  0  0  0  0  0  0
   10.3543    9.5587    0.0000 C   0  0  0  0  0  0  0  0  0  0  0  0
    9.2797   10.6051    0.0000 C   0  0  0  0  0  0  0  0  0  0  0  0
    8.0998   11.5314    0.0000 C   0  0  0  0  0  0  0  0  0  0  0  0
    6.8282   12.3270    0.0000 C   0  0  0  0  0  0  0  0  0  0  0  0
    5.4793   12.9830    0.0000 C   0  0  0  0  0  0  0  0  0  0  0  0
    4.0682   13.4919    0.0000 C   0  0  0  0  0  0  0  0  0  0  0  0
    2.6111   13.8479    0.0000 C   0  0  0  0  0  0  0  0  0  0  0  0
    1.1243   14.0469    0.0000 C   0  0  0  0  0  0  0  0  0  0  0  0
   -0.3751   14.0869    0.0000 C   0  0  0  0  0  0  0  0  0  0  0  0
   -1.8704   13.9672    0.0000 C   0  0  0  0  0  0  0  0  0  0  0  0
   -3.3444   13.6893    0.0000 C   0  0  0  0  0  0  0  0  0  0  0  0
   -4.7805   13.2562    0.0000 C   0  0  0  0  0  0  0  0  0  0  0  0
   -6.1625   12.6730    0.0000 C   0  0  0  0  0  0  0  0  0  0  0  0
   -7.4746   11.9462    0.0000 C   0  0  0  0  0  0  0  0  0  0  0  0
   -8.7021   11.0840    0.0000 C   0  0  0  0  0  0  0  0  0  0  0  0
   -9.8309   10.0962    0.0000 C   0  0  0  0  0  0  0  0  0  0  0  0
  -10.8484    8.9941    0.0000 C   0  0  0  0  0  0  0  0  0  0  0  0
  -11.7430    7.7900    0.0000 C   0  0  0  0  0  0  0  0  0  0  0  0
  -12.5045    6.4977    0.0000 C   0  0  0  0  0  0  0  0  0  0  0  0
  -13.1243    5.1317    0.0000 C   0  0  0  0  0  0  0  0  0  0  0  0
  -13.5954    3.7076    0.0000 C   0  0  0  0  0  0  0  0  0  0  0  0
  -13.9125    2.2415    0.0000 C   0  0  0  0  0  0  0  0  0  0  0  0
  -14.0719    0.7500    0.0000 C   0  0  0  0  0  0  0  0  0  0  0  0
  -14.0719   -0.7500    0.0000 C   0  0  0  0  0  0  0  0  0  0  0  0
  -13.9125   -2.2415    0.0000 C   0  0  0  0  0  0  0  0  0  0  0  0
  -13.5954   -3.7076    0.0000 C   0  0  0  0  0  0  0  0  0  0  0  0
  -13.1243   -5.1317    0.0000 C   0  0  0  0  0  0  0  0  0  0  0  0
  -12.5045   -6.4977    0.0000 C   0  0  0  0  0  0  0  0  0  0  0  0
  -11.7430   -7.7900    0.0000 C   0  0  0  0  0  0  0  0  0  0  0  0
  -10.8484   -8.9941    0.0000 C   0  0  0  0  0  0  0  0  0  0  0  0
   -9.8309  -10.0962    0.0000 C   0  0  0  0  0  0  0  0  0  0  0  0
   -8.7021  -11.0840    0.0000 C   0  0  0  0  0  0  0  0  0  0  0  0
   -7.4746  -11.9462    0.0000 C   0  0  0  0  0  0  0  0  0  0  0  0
   -6.1625  -12.6730    0.0000 C   0  0  0  0  0  0  0  0  0  0  0  0
   -4.7805  -13.2562    0.0000 C   0  0  0  0  0  0  0  0  0  0  0  0
   -3.3444  -13.6893    0.0000 C   0  0  0  0  0  0  0  0  0  0  0  0
   -1.8704  -13.9672    0.0000 C   0  0  0  0  0  0  0  0  0  0  0  0
   -0.3751  -14.0869    0.0000 C   0  0  0  0  0  0  0  0  0  0  0  0
    1.1243  -14.0469    0.0000 C   0  0  0  0  0  0  0  0  0  0  0  0
    2.6111  -13.8479    0.0000 C   0  0  0  0  0  0  0  0  0  0  0  0
    4.0682  -13.4919    0.0000 C   0  0  0  0  0  0  0  0  0  0  0  0
    5.4793  -12.9830    0.0000 C   0  0  0  0  0  0  0  0  0  0  0  0
    6.8282  -12.3270    0.0000 C   0  0  0  0  0  0  0  0  0  0  0  0
    8.0998  -11.5314    0.0000 C   0  0  0  0  0  0  0  0  0  0  0  0
    9.2797  -10.6051    0.0000 C   0  0  0  0  0  0  0  0  0  0  0  0
   10.3543   -9.5587    0.0000 C   0  0  0  0  0  0  0  0  0  0  0  0
   11.3117   -8.4039    0.0000 C   0  0  0  0  0  0  0  0  0  0  0  0
   12.1409   -7.1540    0.0000 C   0  0  0  0  0  0  0  0  0  0  0  0
   12.8325   -5.8229    0.0000 C   0  0  0  0  0  0  0  0  0  0  0  0
   13.3788   -4.4259    0.0000 C   0  0  0  0  0  0  0  0  0  0  0  0
   13.7734   -2.9788    0.0000 C   0  0  0  0  0  0  0  0  0  0  0  0
   14.0120   -1.4979    0.0000 C   0  0  0  0  0  0  0  0  0  0  0  0
  1  2  1  0
  2  3  1  0
  3  4  1  0
  4  5  1  0
  5  6  1  0
  6  7  1  0
  7  8  1  0
  8  9  1  0
  9 10  1  0
 10 11  1  0
 11 12  1  0
 12 13  1  0
 13 14  1  0
 14 15  1  0
 15 16  1  0
 16 17  1  0
 17 18  1  0
 18 19  1  0
 19 20  1  0
 20 21  1  0
 21 22  1  0
 22 23  1  0
 23 24  1  0
 24 25  1  0
 25 26  1  0
 26 27  1  0
 27 28  1  0
 28 29  1  0
 29 30  1  0
 30 31  1  0
 31 32  1  0
 32 33  1  0
 33 34  1  0
 34 35  1  0
 35 36  1  0
 36 37  1  0
 37 38  1  0
 38 39  1  0
 39 40  1  0
 40 41  1  0
 41 42  1  0
 42 43  1  0
 43 44  1  0
 44 45  1  0
 45 46  1  0
 46 47  1  0
 47 48  1  0
 48 49  1  0
 49 50  1  0
 50 51  1  0
 51 52  1  0
 52 53  1  0
 53 54  1  0
 54 55  1  0
 55 56  1  0
 56 57  1  0
 57 58  1  0
 58 59  1  0
 59 60  1  0
 60  2  1  0
M  END
>  <Title>  (880) 
idABGBgen7

$$$$

     RDKit          2D

 22 24  0  0  0  0  0  0  0  0999 V2000
   -3.0000   -2.5981    0.0000 C   0  0  0  0  0  0  0  0  0  0  0  0
   -1.5000   -2.5981    0.0000 C   0  0  0  0  0  0  0  0  0  0  0  0
   -0.7500   -3.8971    0.0000 C   0  0  0  0  0  0  0  0  0  0  0  0
    0.7500   -3.8971    0.0000 C   0  0  0  0  0  0  0  0  0  0  0  0
    1.5000   -2.5981    0.0000 C   0  0  0  0  0  0  0  0  0  0  0  0
    3.0000   -2.5981    0.0000 C   0  0  0  0  0  0  0  0  0  0  0  0
    3.7500   -3.8971    0.0000 C   0  0  0  0  0  0  0  0  0  0  0  0
    5.2500   -3.8971    0.0000 C   0  0  0  0  0  0  0  0  0  0  0  0
    6.0000   -2.5981    0.0000 O   0  0  0  0  0  0  0  0  0  0  0  0
    6.0000   -5.1962    0.0000 N   0  0  0  0  0  0  0  0  0  0  0  0
    7.5000   -5.1962    0.0000 C   0  0  0  0  0  0  0  0  0  0  0  0
    8.2500   -6.4952    0.0000 N   0  0  0  0  0  0  0  0  0  0  0  0
    9.7500   -6.4952    0.0000 N   0  0  0  0  0  0  0  0  0  0  0  0
   10.5000   -5.1962    0.0000 N   0  0  0  0  0  0  0  0  0  0  0  0
    9.7500   -3.8971    0.0000 N   0  0  0  0  0  0  0  0  0  0  0  0
    8.2500   -3.8971    0.0000 N   0  0  0  0  0  0  0  0  0  0  0  0
    0.7500   -1.2990    0.0000 C   0  0  0  0  0  0  0  0  0  0  0  0
    1.5000    0.0000    0.0000 C   0  0  0  0  0  0  0  0  0  0  0  0
    0.7500    1.2990    0.0000 C   0  0  0  0  0  0  0  0  0  0  0  0
   -0.7500    1.2990    0.0000 C   0  0  0  0  0  0  0  0  0  0  0  0
   -1.5000    0.0000    0.0000 C   0  0  0  0  0  0  0  0  0  0  0  0
   -0.7500   -1.2990    0.0000 C   0  0  0  0  0  0  0  0  0  0  0  0
  1  2  1  0
  2  3  1  0
  3  4  1  0
  4  5  1  0
  5  6  1  0
  6  7  1  0
  7  8  1  0
  8  9  2  0
  8 10  1  0
 10 11  1  0
 11 12  2  0
 12 13  1  0
 13 14  2  0
 14 15  1  0
 15 16  2  0
  5 17  1  0
 17 18  2  0
 18 19  1  0
 19 20  2  0
 20 21  1  0
 21 22  2  0
 22  2  1  0
 16 11  1  0
 22 17  1  0
M  END
>  <Title>  (881) 
idABGCgen7

$$$$

     RDKit          2D

 34 37  0  0  0  0  0  0  0  0999 V2000
   -4.8705   -4.5850    0.0000 C   0  0  0  0  0  0  0  0  0  0  0  0
   -3.3705   -4.5850    0.0000 C   0  0  0  0  0  0  0  0  0  0  0  0
   -3.0367   -6.0474    0.0000 C   0  0  0  0  0  0  0  0  0  0  0  0
   -2.1015   -7.2201    0.0000 C   0  0  0  0  0  0  0  0  0  0  0  0
   -0.7500   -7.8710    0.0000 C   0  0  0  0  0  0  0  0  0  0  0  0
    0.7500   -7.8710    0.0000 C   0  0  0  0  0  0  0  0  0  0  0  0
    2.1015   -7.2201    0.0000 C   0  0  0  0  0  0  0  0  0  0  0  0
    3.0367   -8.3929    0.0000 C   0  0  0  0  0  0  0  0  0  0  0  0
    4.5199   -8.1693    0.0000 O   0  0  0  0  0  0  0  0  0  0  0  0
    2.4887   -9.7892    0.0000 N   0  0  0  0  0  0  0  0  0  0  0  0
    3.4239  -10.9619    0.0000 C   0  0  0  0  0  0  0  0  0  0  0  0
    2.8759  -12.3583    0.0000 N   0  0  0  0  0  0  0  0  0  0  0  0
    3.8111  -13.5310    0.0000 N   0  0  0  0  0  0  0  0  0  0  0  0
    5.2944  -13.3074    0.0000 N   0  0  0  0  0  0  0  0  0  0  0  0
    5.8424  -11.9111    0.0000 N   0  0  0  0  0  0  0  0  0  0  0  0
    4.9072  -10.7384    0.0000 N   0  0  0  0  0  0  0  0  0  0  0  0
    3.0367   -6.0474    0.0000 C   0  0  0  0  0  0  0  0  0  0  0  0
    4.3881   -6.6982    0.0000 O   0  0  0  0  0  0  0  0  0  0  0  0
    3.3705   -4.5850    0.0000 O   0  0  0  0  0  0  0  0  0  0  0  0
    3.0367   -3.1226    0.0000 C   0  0  0  0  0  0  0  0  0  0  0  0
    4.3881   -2.4718    0.0000 O   0  0  0  0  0  0  0  0  0  0  0  0
    2.1015   -1.9499    0.0000 C   0  0  0  0  0  0  0  0  0  0  0  0
    0.7500   -1.2990    0.0000 C   0  0  0  0  0  0  0  0  0  0  0  0
    1.5000    0.0000    0.0000 C   0  0  0  0  0  0  0  0  0  0  0  0
    0.7500    1.2990    0.0000 C   0  0  0  0  0  0  0  0  0  0  0  0
   -0.7500    1.2990    0.0000 C   0  0  0  0  0  0  0  0  0  0  0  0
   -1.5000    0.0000    0.0000 C   0  0  0  0  0  0  0  0  0  0  0  0
   -0.7500   -1.2990    0.0000 C   0  0  0  0  0  0  0  0  0  0  0  0
   -2.1015   -1.9499    0.0000 C   0  0  0  0  0  0  0  0  0  0  0  0
   -2.6495   -0.5536    0.0000 C   0  0  0  0  0  0  0  0  0  0  0  0
   -4.1327   -0.3300    0.0000 C   0  0  0  0  0  0  0  0  0  0  0  0
   -5.0679   -1.5027    0.0000 C   0  0  0  0  0  0  0  0  0  0  0  0
   -4.5199   -2.8990    0.0000 C   0  0  0  0  0  0  0  0  0  0  0  0
   -3.0367   -3.1226    0.0000 C   0  0  0  0  0  0  0  0  0  0  0  0
  1  2  1  0
  2  3  1  0
  3  4  1  0
  4  5  2  0
  5  6  1  0
  6  7  1  0
  7  8  1  0
  8  9  2  0
  8 10  1  0
 10 11  1  0
 11 12  2  0
 12 13  1  0
 13 14  2  0
 14 15  1  0
 15 16  2  0
  7 17  1  0
 17 18  2  0
 17 19  1  0
 19 20  1  0
 20 21  2  0
 20 22  1  0
 22 23  1  0
 23 24  2  0
 24 25  1  0
 25 26  2  0
 26 27  1  0
 27 28  2  0
 28 29  1  0
 29 30  2  0
 30 31  1  0
 31 32  2  0
 32 33  1  0
 33 34  2  0
 34  2  1  0
 16 11  1  0
 28 23  1  0
 34 29  1  0
M  END
>  <Title>  (882) 
idABGDgen7

$$$$

     RDKit          2D

 37 42  0  0  0  0  0  0  0  0999 V2000
    3.7860   -5.5823    0.0000 C   0  0  0  0  0  0  0  0  0  0  0  0
    2.4215   -4.9592    0.0000 C   0  0  0  0  0  0  0  0  0  0  0  0
    2.6350   -3.4744    0.0000 C   0  0  0  0  0  0  0  0  0  0  0  0
    2.0119   -2.1100    0.0000 C   0  0  0  0  0  0  0  0  0  0  0  0
    3.1455   -1.1277    0.0000 C   0  0  0  0  0  0  0  0  0  0  0  0
    2.8616    0.3452    0.0000 O   0  0  0  0  0  0  0  0  0  0  0  0
    4.5630   -1.6183    0.0000 N   0  0  0  0  0  0  0  0  0  0  0  0
    5.6966   -0.6360    0.0000 C   0  0  0  0  0  0  0  0  0  0  0  0
    7.1141   -1.1266    0.0000 N   0  0  0  0  0  0  0  0  0  0  0  0
    8.2478   -0.1443    0.0000 N   0  0  0  0  0  0  0  0  0  0  0  0
    7.9639    1.3286    0.0000 N   0  0  0  0  0  0  0  0  0  0  0  0
    6.5464    1.8192    0.0000 N   0  0  0  0  0  0  0  0  0  0  0  0
    5.4128    0.8369    0.0000 N   0  0  0  0  0  0  0  0  0  0  0  0
    0.7500   -1.2990    0.0000 C   0  0  0  0  0  0  0  0  0  0  0  0
    1.5000    0.0000    0.0000 C   0  0  0  0  0  0  0  0  0  0  0  0
    0.7500    1.2990    0.0000 C   0  0  0  0  0  0  0  0  0  0  0  0
   -0.7500    1.2990    0.0000 C   0  0  0  0  0  0  0  0  0  0  0  0
   -1.5000    0.0000    0.0000 C   0  0  0  0  0  0  0  0  0  0  0  0
   -0.7500   -1.2990    0.0000 C   0  0  0  0  0  0  0  0  0  0  0  0
   -2.0119   -2.1100    0.0000 C   0  0  0  0  0  0  0  0  0  0  0  0
   -2.8820   -0.8881    0.0000 C   0  0  0  0  0  0  0  0  0  0  0  0
   -4.3752   -1.0307    0.0000 C   0  0  0  0  0  0  0  0  0  0  0  0
   -4.9983   -2.3952    0.0000 C   0  0  0  0  0  0  0  0  0  0  0  0
   -4.1282   -3.6170    0.0000 C   0  0  0  0  0  0  0  0  0  0  0  0
   -2.6350   -3.4744    0.0000 C   0  0  0  0  0  0  0  0  0  0  0  0
   -2.4215   -4.9592    0.0000 C   0  0  0  0  0  0  0  0  0  0  0  0
   -3.8944   -5.2431    0.0000 C   0  0  0  0  0  0  0  0  0  0  0  0
   -4.3850   -6.6606    0.0000 C   0  0  0  0  0  0  0  0  0  0  0  0
   -3.4027   -7.7942    0.0000 C   0  0  0  0  0  0  0  0  0  0  0  0
   -1.9298   -7.5103    0.0000 C   0  0  0  0  0  0  0  0  0  0  0  0
   -1.4392   -6.0928    0.0000 C   0  0  0  0  0  0  0  0  0  0  0  0
   -0.0000   -6.5154    0.0000 C   0  0  0  0  0  0  0  0  0  0  0  0
   -0.3536   -7.9731    0.0000 C   0  0  0  0  0  0  0  0  0  0  0  0
    0.7320   -9.0082    0.0000 C   0  0  0  0  0  0  0  0  0  0  0  0
    2.1712   -8.5856    0.0000 C   0  0  0  0  0  0  0  0  0  0  0  0
    2.5248   -7.1279    0.0000 C   0  0  0  0  0  0  0  0  0  0  0  0
    1.4392   -6.0928    0.0000 C   0  0  0  0  0  0  0  0  0  0  0  0
  1  2  1  0
  2  3  2  0
  3  4  1  0
  4  5  1  0
  5  6  2  0
  5  7  1  0
  7  8  1  0
  8  9  2  0
  9 10  1  0
 10 11  2  0
 11 12  1  0
 12 13  2  0
  4 14  1  0
 14 15  2  0
 15 16  1  0
 16 17  2  0
 17 18  1  0
 18 19  2  0
 19 20  1  0
 20 21  2  0
 21 22  1  0
 22 23  2  0
 23 24  1  0
 24 25  2  0
 25 26  1  0
 26 27  2  0
 27 28  1  0
 28 29  2  0
 29 30  1  0
 30 31  2  0
 31 32  1  0
 32 33  2  0
 33 34  1  0
 34 35  2  0
 35 36  1  0
 36 37  2  0
 37  2  1  0
 13  8  1  0
 19 14  1  0
 25 20  1  0
 31 26  1  0
 37 32  1  0
M  END
>  <Title>  (883) 
idABGEgen7

$$$$

     RDKit          2D

 56 56  0  0  0  0  0  0  0  0999 V2000
   14.6374    0.0000    0.0000 N   0  0  0  0  0  0  0  0  0  0  0  0
   13.1374    0.0000    0.0000 C   0  0  0  0  0  0  0  0  0  0  0  0
   13.0518    1.4976    0.0000 C   0  0  0  0  0  0  0  0  0  0  0  0
   12.7960    2.9756    0.0000 C   0  0  0  0  0  0  0  0  0  0  0  0
   12.3734    4.4148    0.0000 C   0  0  0  0  0  0  0  0  0  0  0  0
   11.7895    5.7965    0.0000 C   0  0  0  0  0  0  0  0  0  0  0  0
   11.0519    7.1026    0.0000 C   0  0  0  0  0  0  0  0  0  0  0  0
   10.1702    8.3162    0.0000 C   0  0  0  0  0  0  0  0  0  0  0  0
    9.1560    9.4213    0.0000 C   0  0  0  0  0  0  0  0  0  0  0  0
    8.0223   10.4036    0.0000 C   0  0  0  0  0  0  0  0  0  0  0  0
    6.7841   11.2502    0.0000 C   0  0  0  0  0  0  0  0  0  0  0  0
    5.4575   11.9502    0.0000 C   0  0  0  0  0  0  0  0  0  0  0  0
    4.0597   12.4944    0.0000 C   0  0  0  0  0  0  0  0  0  0  0  0
    2.6090   12.8758    0.0000 C   0  0  0  0  0  0  0  0  0  0  0  0
    1.1242   13.0892    0.0000 C   0  0  0  0  0  0  0  0  0  0  0  0
   -0.3752   13.1321    0.0000 C   0  0  0  0  0  0  0  0  0  0  0  0
   -1.8697   13.0037    0.0000 C   0  0  0  0  0  0  0  0  0  0  0  0
   -3.3398   12.7058    0.0000 C   0  0  0  0  0  0  0  0  0  0  0  0
   -4.7664   12.2423    0.0000 C   0  0  0  0  0  0  0  0  0  0  0  0
   -6.1308   11.6192    0.0000 C   0  0  0  0  0  0  0  0  0  0  0  0
   -7.4153   10.8446    0.0000 C   0  0  0  0  0  0  0  0  0  0  0  0
   -8.6032    9.9286    0.0000 C   0  0  0  0  0  0  0  0  0  0  0  0
   -9.6789    8.8832    0.0000 C   0  0  0  0  0  0  0  0  0  0  0  0
  -10.6284    7.7220    0.0000 C   0  0  0  0  0  0  0  0  0  0  0  0
  -11.4394    6.4601    0.0000 C   0  0  0  0  0  0  0  0  0  0  0  0
  -12.1012    5.1140    0.0000 C   0  0  0  0  0  0  0  0  0  0  0  0
  -12.6053    3.7012    0.0000 C   0  0  0  0  0  0  0  0  0  0  0  0
  -12.9450    2.2402    0.0000 C   0  0  0  0  0  0  0  0  0  0  0  0
  -13.1160    0.7500    0.0000 C   0  0  0  0  0  0  0  0  0  0  0  0
  -13.1160   -0.7500    0.0000 C   0  0  0  0  0  0  0  0  0  0  0  0
  -12.9450   -2.2402    0.0000 C   0  0  0  0  0  0  0  0  0  0  0  0
  -12.6053   -3.7012    0.0000 C   0  0  0  0  0  0  0  0  0  0  0  0
  -12.1012   -5.1140    0.0000 C   0  0  0  0  0  0  0  0  0  0  0  0
  -11.4394   -6.4601    0.0000 C   0  0  0  0  0  0  0  0  0  0  0  0
  -10.6284   -7.7220    0.0000 C   0  0  0  0  0  0  0  0  0  0  0  0
   -9.6789   -8.8832    0.0000 C   0  0  0  0  0  0  0  0  0  0  0  0
   -8.6032   -9.9286    0.0000 C   0  0  0  0  0  0  0  0  0  0  0  0
   -7.4153  -10.8446    0.0000 C   0  0  0  0  0  0  0  0  0  0  0  0
   -6.1308  -11.6192    0.0000 C   0  0  0  0  0  0  0  0  0  0  0  0
   -4.7664  -12.2423    0.0000 C   0  0  0  0  0  0  0  0  0  0  0  0
   -3.3398  -12.7058    0.0000 C   0  0  0  0  0  0  0  0  0  0  0  0
   -1.8697  -13.0037    0.0000 C   0  0  0  0  0  0  0  0  0  0  0  0
   -0.3752  -13.1321    0.0000 C   0  0  0  0  0  0  0  0  0  0  0  0
    1.1242  -13.0892    0.0000 C   0  0  0  0  0  0  0  0  0  0  0  0
    2.6090  -12.8758    0.0000 C   0  0  0  0  0  0  0  0  0  0  0  0
    4.0597  -12.4944    0.0000 C   0  0  0  0  0  0  0  0  0  0  0  0
    5.4575  -11.9502    0.0000 C   0  0  0  0  0  0  0  0  0  0  0  0
    6.7841  -11.2502    0.0000 C   0  0  0  0  0  0  0  0  0  0  0  0
    8.0223  -10.4036    0.0000 C   0  0  0  0  0  0  0  0  0  0  0  0
    9.1560   -9.4213    0.0000 C   0  0  0  0  0  0  0  0  0  0  0  0
   10.1702   -8.3162    0.0000 C   0  0  0  0  0  0  0  0  0  0  0  0
   11.0519   -7.1026    0.0000 C   0  0  0  0  0  0  0  0  0  0  0  0
   11.7895   -5.7965    0.0000 C   0  0  0  0  0  0  0  0  0  0  0  0
   12.3734   -4.4148    0.0000 C   0  0  0  0  0  0  0  0  0  0  0  0
   12.7960   -2.9756    0.0000 C   0  0  0  0  0  0  0  0  0  0  0  0
   13.0518   -1.4976    0.0000 C   0  0  0  0  0  0  0  0  0  0  0  0
  1  2  1  0
  2  3  1  0
  3  4  1  0
  4  5  1  0
  5  6  1  0
  6  7  1  0
  7  8  1  0
  8  9  1  0
  9 10  1  0
 10 11  1  0
 11 12  1  0
 12 13  1  0
 13 14  1  0
 14 15  1  0
 15 16  1  0
 16 17  1  0
 17 18  1  0
 18 19  1  0
 19 20  1  0
 20 21  1  0
 21 22  1  0
 22 23  1  0
 23 24  1  0
 24 25  1  0
 25 26  1  0
 26 27  1  0
 27 28  1  0
 28 29  1  0
 29 30  1  0
 30 31  1  0
 31 32  1  0
 32 33  1  0
 33 34  1  0
 34 35  1  0
 35 36  1  0
 36 37  1  0
 37 38  1  0
 38 39  1  0
 39 40  1  0
 40 41  1  0
 41 42  1  0
 42 43  1  0
 43 44  1  0
 44 45  1  0
 45 46  1  0
 46 47  1  0
 47 48  1  0
 48 49  1  0
 49 50  1  0
 50 51  1  0
 51 52  1  0
 52 53  1  0
 53 54  1  0
 54 55  1  0
 55 56  1  0
 56  2  1  0
M  END
>  <Title>  (884) 
idABGFgen7

$$$$

     RDKit          2D

 18 19  0  0  0  0  0  0  0  0999 V2000
   -5.6303   -2.9038    0.0000 C   0  0  0  0  0  0  0  0  0  0  0  0
   -4.1679   -3.2376    0.0000 C   0  0  0  0  0  0  0  0  0  0  0  0
   -3.7258   -4.6709    0.0000 C   0  0  0  0  0  0  0  0  0  0  0  0
   -4.7460   -5.7705    0.0000 O   0  0  0  0  0  0  0  0  0  0  0  0
   -3.1476   -2.1380    0.0000 C   0  0  0  0  0  0  0  0  0  0  0  0
   -3.5898   -0.7046    0.0000 O   0  0  0  0  0  0  0  0  0  0  0  0
   -1.6852   -2.4718    0.0000 N   0  0  0  0  0  0  0  0  0  0  0  0
   -1.3515   -3.9342    0.0000 C   0  0  0  0  0  0  0  0  0  0  0  0
   -0.0000   -4.5850    0.0000 C   0  0  0  0  0  0  0  0  0  0  0  0
    1.3515   -3.9342    0.0000 C   0  0  0  0  0  0  0  0  0  0  0  0
    2.5242   -4.8694    0.0000 O   0  0  0  0  0  0  0  0  0  0  0  0
    1.6852   -2.4718    0.0000 O   0  0  0  0  0  0  0  0  0  0  0  0
    0.7500   -1.2990    0.0000 C   0  0  0  0  0  0  0  0  0  0  0  0
    1.5000    0.0000    0.0000 C   0  0  0  0  0  0  0  0  0  0  0  0
    0.7500    1.2990    0.0000 C   0  0  0  0  0  0  0  0  0  0  0  0
   -0.7500    1.2990    0.0000 C   0  0  0  0  0  0  0  0  0  0  0  0
   -1.5000    0.0000    0.0000 C   0  0  0  0  0  0  0  0  0  0  0  0
   -0.7500   -1.2990    0.0000 C   0  0  0  0  0  0  0  0  0  0  0  0
  1  2  1  0
  2  3  1  0
  3  4  1  0
  2  5  1  0
  5  6  2  0
  5  7  1  0
  7  8  1  0
  8  9  1  0
  9 10  1  0
 10 11  2  0
 10 12  1  0
 12 13  1  0
 13 14  2  0
 14 15  1  0
 15 16  2  0
 16 17  1  0
 17 18  2  0
 18  7  1  0
 18 13  1  0
M  END
>  <Title>  (885) 
idABGGgen7

$$$$

     RDKit          2D

  7  7  0  0  0  0  0  0  0  0999 V2000
    2.7760    0.0000    0.0000 C   0  0  0  0  0  0  0  0  0  0  0  0
    1.2760    0.0000    0.0000 C   0  0  0  0  0  0  0  0  0  0  0  0
    0.3943    1.2135    0.0000 C   0  0  0  0  0  0  0  0  0  0  0  0
   -1.0323    0.7500    0.0000 C   0  0  0  0  0  0  0  0  0  0  0  0
   -1.0323   -0.7500    0.0000 C   0  0  0  0  0  0  0  0  0  0  0  0
   -2.2458   -1.6317    0.0000 C   0  0  0  0  0  0  0  0  0  0  0  0
    0.3943   -1.2135    0.0000 C   0  0  0  0  0  0  0  0  0  0  0  0
  1  2  1  0
  2  3  2  0
  3  4  1  0
  4  5  1  0
  5  6  1  0
  5  7  1  0
  7  2  1  0
M  END
>  <Title>  (886) 
idABGHgen7

$$$$

     RDKit          2D

 22 24  0  0  0  0  0  0  0  0999 V2000
   -3.7500   -1.2990    0.0000 O   0  0  0  0  0  0  0  0  0  0  0  0
   -3.0000   -2.5981    0.0000 C   0  0  0  0  0  0  0  0  0  0  0  0
   -3.7500   -3.8971    0.0000 N   0  0  0  0  0  0  0  0  0  0  0  0
   -5.2500   -3.8971    0.0000 C   0  0  0  0  0  0  0  0  0  0  0  0
   -6.0000   -2.5981    0.0000 N   0  0  0  0  0  0  0  0  0  0  0  0
   -7.5000   -2.5981    0.0000 N   0  0  0  0  0  0  0  0  0  0  0  0
   -8.2500   -3.8971    0.0000 N   0  0  0  0  0  0  0  0  0  0  0  0
   -7.5000   -5.1962    0.0000 N   0  0  0  0  0  0  0  0  0  0  0  0
   -6.0000   -5.1962    0.0000 N   0  0  0  0  0  0  0  0  0  0  0  0
   -1.5000   -2.5981    0.0000 C   0  0  0  0  0  0  0  0  0  0  0  0
   -0.7500   -3.8971    0.0000 C   0  0  0  0  0  0  0  0  0  0  0  0
    0.7500   -3.8971    0.0000 C   0  0  0  0  0  0  0  0  0  0  0  0
    1.5000   -2.5981    0.0000 C   0  0  0  0  0  0  0  0  0  0  0  0
    3.0000   -2.5981    0.0000 C   0  0  0  0  0  0  0  0  0  0  0  0
    3.7500   -1.2990    0.0000 O   0  0  0  0  0  0  0  0  0  0  0  0
    3.7500   -3.8971    0.0000 O   0  0  0  0  0  0  0  0  0  0  0  0
    0.7500   -1.2990    0.0000 C   0  0  0  0  0  0  0  0  0  0  0  0
    1.5000    0.0000    0.0000 C   0  0  0  0  0  0  0  0  0  0  0  0
    0.7500    1.2990    0.0000 C   0  0  0  0  0  0  0  0  0  0  0  0
   -0.7500    1.2990    0.0000 C   0  0  0  0  0  0  0  0  0  0  0  0
   -1.5000    0.0000    0.0000 C   0  0  0  0  0  0  0  0  0  0  0  0
   -0.7500   -1.2990    0.0000 C   0  0  0  0  0  0  0  0  0  0  0  0
  1  2  2  0
  2  3  1  0
  3  4  1  0
  4  5  2  0
  5  6  1  0
  6  7  2  0
  7  8  1  0
  8  9  2  0
  2 10  1  0
 10 11  2  0
 11 12  1  0
 12 13  1  0
 13 14  1  0
 14 15  2  0
 14 16  1  0
 13 17  1  0
 17 18  2  0
 18 19  1  0
 19 20  2  0
 20 21  1  0
 21 22  2  0
  9  4  1  0
 22 10  1  0
 22 17  1  0
M  END
>  <Title>  (887) 
idABGIgen7

$$$$

     RDKit          2D

111111  0  0  0  0  0  0  0  0999 V2000
   26.5028    0.0000    0.0000 C   0  0  0  0  0  0  0  0  0  0  0  0
   26.4604    1.4994    0.0000 C   0  0  0  0  0  0  0  0  0  0  0  0
   26.3332    2.9940    0.0000 C   0  0  0  0  0  0  0  0  0  0  0  0
   26.1216    4.4790    0.0000 C   0  0  0  0  0  0  0  0  0  0  0  0
   25.8264    5.9497    0.0000 C   0  0  0  0  0  0  0  0  0  0  0  0
   25.4484    7.4013    0.0000 C   0  0  0  0  0  0  0  0  0  0  0  0
   24.9889    8.8291    0.0000 C   0  0  0  0  0  0  0  0  0  0  0  0
   24.4494   10.2288    0.0000 C   0  0  0  0  0  0  0  0  0  0  0  0
   23.8315   11.5956    0.0000 C   0  0  0  0  0  0  0  0  0  0  0  0
   23.1374   12.9253    0.0000 C   0  0  0  0  0  0  0  0  0  0  0  0
   22.3690   14.2136    0.0000 C   0  0  0  0  0  0  0  0  0  0  0  0
   21.5291   15.4564    0.0000 C   0  0  0  0  0  0  0  0  0  0  0  0
   20.6202   16.6496    0.0000 C   0  0  0  0  0  0  0  0  0  0  0  0
   19.6452   17.7895    0.0000 C   0  0  0  0  0  0  0  0  0  0  0  0
   18.6073   18.8725    0.0000 C   0  0  0  0  0  0  0  0  0  0  0  0
   17.5098   19.8949    0.0000 C   0  0  0  0  0  0  0  0  0  0  0  0
   16.3562   20.8537    0.0000 C   0  0  0  0  0  0  0  0  0  0  0  0
   15.1502   21.7456    0.0000 C   0  0  0  0  0  0  0  0  0  0  0  0
   13.8956   22.5679    0.0000 C   0  0  0  0  0  0  0  0  0  0  0  0
   12.5966   23.3179    0.0000 C   0  0  0  0  0  0  0  0  0  0  0  0
   11.2572   23.9932    0.0000 C   0  0  0  0  0  0  0  0  0  0  0  0
    9.8818   24.5917    0.0000 C   0  0  0  0  0  0  0  0  0  0  0  0
    8.4747   25.1114    0.0000 C   0  0  0  0  0  0  0  0  0  0  0  0
    7.0404   25.5506    0.0000 C   0  0  0  0  0  0  0  0  0  0  0  0
    5.5836   25.9080    0.0000 C   0  0  0  0  0  0  0  0  0  0  0  0
    4.1089   26.1824    0.0000 C   0  0  0  0  0  0  0  0  0  0  0  0
    2.6211   26.3729    0.0000 C   0  0  0  0  0  0  0  0  0  0  0  0
    1.1248   26.4790    0.0000 C   0  0  0  0  0  0  0  0  0  0  0  0
   -0.3750   26.5002    0.0000 C   0  0  0  0  0  0  0  0  0  0  0  0
   -1.8737   26.4365    0.0000 C   0  0  0  0  0  0  0  0  0  0  0  0
   -3.3663   26.2882    0.0000 C   0  0  0  0  0  0  0  0  0  0  0  0
   -4.8482   26.0556    0.0000 C   0  0  0  0  0  0  0  0  0  0  0  0
   -6.3145   25.7396    0.0000 C   0  0  0  0  0  0  0  0  0  0  0  0
   -7.7606   25.3411    0.0000 C   0  0  0  0  0  0  0  0  0  0  0  0
   -9.1819   24.8615    0.0000 C   0  0  0  0  0  0  0  0  0  0  0  0
  -10.5737   24.3022    0.0000 C   0  0  0  0  0  0  0  0  0  0  0  0
  -11.9317   23.6651    0.0000 C   0  0  0  0  0  0  0  0  0  0  0  0
  -13.2514   22.9521    0.0000 C   0  0  0  0  0  0  0  0  0  0  0  0
  -14.5287   22.1657    0.0000 C   0  0  0  0  0  0  0  0  0  0  0  0
  -15.7595   21.3082    0.0000 C   0  0  0  0  0  0  0  0  0  0  0  0
  -16.9397   20.3825    0.0000 C   0  0  0  0  0  0  0  0  0  0  0  0
  -18.0657   19.3915    0.0000 C   0  0  0  0  0  0  0  0  0  0  0  0
  -19.1339   18.3383    0.0000 C   0  0  0  0  0  0  0  0  0  0  0  0
  -20.1407   17.2265    0.0000 C   0  0  0  0  0  0  0  0  0  0  0  0
  -21.0831   16.0594    0.0000 C   0  0  0  0  0  0  0  0  0  0  0  0
  -21.9579   14.8409    0.0000 C   0  0  0  0  0  0  0  0  0  0  0  0
  -22.7623   13.5749    0.0000 C   0  0  0  0  0  0  0  0  0  0  0  0
  -23.4939   12.2654    0.0000 C   0  0  0  0  0  0  0  0  0  0  0  0
  -24.1501   10.9166    0.0000 C   0  0  0  0  0  0  0  0  0  0  0  0
  -24.7291    9.5328    0.0000 C   0  0  0  0  0  0  0  0  0  0  0  0
  -25.2288    8.1185    0.0000 C   0  0  0  0  0  0  0  0  0  0  0  0
  -25.6477    6.6781    0.0000 C   0  0  0  0  0  0  0  0  0  0  0  0
  -25.9844    5.2164    0.0000 C   0  0  0  0  0  0  0  0  0  0  0  0
  -26.2379    3.7380    0.0000 C   0  0  0  0  0  0  0  0  0  0  0  0
  -26.4074    2.2476    0.0000 C   0  0  0  0  0  0  0  0  0  0  0  0
  -26.4922    0.7500    0.0000 C   0  0  0  0  0  0  0  0  0  0  0  0
  -26.4922   -0.7500    0.0000 C   0  0  0  0  0  0  0  0  0  0  0  0
  -26.4074   -2.2476    0.0000 C   0  0  0  0  0  0  0  0  0  0  0  0
  -26.2379   -3.7380    0.0000 C   0  0  0  0  0  0  0  0  0  0  0  0
  -25.9844   -5.2164    0.0000 C   0  0  0  0  0  0  0  0  0  0  0  0
  -25.6477   -6.6781    0.0000 C   0  0  0  0  0  0  0  0  0  0  0  0
  -25.2288   -8.1185    0.0000 C   0  0  0  0  0  0  0  0  0  0  0  0
  -24.7291   -9.5328    0.0000 C   0  0  0  0  0  0  0  0  0  0  0  0
  -24.1501  -10.9166    0.0000 C   0  0  0  0  0  0  0  0  0  0  0  0
  -23.4939  -12.2654    0.0000 C   0  0  0  0  0  0  0  0  0  0  0  0
  -22.7623  -13.5749    0.0000 C   0  0  0  0  0  0  0  0  0  0  0  0
  -21.9579  -14.8409    0.0000 C   0  0  0  0  0  0  0  0  0  0  0  0
  -21.0831  -16.0594    0.0000 C   0  0  0  0  0  0  0  0  0  0  0  0
  -20.1407  -17.2265    0.0000 C   0  0  0  0  0  0  0  0  0  0  0  0
  -19.1339  -18.3383    0.0000 C   0  0  0  0  0  0  0  0  0  0  0  0
  -18.0657  -19.3915    0.0000 C   0  0  0  0  0  0  0  0  0  0  0  0
  -16.9397  -20.3825    0.0000 C   0  0  0  0  0  0  0  0  0  0  0  0
  -15.7595  -21.3082    0.0000 C   0  0  0  0  0  0  0  0  0  0  0  0
  -14.5287  -22.1657    0.0000 C   0  0  0  0  0  0  0  0  0  0  0  0
  -13.2514  -22.9521    0.0000 C   0  0  0  0  0  0  0  0  0  0  0  0
  -11.9317  -23.6651    0.0000 C   0  0  0  0  0  0  0  0  0  0  0  0
  -10.5737  -24.3022    0.0000 C   0  0  0  0  0  0  0  0  0  0  0  0
   -9.1819  -24.8615    0.0000 C   0  0  0  0  0  0  0  0  0  0  0  0
   -7.7606  -25.3411    0.0000 C   0  0  0  0  0  0  0  0  0  0  0  0
   -6.3145  -25.7396    0.0000 C   0  0  0  0  0  0  0  0  0  0  0  0
   -4.8482  -26.0556    0.0000 C   0  0  0  0  0  0  0  0  0  0  0  0
   -3.3663  -26.2882    0.0000 C   0  0  0  0  0  0  0  0  0  0  0  0
   -1.8737  -26.4365    0.0000 C   0  0  0  0  0  0  0  0  0  0  0  0
   -0.3750  -26.5002    0.0000 C   0  0  0  0  0  0  0  0  0  0  0  0
    1.1248  -26.4790    0.0000 C   0  0  0  0  0  0  0  0  0  0  0  0
    2.6211  -26.3729    0.0000 C   0  0  0  0  0  0  0  0  0  0  0  0
    4.1089  -26.1824    0.0000 C   0  0  0  0  0  0  0  0  0  0  0  0
    5.5836  -25.9080    0.0000 C   0  0  0  0  0  0  0  0  0  0  0  0
    7.0404  -25.5506    0.0000 C   0  0  0  0  0  0  0  0  0  0  0  0
    8.4747  -25.1114    0.0000 C   0  0  0  0  0  0  0  0  0  0  0  0
    9.8818  -24.5917    0.0000 C   0  0  0  0  0  0  0  0  0  0  0  0
   11.2572  -23.9932    0.0000 C   0  0  0  0  0  0  0  0  0  0  0  0
   12.5966  -23.3179    0.0000 C   0  0  0  0  0  0  0  0  0  0  0  0
   13.8956  -22.5679    0.0000 C   0  0  0  0  0  0  0  0  0  0  0  0
   15.1502  -21.7456    0.0000 C   0  0  0  0  0  0  0  0  0  0  0  0
   16.3562  -20.8537    0.0000 C   0  0  0  0  0  0  0  0  0  0  0  0
   17.5098  -19.8949    0.0000 C   0  0  0  0  0  0  0  0  0  0  0  0
   18.6073  -18.8725    0.0000 C   0  0  0  0  0  0  0  0  0  0  0  0
   19.6452  -17.7895    0.0000 C   0  0  0  0  0  0  0  0  0  0  0  0
   20.6202  -16.6496    0.0000 C   0  0  0  0  0  0  0  0  0  0  0  0
   21.5291  -15.4564    0.0000 C   0  0  0  0  0  0  0  0  0  0  0  0
   22.3690  -14.2136    0.0000 C   0  0  0  0  0  0  0  0  0  0  0  0
   23.1374  -12.9253    0.0000 C   0  0  0  0  0  0  0  0  0  0  0  0
   23.8315  -11.5956    0.0000 C   0  0  0  0  0  0  0  0  0  0  0  0
   24.4494  -10.2288    0.0000 C   0  0  0  0  0  0  0  0  0  0  0  0
   24.9889   -8.8291    0.0000 C   0  0  0  0  0  0  0  0  0  0  0  0
   25.4484   -7.4013    0.0000 C   0  0  0  0  0  0  0  0  0  0  0  0
   25.8264   -5.9497    0.0000 C   0  0  0  0  0  0  0  0  0  0  0  0
   26.1216   -4.4790    0.0000 C   0  0  0  0  0  0  0  0  0  0  0  0
   26.3332   -2.9940    0.0000 C   0  0  0  0  0  0  0  0  0  0  0  0
   26.4604   -1.4994    0.0000 C   0  0  0  0  0  0  0  0  0  0  0  0
  1  2  1  0
  2  3  1  0
  3  4  1  0
  4  5  1  0
  5  6  1  0
  6  7  1  0
  7  8  1  0
  8  9  1  0
  9 10  1  0
 10 11  1  0
 11 12  1  0
 12 13  1  0
 13 14  1  0
 14 15  1  0
 15 16  1  0
 16 17  1  0
 17 18  1  0
 18 19  1  0
 19 20  1  0
 20 21  1  0
 21 22  1  0
 22 23  1  0
 23 24  1  0
 24 25  1  0
 25 26  1  0
 26 27  1  0
 27 28  1  0
 28 29  1  0
 29 30  1  0
 30 31  1  0
 31 32  1  0
 32 33  1  0
 33 34  1  0
 34 35  1  0
 35 36  1  0
 36 37  1  0
 37 38  1  0
 38 39  1  0
 39 40  1  0
 40 41  1  0
 41 42  1  0
 42 43  1  0
 43 44  1  0
 44 45  1  0
 45 46  1  0
 46 47  1  0
 47 48  1  0
 48 49  1  0
 49 50  1  0
 50 51  1  0
 51 52  1  0
 52 53  1  0
 53 54  1  0
 54 55  1  0
 55 56  1  0
 56 57  1  0
 57 58  1  0
 58 59  1  0
 59 60  1  0
 60 61  1  0
 61 62  1  0
 62 63  1  0
 63 64  1  0
 64 65  1  0
 65 66  1  0
 66 67  1  0
 67 68  1  0
 68 69  1  0
 69 70  1  0
 70 71  1  0
 71 72  1  0
 72 73  1  0
 73 74  1  0
 74 75  1  0
 75 76  1  0
 76 77  1  0
 77 78  1  0
 78 79  1  0
 79 80  1  0
 80 81  1  0
 81 82  1  0
 82 83  1  0
 83 84  1  0
 84 85  1  0
 85 86  1  0
 86 87  1  0
 87 88  1  0
 88 89  1  0
 89 90  1  0
 90 91  1  0
 91 92  1  0
 92 93  1  0
 93 94  1  0
 94 95  1  0
 95 96  1  0
 96 97  1  0
 97 98  1  0
 98 99  1  0
 99100  1  0
100101  1  0
101102  1  0
102103  1  0
103104  1  0
104105  1  0
105106  1  0
106107  1  0
107108  1  0
108109  1  0
109110  1  0
110111  1  0
111  1  1  0
M  END
>  <Title>  (888) 
idABGJgen7

$$$$

     RDKit          2D

  8  8  0  0  0  0  0  0  0  0999 V2000
    4.5000    0.0000    0.0000 N   0  0  0  0  0  0  0  0  0  0  0  0
    3.0000    0.0000    0.0000 C   0  0  0  0  0  0  0  0  0  0  0  0
    1.5000    0.0000    0.0000 C   0  0  0  0  0  0  0  0  0  0  0  0
    0.7500   -1.2990    0.0000 C   0  0  0  0  0  0  0  0  0  0  0  0
   -0.7500   -1.2990    0.0000 C   0  0  0  0  0  0  0  0  0  0  0  0
   -1.5000    0.0000    0.0000 C   0  0  0  0  0  0  0  0  0  0  0  0
   -0.7500    1.2990    0.0000 C   0  0  0  0  0  0  0  0  0  0  0  0
    0.7500    1.2990    0.0000 C   0  0  0  0  0  0  0  0  0  0  0  0
  1  2  3  0
  2  3  1  0
  3  4  2  0
  4  5  1  0
  5  6  1  0
  6  7  1  0
  7  8  1  0
  8  3  1  0
M  END
>  <Title>  (889) 
idABGKgen7

$$$$

     RDKit          2D

 98 98  0  0  0  0  0  0  0  0999 V2000
   23.3998    0.0000    0.0000 C   0  0  0  0  0  0  0  0  0  0  0  0
   23.3517   -1.4992    0.0000 C   0  0  0  0  0  0  0  0  0  0  0  0
   23.2077   -2.9923    0.0000 C   0  0  0  0  0  0  0  0  0  0  0  0
   22.9683   -4.4731    0.0000 C   0  0  0  0  0  0  0  0  0  0  0  0
   22.6345   -5.9355    0.0000 C   0  0  0  0  0  0  0  0  0  0  0  0
   22.2077   -7.3735    0.0000 C   0  0  0  0  0  0  0  0  0  0  0  0
   21.6897   -8.7812    0.0000 C   0  0  0  0  0  0  0  0  0  0  0  0
   21.0825  -10.1528    0.0000 C   0  0  0  0  0  0  0  0  0  0  0  0
   20.3887  -11.4827    0.0000 C   0  0  0  0  0  0  0  0  0  0  0  0
   19.6111  -12.7654    0.0000 C   0  0  0  0  0  0  0  0  0  0  0  0
   18.7529  -13.9957    0.0000 C   0  0  0  0  0  0  0  0  0  0  0  0
   17.8177  -15.1684    0.0000 C   0  0  0  0  0  0  0  0  0  0  0  0
   16.8092  -16.2788    0.0000 C   0  0  0  0  0  0  0  0  0  0  0  0
   15.7317  -17.3223    0.0000 C   0  0  0  0  0  0  0  0  0  0  0  0
   14.5895  -18.2947    0.0000 C   0  0  0  0  0  0  0  0  0  0  0  0
   13.3874  -19.1919    0.0000 C   0  0  0  0  0  0  0  0  0  0  0  0
   12.1303  -20.0102    0.0000 C   0  0  0  0  0  0  0  0  0  0  0  0
   10.8233  -20.7462    0.0000 C   0  0  0  0  0  0  0  0  0  0  0  0
    9.4718  -21.3971    0.0000 C   0  0  0  0  0  0  0  0  0  0  0  0
    8.0815  -21.9600    0.0000 C   0  0  0  0  0  0  0  0  0  0  0  0
    6.6579  -22.4326    0.0000 C   0  0  0  0  0  0  0  0  0  0  0  0
    5.2069  -22.8131    0.0000 C   0  0  0  0  0  0  0  0  0  0  0  0
    3.7346  -23.0998    0.0000 C   0  0  0  0  0  0  0  0  0  0  0  0
    2.2469  -23.2917    0.0000 C   0  0  0  0  0  0  0  0  0  0  0  0
    0.7500  -23.3878    0.0000 C   0  0  0  0  0  0  0  0  0  0  0  0
   -0.7500  -23.3878    0.0000 C   0  0  0  0  0  0  0  0  0  0  0  0
   -2.2469  -23.2917    0.0000 C   0  0  0  0  0  0  0  0  0  0  0  0
   -3.7346  -23.0998    0.0000 C   0  0  0  0  0  0  0  0  0  0  0  0
   -5.2069  -22.8131    0.0000 C   0  0  0  0  0  0  0  0  0  0  0  0
   -6.6579  -22.4326    0.0000 C   0  0  0  0  0  0  0  0  0  0  0  0
   -8.0815  -21.9600    0.0000 C   0  0  0  0  0  0  0  0  0  0  0  0
   -9.4718  -21.3971    0.0000 C   0  0  0  0  0  0  0  0  0  0  0  0
  -10.8233  -20.7462    0.0000 C   0  0  0  0  0  0  0  0  0  0  0  0
  -12.1303  -20.0102    0.0000 C   0  0  0  0  0  0  0  0  0  0  0  0
  -13.3874  -19.1919    0.0000 C   0  0  0  0  0  0  0  0  0  0  0  0
  -14.5895  -18.2947    0.0000 C   0  0  0  0  0  0  0  0  0  0  0  0
  -15.7317  -17.3223    0.0000 C   0  0  0  0  0  0  0  0  0  0  0  0
  -16.8092  -16.2788    0.0000 C   0  0  0  0  0  0  0  0  0  0  0  0
  -17.8177  -15.1684    0.0000 C   0  0  0  0  0  0  0  0  0  0  0  0
  -18.7529  -13.9957    0.0000 C   0  0  0  0  0  0  0  0  0  0  0  0
  -19.6111  -12.7654    0.0000 C   0  0  0  0  0  0  0  0  0  0  0  0
  -20.3887  -11.4827    0.0000 C   0  0  0  0  0  0  0  0  0  0  0  0
  -21.0825  -10.1528    0.0000 C   0  0  0  0  0  0  0  0  0  0  0  0
  -21.6897   -8.7812    0.0000 C   0  0  0  0  0  0  0  0  0  0  0  0
  -22.2077   -7.3735    0.0000 C   0  0  0  0  0  0  0  0  0  0  0  0
  -22.6345   -5.9355    0.0000 C   0  0  0  0  0  0  0  0  0  0  0  0
  -22.9683   -4.4731    0.0000 C   0  0  0  0  0  0  0  0  0  0  0  0
  -23.2077   -2.9923    0.0000 C   0  0  0  0  0  0  0  0  0  0  0  0
  -23.3517   -1.4992    0.0000 C   0  0  0  0  0  0  0  0  0  0  0  0
  -23.3998    0.0000    0.0000 C   0  0  0  0  0  0  0  0  0  0  0  0
  -23.3517    1.4992    0.0000 C   0  0  0  0  0  0  0  0  0  0  0  0
  -23.2077    2.9923    0.0000 C   0  0  0  0  0  0  0  0  0  0  0  0
  -22.9683    4.4731    0.0000 C   0  0  0  0  0  0  0  0  0  0  0  0
  -22.6345    5.9355    0.0000 C   0  0  0  0  0  0  0  0  0  0  0  0
  -22.2077    7.3735    0.0000 C   0  0  0  0  0  0  0  0  0  0  0  0
  -21.6897    8.7812    0.0000 C   0  0  0  0  0  0  0  0  0  0  0  0
  -21.0825   10.1528    0.0000 C   0  0  0  0  0  0  0  0  0  0  0  0
  -20.3887   11.4827    0.0000 C   0  0  0  0  0  0  0  0  0  0  0  0
  -19.6111   12.7654    0.0000 C   0  0  0  0  0  0  0  0  0  0  0  0
  -18.7529   13.9957    0.0000 C   0  0  0  0  0  0  0  0  0  0  0  0
  -17.8177   15.1684    0.0000 C   0  0  0  0  0  0  0  0  0  0  0  0
  -16.8092   16.2788    0.0000 C   0  0  0  0  0  0  0  0  0  0  0  0
  -15.7317   17.3223    0.0000 C   0  0  0  0  0  0  0  0  0  0  0  0
  -14.5895   18.2947    0.0000 C   0  0  0  0  0  0  0  0  0  0  0  0
  -13.3874   19.1919    0.0000 C   0  0  0  0  0  0  0  0  0  0  0  0
  -12.1303   20.0102    0.0000 C   0  0  0  0  0  0  0  0  0  0  0  0
  -10.8233   20.7462    0.0000 C   0  0  0  0  0  0  0  0  0  0  0  0
   -9.4718   21.3971    0.0000 C   0  0  0  0  0  0  0  0  0  0  0  0
   -8.0815   21.9600    0.0000 C   0  0  0  0  0  0  0  0  0  0  0  0
   -6.6579   22.4326    0.0000 C   0  0  0  0  0  0  0  0  0  0  0  0
   -5.2069   22.8131    0.0000 C   0  0  0  0  0  0  0  0  0  0  0  0
   -3.7346   23.0998    0.0000 C   0  0  0  0  0  0  0  0  0  0  0  0
   -2.2469   23.2917    0.0000 C   0  0  0  0  0  0  0  0  0  0  0  0
   -0.7500   23.3878    0.0000 C   0  0  0  0  0  0  0  0  0  0  0  0
    0.7500   23.3878    0.0000 C   0  0  0  0  0  0  0  0  0  0  0  0
    2.2469   23.2917    0.0000 C   0  0  0  0  0  0  0  0  0  0  0  0
    3.7346   23.0998    0.0000 C   0  0  0  0  0  0  0  0  0  0  0  0
    5.2069   22.8131    0.0000 C   0  0  0  0  0  0  0  0  0  0  0  0
    6.6579   22.4326    0.0000 C   0  0  0  0  0  0  0  0  0  0  0  0
    8.0815   21.9600    0.0000 C   0  0  0  0  0  0  0  0  0  0  0  0
    9.4718   21.3971    0.0000 C   0  0  0  0  0  0  0  0  0  0  0  0
   10.8233   20.7462    0.0000 C   0  0  0  0  0  0  0  0  0  0  0  0
   12.1303   20.0102    0.0000 C   0  0  0  0  0  0  0  0  0  0  0  0
   13.3874   19.1919    0.0000 C   0  0  0  0  0  0  0  0  0  0  0  0
   14.5895   18.2947    0.0000 C   0  0  0  0  0  0  0  0  0  0  0  0
   15.7317   17.3223    0.0000 C   0  0  0  0  0  0  0  0  0  0  0  0
   16.8092   16.2788    0.0000 C   0  0  0  0  0  0  0  0  0  0  0  0
   17.8177   15.1684    0.0000 C   0  0  0  0  0  0  0  0  0  0  0  0
   18.7529   13.9957    0.0000 C   0  0  0  0  0  0  0  0  0  0  0  0
   19.6111   12.7654    0.0000 C   0  0  0  0  0  0  0  0  0  0  0  0
   20.3887   11.4827    0.0000 C   0  0  0  0  0  0  0  0  0  0  0  0
   21.0825   10.1528    0.0000 C   0  0  0  0  0  0  0  0  0  0  0  0
   21.6897    8.7812    0.0000 C   0  0  0  0  0  0  0  0  0  0  0  0
   22.2077    7.3735    0.0000 C   0  0  0  0  0  0  0  0  0  0  0  0
   22.6345    5.9355    0.0000 C   0  0  0  0  0  0  0  0  0  0  0  0
   22.9683    4.4731    0.0000 C   0  0  0  0  0  0  0  0  0  0  0  0
   23.2077    2.9923    0.0000 C   0  0  0  0  0  0  0  0  0  0  0  0
   23.3517    1.4992    0.0000 C   0  0  0  0  0  0  0  0  0  0  0  0
  1  2  1  0
  2  3  1  0
  3  4  1  0
  4  5  1  0
  5  6  1  0
  6  7  1  0
  7  8  1  0
  8  9  1  0
  9 10  1  0
 10 11  1  0
 11 12  1  0
 12 13  1  0
 13 14  1  0
 14 15  1  0
 15 16  1  0
 16 17  1  0
 17 18  1  0
 18 19  1  0
 19 20  1  0
 20 21  1  0
 21 22  1  0
 22 23  1  0
 23 24  1  0
 24 25  1  0
 25 26  1  0
 26 27  1  0
 27 28  1  0
 28 29  1  0
 29 30  1  0
 30 31  1  0
 31 32  1  0
 32 33  1  0
 33 34  1  0
 34 35  1  0
 35 36  1  0
 36 37  1  0
 37 38  1  0
 38 39  1  0
 39 40  1  0
 40 41  1  0
 41 42  1  0
 42 43  1  0
 43 44  1  0
 44 45  1  0
 45 46  1  0
 46 47  1  0
 47 48  1  0
 48 49  1  0
 49 50  1  0
 50 51  1  0
 51 52  1  0
 52 53  1  0
 53 54  1  0
 54 55  1  0
 55 56  1  0
 56 57  1  0
 57 58  1  0
 58 59  1  0
 59 60  1  0
 60 61  1  0
 61 62  1  0
 62 63  1  0
 63 64  1  0
 64 65  1  0
 65 66  1  0
 66 67  1  0
 67 68  1  0
 68 69  1  0
 69 70  1  0
 70 71  1  0
 71 72  1  0
 72 73  1  0
 73 74  1  0
 74 75  1  0
 75 76  1  0
 76 77  1  0
 77 78  1  0
 78 79  1  0
 79 80  1  0
 80 81  1  0
 81 82  1  0
 82 83  1  0
 83 84  1  0
 84 85  1  0
 85 86  1  0
 86 87  1  0
 87 88  1  0
 88 89  1  0
 89 90  1  0
 90 91  1  0
 91 92  1  0
 92 93  1  0
 93 94  1  0
 94 95  1  0
 95 96  1  0
 96 97  1  0
 97 98  1  0
 98  1  1  0
M  END
>  <Title>  (890) 
idABGLgen7

$$$$

     RDKit          2D

  7  6  0  0  0  0  0  0  0  0999 V2000
    0.0000    0.0000    0.0000 C   0  0  0  0  0  0  0  0  0  0  0  0
   -0.0000   -1.5000    0.0000 C   0  0  0  0  0  0  0  0  0  0  0  0
   -0.0000   -3.0000    0.0000 C   0  0  0  0  0  0  0  0  0  0  0  0
   -0.0000   -4.5000    0.0000 C   0  0  0  0  0  0  0  0  0  0  0  0
   -0.0000   -6.0000    0.0000 C   0  0  0  0  0  0  0  0  0  0  0  0
    1.2990   -6.7500    0.0000 C   0  0  0  0  0  0  0  0  0  0  0  0
    2.5981   -7.5000    0.0000 N   0  0  0  0  0  0  0  0  0  0  0  0
  1  2  3  0
  2  3  1  0
  3  4  3  0
  4  5  1  0
  5  6  1  0
  6  7  3  0
M  END
>  <Title>  (891) 
idABGMgen7

$$$$

     RDKit          2D

 20 22  0  0  0  0  0  0  0  0999 V2000
   -3.0000   -2.5981    0.0000 C   0  0  0  0  0  0  0  0  0  0  0  0
   -1.5000   -2.5981    0.0000 C   0  0  0  0  0  0  0  0  0  0  0  0
   -0.7500   -3.8971    0.0000 C   0  0  0  0  0  0  0  0  0  0  0  0
    0.7500   -3.8971    0.0000 C   0  0  0  0  0  0  0  0  0  0  0  0
    1.5000   -2.5981    0.0000 C   0  0  0  0  0  0  0  0  0  0  0  0
    3.0000   -2.5981    0.0000 C   0  0  0  0  0  0  0  0  0  0  0  0
    3.7500   -1.2990    0.0000 O   0  0  0  0  0  0  0  0  0  0  0  0
    3.7500   -3.8971    0.0000 N   0  0  0  0  0  0  0  0  0  0  0  0
    5.2500   -3.8971    0.0000 C   0  0  0  0  0  0  0  0  0  0  0  0
    6.0000   -5.1962    0.0000 C   0  0  0  0  0  0  0  0  0  0  0  0
    7.5000   -5.1962    0.0000 N   0  0  0  0  0  0  0  0  0  0  0  0
    8.2500   -3.8971    0.0000 N   0  0  0  0  0  0  0  0  0  0  0  0
    7.5000   -2.5981    0.0000 N   0  0  0  0  0  0  0  0  0  0  0  0
    6.0000   -2.5981    0.0000 N   0  0  0  0  0  0  0  0  0  0  0  0
    0.7500   -1.2990    0.0000 C   0  0  0  0  0  0  0  0  0  0  0  0
    1.5000    0.0000    0.0000 C   0  0  0  0  0  0  0  0  0  0  0  0
    0.7500    1.2990    0.0000 C   0  0  0  0  0  0  0  0  0  0  0  0
   -0.7500    1.2990    0.0000 C   0  0  0  0  0  0  0  0  0  0  0  0
   -1.5000    0.0000    0.0000 C   0  0  0  0  0  0  0  0  0  0  0  0
   -0.7500   -1.2990    0.0000 C   0  0  0  0  0  0  0  0  0  0  0  0
  1  2  1  0
  2  3  1  0
  3  4  1  0
  4  5  1  0
  5  6  1  0
  6  7  2  0
  6  8  1  0
  8  9  1  0
  9 10  2  0
 10 11  1  0
 11 12  2  0
 12 13  1  0
 13 14  2  0
  5 15  1  0
 15 16  2  0
 16 17  1  0
 17 18  2  0
 18 19  1  0
 19 20  2  0
 20  2  1  0
 14  9  1  0
 20 15  1  0
M  END
>  <Title>  (892) 
idABGNgen7

$$$$

     RDKit          2D

 11 11  0  0  0  0  0  0  0  0999 V2000
    3.0000    0.0000    0.0000 C   0  0  0  0  0  0  0  0  0  0  0  0
    1.5000    0.0000    0.0000 C   0  0  0  0  0  0  0  0  0  0  0  0
    0.7500   -1.2990    0.0000 C   0  0  0  0  0  0  0  0  0  0  0  0
   -0.7500   -1.2990    0.0000 C   0  0  0  0  0  0  0  0  0  0  0  0
   -1.5000   -2.5981    0.0000 C   0  0  0  0  0  0  0  0  0  0  0  0
   -1.5000    0.0000    0.0000 C   0  0  0  0  0  0  0  0  0  0  0  0
   -3.0000    0.0000    0.0000 O   0  0  0  0  0  0  0  0  0  0  0  0
   -0.7500    1.2990    0.0000 C   0  0  0  0  0  0  0  0  0  0  0  0
   -1.5000    2.5981    0.0000 O   0  0  0  0  0  0  0  0  0  0  0  0
    0.7500    1.2990    0.0000 C   0  0  0  0  0  0  0  0  0  0  0  0
    1.5000    2.5981    0.0000 O   0  0  0  0  0  0  0  0  0  0  0  0
  1  2  1  0
  2  3  2  0
  3  4  1  0
  4  5  1  0
  4  6  1  0
  6  7  1  0
  6  8  1  0
  8  9  1  0
  8 10  1  0
 10 11  1  0
 10  2  1  0
M  END
>  <Title>  (893) 
idABGOgen7

$$$$

     RDKit          2D

 22 24  0  0  0  0  0  0  0  0999 V2000
   -3.0000   -2.5981    0.0000 C   0  0  0  0  0  0  0  0  0  0  0  0
   -1.5000   -2.5981    0.0000 C   0  0  0  0  0  0  0  0  0  0  0  0
   -0.7500   -3.8971    0.0000 C   0  0  0  0  0  0  0  0  0  0  0  0
    0.7500   -3.8971    0.0000 C   0  0  0  0  0  0  0  0  0  0  0  0
    1.5000   -2.5981    0.0000 C   0  0  0  0  0  0  0  0  0  0  0  0
    3.0000   -2.5981    0.0000 C   0  0  0  0  0  0  0  0  0  0  0  0
    3.7500   -1.2990    0.0000 O   0  0  0  0  0  0  0  0  0  0  0  0
    3.7500   -3.8971    0.0000 N   0  0  0  0  0  0  0  0  0  0  0  0
    5.2500   -3.8971    0.0000 C   0  0  0  0  0  0  0  0  0  0  0  0
    6.0000   -5.1962    0.0000 C   0  0  0  0  0  0  0  0  0  0  0  0
    7.5000   -5.1962    0.0000 N   0  0  0  0  0  0  0  0  0  0  0  0
    8.2500   -3.8971    0.0000 N   0  0  0  0  0  0  0  0  0  0  0  0
    7.5000   -2.5981    0.0000 N   0  0  0  0  0  0  0  0  0  0  0  0
    6.0000   -2.5981    0.0000 N   0  0  0  0  0  0  0  0  0  0  0  0
    0.7500   -1.2990    0.0000 C   0  0  0  0  0  0  0  0  0  0  0  0
    1.5000    0.0000    0.0000 C   0  0  0  0  0  0  0  0  0  0  0  0
    0.7500    1.2990    0.0000 C   0  0  0  0  0  0  0  0  0  0  0  0
   -0.7500    1.2990    0.0000 C   0  0  0  0  0  0  0  0  0  0  0  0
   -1.5000    2.5981    0.0000 C   0  0  0  0  0  0  0  0  0  0  0  0
   -2.2500    3.8971    0.0000 N   0  0  0  0  0  0  0  0  0  0  0  0
   -1.5000    0.0000    0.0000 C   0  0  0  0  0  0  0  0  0  0  0  0
   -0.7500   -1.2990    0.0000 C   0  0  0  0  0  0  0  0  0  0  0  0
  1  2  1  0
  2  3  1  0
  3  4  1  0
  4  5  1  0
  5  6  1  0
  6  7  2  0
  6  8  1  0
  8  9  1  0
  9 10  2  0
 10 11  1  0
 11 12  2  0
 12 13  1  0
 13 14  2  0
  5 15  1  0
 15 16  2  0
 16 17  1  0
 17 18  2  0
 18 19  1  0
 19 20  3  0
 18 21  1  0
 21 22  2  0
 22  2  1  0
 14  9  1  0
 22 15  1  0
M  END
>  <Title>  (894) 
idABGPgen7

$$$$

     RDKit          2D

  9  9  0  0  0  0  0  0  0  0999 V2000
    4.2760   -0.0000    0.0000 C   0  0  0  0  0  0  0  0  0  0  0  0
    2.7760    0.0000    0.0000 C   0  0  0  0  0  0  0  0  0  0  0  0
    1.2760    0.0000    0.0000 C   0  0  0  0  0  0  0  0  0  0  0  0
    0.3943    1.2135    0.0000 C   0  0  0  0  0  0  0  0  0  0  0  0
   -1.0323    0.7500    0.0000 C   0  0  0  0  0  0  0  0  0  0  0  0
   -2.2458    1.6317    0.0000 C   0  0  0  0  0  0  0  0  0  0  0  0
   -3.4593    2.5134    0.0000 N   0  0  0  0  0  0  0  0  0  0  0  0
   -1.0323   -0.7500    0.0000 C   0  0  0  0  0  0  0  0  0  0  0  0
    0.3943   -1.2135    0.0000 C   0  0  0  0  0  0  0  0  0  0  0  0
  1  2  3  0
  2  3  1  0
  3  4  2  0
  4  5  1  0
  5  6  1  0
  6  7  3  0
  5  8  2  0
  8  9  1  0
  9  3  1  0
M  END
>  <Title>  (895) 
idABGQgen7

$$$$

     RDKit          2D

  8  8  0  0  0  0  0  0  0  0999 V2000
    3.7500   -1.2990    0.0000 O   0  0  0  0  0  0  0  0  0  0  0  0
    3.0000    0.0000    0.0000 O   0  0  0  0  0  0  0  0  0  0  0  0
    1.5000    0.0000    0.0000 C   0  0  0  0  0  0  0  0  0  0  0  0
    0.7500   -1.2990    0.0000 C   0  0  0  0  0  0  0  0  0  0  0  0
   -0.7500   -1.2990    0.0000 C   0  0  0  0  0  0  0  0  0  0  0  0
   -1.5000    0.0000    0.0000 C   0  0  0  0  0  0  0  0  0  0  0  0
   -0.7500    1.2990    0.0000 C   0  0  0  0  0  0  0  0  0  0  0  0
    0.7500    1.2990    0.0000 C   0  0  0  0  0  0  0  0  0  0  0  0
  1  2  1  0
  2  3  1  0
  3  4  1  0
  4  5  1  0
  5  6  1  0
  6  7  1  0
  7  8  1  0
  8  3  1  0
M  END
>  <Title>  (896) 
idABGRgen7

$$$$

     RDKit          2D

 11 11  0  0  0  0  0  0  0  0999 V2000
    2.7760    0.0000    0.0000 C   0  0  0  0  0  0  0  0  0  0  0  0
    1.2760    0.0000    0.0000 C   0  0  0  0  0  0  0  0  0  0  0  0
    0.3943    1.2135    0.0000 C   0  0  0  0  0  0  0  0  0  0  0  0
   -1.0323    0.7500    0.0000 C   0  0  0  0  0  0  0  0  0  0  0  0
   -1.0323   -0.7500    0.0000 C   0  0  0  0  0  0  0  0  0  0  0  0
   -2.2458   -1.6317    0.0000 C   0  0  0  0  0  0  0  0  0  0  0  0
   -2.0890   -3.1235    0.0000 O   0  0  0  0  0  0  0  0  0  0  0  0
   -3.6161   -1.0216    0.0000 N   0  0  0  0  0  0  0  0  0  0  0  0
   -4.8297   -1.9033    0.0000 C   0  0  0  0  0  0  0  0  0  0  0  0
   -3.7729    0.4702    0.0000 C   0  0  0  0  0  0  0  0  0  0  0  0
    0.3943   -1.2135    0.0000 C   0  0  0  0  0  0  0  0  0  0  0  0
  1  2  1  0
  2  3  1  0
  3  4  1  0
  4  5  1  0
  5  6  1  0
  6  7  2  0
  6  8  1  0
  8  9  1  0
  8 10  1  0
  5 11  1  0
 11  2  1  0
M  END
>  <Title>  (897) 
idABGSgen7

$$$$

     RDKit          2D

 14 14  0  0  0  0  0  0  0  0999 V2000
    9.7500   -3.8971    0.0000 C   0  0  0  0  0  0  0  0  0  0  0  0
    8.2500   -3.8971    0.0000 C   0  0  0  0  0  0  0  0  0  0  0  0
    7.5000   -2.5981    0.0000 C   0  0  0  0  0  0  0  0  0  0  0  0
    6.0000   -2.5981    0.0000 C   0  0  0  0  0  0  0  0  0  0  0  0
    5.2500   -1.2990    0.0000 C   0  0  0  0  0  0  0  0  0  0  0  0
    3.7500   -1.2990    0.0000 C   0  0  0  0  0  0  0  0  0  0  0  0
    3.0000   -2.5981    0.0000 O   0  0  0  0  0  0  0  0  0  0  0  0
    3.0000    0.0000    0.0000 N   0  0  0  0  0  0  0  0  0  0  0  0
    1.5000    0.0000    0.0000 C   0  0  0  0  0  0  0  0  0  0  0  0
    0.7500   -1.2990    0.0000 N   0  0  0  0  0  0  0  0  0  0  0  0
   -0.7500   -1.2990    0.0000 N   0  0  0  0  0  0  0  0  0  0  0  0
   -1.5000    0.0000    0.0000 N   0  0  0  0  0  0  0  0  0  0  0  0
   -0.7500    1.2990    0.0000 N   0  0  0  0  0  0  0  0  0  0  0  0
    0.7500    1.2990    0.0000 N   0  0  0  0  0  0  0  0  0  0  0  0
  1  2  1  0
  2  3  2  3
  3  4  1  0
  4  5  1  0
  5  6  1  0
  6  7  2  0
  6  8  1  0
  8  9  1  0
  9 10  2  0
 10 11  1  0
 11 12  2  0
 12 13  1  0
 13 14  2  0
 14  9  1  0
M  END
>  <Title>  (898) 
idABGTgen7

$$$$

     RDKit          2D

 26 26  0  0  0  0  0  0  0  0999 V2000
    7.4840    0.0000    0.0000 C   0  0  0  0  0  0  0  0  0  0  0  0
    5.9840    0.0000    0.0000 C   0  0  0  0  0  0  0  0  0  0  0  0
    5.7960    1.4882    0.0000 C   0  0  0  0  0  0  0  0  0  0  0  0
    5.2439    2.8828    0.0000 C   0  0  0  0  0  0  0  0  0  0  0  0
    4.3622    4.0964    0.0000 C   0  0  0  0  0  0  0  0  0  0  0  0
    3.2064    5.0525    0.0000 C   0  0  0  0  0  0  0  0  0  0  0  0
    1.8492    5.6912    0.0000 C   0  0  0  0  0  0  0  0  0  0  0  0
    0.3757    5.9722    0.0000 C   0  0  0  0  0  0  0  0  0  0  0  0
   -1.1213    5.8781    0.0000 C   0  0  0  0  0  0  0  0  0  0  0  0
   -2.5479    5.4145    0.0000 C   0  0  0  0  0  0  0  0  0  0  0  0
   -3.8144    4.6108    0.0000 C   0  0  0  0  0  0  0  0  0  0  0  0
   -4.8412    3.5173    0.0000 C   0  0  0  0  0  0  0  0  0  0  0  0
   -5.5638    2.2029    0.0000 C   0  0  0  0  0  0  0  0  0  0  0  0
   -5.9369    0.7500    0.0000 C   0  0  0  0  0  0  0  0  0  0  0  0
   -5.9369   -0.7500    0.0000 C   0  0  0  0  0  0  0  0  0  0  0  0
   -5.5638   -2.2029    0.0000 C   0  0  0  0  0  0  0  0  0  0  0  0
   -4.8412   -3.5173    0.0000 C   0  0  0  0  0  0  0  0  0  0  0  0
   -3.8144   -4.6108    0.0000 C   0  0  0  0  0  0  0  0  0  0  0  0
   -2.5479   -5.4145    0.0000 C   0  0  0  0  0  0  0  0  0  0  0  0
   -1.1213   -5.8781    0.0000 C   0  0  0  0  0  0  0  0  0  0  0  0
    0.3757   -5.9722    0.0000 C   0  0  0  0  0  0  0  0  0  0  0  0
    1.8492   -5.6912    0.0000 C   0  0  0  0  0  0  0  0  0  0  0  0
    3.2064   -5.0525    0.0000 C   0  0  0  0  0  0  0  0  0  0  0  0
    4.3622   -4.0964    0.0000 C   0  0  0  0  0  0  0  0  0  0  0  0
    5.2439   -2.8828    0.0000 C   0  0  0  0  0  0  0  0  0  0  0  0
    5.7960   -1.4882    0.0000 C   0  0  0  0  0  0  0  0  0  0  0  0
  1  2  1  0
  2  3  1  0
  3  4  1  0
  4  5  1  0
  5  6  2  0
  6  7  1  0
  7  8  1  0
  8  9  1  0
  9 10  1  0
 10 11  1  0
 11 12  1  0
 12 13  1  0
 13 14  1  0
 14 15  1  0
 15 16  1  0
 16 17  1  0
 17 18  1  0
 18 19  1  0
 19 20  1  0
 20 21  1  0
 21 22  1  0
 22 23  1  0
 23 24  1  0
 24 25  1  0
 25 26  1  0
 26  2  1  0
M  END
>  <Title>  (899) 
idABGUgen7

$$$$

     RDKit          2D

 61 61  0  0  0  0  0  0  0  0999 V2000
   15.8305    0.0000    0.0000 C   0  0  0  0  0  0  0  0  0  0  0  0
   14.3305    0.0000    0.0000 C   0  0  0  0  0  0  0  0  0  0  0  0
   14.2520   -1.4979    0.0000 C   0  0  0  0  0  0  0  0  0  0  0  0
   14.0173   -2.9795    0.0000 C   0  0  0  0  0  0  0  0  0  0  0  0
   13.6291   -4.4284    0.0000 C   0  0  0  0  0  0  0  0  0  0  0  0
   13.0916   -5.8287    0.0000 C   0  0  0  0  0  0  0  0  0  0  0  0
   12.4106   -7.1652    0.0000 C   0  0  0  0  0  0  0  0  0  0  0  0
   11.5936   -8.4233    0.0000 C   0  0  0  0  0  0  0  0  0  0  0  0
   10.6496   -9.5890    0.0000 C   0  0  0  0  0  0  0  0  0  0  0  0
    9.5890  -10.6496    0.0000 C   0  0  0  0  0  0  0  0  0  0  0  0
    8.4233  -11.5936    0.0000 C   0  0  0  0  0  0  0  0  0  0  0  0
    7.1652  -12.4106    0.0000 C   0  0  0  0  0  0  0  0  0  0  0  0
    5.8287  -13.0916    0.0000 C   0  0  0  0  0  0  0  0  0  0  0  0
    4.4284  -13.6291    0.0000 C   0  0  0  0  0  0  0  0  0  0  0  0
    2.9795  -14.0173    0.0000 C   0  0  0  0  0  0  0  0  0  0  0  0
    1.4979  -14.2520    0.0000 C   0  0  0  0  0  0  0  0  0  0  0  0
   -0.0000  -14.3305    0.0000 C   0  0  0  0  0  0  0  0  0  0  0  0
   -1.4979  -14.2520    0.0000 C   0  0  0  0  0  0  0  0  0  0  0  0
   -2.9795  -14.0173    0.0000 C   0  0  0  0  0  0  0  0  0  0  0  0
   -4.4284  -13.6291    0.0000 C   0  0  0  0  0  0  0  0  0  0  0  0
   -5.8287  -13.0916    0.0000 C   0  0  0  0  0  0  0  0  0  0  0  0
   -7.1652  -12.4106    0.0000 C   0  0  0  0  0  0  0  0  0  0  0  0
   -8.4233  -11.5936    0.0000 C   0  0  0  0  0  0  0  0  0  0  0  0
   -9.5890  -10.6496    0.0000 C   0  0  0  0  0  0  0  0  0  0  0  0
  -10.6496   -9.5890    0.0000 C   0  0  0  0  0  0  0  0  0  0  0  0
  -11.5936   -8.4233    0.0000 C   0  0  0  0  0  0  0  0  0  0  0  0
  -12.4106   -7.1652    0.0000 C   0  0  0  0  0  0  0  0  0  0  0  0
  -13.0916   -5.8287    0.0000 C   0  0  0  0  0  0  0  0  0  0  0  0
  -13.6291   -4.4284    0.0000 C   0  0  0  0  0  0  0  0  0  0  0  0
  -14.0173   -2.9795    0.0000 C   0  0  0  0  0  0  0  0  0  0  0  0
  -14.2520   -1.4979    0.0000 C   0  0  0  0  0  0  0  0  0  0  0  0
  -14.3305    0.0000    0.0000 C   0  0  0  0  0  0  0  0  0  0  0  0
  -14.2520    1.4979    0.0000 C   0  0  0  0  0  0  0  0  0  0  0  0
  -14.0173    2.9795    0.0000 C   0  0  0  0  0  0  0  0  0  0  0  0
  -13.6291    4.4284    0.0000 C   0  0  0  0  0  0  0  0  0  0  0  0
  -13.0916    5.8287    0.0000 C   0  0  0  0  0  0  0  0  0  0  0  0
  -12.4106    7.1652    0.0000 C   0  0  0  0  0  0  0  0  0  0  0  0
  -11.5936    8.4233    0.0000 C   0  0  0  0  0  0  0  0  0  0  0  0
  -10.6496    9.5890    0.0000 C   0  0  0  0  0  0  0  0  0  0  0  0
   -9.5890   10.6496    0.0000 C   0  0  0  0  0  0  0  0  0  0  0  0
   -8.4233   11.5936    0.0000 C   0  0  0  0  0  0  0  0  0  0  0  0
   -7.1652   12.4106    0.0000 C   0  0  0  0  0  0  0  0  0  0  0  0
   -5.8287   13.0916    0.0000 C   0  0  0  0  0  0  0  0  0  0  0  0
   -4.4284   13.6291    0.0000 C   0  0  0  0  0  0  0  0  0  0  0  0
   -2.9795   14.0173    0.0000 C   0  0  0  0  0  0  0  0  0  0  0  0
   -1.4979   14.2520    0.0000 C   0  0  0  0  0  0  0  0  0  0  0  0
    0.0000   14.3305    0.0000 C   0  0  0  0  0  0  0  0  0  0  0  0
    1.4979   14.2520    0.0000 C   0  0  0  0  0  0  0  0  0  0  0  0
    2.9795   14.0173    0.0000 C   0  0  0  0  0  0  0  0  0  0  0  0
    4.4284   13.6291    0.0000 C   0  0  0  0  0  0  0  0  0  0  0  0
    5.8287   13.0916    0.0000 C   0  0  0  0  0  0  0  0  0  0  0  0
    7.1652   12.4106    0.0000 C   0  0  0  0  0  0  0  0  0  0  0  0
    8.4233   11.5936    0.0000 C   0  0  0  0  0  0  0  0  0  0  0  0
    9.5890   10.6496    0.0000 C   0  0  0  0  0  0  0  0  0  0  0  0
   10.6496    9.5890    0.0000 C   0  0  0  0  0  0  0  0  0  0  0  0
   11.5936    8.4233    0.0000 C   0  0  0  0  0  0  0  0  0  0  0  0
   12.4106    7.1652    0.0000 C   0  0  0  0  0  0  0  0  0  0  0  0
   13.0916    5.8287    0.0000 C   0  0  0  0  0  0  0  0  0  0  0  0
   13.6291    4.4284    0.0000 C   0  0  0  0  0  0  0  0  0  0  0  0
   14.0173    2.9795    0.0000 C   0  0  0  0  0  0  0  0  0  0  0  0
   14.2520    1.4979    0.0000 C   0  0  0  0  0  0  0  0  0  0  0  0
  1  2  1  0
  2  3  1  0
  3  4  1  0
  4  5  1  0
  5  6  1  0
  6  7  1  0
  7  8  1  0
  8  9  1  0
  9 10  1  0
 10 11  1  0
 11 12  1  0
 12 13  1  0
 13 14  1  0
 14 15  1  0
 15 16  1  0
 16 17  1  0
 17 18  1  0
 18 19  1  0
 19 20  1  0
 20 21  1  0
 21 22  1  0
 22 23  1  0
 23 24  1  0
 24 25  1  0
 25 26  1  0
 26 27  1  0
 27 28  1  0
 28 29  1  0
 29 30  1  0
 30 31  1  0
 31 32  1  0
 32 33  1  0
 33 34  1  0
 34 35  1  0
 35 36  1  0
 36 37  1  0
 37 38  1  0
 38 39  1  0
 39 40  1  0
 40 41  1  0
 41 42  1  0
 42 43  1  0
 43 44  1  0
 44 45  1  0
 45 46  1  0
 46 47  1  0
 47 48  1  0
 48 49  1  0
 49 50  1  0
 50 51  1  0
 51 52  1  0
 52 53  1  0
 53 54  1  0
 54 55  1  0
 55 56  1  0
 56 57  1  0
 57 58  1  0
 58 59  1  0
 59 60  1  0
 60 61  1  0
 61  2  1  0
M  END
>  <Title>  (900) 
idABGVgen7

$$$$

     RDKit          2D

 15 15  0  0  0  0  0  0  0  0999 V2000
   10.2760    5.1962    0.0000 C   0  0  0  0  0  0  0  0  0  0  0  0
    9.5260    3.8971    0.0000 C   0  0  0  0  0  0  0  0  0  0  0  0
    8.0260    3.8971    0.0000 C   0  0  0  0  0  0  0  0  0  0  0  0
    7.2760    2.5981    0.0000 C   0  0  0  0  0  0  0  0  0  0  0  0
    5.7760    2.5981    0.0000 C   0  0  0  0  0  0  0  0  0  0  0  0
    5.0260    1.2990    0.0000 C   0  0  0  0  0  0  0  0  0  0  0  0
    3.5260    1.2990    0.0000 C   0  0  0  0  0  0  0  0  0  0  0  0
    2.7760    0.0000    0.0000 C   0  0  0  0  0  0  0  0  0  0  0  0
    1.2760    0.0000    0.0000 C   0  0  0  0  0  0  0  0  0  0  0  0
    0.3943    1.2135    0.0000 C   0  0  0  0  0  0  0  0  0  0  0  0
   -1.0323    0.7500    0.0000 C   0  0  0  0  0  0  0  0  0  0  0  0
   -2.2458    1.6317    0.0000 C   0  0  0  0  0  0  0  0  0  0  0  0
   -1.0323   -0.7500    0.0000 C   0  0  0  0  0  0  0  0  0  0  0  0
    0.3943   -1.2135    0.0000 C   0  0  0  0  0  0  0  0  0  0  0  0
    0.8578   -2.6401    0.0000 C   0  0  0  0  0  0  0  0  0  0  0  0
  1  2  1  0
  2  3  1  0
  3  4  1  0
  4  5  1  0
  5  6  1  0
  6  7  1  0
  7  8  1  0
  8  9  1  0
  9 10  1  0
 10 11  1  0
 11 12  1  0
 11 13  1  0
 13 14  1  0
 14 15  1  0
 14  9  1  0
M  END
>  <Title>  (901) 
idABGWgen7

$$$$

     RDKit          2D

 21 22  0  0  0  0  0  0  0  0999 V2000
    3.9271    0.0000    0.0000 C   0  0  0  0  0  0  0  0  0  0  0  0
    2.4271    0.0000    0.0000 C   0  0  0  0  0  0  0  0  0  0  0  0
    1.9635   -1.4266    0.0000 C   0  0  0  0  0  0  0  0  0  0  0  0
    0.7500   -2.3083    0.0000 C   0  0  0  0  0  0  0  0  0  0  0  0
   -0.7500   -2.3083    0.0000 C   0  0  0  0  0  0  0  0  0  0  0  0
   -1.9635   -1.4266    0.0000 C   0  0  0  0  0  0  0  0  0  0  0  0
   -2.4271    0.0000    0.0000 C   0  0  0  0  0  0  0  0  0  0  0  0
   -1.9635    1.4266    0.0000 C   0  0  0  0  0  0  0  0  0  0  0  0
   -3.1771    2.3083    0.0000 C   0  0  0  0  0  0  0  0  0  0  0  0
   -0.7500    2.3083    0.0000 C   0  0  0  0  0  0  0  0  0  0  0  0
    0.7500    2.3083    0.0000 C   0  0  0  0  0  0  0  0  0  0  0  0
    1.9635    1.4266    0.0000 C   0  0  0  0  0  0  0  0  0  0  0  0
    3.1771    2.3083    0.0000 C   0  0  0  0  0  0  0  0  0  0  0  0
    3.0203    3.8000    0.0000 O   0  0  0  0  0  0  0  0  0  0  0  0
    4.5474    1.6982    0.0000 N   0  0  0  0  0  0  0  0  0  0  0  0
    5.7609    2.5798    0.0000 C   0  0  0  0  0  0  0  0  0  0  0  0
    7.1312    1.9697    0.0000 N   0  0  0  0  0  0  0  0  0  0  0  0
    8.3447    2.8514    0.0000 N   0  0  0  0  0  0  0  0  0  0  0  0
    8.1879    4.3432    0.0000 N   0  0  0  0  0  0  0  0  0  0  0  0
    6.8176    4.9533    0.0000 N   0  0  0  0  0  0  0  0  0  0  0  0
    5.6041    4.0716    0.0000 N   0  0  0  0  0  0  0  0  0  0  0  0
  1  2  1  0
  2  3  2  0
  3  4  1  0
  4  5  2  0
  5  6  1  0
  6  7  2  0
  7  8  1  0
  8  9  1  0
  8 10  1  0
 10 11  1  0
 11 12  1  0
 12 13  1  0
 13 14  2  0
 13 15  1  0
 15 16  1  0
 16 17  2  0
 17 18  1  0
 18 19  2  0
 19 20  1  0
 20 21  2  0
 12  2  1  0
 21 16  1  0
M  END
>  <Title>  (902) 
idABGXgen7

$$$$

     RDKit          2D

 68 71  0  0  0  0  0  0  0  0999 V2000
   -1.1424   -8.2887    0.0000 C   0  0  0  0  0  0  0  0  0  0  0  0
    0.3576   -8.2887    0.0000 C   0  0  0  0  0  0  0  0  0  0  0  0
    0.4697   -9.7845    0.0000 C   0  0  0  0  0  0  0  0  0  0  0  0
    0.8034  -11.2469    0.0000 C   0  0  0  0  0  0  0  0  0  0  0  0
    1.3515  -12.6432    0.0000 C   0  0  0  0  0  0  0  0  0  0  0  0
    2.1015  -13.9422    0.0000 C   0  0  0  0  0  0  0  0  0  0  0  0
    3.0367  -15.1150    0.0000 C   0  0  0  0  0  0  0  0  0  0  0  0
    4.1363  -16.1352    0.0000 C   0  0  0  0  0  0  0  0  0  0  0  0
    5.3756  -16.9802    0.0000 C   0  0  0  0  0  0  0  0  0  0  0  0
    6.7271  -17.6310    0.0000 C   0  0  0  0  0  0  0  0  0  0  0  0
    8.1604  -18.0732    0.0000 C   0  0  0  0  0  0  0  0  0  0  0  0
    9.6437  -18.2967    0.0000 C   0  0  0  0  0  0  0  0  0  0  0  0
   11.1437  -18.2967    0.0000 C   0  0  0  0  0  0  0  0  0  0  0  0
   12.6269  -18.0732    0.0000 C   0  0  0  0  0  0  0  0  0  0  0  0
   14.0603  -17.6310    0.0000 C   0  0  0  0  0  0  0  0  0  0  0  0
   15.4117  -16.9802    0.0000 C   0  0  0  0  0  0  0  0  0  0  0  0
   16.6511  -16.1352    0.0000 C   0  0  0  0  0  0  0  0  0  0  0  0
   17.7507  -15.1150    0.0000 C   0  0  0  0  0  0  0  0  0  0  0  0
   18.6859  -13.9422    0.0000 C   0  0  0  0  0  0  0  0  0  0  0  0
   19.4359  -12.6432    0.0000 C   0  0  0  0  0  0  0  0  0  0  0  0
   19.9839  -11.2469    0.0000 C   0  0  0  0  0  0  0  0  0  0  0  0
   20.3177   -9.7845    0.0000 C   0  0  0  0  0  0  0  0  0  0  0  0
   20.4298   -8.2887    0.0000 C   0  0  0  0  0  0  0  0  0  0  0  0
   20.3177   -6.7929    0.0000 C   0  0  0  0  0  0  0  0  0  0  0  0
   19.9839   -5.3305    0.0000 C   0  0  0  0  0  0  0  0  0  0  0  0
   19.4359   -3.9342    0.0000 C   0  0  0  0  0  0  0  0  0  0  0  0
   18.6859   -2.6351    0.0000 C   0  0  0  0  0  0  0  0  0  0  0  0
   17.7507   -1.4624    0.0000 C   0  0  0  0  0  0  0  0  0  0  0  0
   16.6511   -0.4421    0.0000 C   0  0  0  0  0  0  0  0  0  0  0  0
   15.4117    0.4028    0.0000 C   0  0  0  0  0  0  0  0  0  0  0  0
   14.0603    1.0537    0.0000 C   0  0  0  0  0  0  0  0  0  0  0  0
   12.6269    1.4958    0.0000 C   0  0  0  0  0  0  0  0  0  0  0  0
   11.1437    1.7194    0.0000 C   0  0  0  0  0  0  0  0  0  0  0  0
    9.6437    1.7194    0.0000 C   0  0  0  0  0  0  0  0  0  0  0  0
    8.1604    1.4958    0.0000 C   0  0  0  0  0  0  0  0  0  0  0  0
    6.7271    1.0537    0.0000 C   0  0  0  0  0  0  0  0  0  0  0  0
    5.3756    0.4028    0.0000 C   0  0  0  0  0  0  0  0  0  0  0  0
    4.1363   -0.4421    0.0000 C   0  0  0  0  0  0  0  0  0  0  0  0
    3.0367   -1.4624    0.0000 C   0  0  0  0  0  0  0  0  0  0  0  0
    3.3705    0.0000    0.0000 C   0  0  0  0  0  0  0  0  0  0  0  0
    3.0367    1.4624    0.0000 C   0  0  0  0  0  0  0  0  0  0  0  0
    2.1015    2.6351    0.0000 C   0  0  0  0  0  0  0  0  0  0  0  0
    0.7500    3.2860    0.0000 C   0  0  0  0  0  0  0  0  0  0  0  0
   -0.7500    3.2860    0.0000 C   0  0  0  0  0  0  0  0  0  0  0  0
   -2.1015    2.6351    0.0000 C   0  0  0  0  0  0  0  0  0  0  0  0
   -3.0367    1.4624    0.0000 C   0  0  0  0  0  0  0  0  0  0  0  0
   -3.3705    0.0000    0.0000 C   0  0  0  0  0  0  0  0  0  0  0  0
   -3.0367   -1.4624    0.0000 C   0  0  0  0  0  0  0  0  0  0  0  0
   -2.1015   -2.6351    0.0000 C   0  0  0  0  0  0  0  0  0  0  0  0
   -0.7500   -3.2860    0.0000 C   0  0  0  0  0  0  0  0  0  0  0  0
    0.7500   -3.2860    0.0000 C   0  0  0  0  0  0  0  0  0  0  0  0
    2.1015   -2.6351    0.0000 C   0  0  0  0  0  0  0  0  0  0  0  0
    1.3515   -3.9342    0.0000 C   0  0  0  0  0  0  0  0  0  0  0  0
    0.0000   -3.2834    0.0000 C   0  0  0  0  0  0  0  0  0  0  0  0
   -0.1121   -1.7875    0.0000 O   0  0  0  0  0  0  0  0  0  0  0  0
   -1.2394   -4.1283    0.0000 N   0  0  0  0  0  0  0  0  0  0  0  0
   -2.5908   -3.4775    0.0000 C   0  0  0  0  0  0  0  0  0  0  0  0
   -3.8302   -4.3225    0.0000 N   0  0  0  0  0  0  0  0  0  0  0  0
   -5.1816   -3.6717    0.0000 N   0  0  0  0  0  0  0  0  0  0  0  0
   -5.2937   -2.1759    0.0000 N   0  0  0  0  0  0  0  0  0  0  0  0
   -4.0544   -1.3309    0.0000 N   0  0  0  0  0  0  0  0  0  0  0  0
   -2.7029   -1.9817    0.0000 N   0  0  0  0  0  0  0  0  0  0  0  0
    0.8034   -5.3305    0.0000 C   0  0  0  0  0  0  0  0  0  0  0  0
   -0.2961   -4.3102    0.0000 C   0  0  0  0  0  0  0  0  0  0  0  0
   -1.7295   -4.7524    0.0000 C   0  0  0  0  0  0  0  0  0  0  0  0
   -2.0633   -6.2148    0.0000 C   0  0  0  0  0  0  0  0  0  0  0  0
   -0.9637   -7.2350    0.0000 C   0  0  0  0  0  0  0  0  0  0  0  0
    0.4697   -6.7929    0.0000 C   0  0  0  0  0  0  0  0  0  0  0  0
  1  2  1  0
  2  3  1  0
  3  4  1  0
  4  5  1  0
  5  6  1  0
  6  7  1  0
  7  8  1  0
  8  9  1  0
  9 10  1  0
 10 11  1  0
 11 12  1  0
 12 13  1  0
 13 14  1  0
 14 15  1  0
 15 16  1  0
 16 17  1  0
 17 18  1  0
 18 19  1  0
 19 20  1  0
 20 21  1  0
 21 22  1  0
 22 23  1  0
 23 24  1  0
 24 25  1  0
 25 26  1  0
 26 27  1  0
 27 28  1  0
 28 29  1  0
 29 30  1  0
 30 31  1  0
 31 32  1  0
 32 33  1  0
 33 34  1  0
 34 35  1  0
 35 36  1  0
 36 37  1  0
 37 38  1  0
 38 39  1  0
 39 40  1  0
 40 41  1  0
 41 42  1  0
 42 43  1  0
 43 44  2  0
 44 45  1  0
 45 46  2  0
 46 47  1  0
 47 48  2  0
 48 49  1  0
 49 50  2  0
 50 51  1  0
 51 52  2  0
 52 53  1  0
 53 54  1  0
 54 55  2  0
 54 56  1  0
 56 57  1  0
 57 58  2  0
 58 59  1  0
 59 60  2  0
 60 61  1  0
 61 62  2  0
 53 63  1  0
 63 64  2  0
 64 65  1  0
 65 66  2  0
 66 67  1  0
 67 68  2  0
 68  2  1  0
 52 39  1  0
 62 57  1  0
 68 63  1  0
M  END
>  <Title>  (903) 
idABGYgen7

$$$$

     RDKit          2D

  7  7  0  0  0  0  0  0  0  0999 V2000
    4.2760   -0.0000    0.0000 N   0  0  0  0  0  0  0  0  0  0  0  0
    2.7760    0.0000    0.0000 C   0  0  0  0  0  0  0  0  0  0  0  0
    1.2760    0.0000    0.0000 C   0  0  0  0  0  0  0  0  0  0  0  0
    0.3943    1.2135    0.0000 C   0  0  0  0  0  0  0  0  0  0  0  0
   -1.0323    0.7500    0.0000 C   0  0  0  0  0  0  0  0  0  0  0  0
   -1.0323   -0.7500    0.0000 C   0  0  0  0  0  0  0  0  0  0  0  0
    0.3943   -1.2135    0.0000 C   0  0  0  0  0  0  0  0  0  0  0  0
  1  2  3  0
  2  3  1  0
  3  4  2  0
  4  5  1  0
  5  6  1  0
  6  7  1  0
  7  3  1  0
M  END
>  <Title>  (904) 
idABGZgen7

$$$$

     RDKit          2D

 78 78  0  0  0  0  0  0  0  0999 V2000
   19.8875    0.0000    0.0000 C   0  0  0  0  0  0  0  0  0  0  0  0
   18.3875    0.0000    0.0000 C   0  0  0  0  0  0  0  0  0  0  0  0
   18.3263    1.4988    0.0000 C   0  0  0  0  0  0  0  0  0  0  0  0
   18.1432    2.9875    0.0000 C   0  0  0  0  0  0  0  0  0  0  0  0
   17.8393    4.4564    0.0000 C   0  0  0  0  0  0  0  0  0  0  0  0
   17.4167    5.8957    0.0000 C   0  0  0  0  0  0  0  0  0  0  0  0
   16.8782    7.2957    0.0000 C   0  0  0  0  0  0  0  0  0  0  0  0
   16.2274    8.6471    0.0000 C   0  0  0  0  0  0  0  0  0  0  0  0
   15.4685    9.9410    0.0000 C   0  0  0  0  0  0  0  0  0  0  0  0
   14.6068   11.1688    0.0000 C   0  0  0  0  0  0  0  0  0  0  0  0
   13.6478   12.3222    0.0000 C   0  0  0  0  0  0  0  0  0  0  0  0
   12.5980   13.3936    0.0000 C   0  0  0  0  0  0  0  0  0  0  0  0
   11.4644   14.3759    0.0000 C   0  0  0  0  0  0  0  0  0  0  0  0
   10.2545   15.2625    0.0000 C   0  0  0  0  0  0  0  0  0  0  0  0
    8.9763   16.0476    0.0000 C   0  0  0  0  0  0  0  0  0  0  0  0
    7.6384   16.7259    0.0000 C   0  0  0  0  0  0  0  0  0  0  0  0
    6.2497   17.2928    0.0000 C   0  0  0  0  0  0  0  0  0  0  0  0
    4.8194   17.7447    0.0000 C   0  0  0  0  0  0  0  0  0  0  0  0
    3.3570   18.0785    0.0000 C   0  0  0  0  0  0  0  0  0  0  0  0
    1.8723   18.2919    0.0000 C   0  0  0  0  0  0  0  0  0  0  0  0
    0.3751   18.3837    0.0000 C   0  0  0  0  0  0  0  0  0  0  0  0
   -1.1246   18.3531    0.0000 C   0  0  0  0  0  0  0  0  0  0  0  0
   -2.6168   18.2003    0.0000 C   0  0  0  0  0  0  0  0  0  0  0  0
   -4.0916   17.9265    0.0000 C   0  0  0  0  0  0  0  0  0  0  0  0
   -5.5392   17.5333    0.0000 C   0  0  0  0  0  0  0  0  0  0  0  0
   -6.9499   17.0235    0.0000 C   0  0  0  0  0  0  0  0  0  0  0  0
   -8.3143   16.4004    0.0000 C   0  0  0  0  0  0  0  0  0  0  0  0
   -9.6234   15.6681    0.0000 C   0  0  0  0  0  0  0  0  0  0  0  0
  -10.8685   14.8316    0.0000 C   0  0  0  0  0  0  0  0  0  0  0  0
  -12.0412   13.8963    0.0000 C   0  0  0  0  0  0  0  0  0  0  0  0
  -13.1339   12.8686    0.0000 C   0  0  0  0  0  0  0  0  0  0  0  0
  -14.1391   11.7553    0.0000 C   0  0  0  0  0  0  0  0  0  0  0  0
  -15.0502   10.5637    0.0000 C   0  0  0  0  0  0  0  0  0  0  0  0
  -15.8612    9.3018    0.0000 C   0  0  0  0  0  0  0  0  0  0  0  0
  -16.5666    7.9780    0.0000 C   0  0  0  0  0  0  0  0  0  0  0  0
  -17.1617    6.6012    0.0000 C   0  0  0  0  0  0  0  0  0  0  0  0
  -17.6427    5.1804    0.0000 C   0  0  0  0  0  0  0  0  0  0  0  0
  -18.0062    3.7251    0.0000 C   0  0  0  0  0  0  0  0  0  0  0  0
  -18.2499    2.2450    0.0000 C   0  0  0  0  0  0  0  0  0  0  0  0
  -18.3722    0.7500    0.0000 C   0  0  0  0  0  0  0  0  0  0  0  0
  -18.3722   -0.7500    0.0000 C   0  0  0  0  0  0  0  0  0  0  0  0
  -18.2499   -2.2450    0.0000 C   0  0  0  0  0  0  0  0  0  0  0  0
  -18.0062   -3.7251    0.0000 C   0  0  0  0  0  0  0  0  0  0  0  0
  -17.6427   -5.1804    0.0000 C   0  0  0  0  0  0  0  0  0  0  0  0
  -17.1617   -6.6012    0.0000 C   0  0  0  0  0  0  0  0  0  0  0  0
  -16.5666   -7.9780    0.0000 C   0  0  0  0  0  0  0  0  0  0  0  0
  -15.8612   -9.3018    0.0000 C   0  0  0  0  0  0  0  0  0  0  0  0
  -15.0502  -10.5637    0.0000 C   0  0  0  0  0  0  0  0  0  0  0  0
  -14.1391  -11.7553    0.0000 C   0  0  0  0  0  0  0  0  0  0  0  0
  -13.1339  -12.8686    0.0000 C   0  0  0  0  0  0  0  0  0  0  0  0
  -12.0412  -13.8963    0.0000 C   0  0  0  0  0  0  0  0  0  0  0  0
  -10.8685  -14.8316    0.0000 C   0  0  0  0  0  0  0  0  0  0  0  0
   -9.6234  -15.6681    0.0000 C   0  0  0  0  0  0  0  0  0  0  0  0
   -8.3143  -16.4004    0.0000 C   0  0  0  0  0  0  0  0  0  0  0  0
   -6.9499  -17.0235    0.0000 C   0  0  0  0  0  0  0  0  0  0  0  0
   -5.5392  -17.5333    0.0000 C   0  0  0  0  0  0  0  0  0  0  0  0
   -4.0916  -17.9265    0.0000 C   0  0  0  0  0  0  0  0  0  0  0  0
   -2.6168  -18.2003    0.0000 C   0  0  0  0  0  0  0  0  0  0  0  0
   -1.1246  -18.3531    0.0000 C   0  0  0  0  0  0  0  0  0  0  0  0
    0.3751  -18.3837    0.0000 C   0  0  0  0  0  0  0  0  0  0  0  0
    1.8723  -18.2919    0.0000 C   0  0  0  0  0  0  0  0  0  0  0  0
    3.3570  -18.0785    0.0000 C   0  0  0  0  0  0  0  0  0  0  0  0
    4.8194  -17.7447    0.0000 C   0  0  0  0  0  0  0  0  0  0  0  0
    6.2497  -17.2928    0.0000 C   0  0  0  0  0  0  0  0  0  0  0  0
    7.6384  -16.7259    0.0000 C   0  0  0  0  0  0  0  0  0  0  0  0
    8.9763  -16.0476    0.0000 C   0  0  0  0  0  0  0  0  0  0  0  0
   10.2545  -15.2625    0.0000 C   0  0  0  0  0  0  0  0  0  0  0  0
   11.4644  -14.3759    0.0000 C   0  0  0  0  0  0  0  0  0  0  0  0
   12.5980  -13.3936    0.0000 C   0  0  0  0  0  0  0  0  0  0  0  0
   13.6478  -12.3222    0.0000 C   0  0  0  0  0  0  0  0  0  0  0  0
   14.6068  -11.1688    0.0000 C   0  0  0  0  0  0  0  0  0  0  0  0
   15.4685   -9.9410    0.0000 C   0  0  0  0  0  0  0  0  0  0  0  0
   16.2274   -8.6471    0.0000 C   0  0  0  0  0  0  0  0  0  0  0  0
   16.8782   -7.2957    0.0000 C   0  0  0  0  0  0  0  0  0  0  0  0
   17.4167   -5.8957    0.0000 C   0  0  0  0  0  0  0  0  0  0  0  0
   17.8393   -4.4564    0.0000 C   0  0  0  0  0  0  0  0  0  0  0  0
   18.1432   -2.9875    0.0000 C   0  0  0  0  0  0  0  0  0  0  0  0
   18.3263   -1.4988    0.0000 C   0  0  0  0  0  0  0  0  0  0  0  0
  1  2  1  0
  2  3  1  0
  3  4  2  0
  4  5  1  0
  5  6  1  0
  6  7  1  0
  7  8  1  0
  8  9  1  0
  9 10  1  0
 10 11  1  0
 11 12  1  0
 12 13  1  0
 13 14  1  0
 14 15  1  0
 15 16  1  0
 16 17  1  0
 17 18  1  0
 18 19  1  0
 19 20  1  0
 20 21  1  0
 21 22  1  0
 22 23  1  0
 23 24  1  0
 24 25  1  0
 25 26  1  0
 26 27  1  0
 27 28  1  0
 28 29  1  0
 29 30  1  0
 30 31  1  0
 31 32  1  0
 32 33  1  0
 33 34  1  0
 34 35  1  0
 35 36  1  0
 36 37  1  0
 37 38  1  0
 38 39  1  0
 39 40  1  0
 40 41  1  0
 41 42  1  0
 42 43  1  0
 43 44  1  0
 44 45  1  0
 45 46  1  0
 46 47  1  0
 47 48  2  0
 48 49  1  0
 49 50  1  0
 50 51  1  0
 51 52  1  0
 52 53  1  0
 53 54  1  0
 54 55  1  0
 55 56  1  0
 56 57  1  0
 57 58  1  0
 58 59  1  0
 59 60  1  0
 60 61  1  0
 61 62  1  0
 62 63  1  0
 63 64  1  0
 64 65  1  0
 65 66  1  0
 66 67  1  0
 67 68  1  0
 68 69  1  0
 69 70  1  0
 70 71  1  0
 71 72  1  0
 72 73  2  0
 73 74  1  0
 74 75  2  0
 75 76  1  0
 76 77  2  0
 77 78  1  0
 78  2  1  0
M  END
>  <Title>  (905) 
idABHAgen7

$$$$

     RDKit          2D

 31 35  0  0  0  0  0  0  0  0999 V2000
    2.3737   -9.8099    0.0000 C   0  0  0  0  0  0  0  0  0  0  0  0
    1.4095   -8.6608    0.0000 C   0  0  0  0  0  0  0  0  0  0  0  0
    2.1595   -7.3618    0.0000 C   0  0  0  0  0  0  0  0  0  0  0  0
    1.8991   -5.8845    0.0000 C   0  0  0  0  0  0  0  0  0  0  0  0
    0.7500   -4.9204    0.0000 C   0  0  0  0  0  0  0  0  0  0  0  0
    1.8107   -3.8597    0.0000 C   0  0  0  0  0  0  0  0  0  0  0  0
    3.1965   -4.4337    0.0000 O   0  0  0  0  0  0  0  0  0  0  0  0
    1.8107   -2.3597    0.0000 O   0  0  0  0  0  0  0  0  0  0  0  0
    0.7500   -1.2990    0.0000 C   0  0  0  0  0  0  0  0  0  0  0  0
    1.5000    0.0000    0.0000 C   0  0  0  0  0  0  0  0  0  0  0  0
    0.7500    1.2990    0.0000 C   0  0  0  0  0  0  0  0  0  0  0  0
   -0.7500    1.2990    0.0000 C   0  0  0  0  0  0  0  0  0  0  0  0
   -1.5000    0.0000    0.0000 C   0  0  0  0  0  0  0  0  0  0  0  0
   -0.7500   -1.2990    0.0000 C   0  0  0  0  0  0  0  0  0  0  0  0
   -1.8107   -2.3597    0.0000 C   0  0  0  0  0  0  0  0  0  0  0  0
   -3.1965   -1.7857    0.0000 C   0  0  0  0  0  0  0  0  0  0  0  0
   -4.5823   -1.2116    0.0000 N   0  0  0  0  0  0  0  0  0  0  0  0
   -1.8107   -3.8597    0.0000 C   0  0  0  0  0  0  0  0  0  0  0  0
   -0.7500   -4.9204    0.0000 C   0  0  0  0  0  0  0  0  0  0  0  0
   -1.8991   -5.8845    0.0000 C   0  0  0  0  0  0  0  0  0  0  0  0
   -3.0481   -4.9204    0.0000 C   0  0  0  0  0  0  0  0  0  0  0  0
   -4.4577   -5.4334    0.0000 C   0  0  0  0  0  0  0  0  0  0  0  0
   -4.7181   -6.9106    0.0000 C   0  0  0  0  0  0  0  0  0  0  0  0
   -3.5691   -7.8748    0.0000 C   0  0  0  0  0  0  0  0  0  0  0  0
   -2.1595   -7.3618    0.0000 C   0  0  0  0  0  0  0  0  0  0  0  0
   -1.4095   -8.6608    0.0000 C   0  0  0  0  0  0  0  0  0  0  0  0
   -2.5586   -9.6250    0.0000 C   0  0  0  0  0  0  0  0  0  0  0  0
   -2.2981  -11.1022    0.0000 C   0  0  0  0  0  0  0  0  0  0  0  0
   -0.8886  -11.6152    0.0000 C   0  0  0  0  0  0  0  0  0  0  0  0
    0.2605  -10.6510    0.0000 C   0  0  0  0  0  0  0  0  0  0  0  0
   -0.0000   -9.1738    0.0000 C   0  0  0  0  0  0  0  0  0  0  0  0
  1  2  1  0
  2  3  2  0
  3  4  1  0
  4  5  2  0
  5  6  1  0
  6  7  2  0
  6  8  1  0
  8  9  1  0
  9 10  2  0
 10 11  1  0
 11 12  2  0
 12 13  1  0
 13 14  2  0
 14 15  1  0
 15 16  1  0
 16 17  3  0
 15 18  1  0
 18 19  2  0
 19 20  1  0
 20 21  2  0
 21 22  1  0
 22 23  2  0
 23 24  1  0
 24 25  2  0
 25 26  1  0
 26 27  2  0
 27 28  1  0
 28 29  2  0
 29 30  1  0
 30 31  2  0
 31  2  1  0
 19  5  1  0
 25 20  1  0
 31 26  1  0
 14  9  1  0
M  END
>  <Title>  (906) 
idABHBgen7

$$$$

     RDKit          2D

 29 32  0  0  0  0  0  0  0  0999 V2000
   -0.7500   -3.8971    0.0000 O   0  0  0  0  0  0  0  0  0  0  0  0
    0.7500   -3.8971    0.0000 C   0  0  0  0  0  0  0  0  0  0  0  0
    1.5000   -2.5981    0.0000 N   0  0  0  0  0  0  0  0  0  0  0  0
    0.7500   -1.2990    0.0000 C   0  0  0  0  0  0  0  0  0  0  0  0
    1.5000    0.0000    0.0000 N   0  0  0  0  0  0  0  0  0  0  0  0
    0.7500    1.2990    0.0000 N   0  0  0  0  0  0  0  0  0  0  0  0
   -0.7500    1.2990    0.0000 N   0  0  0  0  0  0  0  0  0  0  0  0
   -1.5000    0.0000    0.0000 N   0  0  0  0  0  0  0  0  0  0  0  0
   -0.7500   -1.2990    0.0000 N   0  0  0  0  0  0  0  0  0  0  0  0
    1.5000   -5.1962    0.0000 C   0  0  0  0  0  0  0  0  0  0  0  0
    2.9918   -5.3529    0.0000 C   0  0  0  0  0  0  0  0  0  0  0  0
    3.3037   -6.8202    0.0000 C   0  0  0  0  0  0  0  0  0  0  0  0
    2.0046   -7.5702    0.0000 N   0  0  0  0  0  0  0  0  0  0  0  0
    1.8478   -9.0619    0.0000 C   0  0  0  0  0  0  0  0  0  0  0  0
    3.0613   -9.9436    0.0000 O   0  0  0  0  0  0  0  0  0  0  0  0
    0.4775   -9.6721    0.0000 C   0  0  0  0  0  0  0  0  0  0  0  0
   -0.7360   -8.7904    0.0000 O   0  0  0  0  0  0  0  0  0  0  0  0
    0.3207  -11.1638    0.0000 N   0  0  0  0  0  0  0  0  0  0  0  0
    1.4354  -12.1675    0.0000 C   0  0  0  0  0  0  0  0  0  0  0  0
    0.8253  -13.5379    0.0000 C   0  0  0  0  0  0  0  0  0  0  0  0
   -0.6665  -13.3811    0.0000 C   0  0  0  0  0  0  0  0  0  0  0  0
   -1.6702  -14.4958    0.0000 C   0  0  0  0  0  0  0  0  0  0  0  0
   -3.1374  -14.1839    0.0000 C   0  0  0  0  0  0  0  0  0  0  0  0
   -4.1411  -15.2986    0.0000 C   0  0  0  0  0  0  0  0  0  0  0  0
   -3.6775  -16.7252    0.0000 C   0  0  0  0  0  0  0  0  0  0  0  0
   -2.2103  -17.0371    0.0000 C   0  0  0  0  0  0  0  0  0  0  0  0
   -1.2066  -15.9224    0.0000 C   0  0  0  0  0  0  0  0  0  0  0  0
   -0.9783  -11.9138    0.0000 C   0  0  0  0  0  0  0  0  0  0  0  0
    0.8899   -6.5665    0.0000 C   0  0  0  0  0  0  0  0  0  0  0  0
  1  2  2  0
  2  3  1  0
  3  4  1  0
  4  5  2  0
  5  6  1  0
  6  7  2  0
  7  8  1  0
  8  9  2  0
  2 10  1  0
 10 11  1  0
 11 12  1  0
 12 13  1  0
 13 14  1  0
 14 15  2  0
 14 16  1  0
 16 17  2  0
 16 18  1  0
 18 19  1  0
 19 20  1  0
 20 21  1  0
 21 22  1  0
 22 23  2  0
 23 24  1  0
 24 25  2  0
 25 26  1  0
 26 27  2  0
 21 28  1  0
 13 29  1  0
  9  4  1  0
 29 10  1  0
 28 18  1  0
 27 22  1  0
M  END
>  <Title>  (907) 
idABHCgen7

$$$$

     RDKit          2D

 79 81  0  0  0  0  0  0  0  0999 V2000
   -2.4661    0.0349    0.0000 C   0  0  0  0  0  0  0  0  0  0  0  0
   -2.2425   -1.4484    0.0000 C   0  0  0  0  0  0  0  0  0  0  0  0
   -3.7128   -1.7456    0.0000 C   0  0  0  0  0  0  0  0  0  0  0  0
   -5.1462   -2.1877    0.0000 C   0  0  0  0  0  0  0  0  0  0  0  0
   -6.5284   -2.7704    0.0000 C   0  0  0  0  0  0  0  0  0  0  0  0
   -7.8457   -3.4878    0.0000 C   0  0  0  0  0  0  0  0  0  0  0  0
   -9.0851   -4.3328    0.0000 C   0  0  0  0  0  0  0  0  0  0  0  0
  -10.2341   -5.2969    0.0000 C   0  0  0  0  0  0  0  0  0  0  0  0
  -11.2815   -6.3707    0.0000 C   0  0  0  0  0  0  0  0  0  0  0  0
  -12.2167   -7.5435    0.0000 C   0  0  0  0  0  0  0  0  0  0  0  0
  -13.0305   -8.8035    0.0000 C   0  0  0  0  0  0  0  0  0  0  0  0
  -13.7149  -10.1383    0.0000 C   0  0  0  0  0  0  0  0  0  0  0  0
  -14.2629  -11.5346    0.0000 C   0  0  0  0  0  0  0  0  0  0  0  0
  -14.6691  -12.9786    0.0000 C   0  0  0  0  0  0  0  0  0  0  0  0
  -14.9296  -14.4558    0.0000 C   0  0  0  0  0  0  0  0  0  0  0  0
  -15.0417  -15.9516    0.0000 C   0  0  0  0  0  0  0  0  0  0  0  0
  -15.0043  -17.4511    0.0000 C   0  0  0  0  0  0  0  0  0  0  0  0
  -14.8178  -18.9395    0.0000 C   0  0  0  0  0  0  0  0  0  0  0  0
  -14.4840  -20.4019    0.0000 C   0  0  0  0  0  0  0  0  0  0  0  0
  -14.0063  -21.8238    0.0000 C   0  0  0  0  0  0  0  0  0  0  0  0
  -13.3893  -23.1910    0.0000 C   0  0  0  0  0  0  0  0  0  0  0  0
  -12.6393  -24.4901    0.0000 C   0  0  0  0  0  0  0  0  0  0  0  0
  -11.7637  -25.7080    0.0000 C   0  0  0  0  0  0  0  0  0  0  0  0
  -10.7712  -26.8326    0.0000 C   0  0  0  0  0  0  0  0  0  0  0  0
   -9.6716  -27.8529    0.0000 C   0  0  0  0  0  0  0  0  0  0  0  0
   -8.4759  -28.7586    0.0000 C   0  0  0  0  0  0  0  0  0  0  0  0
   -7.1960  -29.5408    0.0000 C   0  0  0  0  0  0  0  0  0  0  0  0
   -5.8445  -30.1916    0.0000 C   0  0  0  0  0  0  0  0  0  0  0  0
   -4.4350  -30.7046    0.0000 C   0  0  0  0  0  0  0  0  0  0  0  0
   -2.9814  -31.0748    0.0000 C   0  0  0  0  0  0  0  0  0  0  0  0
   -1.4981  -31.2983    0.0000 C   0  0  0  0  0  0  0  0  0  0  0  0
   -0.0000  -31.3731    0.0000 C   0  0  0  0  0  0  0  0  0  0  0  0
    1.4981  -31.2983    0.0000 C   0  0  0  0  0  0  0  0  0  0  0  0
    2.9814  -31.0748    0.0000 C   0  0  0  0  0  0  0  0  0  0  0  0
    4.4350  -30.7046    0.0000 C   0  0  0  0  0  0  0  0  0  0  0  0
    5.8445  -30.1916    0.0000 C   0  0  0  0  0  0  0  0  0  0  0  0
    7.1960  -29.5408    0.0000 C   0  0  0  0  0  0  0  0  0  0  0  0
    8.4759  -28.7586    0.0000 C   0  0  0  0  0  0  0  0  0  0  0  0
    9.6716  -27.8529    0.0000 C   0  0  0  0  0  0  0  0  0  0  0  0
   10.7712  -26.8326    0.0000 C   0  0  0  0  0  0  0  0  0  0  0  0
   11.7637  -25.7080    0.0000 C   0  0  0  0  0  0  0  0  0  0  0  0
   12.6393  -24.4901    0.0000 C   0  0  0  0  0  0  0  0  0  0  0  0
   13.3893  -23.1910    0.0000 C   0  0  0  0  0  0  0  0  0  0  0  0
   14.0063  -21.8238    0.0000 C   0  0  0  0  0  0  0  0  0  0  0  0
   14.4840  -20.4019    0.0000 C   0  0  0  0  0  0  0  0  0  0  0  0
   14.8178  -18.9395    0.0000 C   0  0  0  0  0  0  0  0  0  0  0  0
   15.0043  -17.4511    0.0000 C   0  0  0  0  0  0  0  0  0  0  0  0
   15.0417  -15.9516    0.0000 C   0  0  0  0  0  0  0  0  0  0  0  0
   14.9296  -14.4558    0.0000 C   0  0  0  0  0  0  0  0  0  0  0  0
   14.6691  -12.9786    0.0000 C   0  0  0  0  0  0  0  0  0  0  0  0
   14.2629  -11.5346    0.0000 C   0  0  0  0  0  0  0  0  0  0  0  0
   13.7149  -10.1383    0.0000 C   0  0  0  0  0  0  0  0  0  0  0  0
   13.0305   -8.8035    0.0000 C   0  0  0  0  0  0  0  0  0  0  0  0
   12.2167   -7.5435    0.0000 C   0  0  0  0  0  0  0  0  0  0  0  0
   11.2815   -6.3707    0.0000 C   0  0  0  0  0  0  0  0  0  0  0  0
   10.2341   -5.2969    0.0000 C   0  0  0  0  0  0  0  0  0  0  0  0
    9.0851   -4.3328    0.0000 C   0  0  0  0  0  0  0  0  0  0  0  0
    7.8457   -3.4878    0.0000 C   0  0  0  0  0  0  0  0  0  0  0  0
    6.5284   -2.7704    0.0000 C   0  0  0  0  0  0  0  0  0  0  0  0
    5.1462   -2.1877    0.0000 C   0  0  0  0  0  0  0  0  0  0  0  0
    3.7128   -1.7456    0.0000 C   0  0  0  0  0  0  0  0  0  0  0  0
    2.2425   -1.4484    0.0000 C   0  0  0  0  0  0  0  0  0  0  0  0
    2.4661    0.0349    0.0000 C   0  0  0  0  0  0  0  0  0  0  0  0
    3.8624    0.5829    0.0000 C   0  0  0  0  0  0  0  0  0  0  0  0
    4.0860    2.0661    0.0000 C   0  0  0  0  0  0  0  0  0  0  0  0
    2.9132    3.0013    0.0000 O   0  0  0  0  0  0  0  0  0  0  0  0
    5.4823    2.6141    0.0000 N   0  0  0  0  0  0  0  0  0  0  0  0
    5.7059    4.0974    0.0000 C   0  0  0  0  0  0  0  0  0  0  0  0
    7.1022    4.6454    0.0000 N   0  0  0  0  0  0  0  0  0  0  0  0
    7.3257    6.1286    0.0000 N   0  0  0  0  0  0  0  0  0  0  0  0
    6.1530    7.0639    0.0000 N   0  0  0  0  0  0  0  0  0  0  0  0
    4.7567    6.5159    0.0000 N   0  0  0  0  0  0  0  0  0  0  0  0
    4.5331    5.0326    0.0000 N   0  0  0  0  0  0  0  0  0  0  0  0
    0.7500   -1.2990    0.0000 C   0  0  0  0  0  0  0  0  0  0  0  0
    1.5000    0.0000    0.0000 C   0  0  0  0  0  0  0  0  0  0  0  0
    0.7500    1.2990    0.0000 C   0  0  0  0  0  0  0  0  0  0  0  0
   -0.7500    1.2990    0.0000 C   0  0  0  0  0  0  0  0  0  0  0  0
   -1.5000    0.0000    0.0000 C   0  0  0  0  0  0  0  0  0  0  0  0
   -0.7500   -1.2990    0.0000 C   0  0  0  0  0  0  0  0  0  0  0  0
  1  2  1  0
  2  3  1  0
  3  4  1  0
  4  5  1  0
  5  6  1  0
  6  7  1  0
  7  8  1  0
  8  9  1  0
  9 10  1  0
 10 11  1  0
 11 12  1  0
 12 13  1  0
 13 14  1  0
 14 15  1  0
 15 16  1  0
 16 17  1  0
 17 18  1  0
 18 19  1  0
 19 20  1  0
 20 21  1  0
 21 22  1  0
 22 23  1  0
 23 24  1  0
 24 25  1  0
 25 26  1  0
 26 27  1  0
 27 28  1  0
 28 29  1  0
 29 30  1  0
 30 31  1  0
 31 32  1  0
 32 33  1  0
 33 34  1  0
 34 35  1  0
 35 36  1  0
 36 37  1  0
 37 38  1  0
 38 39  1  0
 39 40  1  0
 40 41  1  0
 41 42  1  0
 42 43  1  0
 43 44  1  0
 44 45  1  0
 45 46  1  0
 46 47  1  0
 47 48  1  0
 48 49  1  0
 49 50  1  0
 50 51  1  0
 51 52  1  0
 52 53  1  0
 53 54  1  0
 54 55  1  0
 55 56  1  0
 56 57  1  0
 57 58  1  0
 58 59  1  0
 59 60  1  0
 60 61  1  0
 61 62  1  0
 62 63  1  0
 63 64  1  0
 64 65  1  0
 65 66  2  0
 65 67  1  0
 67 68  1  0
 68 69  2  0
 69 70  1  0
 70 71  2  0
 71 72  1  0
 72 73  2  0
 62 74  1  0
 74 75  2  0
 75 76  1  0
 76 77  2  0
 77 78  1  0
 78 79  2  0
 79  2  1  0
 73 68  1  0
 79 74  1  0
M  END
>  <Title>  (908) 
idABHDgen7

$$$$

     RDKit          2D

 72 72  0  0  0  0  0  0  0  0999 V2000
   18.4555    0.0000    0.0000 C   0  0  0  0  0  0  0  0  0  0  0  0
   16.9555    0.0000    0.0000 C   0  0  0  0  0  0  0  0  0  0  0  0
   16.8892    1.4985    0.0000 C   0  0  0  0  0  0  0  0  0  0  0  0
   16.6907    2.9853    0.0000 C   0  0  0  0  0  0  0  0  0  0  0  0
   16.3615    4.4488    0.0000 C   0  0  0  0  0  0  0  0  0  0  0  0
   15.9043    5.8774    0.0000 C   0  0  0  0  0  0  0  0  0  0  0  0
   15.3226    7.2600    0.0000 C   0  0  0  0  0  0  0  0  0  0  0  0
   14.6210    8.5858    0.0000 C   0  0  0  0  0  0  0  0  0  0  0  0
   13.8050    9.8444    0.0000 C   0  0  0  0  0  0  0  0  0  0  0  0
   12.8809   11.0260    0.0000 C   0  0  0  0  0  0  0  0  0  0  0  0
   11.8560   12.1213    0.0000 C   0  0  0  0  0  0  0  0  0  0  0  0
   10.7383   13.1217    0.0000 C   0  0  0  0  0  0  0  0  0  0  0  0
    9.5366   14.0194    0.0000 C   0  0  0  0  0  0  0  0  0  0  0  0
    8.2603   14.8074    0.0000 C   0  0  0  0  0  0  0  0  0  0  0  0
    6.9193   15.4795    0.0000 C   0  0  0  0  0  0  0  0  0  0  0  0
    5.5241   16.0304    0.0000 C   0  0  0  0  0  0  0  0  0  0  0  0
    4.0857   16.4559    0.0000 C   0  0  0  0  0  0  0  0  0  0  0  0
    2.6154   16.7526    0.0000 C   0  0  0  0  0  0  0  0  0  0  0  0
    1.1245   16.9182    0.0000 C   0  0  0  0  0  0  0  0  0  0  0  0
   -0.3751   16.9514    0.0000 C   0  0  0  0  0  0  0  0  0  0  0  0
   -1.8718   16.8519    0.0000 C   0  0  0  0  0  0  0  0  0  0  0  0
   -3.3538   16.6205    0.0000 C   0  0  0  0  0  0  0  0  0  0  0  0
   -4.8096   16.2591    0.0000 C   0  0  0  0  0  0  0  0  0  0  0  0
   -6.2278   15.7704    0.0000 C   0  0  0  0  0  0  0  0  0  0  0  0
   -7.5972   15.1582    0.0000 C   0  0  0  0  0  0  0  0  0  0  0  0
   -8.9072   14.4275    0.0000 C   0  0  0  0  0  0  0  0  0  0  0  0
  -10.1474   13.5838    0.0000 C   0  0  0  0  0  0  0  0  0  0  0  0
  -11.3082   12.6338    0.0000 C   0  0  0  0  0  0  0  0  0  0  0  0
  -12.3806   11.5850    0.0000 C   0  0  0  0  0  0  0  0  0  0  0  0
  -13.3560   10.4454    0.0000 C   0  0  0  0  0  0  0  0  0  0  0  0
  -14.2269    9.2242    0.0000 C   0  0  0  0  0  0  0  0  0  0  0  0
  -14.9865    7.9307    0.0000 C   0  0  0  0  0  0  0  0  0  0  0  0
  -15.6287    6.5751    0.0000 C   0  0  0  0  0  0  0  0  0  0  0  0
  -16.1487    5.1681    0.0000 C   0  0  0  0  0  0  0  0  0  0  0  0
  -16.5423    3.7207    0.0000 C   0  0  0  0  0  0  0  0  0  0  0  0
  -16.8064    2.2441    0.0000 C   0  0  0  0  0  0  0  0  0  0  0  0
  -16.9389    0.7500    0.0000 C   0  0  0  0  0  0  0  0  0  0  0  0
  -16.9389   -0.7500    0.0000 C   0  0  0  0  0  0  0  0  0  0  0  0
  -16.8064   -2.2441    0.0000 C   0  0  0  0  0  0  0  0  0  0  0  0
  -16.5423   -3.7207    0.0000 C   0  0  0  0  0  0  0  0  0  0  0  0
  -16.1487   -5.1681    0.0000 C   0  0  0  0  0  0  0  0  0  0  0  0
  -15.6287   -6.5751    0.0000 C   0  0  0  0  0  0  0  0  0  0  0  0
  -14.9865   -7.9307    0.0000 C   0  0  0  0  0  0  0  0  0  0  0  0
  -14.2269   -9.2242    0.0000 C   0  0  0  0  0  0  0  0  0  0  0  0
  -13.3560  -10.4454    0.0000 C   0  0  0  0  0  0  0  0  0  0  0  0
  -12.3806  -11.5850    0.0000 C   0  0  0  0  0  0  0  0  0  0  0  0
  -11.3082  -12.6338    0.0000 C   0  0  0  0  0  0  0  0  0  0  0  0
  -10.1474  -13.5838    0.0000 C   0  0  0  0  0  0  0  0  0  0  0  0
   -8.9072  -14.4275    0.0000 C   0  0  0  0  0  0  0  0  0  0  0  0
   -7.5972  -15.1582    0.0000 C   0  0  0  0  0  0  0  0  0  0  0  0
   -6.2278  -15.7704    0.0000 C   0  0  0  0  0  0  0  0  0  0  0  0
   -4.8096  -16.2591    0.0000 C   0  0  0  0  0  0  0  0  0  0  0  0
   -3.3538  -16.6205    0.0000 C   0  0  0  0  0  0  0  0  0  0  0  0
   -1.8718  -16.8519    0.0000 C   0  0  0  0  0  0  0  0  0  0  0  0
   -0.3751  -16.9514    0.0000 C   0  0  0  0  0  0  0  0  0  0  0  0
    1.1245  -16.9182    0.0000 C   0  0  0  0  0  0  0  0  0  0  0  0
    2.6154  -16.7526    0.0000 C   0  0  0  0  0  0  0  0  0  0  0  0
    4.0857  -16.4559    0.0000 C   0  0  0  0  0  0  0  0  0  0  0  0
    5.5241  -16.0304    0.0000 C   0  0  0  0  0  0  0  0  0  0  0  0
    6.9193  -15.4795    0.0000 C   0  0  0  0  0  0  0  0  0  0  0  0
    8.2603  -14.8074    0.0000 C   0  0  0  0  0  0  0  0  0  0  0  0
    9.5366  -14.0194    0.0000 C   0  0  0  0  0  0  0  0  0  0  0  0
   10.7383  -13.1217    0.0000 C   0  0  0  0  0  0  0  0  0  0  0  0
   11.8560  -12.1213    0.0000 C   0  0  0  0  0  0  0  0  0  0  0  0
   12.8809  -11.0260    0.0000 C   0  0  0  0  0  0  0  0  0  0  0  0
   13.8050   -9.8444    0.0000 C   0  0  0  0  0  0  0  0  0  0  0  0
   14.6210   -8.5858    0.0000 C   0  0  0  0  0  0  0  0  0  0  0  0
   15.3226   -7.2600    0.0000 C   0  0  0  0  0  0  0  0  0  0  0  0
   15.9043   -5.8774    0.0000 C   0  0  0  0  0  0  0  0  0  0  0  0
   16.3615   -4.4488    0.0000 C   0  0  0  0  0  0  0  0  0  0  0  0
   16.6907   -2.9853    0.0000 C   0  0  0  0  0  0  0  0  0  0  0  0
   16.8892   -1.4985    0.0000 C   0  0  0  0  0  0  0  0  0  0  0  0
  1  2  1  0
  2  3  1  0
  3  4  2  0
  4  5  1  0
  5  6  2  0
  6  7  1  0
  7  8  2  0
  8  9  1  0
  9 10  2  0
 10 11  1  0
 11 12  2  0
 12 13  1  0
 13 14  1  0
 14 15  1  0
 15 16  1  0
 16 17  1  0
 17 18  1  0
 18 19  1  0
 19 20  1  0
 20 21  1  0
 21 22  1  0
 22 23  1  0
 23 24  1  0
 24 25  1  0
 25 26  1  0
 26 27  1  0
 27 28  1  0
 28 29  1  0
 29 30  1  0
 30 31  1  0
 31 32  1  0
 32 33  1  0
 33 34  1  0
 34 35  1  0
 35 36  1  0
 36 37  1  0
 37 38  1  0
 38 39  1  0
 39 40  1  0
 40 41  1  0
 41 42  1  0
 42 43  1  0
 43 44  1  0
 44 45  1  0
 45 46  1  0
 46 47  1  0
 47 48  1  0
 48 49  1  0
 49 50  1  0
 50 51  1  0
 51 52  1  0
 52 53  1  0
 53 54  1  0
 54 55  1  0
 55 56  1  0
 56 57  1  0
 57 58  1  0
 58 59  1  0
 59 60  1  0
 60 61  1  0
 61 62  1  0
 62 63  1  0
 63 64  1  0
 64 65  1  0
 65 66  1  0
 66 67  1  0
 67 68  1  0
 68 69  1  0
 69 70  1  0
 70 71  1  0
 71 72  1  0
 72  2  1  0
M  END
>  <Title>  (909) 
idABHEgen7

$$$$

     RDKit          2D

 22 22  0  0  0  0  0  0  0  0999 V2000
    6.5321    0.0000    0.0000 C   0  0  0  0  0  0  0  0  0  0  0  0
    5.0321    0.0000    0.0000 C   0  0  0  0  0  0  0  0  0  0  0  0
    4.8086    1.4832    0.0000 C   0  0  0  0  0  0  0  0  0  0  0  0
    4.1577    2.8347    0.0000 C   0  0  0  0  0  0  0  0  0  0  0  0
    3.1375    3.9343    0.0000 C   0  0  0  0  0  0  0  0  0  0  0  0
    1.8384    4.6843    0.0000 C   0  0  0  0  0  0  0  0  0  0  0  0
    0.3761    5.0181    0.0000 C   0  0  0  0  0  0  0  0  0  0  0  0
   -1.1198    4.9060    0.0000 C   0  0  0  0  0  0  0  0  0  0  0  0
   -2.5161    4.3580    0.0000 C   0  0  0  0  0  0  0  0  0  0  0  0
   -3.6888    3.4227    0.0000 C   0  0  0  0  0  0  0  0  0  0  0  0
   -4.5338    2.1834    0.0000 C   0  0  0  0  0  0  0  0  0  0  0  0
   -4.9759    0.7500    0.0000 C   0  0  0  0  0  0  0  0  0  0  0  0
   -4.9759   -0.7500    0.0000 C   0  0  0  0  0  0  0  0  0  0  0  0
   -4.5338   -2.1834    0.0000 C   0  0  0  0  0  0  0  0  0  0  0  0
   -3.6888   -3.4227    0.0000 C   0  0  0  0  0  0  0  0  0  0  0  0
   -2.5161   -4.3580    0.0000 C   0  0  0  0  0  0  0  0  0  0  0  0
   -1.1198   -4.9060    0.0000 C   0  0  0  0  0  0  0  0  0  0  0  0
    0.3761   -5.0181    0.0000 C   0  0  0  0  0  0  0  0  0  0  0  0
    1.8384   -4.6843    0.0000 C   0  0  0  0  0  0  0  0  0  0  0  0
    3.1375   -3.9343    0.0000 C   0  0  0  0  0  0  0  0  0  0  0  0
    4.1577   -2.8347    0.0000 C   0  0  0  0  0  0  0  0  0  0  0  0
    4.8086   -1.4832    0.0000 C   0  0  0  0  0  0  0  0  0  0  0  0
  1  2  1  0
  2  3  1  0
  3  4  1  0
  4  5  1  0
  5  6  1  0
  6  7  1  0
  7  8  1  0
  8  9  1  0
  9 10  1  0
 10 11  1  0
 11 12  1  0
 12 13  1  0
 13 14  1  0
 14 15  1  0
 15 16  1  0
 16 17  1  0
 17 18  1  0
 18 19  1  0
 19 20  1  0
 20 21  1  0
 21 22  1  0
 22  2  1  0
M  END
>  <Title>  (910) 
idABHFgen7

$$$$

     RDKit          2D

 32 32  0  0  0  0  0  0  0  0999 V2000
    7.6517    0.0000    0.0000 C   0  0  0  0  0  0  0  0  0  0  0  0
    7.5047   -1.4928    0.0000 C   0  0  0  0  0  0  0  0  0  0  0  0
    7.0693   -2.9282    0.0000 C   0  0  0  0  0  0  0  0  0  0  0  0
    6.3622   -4.2511    0.0000 C   0  0  0  0  0  0  0  0  0  0  0  0
    5.4106   -5.4106    0.0000 C   0  0  0  0  0  0  0  0  0  0  0  0
    4.2511   -6.3622    0.0000 C   0  0  0  0  0  0  0  0  0  0  0  0
    2.9282   -7.0693    0.0000 C   0  0  0  0  0  0  0  0  0  0  0  0
    1.4928   -7.5047    0.0000 C   0  0  0  0  0  0  0  0  0  0  0  0
   -0.0000   -7.6517    0.0000 C   0  0  0  0  0  0  0  0  0  0  0  0
   -1.4928   -7.5047    0.0000 C   0  0  0  0  0  0  0  0  0  0  0  0
   -2.9282   -7.0693    0.0000 C   0  0  0  0  0  0  0  0  0  0  0  0
   -4.2511   -6.3622    0.0000 C   0  0  0  0  0  0  0  0  0  0  0  0
   -5.4106   -5.4106    0.0000 C   0  0  0  0  0  0  0  0  0  0  0  0
   -6.3622   -4.2511    0.0000 C   0  0  0  0  0  0  0  0  0  0  0  0
   -7.0693   -2.9282    0.0000 C   0  0  0  0  0  0  0  0  0  0  0  0
   -7.5047   -1.4928    0.0000 C   0  0  0  0  0  0  0  0  0  0  0  0
   -7.6517    0.0000    0.0000 C   0  0  0  0  0  0  0  0  0  0  0  0
   -7.5047    1.4928    0.0000 C   0  0  0  0  0  0  0  0  0  0  0  0
   -7.0693    2.9282    0.0000 C   0  0  0  0  0  0  0  0  0  0  0  0
   -6.3622    4.2511    0.0000 C   0  0  0  0  0  0  0  0  0  0  0  0
   -5.4106    5.4106    0.0000 C   0  0  0  0  0  0  0  0  0  0  0  0
   -4.2511    6.3622    0.0000 C   0  0  0  0  0  0  0  0  0  0  0  0
   -2.9282    7.0693    0.0000 C   0  0  0  0  0  0  0  0  0  0  0  0
   -1.4928    7.5047    0.0000 C   0  0  0  0  0  0  0  0  0  0  0  0
    0.0000    7.6517    0.0000 C   0  0  0  0  0  0  0  0  0  0  0  0
    1.4928    7.5047    0.0000 C   0  0  0  0  0  0  0  0  0  0  0  0
    2.9282    7.0693    0.0000 C   0  0  0  0  0  0  0  0  0  0  0  0
    4.2511    6.3622    0.0000 C   0  0  0  0  0  0  0  0  0  0  0  0
    5.4106    5.4106    0.0000 C   0  0  0  0  0  0  0  0  0  0  0  0
    6.3622    4.2511    0.0000 C   0  0  0  0  0  0  0  0  0  0  0  0
    7.0693    2.9282    0.0000 C   0  0  0  0  0  0  0  0  0  0  0  0
    7.5047    1.4928    0.0000 C   0  0  0  0  0  0  0  0  0  0  0  0
  1  2  1  0
  2  3  1  0
  3  4  1  0
  4  5  1  0
  5  6  1  0
  6  7  1  0
  7  8  1  0
  8  9  1  0
  9 10  1  0
 10 11  1  0
 11 12  1  0
 12 13  1  0
 13 14  1  0
 14 15  1  0
 15 16  1  0
 16 17  1  0
 17 18  1  0
 18 19  1  0
 19 20  1  0
 20 21  1  0
 21 22  1  0
 22 23  1  0
 23 24  1  0
 24 25  1  0
 25 26  1  0
 26 27  1  0
 27 28  1  0
 28 29  1  0
 29 30  1  0
 30 31  1  0
 31 32  1  0
 32  1  1  0
M  END
>  <Title>  (911) 
idABHGgen7

$$$$

     RDKit          2D

  7  7  0  0  0  0  0  0  0  0999 V2000
    3.0000    0.0000    0.0000 C   0  0  0  0  0  0  0  0  0  0  0  0
    1.5000    0.0000    0.0000 C   0  0  0  0  0  0  0  0  0  0  0  0
    0.7500   -1.2990    0.0000 C   0  0  0  0  0  0  0  0  0  0  0  0
   -0.7500   -1.2990    0.0000 C   0  0  0  0  0  0  0  0  0  0  0  0
   -1.5000    0.0000    0.0000 C   0  0  0  0  0  0  0  0  0  0  0  0
   -0.7500    1.2990    0.0000 C   0  0  0  0  0  0  0  0  0  0  0  0
    0.7500    1.2990    0.0000 C   0  0  0  0  0  0  0  0  0  0  0  0
  1  2  1  0
  2  3  2  0
  3  4  1  0
  4  5  1  0
  5  6  1  0
  6  7  2  0
  7  2  1  0
M  END
>  <Title>  (912) 
idABHHgen7

$$$$

     RDKit          2D

 87 88  0  0  0  0  0  0  0  0999 V2000
    5.8506   -8.3915    0.0000 C   0  0  0  0  0  0  0  0  0  0  0  0
    4.4121   -8.8166    0.0000 C   0  0  0  0  0  0  0  0  0  0  0  0
    3.9322   -7.3955    0.0000 C   0  0  0  0  0  0  0  0  0  0  0  0
    3.3450   -6.0152    0.0000 C   0  0  0  0  0  0  0  0  0  0  0  0
    2.6538   -4.6840    0.0000 C   0  0  0  0  0  0  0  0  0  0  0  0
    3.9576   -3.9423    0.0000 O   0  0  0  0  0  0  0  0  0  0  0  0
    1.8627   -3.4095    0.0000 C   0  0  0  0  0  0  0  0  0  0  0  0
    0.9764   -2.1994    0.0000 C   0  0  0  0  0  0  0  0  0  0  0  0
   -0.0000   -1.0607    0.0000 C   0  0  0  0  0  0  0  0  0  0  0  0
    1.0607    0.0000    0.0000 N   0  0  0  0  0  0  0  0  0  0  0  0
    0.0000    1.0607    0.0000 C   0  0  0  0  0  0  0  0  0  0  0  0
    0.0000    2.5607    0.0000 O   0  0  0  0  0  0  0  0  0  0  0  0
   -1.0607    0.0000    0.0000 C   0  0  0  0  0  0  0  0  0  0  0  0
   -2.1994    0.9764    0.0000 C   0  0  0  0  0  0  0  0  0  0  0  0
   -3.4095    1.8627    0.0000 C   0  0  0  0  0  0  0  0  0  0  0  0
   -4.6840    2.6538    0.0000 C   0  0  0  0  0  0  0  0  0  0  0  0
   -6.0152    3.3450    0.0000 C   0  0  0  0  0  0  0  0  0  0  0  0
   -7.3955    3.9322    0.0000 C   0  0  0  0  0  0  0  0  0  0  0  0
   -8.8166    4.4121    0.0000 C   0  0  0  0  0  0  0  0  0  0  0  0
  -10.2704    4.7818    0.0000 C   0  0  0  0  0  0  0  0  0  0  0  0
  -11.7481    5.0392    0.0000 C   0  0  0  0  0  0  0  0  0  0  0  0
  -13.2413    5.1826    0.0000 C   0  0  0  0  0  0  0  0  0  0  0  0
  -14.7410    5.2113    0.0000 C   0  0  0  0  0  0  0  0  0  0  0  0
  -16.2385    5.1252    0.0000 C   0  0  0  0  0  0  0  0  0  0  0  0
  -17.7250    4.9246    0.0000 C   0  0  0  0  0  0  0  0  0  0  0  0
  -19.1919    4.6109    0.0000 C   0  0  0  0  0  0  0  0  0  0  0  0
  -20.6304    4.1858    0.0000 C   0  0  0  0  0  0  0  0  0  0  0  0
  -22.0321    3.6518    0.0000 C   0  0  0  0  0  0  0  0  0  0  0  0
  -23.3889    3.0121    0.0000 C   0  0  0  0  0  0  0  0  0  0  0  0
  -24.6927    2.2704    0.0000 C   0  0  0  0  0  0  0  0  0  0  0  0
  -25.9359    1.4311    0.0000 C   0  0  0  0  0  0  0  0  0  0  0  0
  -27.1112    0.4991    0.0000 C   0  0  0  0  0  0  0  0  0  0  0  0
  -28.2117   -0.5202    0.0000 C   0  0  0  0  0  0  0  0  0  0  0  0
  -29.2309   -1.6207    0.0000 C   0  0  0  0  0  0  0  0  0  0  0  0
  -30.1629   -2.7960    0.0000 C   0  0  0  0  0  0  0  0  0  0  0  0
  -31.0023   -4.0392    0.0000 C   0  0  0  0  0  0  0  0  0  0  0  0
  -31.7440   -5.3430    0.0000 C   0  0  0  0  0  0  0  0  0  0  0  0
  -32.3837   -6.6997    0.0000 C   0  0  0  0  0  0  0  0  0  0  0  0
  -32.9176   -8.1015    0.0000 C   0  0  0  0  0  0  0  0  0  0  0  0
  -33.3427   -9.5400    0.0000 C   0  0  0  0  0  0  0  0  0  0  0  0
  -33.6565  -11.0068    0.0000 C   0  0  0  0  0  0  0  0  0  0  0  0
  -33.8570  -12.4933    0.0000 C   0  0  0  0  0  0  0  0  0  0  0  0
  -33.9432  -13.9909    0.0000 C   0  0  0  0  0  0  0  0  0  0  0  0
  -33.9144  -15.4906    0.0000 C   0  0  0  0  0  0  0  0  0  0  0  0
  -33.7710  -16.9837    0.0000 C   0  0  0  0  0  0  0  0  0  0  0  0
  -33.5137  -18.4615    0.0000 C   0  0  0  0  0  0  0  0  0  0  0  0
  -33.1440  -19.9152    0.0000 C   0  0  0  0  0  0  0  0  0  0  0  0
  -32.6641  -21.3364    0.0000 C   0  0  0  0  0  0  0  0  0  0  0  0
  -32.0768  -22.7166    0.0000 C   0  0  0  0  0  0  0  0  0  0  0  0
  -31.3856  -24.0479    0.0000 C   0  0  0  0  0  0  0  0  0  0  0  0
  -30.5945  -25.3223    0.0000 C   0  0  0  0  0  0  0  0  0  0  0  0
  -29.7082  -26.5324    0.0000 C   0  0  0  0  0  0  0  0  0  0  0  0
  -28.7318  -27.6712    0.0000 C   0  0  0  0  0  0  0  0  0  0  0  0
  -27.6712  -28.7318    0.0000 C   0  0  0  0  0  0  0  0  0  0  0  0
  -26.5324  -29.7082    0.0000 C   0  0  0  0  0  0  0  0  0  0  0  0
  -25.3223  -30.5945    0.0000 C   0  0  0  0  0  0  0  0  0  0  0  0
  -24.0479  -31.3856    0.0000 C   0  0  0  0  0  0  0  0  0  0  0  0
  -22.7166  -32.0768    0.0000 C   0  0  0  0  0  0  0  0  0  0  0  0
  -21.3364  -32.6641    0.0000 C   0  0  0  0  0  0  0  0  0  0  0  0
  -19.9152  -33.1440    0.0000 C   0  0  0  0  0  0  0  0  0  0  0  0
  -18.4615  -33.5137    0.0000 C   0  0  0  0  0  0  0  0  0  0  0  0
  -16.9837  -33.7710    0.0000 C   0  0  0  0  0  0  0  0  0  0  0  0
  -15.4906  -33.9144    0.0000 C   0  0  0  0  0  0  0  0  0  0  0  0
  -13.9909  -33.9432    0.0000 C   0  0  0  0  0  0  0  0  0  0  0  0
  -12.4933  -33.8570    0.0000 C   0  0  0  0  0  0  0  0  0  0  0  0
  -11.0068  -33.6565    0.0000 C   0  0  0  0  0  0  0  0  0  0  0  0
   -9.5400  -33.3427    0.0000 C   0  0  0  0  0  0  0  0  0  0  0  0
   -8.1015  -32.9176    0.0000 C   0  0  0  0  0  0  0  0  0  0  0  0
   -6.6997  -32.3837    0.0000 C   0  0  0  0  0  0  0  0  0  0  0  0
   -5.3430  -31.7440    0.0000 C   0  0  0  0  0  0  0  0  0  0  0  0
   -4.0392  -31.0023    0.0000 C   0  0  0  0  0  0  0  0  0  0  0  0
   -2.7960  -30.1629    0.0000 C   0  0  0  0  0  0  0  0  0  0  0  0
   -1.6207  -29.2309    0.0000 C   0  0  0  0  0  0  0  0  0  0  0  0
   -0.5202  -28.2117    0.0000 C   0  0  0  0  0  0  0  0  0  0  0  0
    0.4991  -27.1112    0.0000 C   0  0  0  0  0  0  0  0  0  0  0  0
    1.4311  -25.9359    0.0000 C   0  0  0  0  0  0  0  0  0  0  0  0
    2.2704  -24.6927    0.0000 C   0  0  0  0  0  0  0  0  0  0  0  0
    3.0121  -23.3889    0.0000 C   0  0  0  0  0  0  0  0  0  0  0  0
    3.6518  -22.0321    0.0000 C   0  0  0  0  0  0  0  0  0  0  0  0
    4.1858  -20.6304    0.0000 C   0  0  0  0  0  0  0  0  0  0  0  0
    4.6109  -19.1919    0.0000 C   0  0  0  0  0  0  0  0  0  0  0  0
    4.9246  -17.7250    0.0000 C   0  0  0  0  0  0  0  0  0  0  0  0
    5.1252  -16.2385    0.0000 C   0  0  0  0  0  0  0  0  0  0  0  0
    5.2113  -14.7410    0.0000 C   0  0  0  0  0  0  0  0  0  0  0  0
    5.1826  -13.2413    0.0000 C   0  0  0  0  0  0  0  0  0  0  0  0
    5.0392  -11.7481    0.0000 C   0  0  0  0  0  0  0  0  0  0  0  0
    4.7818  -10.2704    0.0000 C   0  0  0  0  0  0  0  0  0  0  0  0
  1  2  1  0
  2  3  1  0
  3  4  2  0
  4  5  1  0
  5  6  1  0
  5  7  2  0
  7  8  1  0
  8  9  2  0
  9 10  1  0
 10 11  1  0
 11 12  2  0
 11 13  1  0
 13 14  2  0
 14 15  1  0
 15 16  2  0
 16 17  1  0
 17 18  2  0
 18 19  1  0
 19 20  2  0
 20 21  1  0
 21 22  2  0
 22 23  1  0
 23 24  2  0
 24 25  1  0
 25 26  2  0
 26 27  1  0
 27 28  2  0
 28 29  1  0
 29 30  2  0
 30 31  1  0
 31 32  2  0
 32 33  1  0
 33 34  2  0
 34 35  1  0
 35 36  2  0
 36 37  1  0
 37 38  1  0
 38 39  1  0
 39 40  1  0
 40 41  1  0
 41 42  1  0
 42 43  1  0
 43 44  1  0
 44 45  1  0
 45 46  1  0
 46 47  1  0
 47 48  1  0
 48 49  1  0
 49 50  1  0
 50 51  1  0
 51 52  1  0
 52 53  1  0
 53 54  1  0
 54 55  1  0
 55 56  1  0
 56 57  1  0
 57 58  1  0
 58 59  1  0
 59 60  1  0
 60 61  1  0
 61 62  1  0
 62 63  1  0
 63 64  1  0
 64 65  1  0
 65 66  1  0
 66 67  1  0
 67 68  1  0
 68 69  1  0
 69 70  1  0
 70 71  1  0
 71 72  1  0
 72 73  1  0
 73 74  1  0
 74 75  1  0
 75 76  1  0
 76 77  1  0
 77 78  1  0
 78 79  1  0
 79 80  1  0
 80 81  1  0
 81 82  1  0
 82 83  1  0
 83 84  1  0
 84 85  1  0
 85 86  1  0
 86 87  1  0
 87  2  1  0
 13  9  1  0
M  END
>  <Title>  (913) 
idABHIgen7

$$$$

     RDKit          2D

 18 19  0  0  0  0  0  0  0  0999 V2000
    4.4315    3.4734    0.0000 C   0  0  0  0  0  0  0  0  0  0  0  0
    3.4962    2.3006    0.0000 C   0  0  0  0  0  0  0  0  0  0  0  0
    2.0130    2.5242    0.0000 N   0  0  0  0  0  0  0  0  0  0  0  0
    1.0777    1.3515    0.0000 C   0  0  0  0  0  0  0  0  0  0  0  0
    1.7286    0.0000    0.0000 C   0  0  0  0  0  0  0  0  0  0  0  0
    1.0777   -1.3515    0.0000 C   0  0  0  0  0  0  0  0  0  0  0  0
   -0.3846   -1.6852    0.0000 C   0  0  0  0  0  0  0  0  0  0  0  0
   -1.5574   -0.7500    0.0000 C   0  0  0  0  0  0  0  0  0  0  0  0
   -2.9088   -1.4008    0.0000 O   0  0  0  0  0  0  0  0  0  0  0  0
   -1.5574    0.7500    0.0000 C   0  0  0  0  0  0  0  0  0  0  0  0
   -0.3846    1.6852    0.0000 C   0  0  0  0  0  0  0  0  0  0  0  0
    4.0442    0.9043    0.0000 C   0  0  0  0  0  0  0  0  0  0  0  0
    3.1090   -0.2684    0.0000 O   0  0  0  0  0  0  0  0  0  0  0  0
    5.5275    0.6808    0.0000 C   0  0  0  0  0  0  0  0  0  0  0  0
    6.5802    1.7493    0.0000 C   0  0  0  0  0  0  0  0  0  0  0  0
    7.9217    1.0784    0.0000 C   0  0  0  0  0  0  0  0  0  0  0  0
    7.6982   -0.4049    0.0000 C   0  0  0  0  0  0  0  0  0  0  0  0
    6.2185   -0.6506    0.0000 C   0  0  0  0  0  0  0  0  0  0  0  0
  1  2  2  0
  2  3  1  0
  3  4  1  0
  4  5  2  0
  5  6  1  0
  6  7  1  0
  7  8  1  0
  8  9  1  0
  8 10  1  0
 10 11  2  0
  2 12  1  0
 12 13  2  0
 12 14  1  0
 14 15  1  0
 15 16  1  0
 16 17  1  0
 17 18  1  0
 11  4  1  0
 18 14  1  0
M  END
>  <Title>  (914) 
idABHJgen7

$$$$

     RDKit          2D

  8  8  0  0  0  0  0  0  0  0999 V2000
    3.2286   -0.0000    0.0000 C   0  0  0  0  0  0  0  0  0  0  0  0
    1.7286    0.0000    0.0000 C   0  0  0  0  0  0  0  0  0  0  0  0
    1.0777    1.3515    0.0000 C   0  0  0  0  0  0  0  0  0  0  0  0
   -0.3846    1.6852    0.0000 C   0  0  0  0  0  0  0  0  0  0  0  0
   -1.5574    0.7500    0.0000 C   0  0  0  0  0  0  0  0  0  0  0  0
   -1.5574   -0.7500    0.0000 C   0  0  0  0  0  0  0  0  0  0  0  0
   -0.3846   -1.6852    0.0000 C   0  0  0  0  0  0  0  0  0  0  0  0
    1.0777   -1.3515    0.0000 C   0  0  0  0  0  0  0  0  0  0  0  0
  1  2  1  0
  2  3  1  0
  3  4  1  0
  4  5  1  0
  5  6  1  0
  6  7  1  0
  7  8  1  0
  8  2  1  0
M  END
>  <Title>  (915) 
idABHKgen7

$$$$

     RDKit          2D

 21 23  0  0  0  0  0  0  0  0999 V2000
   -3.1476   -2.1380    0.0000 C   0  0  0  0  0  0  0  0  0  0  0  0
   -1.6852   -2.4718    0.0000 C   0  0  0  0  0  0  0  0  0  0  0  0
   -1.3515   -3.9342    0.0000 C   0  0  0  0  0  0  0  0  0  0  0  0
   -0.0000   -4.5850    0.0000 C   0  0  0  0  0  0  0  0  0  0  0  0
    1.3515   -3.9342    0.0000 C   0  0  0  0  0  0  0  0  0  0  0  0
    1.6852   -2.4718    0.0000 C   0  0  0  0  0  0  0  0  0  0  0  0
    3.1476   -2.1380    0.0000 C   0  0  0  0  0  0  0  0  0  0  0  0
    3.5898   -0.7046    0.0000 O   0  0  0  0  0  0  0  0  0  0  0  0
    4.1679   -3.2376    0.0000 N   0  0  0  0  0  0  0  0  0  0  0  0
    5.6303   -2.9038    0.0000 C   0  0  0  0  0  0  0  0  0  0  0  0
    6.6505   -4.0034    0.0000 N   0  0  0  0  0  0  0  0  0  0  0  0
    8.1129   -3.6696    0.0000 N   0  0  0  0  0  0  0  0  0  0  0  0
    8.5551   -2.2362    0.0000 N   0  0  0  0  0  0  0  0  0  0  0  0
    7.5348   -1.1367    0.0000 N   0  0  0  0  0  0  0  0  0  0  0  0
    6.0724   -1.4704    0.0000 N   0  0  0  0  0  0  0  0  0  0  0  0
    0.7500   -1.2990    0.0000 C   0  0  0  0  0  0  0  0  0  0  0  0
    1.5000    0.0000    0.0000 C   0  0  0  0  0  0  0  0  0  0  0  0
    0.7500    1.2990    0.0000 C   0  0  0  0  0  0  0  0  0  0  0  0
   -0.7500    1.2990    0.0000 C   0  0  0  0  0  0  0  0  0  0  0  0
   -1.5000    0.0000    0.0000 C   0  0  0  0  0  0  0  0  0  0  0  0
   -0.7500   -1.2990    0.0000 C   0  0  0  0  0  0  0  0  0  0  0  0
  1  2  1  0
  2  3  2  0
  3  4  1  0
  4  5  1  0
  5  6  2  0
  6  7  1  0
  7  8  2  0
  7  9  1  0
  9 10  1  0
 10 11  2  0
 11 12  1  0
 12 13  2  0
 13 14  1  0
 14 15  2  0
  6 16  1  0
 16 17  2  0
 17 18  1  0
 18 19  2  0
 19 20  1  0
 20 21  2  0
 21  2  1  0
 15 10  1  0
 21 16  1  0
M  END
>  <Title>  (916) 
idABHLgen7

$$$$

     RDKit          2D

 98 98  0  0  0  0  0  0  0  0999 V2000
   24.6611    0.0000    0.0000 C   0  0  0  0  0  0  0  0  0  0  0  0
   23.1611    0.0000    0.0000 C   0  0  0  0  0  0  0  0  0  0  0  0
   23.1125    1.4992    0.0000 C   0  0  0  0  0  0  0  0  0  0  0  0
   22.9670    2.9921    0.0000 C   0  0  0  0  0  0  0  0  0  0  0  0
   22.7252    4.4725    0.0000 C   0  0  0  0  0  0  0  0  0  0  0  0
   22.3880    5.9341    0.0000 C   0  0  0  0  0  0  0  0  0  0  0  0
   21.9569    7.3709    0.0000 C   0  0  0  0  0  0  0  0  0  0  0  0
   21.4338    8.7767    0.0000 C   0  0  0  0  0  0  0  0  0  0  0  0
   20.8207   10.1457    0.0000 C   0  0  0  0  0  0  0  0  0  0  0  0
   20.1203   11.4721    0.0000 C   0  0  0  0  0  0  0  0  0  0  0  0
   19.3355   12.7504    0.0000 C   0  0  0  0  0  0  0  0  0  0  0  0
   18.4696   13.9753    0.0000 C   0  0  0  0  0  0  0  0  0  0  0  0
   17.5263   15.1415    0.0000 C   0  0  0  0  0  0  0  0  0  0  0  0
   16.5094   16.2442    0.0000 C   0  0  0  0  0  0  0  0  0  0  0  0
   15.4233   17.2788    0.0000 C   0  0  0  0  0  0  0  0  0  0  0  0
   14.2725   18.2409    0.0000 C   0  0  0  0  0  0  0  0  0  0  0  0
   13.0619   19.1265    0.0000 C   0  0  0  0  0  0  0  0  0  0  0  0
   11.7964   19.9319    0.0000 C   0  0  0  0  0  0  0  0  0  0  0  0
   10.4815   20.6537    0.0000 C   0  0  0  0  0  0  0  0  0  0  0  0
    9.1226   21.2888    0.0000 C   0  0  0  0  0  0  0  0  0  0  0  0
    7.7254   21.8347    0.0000 C   0  0  0  0  0  0  0  0  0  0  0  0
    6.2959   22.2890    0.0000 C   0  0  0  0  0  0  0  0  0  0  0  0
    4.8399   22.6498    0.0000 C   0  0  0  0  0  0  0  0  0  0  0  0
    3.3637   22.9155    0.0000 C   0  0  0  0  0  0  0  0  0  0  0  0
    1.8733   23.0852    0.0000 C   0  0  0  0  0  0  0  0  0  0  0  0
    0.3750   23.1581    0.0000 C   0  0  0  0  0  0  0  0  0  0  0  0
   -1.1248   23.1338    0.0000 C   0  0  0  0  0  0  0  0  0  0  0  0
   -2.6198   23.0124    0.0000 C   0  0  0  0  0  0  0  0  0  0  0  0
   -4.1039   22.7946    0.0000 C   0  0  0  0  0  0  0  0  0  0  0  0
   -5.5708   22.4812    0.0000 C   0  0  0  0  0  0  0  0  0  0  0  0
   -7.0143   22.0734    0.0000 C   0  0  0  0  0  0  0  0  0  0  0  0
   -8.4284   21.5731    0.0000 C   0  0  0  0  0  0  0  0  0  0  0  0
   -9.8072   20.9823    0.0000 C   0  0  0  0  0  0  0  0  0  0  0  0
  -11.1448   20.3034    0.0000 C   0  0  0  0  0  0  0  0  0  0  0  0
  -12.4357   19.5395    0.0000 C   0  0  0  0  0  0  0  0  0  0  0  0
  -13.6744   18.6935    0.0000 C   0  0  0  0  0  0  0  0  0  0  0  0
  -14.8557   17.7692    0.0000 C   0  0  0  0  0  0  0  0  0  0  0  0
  -15.9748   16.7703    0.0000 C   0  0  0  0  0  0  0  0  0  0  0  0
  -17.0268   15.7011    0.0000 C   0  0  0  0  0  0  0  0  0  0  0  0
  -18.0074   14.5660    0.0000 C   0  0  0  0  0  0  0  0  0  0  0  0
  -18.9125   13.3699    0.0000 C   0  0  0  0  0  0  0  0  0  0  0  0
  -19.7383   12.1176    0.0000 C   0  0  0  0  0  0  0  0  0  0  0  0
  -20.4813   10.8146    0.0000 C   0  0  0  0  0  0  0  0  0  0  0  0
  -21.1383    9.4661    0.0000 C   0  0  0  0  0  0  0  0  0  0  0  0
  -21.7067    8.0780    0.0000 C   0  0  0  0  0  0  0  0  0  0  0  0
  -22.1841    6.6560    0.0000 C   0  0  0  0  0  0  0  0  0  0  0  0
  -22.5684    5.2061    0.0000 C   0  0  0  0  0  0  0  0  0  0  0  0
  -22.8581    3.7343    0.0000 C   0  0  0  0  0  0  0  0  0  0  0  0
  -23.0519    2.2469    0.0000 C   0  0  0  0  0  0  0  0  0  0  0  0
  -23.1489    0.7500    0.0000 C   0  0  0  0  0  0  0  0  0  0  0  0
  -23.1489   -0.7500    0.0000 C   0  0  0  0  0  0  0  0  0  0  0  0
  -23.0519   -2.2469    0.0000 C   0  0  0  0  0  0  0  0  0  0  0  0
  -22.8581   -3.7343    0.0000 C   0  0  0  0  0  0  0  0  0  0  0  0
  -22.5684   -5.2061    0.0000 C   0  0  0  0  0  0  0  0  0  0  0  0
  -22.1841   -6.6560    0.0000 C   0  0  0  0  0  0  0  0  0  0  0  0
  -21.7067   -8.0780    0.0000 C   0  0  0  0  0  0  0  0  0  0  0  0
  -21.1383   -9.4661    0.0000 C   0  0  0  0  0  0  0  0  0  0  0  0
  -20.4813  -10.8146    0.0000 C   0  0  0  0  0  0  0  0  0  0  0  0
  -19.7383  -12.1176    0.0000 C   0  0  0  0  0  0  0  0  0  0  0  0
  -18.9125  -13.3699    0.0000 C   0  0  0  0  0  0  0  0  0  0  0  0
  -18.0074  -14.5660    0.0000 C   0  0  0  0  0  0  0  0  0  0  0  0
  -17.0268  -15.7011    0.0000 C   0  0  0  0  0  0  0  0  0  0  0  0
  -15.9748  -16.7703    0.0000 C   0  0  0  0  0  0  0  0  0  0  0  0
  -14.8557  -17.7692    0.0000 C   0  0  0  0  0  0  0  0  0  0  0  0
  -13.6744  -18.6935    0.0000 C   0  0  0  0  0  0  0  0  0  0  0  0
  -12.4357  -19.5395    0.0000 C   0  0  0  0  0  0  0  0  0  0  0  0
  -11.1448  -20.3034    0.0000 C   0  0  0  0  0  0  0  0  0  0  0  0
   -9.8072  -20.9823    0.0000 C   0  0  0  0  0  0  0  0  0  0  0  0
   -8.4284  -21.5731    0.0000 C   0  0  0  0  0  0  0  0  0  0  0  0
   -7.0143  -22.0734    0.0000 C   0  0  0  0  0  0  0  0  0  0  0  0
   -5.5708  -22.4812    0.0000 C   0  0  0  0  0  0  0  0  0  0  0  0
   -4.1039  -22.7946    0.0000 C   0  0  0  0  0  0  0  0  0  0  0  0
   -2.6198  -23.0124    0.0000 C   0  0  0  0  0  0  0  0  0  0  0  0
   -1.1248  -23.1338    0.0000 C   0  0  0  0  0  0  0  0  0  0  0  0
    0.3750  -23.1581    0.0000 C   0  0  0  0  0  0  0  0  0  0  0  0
    1.8733  -23.0852    0.0000 C   0  0  0  0  0  0  0  0  0  0  0  0
    3.3637  -22.9155    0.0000 C   0  0  0  0  0  0  0  0  0  0  0  0
    4.8399  -22.6498    0.0000 C   0  0  0  0  0  0  0  0  0  0  0  0
    6.2959  -22.2890    0.0000 C   0  0  0  0  0  0  0  0  0  0  0  0
    7.7254  -21.8347    0.0000 C   0  0  0  0  0  0  0  0  0  0  0  0
    9.1226  -21.2888    0.0000 C   0  0  0  0  0  0  0  0  0  0  0  0
   10.4815  -20.6537    0.0000 C   0  0  0  0  0  0  0  0  0  0  0  0
   11.7964  -19.9319    0.0000 C   0  0  0  0  0  0  0  0  0  0  0  0
   13.0619  -19.1265    0.0000 C   0  0  0  0  0  0  0  0  0  0  0  0
   14.2725  -18.2409    0.0000 C   0  0  0  0  0  0  0  0  0  0  0  0
   15.4233  -17.2788    0.0000 C   0  0  0  0  0  0  0  0  0  0  0  0
   16.5094  -16.2442    0.0000 C   0  0  0  0  0  0  0  0  0  0  0  0
   17.5263  -15.1415    0.0000 C   0  0  0  0  0  0  0  0  0  0  0  0
   18.4696  -13.9753    0.0000 C   0  0  0  0  0  0  0  0  0  0  0  0
   19.3355  -12.7504    0.0000 C   0  0  0  0  0  0  0  0  0  0  0  0
   20.1203  -11.4721    0.0000 C   0  0  0  0  0  0  0  0  0  0  0  0
   20.8207  -10.1457    0.0000 C   0  0  0  0  0  0  0  0  0  0  0  0
   21.4338   -8.7767    0.0000 C   0  0  0  0  0  0  0  0  0  0  0  0
   21.9569   -7.3709    0.0000 C   0  0  0  0  0  0  0  0  0  0  0  0
   22.3880   -5.9341    0.0000 C   0  0  0  0  0  0  0  0  0  0  0  0
   22.7252   -4.4725    0.0000 C   0  0  0  0  0  0  0  0  0  0  0  0
   22.9670   -2.9921    0.0000 C   0  0  0  0  0  0  0  0  0  0  0  0
   23.1125   -1.4992    0.0000 C   0  0  0  0  0  0  0  0  0  0  0  0
  1  2  1  0
  2  3  1  0
  3  4  2  0
  4  5  1  0
  5  6  2  0
  6  7  1  0
  7  8  2  0
  8  9  1  0
  9 10  1  0
 10 11  1  0
 11 12  1  0
 12 13  1  0
 13 14  1  0
 14 15  1  0
 15 16  1  0
 16 17  1  0
 17 18  1  0
 18 19  1  0
 19 20  1  0
 20 21  1  0
 21 22  1  0
 22 23  1  0
 23 24  1  0
 24 25  1  0
 25 26  1  0
 26 27  1  0
 27 28  1  0
 28 29  1  0
 29 30  1  0
 30 31  1  0
 31 32  1  0
 32 33  1  0
 33 34  1  0
 34 35  1  0
 35 36  1  0
 36 37  1  0
 37 38  1  0
 38 39  1  0
 39 40  1  0
 40 41  1  0
 41 42  1  0
 42 43  1  0
 43 44  1  0
 44 45  1  0
 45 46  1  0
 46 47  1  0
 47 48  1  0
 48 49  1  0
 49 50  1  0
 50 51  1  0
 51 52  1  0
 52 53  1  0
 53 54  1  0
 54 55  1  0
 55 56  1  0
 56 57  1  0
 57 58  1  0
 58 59  1  0
 59 60  1  0
 60 61  1  0
 61 62  1  0
 62 63  1  0
 63 64  1  0
 64 65  1  0
 65 66  1  0
 66 67  1  0
 67 68  1  0
 68 69  1  0
 69 70  1  0
 70 71  1  0
 71 72  1  0
 72 73  1  0
 73 74  1  0
 74 75  1  0
 75 76  1  0
 76 77  1  0
 77 78  1  0
 78 79  1  0
 79 80  1  0
 80 81  1  0
 81 82  1  0
 82 83  1  0
 83 84  1  0
 84 85  1  0
 85 86  1  0
 86 87  1  0
 87 88  1  0
 88 89  1  0
 89 90  1  0
 90 91  1  0
 91 92  1  0
 92 93  1  0
 93 94  1  0
 94 95  1  0
 95 96  1  0
 96 97  1  0
 97 98  1  0
 98  2  1  0
M  END
>  <Title>  (917) 
idABHMgen7

$$$$

     RDKit          2D

 11 11  0  0  0  0  0  0  0  0999 V2000
    3.6929    0.0000    0.0000 C   0  0  0  0  0  0  0  0  0  0  0  0
    2.1929    0.0000    0.0000 C   0  0  0  0  0  0  0  0  0  0  0  0
    1.6798    1.4095    0.0000 C   0  0  0  0  0  0  0  0  0  0  0  0
    0.3808    2.1595    0.0000 C   0  0  0  0  0  0  0  0  0  0  0  0
   -1.0964    1.8991    0.0000 C   0  0  0  0  0  0  0  0  0  0  0  0
   -2.0606    0.7500    0.0000 C   0  0  0  0  0  0  0  0  0  0  0  0
   -2.0606   -0.7500    0.0000 C   0  0  0  0  0  0  0  0  0  0  0  0
   -1.0964   -1.8991    0.0000 C   0  0  0  0  0  0  0  0  0  0  0  0
    0.3808   -2.1595    0.0000 C   0  0  0  0  0  0  0  0  0  0  0  0
    0.6413   -3.6368    0.0000 C   0  0  0  0  0  0  0  0  0  0  0  0
    1.6798   -1.4095    0.0000 C   0  0  0  0  0  0  0  0  0  0  0  0
  1  2  1  0
  2  3  2  0
  3  4  1  0
  4  5  1  0
  5  6  2  0
  6  7  1  0
  7  8  1  0
  8  9  1  0
  9 10  1  0
  9 11  1  0
 11  2  1  0
M  END
>  <Title>  (918) 
idABHNgen7

$$$$

     RDKit          2D

 46 51  0  0  0  0  0  0  0  0999 V2000
   -2.8124  -12.6736    0.0000 C   0  0  0  0  0  0  0  0  0  0  0  0
   -2.1892  -11.3092    0.0000 C   0  0  0  0  0  0  0  0  0  0  0  0
   -0.7500  -11.7318    0.0000 C   0  0  0  0  0  0  0  0  0  0  0  0
    0.7500  -11.7318    0.0000 C   0  0  0  0  0  0  0  0  0  0  0  0
    2.1892  -11.3092    0.0000 C   0  0  0  0  0  0  0  0  0  0  0  0
    3.4511  -10.4982    0.0000 C   0  0  0  0  0  0  0  0  0  0  0  0
    4.4334   -9.3646    0.0000 C   0  0  0  0  0  0  0  0  0  0  0  0
    5.6953  -10.1755    0.0000 C   0  0  0  0  0  0  0  0  0  0  0  0
    5.6239  -11.6738    0.0000 C   0  0  0  0  0  0  0  0  0  0  0  0
    5.5525  -13.1721    0.0000 N   0  0  0  0  0  0  0  0  0  0  0  0
    5.0565   -8.0001    0.0000 C   0  0  0  0  0  0  0  0  0  0  0  0
    5.2700   -6.5154    0.0000 C   0  0  0  0  0  0  0  0  0  0  0  0
    5.0565   -5.0307    0.0000 C   0  0  0  0  0  0  0  0  0  0  0  0
    4.4334   -3.6662    0.0000 C   0  0  0  0  0  0  0  0  0  0  0  0
    3.4511   -2.5326    0.0000 C   0  0  0  0  0  0  0  0  0  0  0  0
    2.1892   -1.7216    0.0000 C   0  0  0  0  0  0  0  0  0  0  0  0
    0.7500   -1.2990    0.0000 C   0  0  0  0  0  0  0  0  0  0  0  0
    1.5000    0.0000    0.0000 C   0  0  0  0  0  0  0  0  0  0  0  0
    0.7500    1.2990    0.0000 C   0  0  0  0  0  0  0  0  0  0  0  0
   -0.7500    1.2990    0.0000 C   0  0  0  0  0  0  0  0  0  0  0  0
   -1.5000    0.0000    0.0000 C   0  0  0  0  0  0  0  0  0  0  0  0
   -0.7500   -1.2990    0.0000 C   0  0  0  0  0  0  0  0  0  0  0  0
   -2.1892   -1.7216    0.0000 C   0  0  0  0  0  0  0  0  0  0  0  0
   -2.2606   -0.2233    0.0000 C   0  0  0  0  0  0  0  0  0  0  0  0
   -3.5939    0.4640    0.0000 C   0  0  0  0  0  0  0  0  0  0  0  0
   -4.8557   -0.3470    0.0000 C   0  0  0  0  0  0  0  0  0  0  0  0
   -4.7844   -1.8453    0.0000 C   0  0  0  0  0  0  0  0  0  0  0  0
   -3.4511   -2.5326    0.0000 C   0  0  0  0  0  0  0  0  0  0  0  0
   -4.4334   -3.6662    0.0000 C   0  0  0  0  0  0  0  0  0  0  0  0
   -5.3035   -2.4444    0.0000 C   0  0  0  0  0  0  0  0  0  0  0  0
   -6.7967   -2.5869    0.0000 C   0  0  0  0  0  0  0  0  0  0  0  0
   -7.4198   -3.9514    0.0000 C   0  0  0  0  0  0  0  0  0  0  0  0
   -6.5497   -5.1733    0.0000 C   0  0  0  0  0  0  0  0  0  0  0  0
   -5.0565   -5.0307    0.0000 C   0  0  0  0  0  0  0  0  0  0  0  0
   -5.2700   -6.5154    0.0000 C   0  0  0  0  0  0  0  0  0  0  0  0
   -6.6626   -5.9579    0.0000 C   0  0  0  0  0  0  0  0  0  0  0  0
   -7.8416   -6.8851    0.0000 C   0  0  0  0  0  0  0  0  0  0  0  0
   -7.6282   -8.3699    0.0000 C   0  0  0  0  0  0  0  0  0  0  0  0
   -6.2356   -8.9274    0.0000 C   0  0  0  0  0  0  0  0  0  0  0  0
   -5.0565   -8.0001    0.0000 C   0  0  0  0  0  0  0  0  0  0  0  0
   -4.4334   -9.3646    0.0000 C   0  0  0  0  0  0  0  0  0  0  0  0
   -5.9063   -9.6485    0.0000 C   0  0  0  0  0  0  0  0  0  0  0  0
   -6.3969  -11.0660    0.0000 C   0  0  0  0  0  0  0  0  0  0  0  0
   -5.4146  -12.1996    0.0000 C   0  0  0  0  0  0  0  0  0  0  0  0
   -3.9417  -11.9157    0.0000 C   0  0  0  0  0  0  0  0  0  0  0  0
   -3.4511  -10.4982    0.0000 C   0  0  0  0  0  0  0  0  0  0  0  0
  1  2  1  0
  2  3  1  0
  3  4  2  0
  4  5  1  0
  5  6  1  0
  6  7  1  0
  7  8  1  0
  8  9  1  0
  9 10  3  0
  7 11  1  0
 11 12  1  0
 12 13  2  0
 13 14  1  0
 14 15  2  0
 15 16  1  0
 16 17  2  0
 17 18  1  0
 18 19  1  0
 19 20  2  0
 20 21  1  0
 21 22  2  0
 22 23  1  0
 23 24  2  0
 24 25  1  0
 25 26  2  0
 26 27  1  0
 27 28  2  0
 28 29  1  0
 29 30  2  0
 30 31  1  0
 31 32  2  0
 32 33  1  0
 33 34  2  0
 34 35  1  0
 35 36  2  0
 36 37  1  0
 37 38  2  0
 38 39  1  0
 39 40  2  0
 40 41  1  0
 41 42  2  0
 42 43  1  0
 43 44  2  0
 44 45  1  0
 45 46  2  0
 46  2  1  0
 22 17  1  0
 28 23  1  0
 34 29  1  0
 40 35  1  0
 46 41  1  0
M  END
>  <Title>  (919) 
idABHOgen7

$$$$

     RDKit          2D

 44 49  0  0  0  0  0  0  0  0999 V2000
   -3.7860   -5.5823    0.0000 C   0  0  0  0  0  0  0  0  0  0  0  0
   -2.4215   -4.9592    0.0000 C   0  0  0  0  0  0  0  0  0  0  0  0
   -1.4392   -6.0928    0.0000 C   0  0  0  0  0  0  0  0  0  0  0  0
   -0.0000   -6.5154    0.0000 C   0  0  0  0  0  0  0  0  0  0  0  0
    1.4392   -6.0928    0.0000 C   0  0  0  0  0  0  0  0  0  0  0  0
    2.4215   -4.9592    0.0000 C   0  0  0  0  0  0  0  0  0  0  0  0
    3.7860   -5.5823    0.0000 C   0  0  0  0  0  0  0  0  0  0  0  0
    5.0078   -4.7122    0.0000 O   0  0  0  0  0  0  0  0  0  0  0  0
    3.9286   -7.0755    0.0000 N   0  0  0  0  0  0  0  0  0  0  0  0
    5.2930   -7.6986    0.0000 C   0  0  0  0  0  0  0  0  0  0  0  0
    5.4356   -9.1918    0.0000 N   0  0  0  0  0  0  0  0  0  0  0  0
    6.8000   -9.8150    0.0000 N   0  0  0  0  0  0  0  0  0  0  0  0
    8.0219   -8.9449    0.0000 N   0  0  0  0  0  0  0  0  0  0  0  0
    7.8793   -7.4517    0.0000 N   0  0  0  0  0  0  0  0  0  0  0  0
    6.5149   -6.8285    0.0000 N   0  0  0  0  0  0  0  0  0  0  0  0
    2.6350   -3.4744    0.0000 C   0  0  0  0  0  0  0  0  0  0  0  0
    4.0903   -3.8380    0.0000 C   0  0  0  0  0  0  0  0  0  0  0  0
    5.2819   -2.9269    0.0000 C   0  0  0  0  0  0  0  0  0  0  0  0
    5.3125   -1.4272    0.0000 C   0  0  0  0  0  0  0  0  0  0  0  0
    6.6769   -0.8041    0.0000 C   0  0  0  0  0  0  0  0  0  0  0  0
    6.8195    0.6891    0.0000 O   0  0  0  0  0  0  0  0  0  0  0  0
    7.8988   -1.6741    0.0000 N   0  0  0  0  0  0  0  0  0  0  0  0
    9.2632   -1.0510    0.0000 C   0  0  0  0  0  0  0  0  0  0  0  0
   10.4851   -1.9211    0.0000 C   0  0  0  0  0  0  0  0  0  0  0  0
   11.8495   -1.2980    0.0000 C   0  0  0  0  0  0  0  0  0  0  0  0
   11.9921    0.1952    0.0000 C   0  0  0  0  0  0  0  0  0  0  0  0
   10.7703    1.0653    0.0000 C   0  0  0  0  0  0  0  0  0  0  0  0
    9.4058    0.4422    0.0000 C   0  0  0  0  0  0  0  0  0  0  0  0
    4.1590   -0.4682    0.0000 C   0  0  0  0  0  0  0  0  0  0  0  0
    4.5226    0.9871    0.0000 C   0  0  0  0  0  0  0  0  0  0  0  0
    2.6901   -0.7721    0.0000 C   0  0  0  0  0  0  0  0  0  0  0  0
    2.0119   -2.1100    0.0000 C   0  0  0  0  0  0  0  0  0  0  0  0
    0.7500   -1.2990    0.0000 C   0  0  0  0  0  0  0  0  0  0  0  0
    1.5000    0.0000    0.0000 C   0  0  0  0  0  0  0  0  0  0  0  0
    0.7500    1.2990    0.0000 C   0  0  0  0  0  0  0  0  0  0  0  0
   -0.7500    1.2990    0.0000 C   0  0  0  0  0  0  0  0  0  0  0  0
   -1.5000    0.0000    0.0000 C   0  0  0  0  0  0  0  0  0  0  0  0
   -0.7500   -1.2990    0.0000 C   0  0  0  0  0  0  0  0  0  0  0  0
   -2.0119   -2.1100    0.0000 C   0  0  0  0  0  0  0  0  0  0  0  0
   -2.8820   -0.8881    0.0000 C   0  0  0  0  0  0  0  0  0  0  0  0
   -4.3752   -1.0307    0.0000 C   0  0  0  0  0  0  0  0  0  0  0  0
   -4.9983   -2.3952    0.0000 C   0  0  0  0  0  0  0  0  0  0  0  0
   -4.1282   -3.6170    0.0000 C   0  0  0  0  0  0  0  0  0  0  0  0
   -2.6350   -3.4744    0.0000 C   0  0  0  0  0  0  0  0  0  0  0  0
  1  2  1  0
  2  3  2  0
  3  4  1  0
  4  5  1  0
  5  6  1  0
  6  7  1  0
  7  8  2  0
  7  9  1  0
  9 10  1  0
 10 11  2  0
 11 12  1  0
 12 13  2  0
 13 14  1  0
 14 15  2  0
  6 16  1  0
 16 17  2  0
 17 18  1  0
 18 19  2  0
 19 20  1  0
 20 21  2  0
 20 22  1  0
 22 23  1  0
 23 24  2  0
 24 25  1  0
 25 26  2  0
 26 27  1  0
 27 28  2  0
 19 29  1  0
 29 30  1  0
 29 31  1  0
 31 32  2  0
 32 33  1  0
 33 34  2  0
 34 35  1  0
 35 36  2  0
 36 37  1  0
 37 38  2  0
 38 39  1  0
 39 40  2  0
 40 41  1  0
 41 42  2  0
 42 43  1  0
 43 44  2  0
 44  2  1  0
 15 10  1  0
 32 16  1  0
 38 33  1  0
 44 39  1  0
 28 23  1  0
M  END
>  <Title>  (920) 
idABHPgen7

$$$$

     RDKit          2D

  7  7  0  0  0  0  0  0  0  0999 V2000
    2.3907    1.0037    0.0000 C   0  0  0  0  0  0  0  0  0  0  0  0
    1.2760    0.0000    0.0000 C   0  0  0  0  0  0  0  0  0  0  0  0
    2.3907   -1.0037    0.0000 C   0  0  0  0  0  0  0  0  0  0  0  0
    0.3943    1.2135    0.0000 C   0  0  0  0  0  0  0  0  0  0  0  0
   -1.0323    0.7500    0.0000 C   0  0  0  0  0  0  0  0  0  0  0  0
   -1.0323   -0.7500    0.0000 C   0  0  0  0  0  0  0  0  0  0  0  0
    0.3943   -1.2135    0.0000 C   0  0  0  0  0  0  0  0  0  0  0  0
  1  2  1  0
  2  3  1  0
  2  4  1  0
  4  5  1  0
  5  6  2  0
  6  7  1  0
  7  2  1  0
M  END
>  <Title>  (921) 
idABHQgen7

$$$$

     RDKit          2D

 77 77  0  0  0  0  0  0  0  0999 V2000
   19.6488    0.0000    0.0000 C   0  0  0  0  0  0  0  0  0  0  0  0
   18.1488    0.0000    0.0000 C   0  0  0  0  0  0  0  0  0  0  0  0
   18.0868   -1.4987    0.0000 C   0  0  0  0  0  0  0  0  0  0  0  0
   17.9013   -2.9872    0.0000 C   0  0  0  0  0  0  0  0  0  0  0  0
   17.5935   -4.4553    0.0000 C   0  0  0  0  0  0  0  0  0  0  0  0
   17.1655   -5.8929    0.0000 C   0  0  0  0  0  0  0  0  0  0  0  0
   16.6202   -7.2903    0.0000 C   0  0  0  0  0  0  0  0  0  0  0  0
   15.9614   -8.6379    0.0000 C   0  0  0  0  0  0  0  0  0  0  0  0
   15.1936   -9.9265    0.0000 C   0  0  0  0  0  0  0  0  0  0  0  0
   14.3220  -11.1472    0.0000 C   0  0  0  0  0  0  0  0  0  0  0  0
   13.3525  -12.2919    0.0000 C   0  0  0  0  0  0  0  0  0  0  0  0
   12.2919  -13.3525    0.0000 C   0  0  0  0  0  0  0  0  0  0  0  0
   11.1472  -14.3220    0.0000 C   0  0  0  0  0  0  0  0  0  0  0  0
    9.9265  -15.1936    0.0000 C   0  0  0  0  0  0  0  0  0  0  0  0
    8.6379  -15.9614    0.0000 C   0  0  0  0  0  0  0  0  0  0  0  0
    7.2903  -16.6202    0.0000 C   0  0  0  0  0  0  0  0  0  0  0  0
    5.8929  -17.1655    0.0000 C   0  0  0  0  0  0  0  0  0  0  0  0
    4.4553  -17.5935    0.0000 C   0  0  0  0  0  0  0  0  0  0  0  0
    2.9872  -17.9013    0.0000 C   0  0  0  0  0  0  0  0  0  0  0  0
    1.4987  -18.0868    0.0000 C   0  0  0  0  0  0  0  0  0  0  0  0
   -0.0000  -18.1488    0.0000 C   0  0  0  0  0  0  0  0  0  0  0  0
   -1.4987  -18.0868    0.0000 C   0  0  0  0  0  0  0  0  0  0  0  0
   -2.9872  -17.9013    0.0000 C   0  0  0  0  0  0  0  0  0  0  0  0
   -4.4553  -17.5935    0.0000 C   0  0  0  0  0  0  0  0  0  0  0  0
   -5.8929  -17.1655    0.0000 C   0  0  0  0  0  0  0  0  0  0  0  0
   -7.2903  -16.6202    0.0000 C   0  0  0  0  0  0  0  0  0  0  0  0
   -8.6379  -15.9614    0.0000 C   0  0  0  0  0  0  0  0  0  0  0  0
   -9.9265  -15.1936    0.0000 C   0  0  0  0  0  0  0  0  0  0  0  0
  -11.1472  -14.3220    0.0000 C   0  0  0  0  0  0  0  0  0  0  0  0
  -12.2919  -13.3525    0.0000 C   0  0  0  0  0  0  0  0  0  0  0  0
  -13.3525  -12.2919    0.0000 C   0  0  0  0  0  0  0  0  0  0  0  0
  -14.3220  -11.1472    0.0000 C   0  0  0  0  0  0  0  0  0  0  0  0
  -15.1936   -9.9265    0.0000 C   0  0  0  0  0  0  0  0  0  0  0  0
  -15.9614   -8.6379    0.0000 C   0  0  0  0  0  0  0  0  0  0  0  0
  -16.6202   -7.2903    0.0000 C   0  0  0  0  0  0  0  0  0  0  0  0
  -17.1655   -5.8929    0.0000 C   0  0  0  0  0  0  0  0  0  0  0  0
  -17.5935   -4.4553    0.0000 C   0  0  0  0  0  0  0  0  0  0  0  0
  -17.9013   -2.9872    0.0000 C   0  0  0  0  0  0  0  0  0  0  0  0
  -18.0868   -1.4987    0.0000 C   0  0  0  0  0  0  0  0  0  0  0  0
  -18.1488    0.0000    0.0000 C   0  0  0  0  0  0  0  0  0  0  0  0
  -18.0868    1.4987    0.0000 C   0  0  0  0  0  0  0  0  0  0  0  0
  -17.9013    2.9872    0.0000 C   0  0  0  0  0  0  0  0  0  0  0  0
  -17.5935    4.4553    0.0000 C   0  0  0  0  0  0  0  0  0  0  0  0
  -17.1655    5.8929    0.0000 C   0  0  0  0  0  0  0  0  0  0  0  0
  -16.6202    7.2903    0.0000 C   0  0  0  0  0  0  0  0  0  0  0  0
  -15.9614    8.6379    0.0000 C   0  0  0  0  0  0  0  0  0  0  0  0
  -15.1936    9.9265    0.0000 C   0  0  0  0  0  0  0  0  0  0  0  0
  -14.3220   11.1472    0.0000 C   0  0  0  0  0  0  0  0  0  0  0  0
  -13.3525   12.2919    0.0000 C   0  0  0  0  0  0  0  0  0  0  0  0
  -12.2919   13.3525    0.0000 C   0  0  0  0  0  0  0  0  0  0  0  0
  -11.1472   14.3220    0.0000 C   0  0  0  0  0  0  0  0  0  0  0  0
   -9.9265   15.1936    0.0000 C   0  0  0  0  0  0  0  0  0  0  0  0
   -8.6379   15.9614    0.0000 C   0  0  0  0  0  0  0  0  0  0  0  0
   -7.2903   16.6202    0.0000 C   0  0  0  0  0  0  0  0  0  0  0  0
   -5.8929   17.1655    0.0000 C   0  0  0  0  0  0  0  0  0  0  0  0
   -4.4553   17.5935    0.0000 C   0  0  0  0  0  0  0  0  0  0  0  0
   -2.9872   17.9013    0.0000 C   0  0  0  0  0  0  0  0  0  0  0  0
   -1.4987   18.0868    0.0000 C   0  0  0  0  0  0  0  0  0  0  0  0
    0.0000   18.1488    0.0000 C   0  0  0  0  0  0  0  0  0  0  0  0
    1.4987   18.0868    0.0000 C   0  0  0  0  0  0  0  0  0  0  0  0
    2.9872   17.9013    0.0000 C   0  0  0  0  0  0  0  0  0  0  0  0
    4.4553   17.5935    0.0000 C   0  0  0  0  0  0  0  0  0  0  0  0
    5.8929   17.1655    0.0000 C   0  0  0  0  0  0  0  0  0  0  0  0
    7.2903   16.6202    0.0000 C   0  0  0  0  0  0  0  0  0  0  0  0
    8.6379   15.9614    0.0000 C   0  0  0  0  0  0  0  0  0  0  0  0
    9.9265   15.1936    0.0000 C   0  0  0  0  0  0  0  0  0  0  0  0
   11.1472   14.3220    0.0000 C   0  0  0  0  0  0  0  0  0  0  0  0
   12.2919   13.3525    0.0000 C   0  0  0  0  0  0  0  0  0  0  0  0
   13.3525   12.2919    0.0000 C   0  0  0  0  0  0  0  0  0  0  0  0
   14.3220   11.1472    0.0000 C   0  0  0  0  0  0  0  0  0  0  0  0
   15.1936    9.9265    0.0000 C   0  0  0  0  0  0  0  0  0  0  0  0
   15.9614    8.6379    0.0000 C   0  0  0  0  0  0  0  0  0  0  0  0
   16.6202    7.2903    0.0000 C   0  0  0  0  0  0  0  0  0  0  0  0
   17.1655    5.8929    0.0000 C   0  0  0  0  0  0  0  0  0  0  0  0
   17.5935    4.4553    0.0000 C   0  0  0  0  0  0  0  0  0  0  0  0
   17.9013    2.9872    0.0000 C   0  0  0  0  0  0  0  0  0  0  0  0
   18.0868    1.4987    0.0000 C   0  0  0  0  0  0  0  0  0  0  0  0
  1  2  1  0
  2  3  1  0
  3  4  2  0
  4  5  1  0
  5  6  2  0
  6  7  1  0
  7  8  2  0
  8  9  1  0
  9 10  2  0
 10 11  1  0
 11 12  2  0
 12 13  1  0
 13 14  2  0
 14 15  1  0
 15 16  2  0
 16 17  1  0
 17 18  2  0
 18 19  1  0
 19 20  2  0
 20 21  1  0
 21 22  1  0
 22 23  1  0
 23 24  1  0
 24 25  1  0
 25 26  1  0
 26 27  1  0
 27 28  1  0
 28 29  1  0
 29 30  1  0
 30 31  1  0
 31 32  1  0
 32 33  1  0
 33 34  1  0
 34 35  1  0
 35 36  1  0
 36 37  1  0
 37 38  1  0
 38 39  1  0
 39 40  1  0
 40 41  1  0
 41 42  1  0
 42 43  1  0
 43 44  1  0
 44 45  1  0
 45 46  1  0
 46 47  1  0
 47 48  1  0
 48 49  1  0
 49 50  1  0
 50 51  1  0
 51 52  1  0
 52 53  1  0
 53 54  1  0
 54 55  1  0
 55 56  1  0
 56 57  1  0
 57 58  1  0
 58 59  1  0
 59 60  1  0
 60 61  1  0
 61 62  1  0
 62 63  1  0
 63 64  1  0
 64 65  1  0
 65 66  1  0
 66 67  1  0
 67 68  1  0
 68 69  1  0
 69 70  1  0
 70 71  1  0
 71 72  1  0
 72 73  1  0
 73 74  1  0
 74 75  1  0
 75 76  1  0
 76 77  1  0
 77  2  1  0
M  END
>  <Title>  (922) 
idABHRgen7

$$$$

     RDKit          2D

 34 38  0  0  0  0  0  0  0  0999 V2000
   -3.1771   -5.9156    0.0000 C   0  0  0  0  0  0  0  0  0  0  0  0
   -1.9635   -5.0339    0.0000 C   0  0  0  0  0  0  0  0  0  0  0  0
   -0.7500   -5.9156    0.0000 C   0  0  0  0  0  0  0  0  0  0  0  0
    0.7500   -5.9156    0.0000 C   0  0  0  0  0  0  0  0  0  0  0  0
    1.9635   -5.0339    0.0000 C   0  0  0  0  0  0  0  0  0  0  0  0
    3.1771   -5.9156    0.0000 C   0  0  0  0  0  0  0  0  0  0  0  0
    4.5474   -5.3055    0.0000 O   0  0  0  0  0  0  0  0  0  0  0  0
    3.0203   -7.4073    0.0000 N   0  0  0  0  0  0  0  0  0  0  0  0
    4.2338   -8.2890    0.0000 C   0  0  0  0  0  0  0  0  0  0  0  0
    4.0770   -9.7808    0.0000 N   0  0  0  0  0  0  0  0  0  0  0  0
    5.2905  -10.6625    0.0000 N   0  0  0  0  0  0  0  0  0  0  0  0
    6.6608  -10.0524    0.0000 N   0  0  0  0  0  0  0  0  0  0  0  0
    6.8176   -8.5606    0.0000 N   0  0  0  0  0  0  0  0  0  0  0  0
    5.6041   -7.6789    0.0000 N   0  0  0  0  0  0  0  0  0  0  0  0
    2.4271   -3.6073    0.0000 C   0  0  0  0  0  0  0  0  0  0  0  0
    3.8943   -3.9192    0.0000 C   0  0  0  0  0  0  0  0  0  0  0  0
    4.8980   -2.8045    0.0000 C   0  0  0  0  0  0  0  0  0  0  0  0
    4.4344   -1.3779    0.0000 C   0  0  0  0  0  0  0  0  0  0  0  0
    5.4381   -0.2631    0.0000 C   0  0  0  0  0  0  0  0  0  0  0  0
    6.4418    0.8516    0.0000 N   0  0  0  0  0  0  0  0  0  0  0  0
    2.9672   -1.0660    0.0000 C   0  0  0  0  0  0  0  0  0  0  0  0
    1.9635   -2.1807    0.0000 C   0  0  0  0  0  0  0  0  0  0  0  0
    0.7500   -1.2990    0.0000 C   0  0  0  0  0  0  0  0  0  0  0  0
    1.5000    0.0000    0.0000 C   0  0  0  0  0  0  0  0  0  0  0  0
    0.7500    1.2990    0.0000 C   0  0  0  0  0  0  0  0  0  0  0  0
   -0.7500    1.2990    0.0000 C   0  0  0  0  0  0  0  0  0  0  0  0
   -1.5000    0.0000    0.0000 C   0  0  0  0  0  0  0  0  0  0  0  0
   -0.7500   -1.2990    0.0000 C   0  0  0  0  0  0  0  0  0  0  0  0
   -1.9635   -2.1807    0.0000 C   0  0  0  0  0  0  0  0  0  0  0  0
   -2.9672   -1.0660    0.0000 C   0  0  0  0  0  0  0  0  0  0  0  0
   -4.4344   -1.3779    0.0000 C   0  0  0  0  0  0  0  0  0  0  0  0
   -4.8980   -2.8045    0.0000 C   0  0  0  0  0  0  0  0  0  0  0  0
   -3.8943   -3.9192    0.0000 C   0  0  0  0  0  0  0  0  0  0  0  0
   -2.4271   -3.6073    0.0000 C   0  0  0  0  0  0  0  0  0  0  0  0
  1  2  1  0
  2  3  1  0
  3  4  1  0
  4  5  1  0
  5  6  1  0
  6  7  2  0
  6  8  1  0
  8  9  1  0
  9 10  2  0
 10 11  1  0
 11 12  2  0
 12 13  1  0
 13 14  2  0
  5 15  1  0
 15 16  2  0
 16 17  1  0
 17 18  2  0
 18 19  1  0
 19 20  3  0
 18 21  1  0
 21 22  2  0
 22 23  1  0
 23 24  2  0
 24 25  1  0
 25 26  2  0
 26 27  1  0
 27 28  2  0
 28 29  1  0
 29 30  2  0
 30 31  1  0
 31 32  2  0
 32 33  1  0
 33 34  2  0
 34  2  1  0
 14  9  1  0
 22 15  1  0
 28 23  1  0
 34 29  1  0
M  END
>  <Title>  (923) 
idABHSgen7

$$$$

     RDKit          2D

 87 87  0  0  0  0  0  0  0  0999 V2000
   22.0356    0.0000    0.0000 C   0  0  0  0  0  0  0  0  0  0  0  0
   20.5356    0.0000    0.0000 C   0  0  0  0  0  0  0  0  0  0  0  0
   20.4808   -1.4990    0.0000 C   0  0  0  0  0  0  0  0  0  0  0  0
   20.3167   -2.9900    0.0000 C   0  0  0  0  0  0  0  0  0  0  0  0
   20.0443   -4.4650    0.0000 C   0  0  0  0  0  0  0  0  0  0  0  0
   19.6649   -5.9163    0.0000 C   0  0  0  0  0  0  0  0  0  0  0  0
   19.1805   -7.3359    0.0000 C   0  0  0  0  0  0  0  0  0  0  0  0
   18.5939   -8.7165    0.0000 C   0  0  0  0  0  0  0  0  0  0  0  0
   17.9080  -10.0505    0.0000 C   0  0  0  0  0  0  0  0  0  0  0  0
   17.1266  -11.3309    0.0000 C   0  0  0  0  0  0  0  0  0  0  0  0
   16.2538  -12.5508    0.0000 C   0  0  0  0  0  0  0  0  0  0  0  0
   15.2943  -13.7038    0.0000 C   0  0  0  0  0  0  0  0  0  0  0  0
   14.2532  -14.7836    0.0000 C   0  0  0  0  0  0  0  0  0  0  0  0
   13.1360  -15.7846    0.0000 C   0  0  0  0  0  0  0  0  0  0  0  0
   11.9488  -16.7014    0.0000 C   0  0  0  0  0  0  0  0  0  0  0  0
   10.6978  -17.5290    0.0000 C   0  0  0  0  0  0  0  0  0  0  0  0
    9.3897  -18.2631    0.0000 C   0  0  0  0  0  0  0  0  0  0  0  0
    8.0316  -18.8998    0.0000 C   0  0  0  0  0  0  0  0  0  0  0  0
    6.6305  -19.4357    0.0000 C   0  0  0  0  0  0  0  0  0  0  0  0
    5.1941  -19.8678    0.0000 C   0  0  0  0  0  0  0  0  0  0  0  0
    3.7300  -20.1940    0.0000 C   0  0  0  0  0  0  0  0  0  0  0  0
    2.2460  -20.4124    0.0000 C   0  0  0  0  0  0  0  0  0  0  0  0
    0.7500  -20.5219    0.0000 C   0  0  0  0  0  0  0  0  0  0  0  0
   -0.7500  -20.5219    0.0000 C   0  0  0  0  0  0  0  0  0  0  0  0
   -2.2460  -20.4124    0.0000 C   0  0  0  0  0  0  0  0  0  0  0  0
   -3.7300  -20.1940    0.0000 C   0  0  0  0  0  0  0  0  0  0  0  0
   -5.1941  -19.8678    0.0000 C   0  0  0  0  0  0  0  0  0  0  0  0
   -6.6305  -19.4357    0.0000 C   0  0  0  0  0  0  0  0  0  0  0  0
   -8.0316  -18.8998    0.0000 C   0  0  0  0  0  0  0  0  0  0  0  0
   -9.3897  -18.2631    0.0000 C   0  0  0  0  0  0  0  0  0  0  0  0
  -10.6978  -17.5290    0.0000 C   0  0  0  0  0  0  0  0  0  0  0  0
  -11.9488  -16.7014    0.0000 C   0  0  0  0  0  0  0  0  0  0  0  0
  -13.1360  -15.7846    0.0000 C   0  0  0  0  0  0  0  0  0  0  0  0
  -14.2532  -14.7836    0.0000 C   0  0  0  0  0  0  0  0  0  0  0  0
  -15.2943  -13.7038    0.0000 C   0  0  0  0  0  0  0  0  0  0  0  0
  -16.2538  -12.5508    0.0000 C   0  0  0  0  0  0  0  0  0  0  0  0
  -17.1266  -11.3309    0.0000 C   0  0  0  0  0  0  0  0  0  0  0  0
  -17.9080  -10.0505    0.0000 C   0  0  0  0  0  0  0  0  0  0  0  0
  -18.5939   -8.7165    0.0000 C   0  0  0  0  0  0  0  0  0  0  0  0
  -19.1805   -7.3359    0.0000 C   0  0  0  0  0  0  0  0  0  0  0  0
  -19.6649   -5.9163    0.0000 C   0  0  0  0  0  0  0  0  0  0  0  0
  -20.0443   -4.4650    0.0000 C   0  0  0  0  0  0  0  0  0  0  0  0
  -20.3167   -2.9900    0.0000 C   0  0  0  0  0  0  0  0  0  0  0  0
  -20.4808   -1.4990    0.0000 C   0  0  0  0  0  0  0  0  0  0  0  0
  -20.5356    0.0000    0.0000 C   0  0  0  0  0  0  0  0  0  0  0  0
  -20.4808    1.4990    0.0000 C   0  0  0  0  0  0  0  0  0  0  0  0
  -20.3167    2.9900    0.0000 C   0  0  0  0  0  0  0  0  0  0  0  0
  -20.0443    4.4650    0.0000 C   0  0  0  0  0  0  0  0  0  0  0  0
  -19.6649    5.9163    0.0000 C   0  0  0  0  0  0  0  0  0  0  0  0
  -19.1805    7.3359    0.0000 C   0  0  0  0  0  0  0  0  0  0  0  0
  -18.5939    8.7165    0.0000 C   0  0  0  0  0  0  0  0  0  0  0  0
  -17.9080   10.0505    0.0000 C   0  0  0  0  0  0  0  0  0  0  0  0
  -17.1266   11.3309    0.0000 C   0  0  0  0  0  0  0  0  0  0  0  0
  -16.2538   12.5508    0.0000 C   0  0  0  0  0  0  0  0  0  0  0  0
  -15.2943   13.7038    0.0000 C   0  0  0  0  0  0  0  0  0  0  0  0
  -14.2532   14.7836    0.0000 C   0  0  0  0  0  0  0  0  0  0  0  0
  -13.1360   15.7846    0.0000 C   0  0  0  0  0  0  0  0  0  0  0  0
  -11.9488   16.7014    0.0000 C   0  0  0  0  0  0  0  0  0  0  0  0
  -10.6978   17.5290    0.0000 C   0  0  0  0  0  0  0  0  0  0  0  0
   -9.3897   18.2631    0.0000 C   0  0  0  0  0  0  0  0  0  0  0  0
   -8.0316   18.8998    0.0000 C   0  0  0  0  0  0  0  0  0  0  0  0
   -6.6305   19.4357    0.0000 C   0  0  0  0  0  0  0  0  0  0  0  0
   -5.1941   19.8678    0.0000 C   0  0  0  0  0  0  0  0  0  0  0  0
   -3.7300   20.1940    0.0000 C   0  0  0  0  0  0  0  0  0  0  0  0
   -2.2460   20.4124    0.0000 C   0  0  0  0  0  0  0  0  0  0  0  0
   -0.7500   20.5219    0.0000 C   0  0  0  0  0  0  0  0  0  0  0  0
    0.7500   20.5219    0.0000 C   0  0  0  0  0  0  0  0  0  0  0  0
    2.2460   20.4124    0.0000 C   0  0  0  0  0  0  0  0  0  0  0  0
    3.7300   20.1940    0.0000 C   0  0  0  0  0  0  0  0  0  0  0  0
    5.1941   19.8678    0.0000 C   0  0  0  0  0  0  0  0  0  0  0  0
    6.6305   19.4357    0.0000 C   0  0  0  0  0  0  0  0  0  0  0  0
    8.0316   18.8998    0.0000 C   0  0  0  0  0  0  0  0  0  0  0  0
    9.3897   18.2631    0.0000 C   0  0  0  0  0  0  0  0  0  0  0  0
   10.6978   17.5290    0.0000 C   0  0  0  0  0  0  0  0  0  0  0  0
   11.9488   16.7014    0.0000 C   0  0  0  0  0  0  0  0  0  0  0  0
   13.1360   15.7846    0.0000 C   0  0  0  0  0  0  0  0  0  0  0  0
   14.2532   14.7836    0.0000 C   0  0  0  0  0  0  0  0  0  0  0  0
   15.2943   13.7038    0.0000 C   0  0  0  0  0  0  0  0  0  0  0  0
   16.2538   12.5508    0.0000 C   0  0  0  0  0  0  0  0  0  0  0  0
   17.1266   11.3309    0.0000 C   0  0  0  0  0  0  0  0  0  0  0  0
   17.9080   10.0505    0.0000 C   0  0  0  0  0  0  0  0  0  0  0  0
   18.5939    8.7165    0.0000 C   0  0  0  0  0  0  0  0  0  0  0  0
   19.1805    7.3359    0.0000 C   0  0  0  0  0  0  0  0  0  0  0  0
   19.6649    5.9163    0.0000 C   0  0  0  0  0  0  0  0  0  0  0  0
   20.0443    4.4650    0.0000 C   0  0  0  0  0  0  0  0  0  0  0  0
   20.3167    2.9900    0.0000 C   0  0  0  0  0  0  0  0  0  0  0  0
   20.4808    1.4990    0.0000 C   0  0  0  0  0  0  0  0  0  0  0  0
  1  2  1  0
  2  3  1  0
  3  4  1  0
  4  5  1  0
  5  6  1  0
  6  7  1  0
  7  8  1  0
  8  9  1  0
  9 10  1  0
 10 11  1  0
 11 12  1  0
 12 13  1  0
 13 14  1  0
 14 15  1  0
 15 16  1  0
 16 17  1  0
 17 18  1  0
 18 19  1  0
 19 20  1  0
 20 21  1  0
 21 22  1  0
 22 23  1  0
 23 24  1  0
 24 25  1  0
 25 26  1  0
 26 27  1  0
 27 28  1  0
 28 29  1  0
 29 30  1  0
 30 31  1  0
 31 32  1  0
 32 33  1  0
 33 34  1  0
 34 35  1  0
 35 36  1  0
 36 37  1  0
 37 38  1  0
 38 39  1  0
 39 40  1  0
 40 41  1  0
 41 42  1  0
 42 43  1  0
 43 44  1  0
 44 45  1  0
 45 46  1  0
 46 47  1  0
 47 48  1  0
 48 49  1  0
 49 50  1  0
 50 51  1  0
 51 52  1  0
 52 53  1  0
 53 54  1  0
 54 55  1  0
 55 56  1  0
 56 57  1  0
 57 58  1  0
 58 59  1  0
 59 60  1  0
 60 61  1  0
 61 62  1  0
 62 63  1  0
 63 64  1  0
 64 65  1  0
 65 66  1  0
 66 67  1  0
 67 68  1  0
 68 69  1  0
 69 70  1  0
 70 71  1  0
 71 72  1  0
 72 73  1  0
 73 74  1  0
 74 75  1  0
 75 76  1  0
 76 77  1  0
 77 78  1  0
 78 79  1  0
 79 80  1  0
 80 81  1  0
 81 82  1  0
 82 83  1  0
 83 84  1  0
 84 85  1  0
 85 86  1  0
 86 87  1  0
 87  2  1  0
M  END
>  <Title>  (924) 
idABHTgen7

$$$$

     RDKit          2D

 57 57  0  0  0  0  0  0  0  0999 V2000
   13.6146    0.0000    0.0000 C   0  0  0  0  0  0  0  0  0  0  0  0
   13.5320    1.4977    0.0000 C   0  0  0  0  0  0  0  0  0  0  0  0
   13.2851    2.9773    0.0000 C   0  0  0  0  0  0  0  0  0  0  0  0
   12.8770    4.4207    0.0000 C   0  0  0  0  0  0  0  0  0  0  0  0
   12.3125    5.8104    0.0000 C   0  0  0  0  0  0  0  0  0  0  0  0
   11.5986    7.1296    0.0000 C   0  0  0  0  0  0  0  0  0  0  0  0
   10.7439    8.3623    0.0000 C   0  0  0  0  0  0  0  0  0  0  0  0
    9.7587    9.4934    0.0000 C   0  0  0  0  0  0  0  0  0  0  0  0
    8.6551   10.5094    0.0000 C   0  0  0  0  0  0  0  0  0  0  0  0
    7.4465   11.3977    0.0000 C   0  0  0  0  0  0  0  0  0  0  0  0
    6.1475   12.1477    0.0000 C   0  0  0  0  0  0  0  0  0  0  0  0
    4.7738   12.7503    0.0000 C   0  0  0  0  0  0  0  0  0  0  0  0
    3.3422   13.1980    0.0000 C   0  0  0  0  0  0  0  0  0  0  0  0
    1.8700   13.4856    0.0000 C   0  0  0  0  0  0  0  0  0  0  0  0
    0.3751   13.6095    0.0000 C   0  0  0  0  0  0  0  0  0  0  0  0
   -1.1243   13.5681    0.0000 C   0  0  0  0  0  0  0  0  0  0  0  0
   -2.6101   13.3621    0.0000 C   0  0  0  0  0  0  0  0  0  0  0  0
   -4.0642   12.9939    0.0000 C   0  0  0  0  0  0  0  0  0  0  0  0
   -5.4689   12.4679    0.0000 C   0  0  0  0  0  0  0  0  0  0  0  0
   -6.8073   11.7906    0.0000 C   0  0  0  0  0  0  0  0  0  0  0  0
   -8.0631   10.9702    0.0000 C   0  0  0  0  0  0  0  0  0  0  0  0
   -9.2209   10.0166    0.0000 C   0  0  0  0  0  0  0  0  0  0  0  0
  -10.2669    8.9414    0.0000 C   0  0  0  0  0  0  0  0  0  0  0  0
  -11.1882    7.7577    0.0000 C   0  0  0  0  0  0  0  0  0  0  0  0
  -11.9737    6.4799    0.0000 C   0  0  0  0  0  0  0  0  0  0  0  0
  -12.6139    5.1233    0.0000 C   0  0  0  0  0  0  0  0  0  0  0  0
  -13.1009    3.7046    0.0000 C   0  0  0  0  0  0  0  0  0  0  0  0
  -13.4290    2.2409    0.0000 C   0  0  0  0  0  0  0  0  0  0  0  0
  -13.5940    0.7500    0.0000 C   0  0  0  0  0  0  0  0  0  0  0  0
  -13.5940   -0.7500    0.0000 C   0  0  0  0  0  0  0  0  0  0  0  0
  -13.4290   -2.2409    0.0000 C   0  0  0  0  0  0  0  0  0  0  0  0
  -13.1009   -3.7046    0.0000 C   0  0  0  0  0  0  0  0  0  0  0  0
  -12.6139   -5.1233    0.0000 C   0  0  0  0  0  0  0  0  0  0  0  0
  -11.9737   -6.4799    0.0000 C   0  0  0  0  0  0  0  0  0  0  0  0
  -11.1882   -7.7577    0.0000 C   0  0  0  0  0  0  0  0  0  0  0  0
  -10.2669   -8.9414    0.0000 C   0  0  0  0  0  0  0  0  0  0  0  0
   -9.2209  -10.0166    0.0000 C   0  0  0  0  0  0  0  0  0  0  0  0
   -8.0631  -10.9702    0.0000 C   0  0  0  0  0  0  0  0  0  0  0  0
   -6.8073  -11.7906    0.0000 C   0  0  0  0  0  0  0  0  0  0  0  0
   -5.4689  -12.4679    0.0000 C   0  0  0  0  0  0  0  0  0  0  0  0
   -4.0642  -12.9939    0.0000 C   0  0  0  0  0  0  0  0  0  0  0  0
   -2.6101  -13.3621    0.0000 C   0  0  0  0  0  0  0  0  0  0  0  0
   -1.1243  -13.5681    0.0000 C   0  0  0  0  0  0  0  0  0  0  0  0
    0.3751  -13.6095    0.0000 C   0  0  0  0  0  0  0  0  0  0  0  0
    1.8700  -13.4856    0.0000 C   0  0  0  0  0  0  0  0  0  0  0  0
    3.3422  -13.1980    0.0000 C   0  0  0  0  0  0  0  0  0  0  0  0
    4.7738  -12.7503    0.0000 C   0  0  0  0  0  0  0  0  0  0  0  0
    6.1475  -12.1477    0.0000 C   0  0  0  0  0  0  0  0  0  0  0  0
    7.4465  -11.3977    0.0000 C   0  0  0  0  0  0  0  0  0  0  0  0
    8.6551  -10.5094    0.0000 C   0  0  0  0  0  0  0  0  0  0  0  0
    9.7587   -9.4934    0.0000 C   0  0  0  0  0  0  0  0  0  0  0  0
   10.7439   -8.3623    0.0000 C   0  0  0  0  0  0  0  0  0  0  0  0
   11.5986   -7.1296    0.0000 C   0  0  0  0  0  0  0  0  0  0  0  0
   12.3125   -5.8104    0.0000 C   0  0  0  0  0  0  0  0  0  0  0  0
   12.8770   -4.4207    0.0000 C   0  0  0  0  0  0  0  0  0  0  0  0
   13.2851   -2.9773    0.0000 C   0  0  0  0  0  0  0  0  0  0  0  0
   13.5320   -1.4977    0.0000 C   0  0  0  0  0  0  0  0  0  0  0  0
  1  2  2  0
  2  3  1  0
  3  4  1  0
  4  5  1  0
  5  6  1  0
  6  7  1  0
  7  8  1  0
  8  9  1  0
  9 10  1  0
 10 11  1  0
 11 12  1  0
 12 13  1  0
 13 14  1  0
 14 15  1  0
 15 16  1  0
 16 17  1  0
 17 18  1  0
 18 19  1  0
 19 20  1  0
 20 21  1  0
 21 22  1  0
 22 23  1  0
 23 24  1  0
 24 25  1  0
 25 26  1  0
 26 27  1  0
 27 28  1  0
 28 29  1  0
 29 30  1  0
 30 31  1  0
 31 32  1  0
 32 33  1  0
 33 34  1  0
 34 35  1  0
 35 36  1  0
 36 37  1  0
 37 38  1  0
 38 39  1  0
 39 40  1  0
 40 41  1  0
 41 42  1  0
 42 43  1  0
 43 44  1  0
 44 45  1  0
 45 46  1  0
 46 47  1  0
 47 48  1  0
 48 49  1  0
 49 50  1  0
 50 51  1  0
 51 52  1  0
 52 53  1  0
 53 54  1  0
 54 55  1  0
 55 56  1  0
 56 57  1  0
 57  1  1  0
M  END
>  <Title>  (925) 
idABHUgen7

$$$$

     RDKit          2D

 25 27  0  0  0  0  0  0  0  0999 V2000
   -3.1965   -1.7857    0.0000 C   0  0  0  0  0  0  0  0  0  0  0  0
   -1.8107   -2.3597    0.0000 C   0  0  0  0  0  0  0  0  0  0  0  0
   -1.8107   -3.8597    0.0000 C   0  0  0  0  0  0  0  0  0  0  0  0
   -0.7500   -4.9204    0.0000 C   0  0  0  0  0  0  0  0  0  0  0  0
    0.7500   -4.9204    0.0000 C   0  0  0  0  0  0  0  0  0  0  0  0
    1.3240   -6.3062    0.0000 C   0  0  0  0  0  0  0  0  0  0  0  0
    2.8112   -6.5020    0.0000 O   0  0  0  0  0  0  0  0  0  0  0  0
    0.4109   -7.4962    0.0000 N   0  0  0  0  0  0  0  0  0  0  0  0
    0.9849   -8.8820    0.0000 C   0  0  0  0  0  0  0  0  0  0  0  0
    0.0718  -10.0721    0.0000 N   0  0  0  0  0  0  0  0  0  0  0  0
    0.6458  -11.4579    0.0000 N   0  0  0  0  0  0  0  0  0  0  0  0
    2.1330  -11.6537    0.0000 N   0  0  0  0  0  0  0  0  0  0  0  0
    3.0461  -10.4636    0.0000 N   0  0  0  0  0  0  0  0  0  0  0  0
    2.4721   -9.0778    0.0000 N   0  0  0  0  0  0  0  0  0  0  0  0
    1.8107   -3.8597    0.0000 C   0  0  0  0  0  0  0  0  0  0  0  0
    3.1965   -4.4337    0.0000 O   0  0  0  0  0  0  0  0  0  0  0  0
    1.8107   -2.3597    0.0000 N   0  0  0  0  0  0  0  0  0  0  0  0
    0.7500   -1.2990    0.0000 C   0  0  0  0  0  0  0  0  0  0  0  0
    1.5000    0.0000    0.0000 C   0  0  0  0  0  0  0  0  0  0  0  0
    0.7500    1.2990    0.0000 C   0  0  0  0  0  0  0  0  0  0  0  0
   -0.7500    1.2990    0.0000 C   0  0  0  0  0  0  0  0  0  0  0  0
   -1.5000    2.5981    0.0000 C   0  0  0  0  0  0  0  0  0  0  0  0
   -2.2500    3.8971    0.0000 N   0  0  0  0  0  0  0  0  0  0  0  0
   -1.5000    0.0000    0.0000 C   0  0  0  0  0  0  0  0  0  0  0  0
   -0.7500   -1.2990    0.0000 C   0  0  0  0  0  0  0  0  0  0  0  0
  1  2  1  0
  2  3  1  0
  3  4  1  0
  4  5  1  0
  5  6  1  0
  6  7  2  0
  6  8  1  0
  8  9  1  0
  9 10  2  0
 10 11  1  0
 11 12  2  0
 12 13  1  0
 13 14  2  0
  5 15  1  0
 15 16  2  0
 15 17  1  0
 17 18  1  0
 18 19  2  0
 19 20  1  0
 20 21  2  0
 21 22  1  0
 22 23  3  0
 21 24  1  0
 24 25  2  0
 25  2  1  0
 14  9  1  0
 25 18  1  0
M  END
>  <Title>  (926) 
idABHVgen7

$$$$

     RDKit          2D

 23 23  0  0  0  0  0  0  0  0999 V2000
    6.7700    0.0000    0.0000 C   0  0  0  0  0  0  0  0  0  0  0  0
    5.2700    0.0000    0.0000 C   0  0  0  0  0  0  0  0  0  0  0  0
    5.0565   -1.4847    0.0000 C   0  0  0  0  0  0  0  0  0  0  0  0
    4.4334   -2.8492    0.0000 C   0  0  0  0  0  0  0  0  0  0  0  0
    3.4511   -3.9828    0.0000 C   0  0  0  0  0  0  0  0  0  0  0  0
    2.1892   -4.7938    0.0000 C   0  0  0  0  0  0  0  0  0  0  0  0
    0.7500   -5.2164    0.0000 C   0  0  0  0  0  0  0  0  0  0  0  0
   -0.7500   -5.2164    0.0000 C   0  0  0  0  0  0  0  0  0  0  0  0
   -2.1892   -4.7938    0.0000 C   0  0  0  0  0  0  0  0  0  0  0  0
   -3.4511   -3.9828    0.0000 C   0  0  0  0  0  0  0  0  0  0  0  0
   -4.4334   -2.8492    0.0000 C   0  0  0  0  0  0  0  0  0  0  0  0
   -5.0565   -1.4847    0.0000 C   0  0  0  0  0  0  0  0  0  0  0  0
   -5.2700    0.0000    0.0000 C   0  0  0  0  0  0  0  0  0  0  0  0
   -5.0565    1.4847    0.0000 C   0  0  0  0  0  0  0  0  0  0  0  0
   -4.4334    2.8492    0.0000 C   0  0  0  0  0  0  0  0  0  0  0  0
   -3.4511    3.9828    0.0000 C   0  0  0  0  0  0  0  0  0  0  0  0
   -2.1892    4.7938    0.0000 C   0  0  0  0  0  0  0  0  0  0  0  0
   -0.7500    5.2164    0.0000 C   0  0  0  0  0  0  0  0  0  0  0  0
    0.7500    5.2164    0.0000 C   0  0  0  0  0  0  0  0  0  0  0  0
    2.1892    4.7938    0.0000 C   0  0  0  0  0  0  0  0  0  0  0  0
    3.4511    3.9828    0.0000 C   0  0  0  0  0  0  0  0  0  0  0  0
    4.4334    2.8492    0.0000 C   0  0  0  0  0  0  0  0  0  0  0  0
    5.0565    1.4847    0.0000 C   0  0  0  0  0  0  0  0  0  0  0  0
  1  2  1  0
  2  3  1  0
  3  4  1  0
  4  5  1  0
  5  6  1  0
  6  7  1  0
  7  8  1  0
  8  9  1  0
  9 10  1  0
 10 11  1  0
 11 12  1  0
 12 13  1  0
 13 14  1  0
 14 15  1  0
 15 16  1  0
 16 17  1  0
 17 18  1  0
 18 19  1  0
 19 20  1  0
 20 21  1  0
 21 22  1  0
 22 23  1  0
 23  2  1  0
M  END
>  <Title>  (927) 
idABHWgen7

$$$$

     RDKit          2D

 10 10  0  0  0  0  0  0  0  0999 V2000
    2.7760    0.0000    0.0000 C   0  0  0  0  0  0  0  0  0  0  0  0
    1.2760    0.0000    0.0000 C   0  0  0  0  0  0  0  0  0  0  0  0
    0.3943    1.2135    0.0000 C   0  0  0  0  0  0  0  0  0  0  0  0
   -1.0323    0.7500    0.0000 C   0  0  0  0  0  0  0  0  0  0  0  0
   -1.0323   -0.7500    0.0000 C   0  0  0  0  0  0  0  0  0  0  0  0
   -1.3442   -2.2172    0.0000 C   0  0  0  0  0  0  0  0  0  0  0  0
   -1.6560   -3.6844    0.0000 N   0  0  0  0  0  0  0  0  0  0  0  0
   -2.5241   -0.5932    0.0000 C   0  0  0  0  0  0  0  0  0  0  0  0
   -4.0159   -0.4364    0.0000 N   0  0  0  0  0  0  0  0  0  0  0  0
    0.3943   -1.2135    0.0000 C   0  0  0  0  0  0  0  0  0  0  0  0
  1  2  1  0
  2  3  1  0
  3  4  1  0
  4  5  1  0
  5  6  1  0
  6  7  3  0
  5  8  1  0
  8  9  3  0
  5 10  1  0
 10  2  1  0
M  END
>  <Title>  (928) 
idABHXgen7

$$$$

     RDKit          2D

 21 23  0  0  0  0  0  0  0  0999 V2000
   -3.0000   -2.5981    0.0000 C   0  0  0  0  0  0  0  0  0  0  0  0
   -1.5000   -2.5981    0.0000 C   0  0  0  0  0  0  0  0  0  0  0  0
   -0.7500   -3.8971    0.0000 C   0  0  0  0  0  0  0  0  0  0  0  0
    0.7500   -3.8971    0.0000 C   0  0  0  0  0  0  0  0  0  0  0  0
    1.5000   -2.5981    0.0000 C   0  0  0  0  0  0  0  0  0  0  0  0
    3.0000   -2.5981    0.0000 N   0  0  0  0  0  0  0  0  0  0  0  0
    3.7500   -3.8971    0.0000 C   0  0  0  0  0  0  0  0  0  0  0  0
    3.0000   -5.1962    0.0000 O   0  0  0  0  0  0  0  0  0  0  0  0
    5.2500   -3.8971    0.0000 C   0  0  0  0  0  0  0  0  0  0  0  0
    6.0000   -5.1962    0.0000 C   0  0  0  0  0  0  0  0  0  0  0  0
    5.2500   -6.4952    0.0000 N   0  0  0  0  0  0  0  0  0  0  0  0
    6.0000   -7.7942    0.0000 N   0  0  0  0  0  0  0  0  0  0  0  0
    7.5000   -7.7942    0.0000 N   0  0  0  0  0  0  0  0  0  0  0  0
    8.2500   -6.4952    0.0000 N   0  0  0  0  0  0  0  0  0  0  0  0
    7.5000   -5.1962    0.0000 N   0  0  0  0  0  0  0  0  0  0  0  0
    0.7500   -1.2990    0.0000 C   0  0  0  0  0  0  0  0  0  0  0  0
    1.5000    0.0000    0.0000 C   0  0  0  0  0  0  0  0  0  0  0  0
    0.7500    1.2990    0.0000 C   0  0  0  0  0  0  0  0  0  0  0  0
   -0.7500    1.2990    0.0000 C   0  0  0  0  0  0  0  0  0  0  0  0
   -1.5000    0.0000    0.0000 C   0  0  0  0  0  0  0  0  0  0  0  0
   -0.7500   -1.2990    0.0000 C   0  0  0  0  0  0  0  0  0  0  0  0
  1  2  1  0
  2  3  2  0
  3  4  1  0
  4  5  1  0
  5  6  1  0
  6  7  1  0
  7  8  2  0
  7  9  1  0
  9 10  1  0
 10 11  2  0
 11 12  1  0
 12 13  2  0
 13 14  1  0
 14 15  2  0
  5 16  1  0
 16 17  2  0
 17 18  1  0
 18 19  2  0
 19 20  1  0
 20 21  2  0
 21  2  1  0
 15 10  1  0
 21 16  1  0
M  END
>  <Title>  (929) 
idABHYgen7

$$$$

     RDKit          2D

 85 85  0  0  0  0  0  0  0  0999 V2000
   21.5582    0.0000    0.0000 C   0  0  0  0  0  0  0  0  0  0  0  0
   20.0582    0.0000    0.0000 C   0  0  0  0  0  0  0  0  0  0  0  0
   20.0021   -1.4990    0.0000 C   0  0  0  0  0  0  0  0  0  0  0  0
   19.8342   -2.9895    0.0000 C   0  0  0  0  0  0  0  0  0  0  0  0
   19.5553   -4.4634    0.0000 C   0  0  0  0  0  0  0  0  0  0  0  0
   19.1671   -5.9123    0.0000 C   0  0  0  0  0  0  0  0  0  0  0  0
   18.6717   -7.3281    0.0000 C   0  0  0  0  0  0  0  0  0  0  0  0
   18.0718   -8.7029    0.0000 C   0  0  0  0  0  0  0  0  0  0  0  0
   17.3709  -10.0291    0.0000 C   0  0  0  0  0  0  0  0  0  0  0  0
   16.5729  -11.2992    0.0000 C   0  0  0  0  0  0  0  0  0  0  0  0
   15.6821  -12.5061    0.0000 C   0  0  0  0  0  0  0  0  0  0  0  0
   14.7037  -13.6430    0.0000 C   0  0  0  0  0  0  0  0  0  0  0  0
   13.6430  -14.7037    0.0000 C   0  0  0  0  0  0  0  0  0  0  0  0
   12.5061  -15.6821    0.0000 C   0  0  0  0  0  0  0  0  0  0  0  0
   11.2992  -16.5729    0.0000 C   0  0  0  0  0  0  0  0  0  0  0  0
   10.0291  -17.3709    0.0000 C   0  0  0  0  0  0  0  0  0  0  0  0
    8.7029  -18.0718    0.0000 C   0  0  0  0  0  0  0  0  0  0  0  0
    7.3281  -18.6717    0.0000 C   0  0  0  0  0  0  0  0  0  0  0  0
    5.9123  -19.1671    0.0000 C   0  0  0  0  0  0  0  0  0  0  0  0
    4.4634  -19.5553    0.0000 C   0  0  0  0  0  0  0  0  0  0  0  0
    2.9895  -19.8342    0.0000 C   0  0  0  0  0  0  0  0  0  0  0  0
    1.4990  -20.0021    0.0000 C   0  0  0  0  0  0  0  0  0  0  0  0
   -0.0000  -20.0582    0.0000 C   0  0  0  0  0  0  0  0  0  0  0  0
   -1.4990  -20.0021    0.0000 C   0  0  0  0  0  0  0  0  0  0  0  0
   -2.9895  -19.8342    0.0000 C   0  0  0  0  0  0  0  0  0  0  0  0
   -4.4634  -19.5553    0.0000 C   0  0  0  0  0  0  0  0  0  0  0  0
   -5.9123  -19.1671    0.0000 C   0  0  0  0  0  0  0  0  0  0  0  0
   -7.3281  -18.6717    0.0000 C   0  0  0  0  0  0  0  0  0  0  0  0
   -8.7029  -18.0718    0.0000 C   0  0  0  0  0  0  0  0  0  0  0  0
  -10.0291  -17.3709    0.0000 C   0  0  0  0  0  0  0  0  0  0  0  0
  -11.2992  -16.5729    0.0000 C   0  0  0  0  0  0  0  0  0  0  0  0
  -12.5061  -15.6821    0.0000 C   0  0  0  0  0  0  0  0  0  0  0  0
  -13.6430  -14.7037    0.0000 C   0  0  0  0  0  0  0  0  0  0  0  0
  -14.7037  -13.6430    0.0000 C   0  0  0  0  0  0  0  0  0  0  0  0
  -15.6821  -12.5061    0.0000 C   0  0  0  0  0  0  0  0  0  0  0  0
  -16.5729  -11.2992    0.0000 C   0  0  0  0  0  0  0  0  0  0  0  0
  -17.3709  -10.0291    0.0000 C   0  0  0  0  0  0  0  0  0  0  0  0
  -18.0718   -8.7029    0.0000 C   0  0  0  0  0  0  0  0  0  0  0  0
  -18.6717   -7.3281    0.0000 C   0  0  0  0  0  0  0  0  0  0  0  0
  -19.1671   -5.9123    0.0000 C   0  0  0  0  0  0  0  0  0  0  0  0
  -19.5553   -4.4634    0.0000 C   0  0  0  0  0  0  0  0  0  0  0  0
  -19.8342   -2.9895    0.0000 C   0  0  0  0  0  0  0  0  0  0  0  0
  -20.0021   -1.4990    0.0000 C   0  0  0  0  0  0  0  0  0  0  0  0
  -20.0582    0.0000    0.0000 C   0  0  0  0  0  0  0  0  0  0  0  0
  -20.0021    1.4990    0.0000 C   0  0  0  0  0  0  0  0  0  0  0  0
  -19.8342    2.9895    0.0000 C   0  0  0  0  0  0  0  0  0  0  0  0
  -19.5553    4.4634    0.0000 C   0  0  0  0  0  0  0  0  0  0  0  0
  -19.1671    5.9123    0.0000 C   0  0  0  0  0  0  0  0  0  0  0  0
  -18.6717    7.3281    0.0000 C   0  0  0  0  0  0  0  0  0  0  0  0
  -18.0718    8.7029    0.0000 C   0  0  0  0  0  0  0  0  0  0  0  0
  -17.3709   10.0291    0.0000 C   0  0  0  0  0  0  0  0  0  0  0  0
  -16.5729   11.2992    0.0000 C   0  0  0  0  0  0  0  0  0  0  0  0
  -15.6821   12.5061    0.0000 C   0  0  0  0  0  0  0  0  0  0  0  0
  -14.7037   13.6430    0.0000 C   0  0  0  0  0  0  0  0  0  0  0  0
  -13.6430   14.7037    0.0000 C   0  0  0  0  0  0  0  0  0  0  0  0
  -12.5061   15.6821    0.0000 C   0  0  0  0  0  0  0  0  0  0  0  0
  -11.2992   16.5729    0.0000 C   0  0  0  0  0  0  0  0  0  0  0  0
  -10.0291   17.3709    0.0000 C   0  0  0  0  0  0  0  0  0  0  0  0
   -8.7029   18.0718    0.0000 C   0  0  0  0  0  0  0  0  0  0  0  0
   -7.3281   18.6717    0.0000 C   0  0  0  0  0  0  0  0  0  0  0  0
   -5.9123   19.1671    0.0000 C   0  0  0  0  0  0  0  0  0  0  0  0
   -4.4634   19.5553    0.0000 C   0  0  0  0  0  0  0  0  0  0  0  0
   -2.9895   19.8342    0.0000 C   0  0  0  0  0  0  0  0  0  0  0  0
   -1.4990   20.0021    0.0000 C   0  0  0  0  0  0  0  0  0  0  0  0
    0.0000   20.0582    0.0000 C   0  0  0  0  0  0  0  0  0  0  0  0
    1.4990   20.0021    0.0000 C   0  0  0  0  0  0  0  0  0  0  0  0
    2.9895   19.8342    0.0000 C   0  0  0  0  0  0  0  0  0  0  0  0
    4.4634   19.5553    0.0000 C   0  0  0  0  0  0  0  0  0  0  0  0
    5.9123   19.1671    0.0000 C   0  0  0  0  0  0  0  0  0  0  0  0
    7.3281   18.6717    0.0000 C   0  0  0  0  0  0  0  0  0  0  0  0
    8.7029   18.0718    0.0000 C   0  0  0  0  0  0  0  0  0  0  0  0
   10.0291   17.3709    0.0000 C   0  0  0  0  0  0  0  0  0  0  0  0
   11.2992   16.5729    0.0000 C   0  0  0  0  0  0  0  0  0  0  0  0
   12.5061   15.6821    0.0000 C   0  0  0  0  0  0  0  0  0  0  0  0
   13.6430   14.7037    0.0000 C   0  0  0  0  0  0  0  0  0  0  0  0
   14.7037   13.6430    0.0000 C   0  0  0  0  0  0  0  0  0  0  0  0
   15.6821   12.5061    0.0000 C   0  0  0  0  0  0  0  0  0  0  0  0
   16.5729   11.2992    0.0000 C   0  0  0  0  0  0  0  0  0  0  0  0
   17.3709   10.0291    0.0000 C   0  0  0  0  0  0  0  0  0  0  0  0
   18.0718    8.7029    0.0000 C   0  0  0  0  0  0  0  0  0  0  0  0
   18.6717    7.3281    0.0000 C   0  0  0  0  0  0  0  0  0  0  0  0
   19.1671    5.9123    0.0000 C   0  0  0  0  0  0  0  0  0  0  0  0
   19.5553    4.4634    0.0000 C   0  0  0  0  0  0  0  0  0  0  0  0
   19.8342    2.9895    0.0000 C   0  0  0  0  0  0  0  0  0  0  0  0
   20.0021    1.4990    0.0000 C   0  0  0  0  0  0  0  0  0  0  0  0
  1  2  1  0
  2  3  1  0
  3  4  2  0
  4  5  1  0
  5  6  2  0
  6  7  1  0
  7  8  2  0
  8  9  1  0
  9 10  2  0
 10 11  1  0
 11 12  2  0
 12 13  1  0
 13 14  2  0
 14 15  1  0
 15 16  1  0
 16 17  1  0
 17 18  1  0
 18 19  1  0
 19 20  1  0
 20 21  1  0
 21 22  1  0
 22 23  1  0
 23 24  1  0
 24 25  1  0
 25 26  1  0
 26 27  1  0
 27 28  1  0
 28 29  1  0
 29 30  1  0
 30 31  1  0
 31 32  1  0
 32 33  1  0
 33 34  1  0
 34 35  1  0
 35 36  1  0
 36 37  1  0
 37 38  1  0
 38 39  1  0
 39 40  1  0
 40 41  1  0
 41 42  1  0
 42 43  1  0
 43 44  1  0
 44 45  1  0
 45 46  1  0
 46 47  1  0
 47 48  1  0
 48 49  1  0
 49 50  1  0
 50 51  1  0
 51 52  1  0
 52 53  1  0
 53 54  1  0
 54 55  1  0
 55 56  1  0
 56 57  1  0
 57 58  1  0
 58 59  1  0
 59 60  1  0
 60 61  1  0
 61 62  1  0
 62 63  1  0
 63 64  1  0
 64 65  1  0
 65 66  1  0
 66 67  1  0
 67 68  1  0
 68 69  1  0
 69 70  1  0
 70 71  1  0
 71 72  1  0
 72 73  1  0
 73 74  1  0
 74 75  1  0
 75 76  1  0
 76 77  1  0
 77 78  1  0
 78 79  1  0
 79 80  1  0
 80 81  1  0
 81 82  1  0
 82 83  1  0
 83 84  1  0
 84 85  1  0
 85  2  1  0
M  END
>  <Title>  (930) 
idABHZgen7

$$$$

     RDKit          2D

 17 18  0  0  0  0  0  0  0  0999 V2000
    2.7760    0.0000    0.0000 C   0  0  0  0  0  0  0  0  0  0  0  0
    1.2760    0.0000    0.0000 C   0  0  0  0  0  0  0  0  0  0  0  0
    0.3943    1.2135    0.0000 C   0  0  0  0  0  0  0  0  0  0  0  0
   -1.0323    0.7500    0.0000 C   0  0  0  0  0  0  0  0  0  0  0  0
   -1.0323   -0.7500    0.0000 C   0  0  0  0  0  0  0  0  0  0  0  0
    0.3943   -1.2135    0.0000 C   0  0  0  0  0  0  0  0  0  0  0  0
    0.8578   -2.6401    0.0000 C   0  0  0  0  0  0  0  0  0  0  0  0
    2.3250   -2.9520    0.0000 O   0  0  0  0  0  0  0  0  0  0  0  0
   -0.1459   -3.7548    0.0000 N   0  0  0  0  0  0  0  0  0  0  0  0
    0.3177   -5.1814    0.0000 C   0  0  0  0  0  0  0  0  0  0  0  0
    1.7849   -5.4933    0.0000 O   0  0  0  0  0  0  0  0  0  0  0  0
   -0.6860   -6.2961    0.0000 C   0  0  0  0  0  0  0  0  0  0  0  0
   -0.3742   -7.7634    0.0000 C   0  0  0  0  0  0  0  0  0  0  0  0
   -1.6732   -8.5134    0.0000 C   0  0  0  0  0  0  0  0  0  0  0  0
   -2.7879   -7.5097    0.0000 C   0  0  0  0  0  0  0  0  0  0  0  0
   -4.2552   -7.8215    0.0000 O   0  0  0  0  0  0  0  0  0  0  0  0
   -2.1778   -6.1393    0.0000 O   0  0  0  0  0  0  0  0  0  0  0  0
  1  2  1  0
  2  3  1  0
  3  4  1  0
  4  5  2  0
  5  6  1  0
  6  7  1  0
  7  8  2  0
  7  9  1  0
  9 10  1  0
 10 11  2  0
 10 12  1  0
 12 13  1  0
 13 14  1  0
 14 15  1  0
 15 16  2  0
 15 17  1  0
  6  2  1  0
 17 12  1  0
M  END
>  <Title>  (931) 
idABIAgen7

$$$$

     RDKit          2D

 10 10  0  0  0  0  0  0  0  0999 V2000
    5.2500   -1.2990    0.0000 C   0  0  0  0  0  0  0  0  0  0  0  0
    3.7500   -1.2990    0.0000 C   0  0  0  0  0  0  0  0  0  0  0  0
    3.0000   -2.5981    0.0000 O   0  0  0  0  0  0  0  0  0  0  0  0
    3.0000    0.0000    0.0000 N   0  0  0  0  0  0  0  0  0  0  0  0
    1.5000    0.0000    0.0000 C   0  0  0  0  0  0  0  0  0  0  0  0
    0.7500   -1.2990    0.0000 C   0  0  0  0  0  0  0  0  0  0  0  0
   -0.7500   -1.2990    0.0000 C   0  0  0  0  0  0  0  0  0  0  0  0
   -1.5000    0.0000    0.0000 C   0  0  0  0  0  0  0  0  0  0  0  0
   -0.7500    1.2990    0.0000 C   0  0  0  0  0  0  0  0  0  0  0  0
    0.7500    1.2990    0.0000 C   0  0  0  0  0  0  0  0  0  0  0  0
  1  2  1  0
  2  3  2  0
  2  4  1  0
  4  5  1  0
  5  6  1  0
  6  7  1  0
  7  8  1  0
  8  9  1  0
  9 10  1  0
 10  5  1  0
M  END
>  <Title>  (932) 
idABIBgen7

$$$$

     RDKit          2D

 94 94  0  0  0  0  0  0  0  0999 V2000
   23.7063    0.0000    0.0000 C   0  0  0  0  0  0  0  0  0  0  0  0
   22.2063    0.0000    0.0000 C   0  0  0  0  0  0  0  0  0  0  0  0
   22.1557    1.4991    0.0000 C   0  0  0  0  0  0  0  0  0  0  0  0
   22.0039    2.9914    0.0000 C   0  0  0  0  0  0  0  0  0  0  0  0
   21.7518    4.4701    0.0000 C   0  0  0  0  0  0  0  0  0  0  0  0
   21.4004    5.9284    0.0000 C   0  0  0  0  0  0  0  0  0  0  0  0
   20.9513    7.3596    0.0000 C   0  0  0  0  0  0  0  0  0  0  0  0
   20.4067    8.7572    0.0000 C   0  0  0  0  0  0  0  0  0  0  0  0
   19.7689   10.1149    0.0000 C   0  0  0  0  0  0  0  0  0  0  0  0
   19.0410   11.4264    0.0000 C   0  0  0  0  0  0  0  0  0  0  0  0
   18.2262   12.6858    0.0000 C   0  0  0  0  0  0  0  0  0  0  0  0
   17.3282   13.8873    0.0000 C   0  0  0  0  0  0  0  0  0  0  0  0
   16.3511   15.0254    0.0000 C   0  0  0  0  0  0  0  0  0  0  0  0
   15.2994   16.0950    0.0000 C   0  0  0  0  0  0  0  0  0  0  0  0
   14.1780   17.0911    0.0000 C   0  0  0  0  0  0  0  0  0  0  0  0
   12.9918   18.0093    0.0000 C   0  0  0  0  0  0  0  0  0  0  0  0
   11.7464   18.8453    0.0000 C   0  0  0  0  0  0  0  0  0  0  0  0
   10.4473   19.5953    0.0000 C   0  0  0  0  0  0  0  0  0  0  0  0
    9.1006   20.2559    0.0000 C   0  0  0  0  0  0  0  0  0  0  0  0
    7.7124   20.8240    0.0000 C   0  0  0  0  0  0  0  0  0  0  0  0
    6.2890   21.2972    0.0000 C   0  0  0  0  0  0  0  0  0  0  0  0
    4.8368   21.6732    0.0000 C   0  0  0  0  0  0  0  0  0  0  0  0
    3.3627   21.9503    0.0000 C   0  0  0  0  0  0  0  0  0  0  0  0
    1.8731   22.1272    0.0000 C   0  0  0  0  0  0  0  0  0  0  0  0
    0.3751   22.2032    0.0000 C   0  0  0  0  0  0  0  0  0  0  0  0
   -1.1247   22.1778    0.0000 C   0  0  0  0  0  0  0  0  0  0  0  0
   -2.6194   22.0513    0.0000 C   0  0  0  0  0  0  0  0  0  0  0  0
   -4.1021   21.8242    0.0000 C   0  0  0  0  0  0  0  0  0  0  0  0
   -5.5661   21.4974    0.0000 C   0  0  0  0  0  0  0  0  0  0  0  0
   -7.0047   21.0726    0.0000 C   0  0  0  0  0  0  0  0  0  0  0  0
   -8.4113   20.5517    0.0000 C   0  0  0  0  0  0  0  0  0  0  0  0
   -9.7795   19.9370    0.0000 C   0  0  0  0  0  0  0  0  0  0  0  0
  -11.1032   19.2313    0.0000 C   0  0  0  0  0  0  0  0  0  0  0  0
  -12.3761   18.4378    0.0000 C   0  0  0  0  0  0  0  0  0  0  0  0
  -13.5926   17.5602    0.0000 C   0  0  0  0  0  0  0  0  0  0  0  0
  -14.7471   16.6025    0.0000 C   0  0  0  0  0  0  0  0  0  0  0  0
  -15.8343   15.5691    0.0000 C   0  0  0  0  0  0  0  0  0  0  0  0
  -16.8492   14.4646    0.0000 C   0  0  0  0  0  0  0  0  0  0  0  0
  -17.7873   13.2941    0.0000 C   0  0  0  0  0  0  0  0  0  0  0  0
  -18.6442   12.0630    0.0000 C   0  0  0  0  0  0  0  0  0  0  0  0
  -19.4160   10.7768    0.0000 C   0  0  0  0  0  0  0  0  0  0  0  0
  -20.0993    9.4414    0.0000 C   0  0  0  0  0  0  0  0  0  0  0  0
  -20.6908    8.0630    0.0000 C   0  0  0  0  0  0  0  0  0  0  0  0
  -21.1879    6.6478    0.0000 C   0  0  0  0  0  0  0  0  0  0  0  0
  -21.5884    5.2022    0.0000 C   0  0  0  0  0  0  0  0  0  0  0  0
  -21.8903    3.7329    0.0000 C   0  0  0  0  0  0  0  0  0  0  0  0
  -22.0924    2.2466    0.0000 C   0  0  0  0  0  0  0  0  0  0  0  0
  -22.1937    0.7500    0.0000 C   0  0  0  0  0  0  0  0  0  0  0  0
  -22.1937   -0.7500    0.0000 C   0  0  0  0  0  0  0  0  0  0  0  0
  -22.0924   -2.2466    0.0000 C   0  0  0  0  0  0  0  0  0  0  0  0
  -21.8903   -3.7329    0.0000 C   0  0  0  0  0  0  0  0  0  0  0  0
  -21.5884   -5.2022    0.0000 C   0  0  0  0  0  0  0  0  0  0  0  0
  -21.1879   -6.6478    0.0000 C   0  0  0  0  0  0  0  0  0  0  0  0
  -20.6908   -8.0630    0.0000 C   0  0  0  0  0  0  0  0  0  0  0  0
  -20.0993   -9.4414    0.0000 C   0  0  0  0  0  0  0  0  0  0  0  0
  -19.4160  -10.7768    0.0000 C   0  0  0  0  0  0  0  0  0  0  0  0
  -18.6442  -12.0630    0.0000 C   0  0  0  0  0  0  0  0  0  0  0  0
  -17.7873  -13.2941    0.0000 C   0  0  0  0  0  0  0  0  0  0  0  0
  -16.8492  -14.4646    0.0000 C   0  0  0  0  0  0  0  0  0  0  0  0
  -15.8343  -15.5691    0.0000 C   0  0  0  0  0  0  0  0  0  0  0  0
  -14.7471  -16.6025    0.0000 C   0  0  0  0  0  0  0  0  0  0  0  0
  -13.5926  -17.5602    0.0000 C   0  0  0  0  0  0  0  0  0  0  0  0
  -12.3761  -18.4378    0.0000 C   0  0  0  0  0  0  0  0  0  0  0  0
  -11.1032  -19.2313    0.0000 C   0  0  0  0  0  0  0  0  0  0  0  0
   -9.7795  -19.9370    0.0000 C   0  0  0  0  0  0  0  0  0  0  0  0
   -8.4113  -20.5517    0.0000 C   0  0  0  0  0  0  0  0  0  0  0  0
   -7.0047  -21.0726    0.0000 C   0  0  0  0  0  0  0  0  0  0  0  0
   -5.5661  -21.4974    0.0000 C   0  0  0  0  0  0  0  0  0  0  0  0
   -4.1021  -21.8242    0.0000 C   0  0  0  0  0  0  0  0  0  0  0  0
   -2.6194  -22.0513    0.0000 C   0  0  0  0  0  0  0  0  0  0  0  0
   -1.1247  -22.1778    0.0000 C   0  0  0  0  0  0  0  0  0  0  0  0
    0.3751  -22.2032    0.0000 C   0  0  0  0  0  0  0  0  0  0  0  0
    1.8731  -22.1272    0.0000 C   0  0  0  0  0  0  0  0  0  0  0  0
    3.3627  -21.9503    0.0000 C   0  0  0  0  0  0  0  0  0  0  0  0
    4.8368  -21.6732    0.0000 C   0  0  0  0  0  0  0  0  0  0  0  0
    6.2890  -21.2972    0.0000 C   0  0  0  0  0  0  0  0  0  0  0  0
    7.7124  -20.8240    0.0000 C   0  0  0  0  0  0  0  0  0  0  0  0
    9.1006  -20.2559    0.0000 C   0  0  0  0  0  0  0  0  0  0  0  0
   10.4473  -19.5953    0.0000 C   0  0  0  0  0  0  0  0  0  0  0  0
   11.7464  -18.8453    0.0000 C   0  0  0  0  0  0  0  0  0  0  0  0
   12.9918  -18.0093    0.0000 C   0  0  0  0  0  0  0  0  0  0  0  0
   14.1780  -17.0911    0.0000 C   0  0  0  0  0  0  0  0  0  0  0  0
   15.2994  -16.0950    0.0000 C   0  0  0  0  0  0  0  0  0  0  0  0
   16.3511  -15.0254    0.0000 C   0  0  0  0  0  0  0  0  0  0  0  0
   17.3282  -13.8873    0.0000 C   0  0  0  0  0  0  0  0  0  0  0  0
   18.2262  -12.6858    0.0000 C   0  0  0  0  0  0  0  0  0  0  0  0
   19.0410  -11.4264    0.0000 C   0  0  0  0  0  0  0  0  0  0  0  0
   19.7689  -10.1149    0.0000 C   0  0  0  0  0  0  0  0  0  0  0  0
   20.4067   -8.7572    0.0000 C   0  0  0  0  0  0  0  0  0  0  0  0
   20.9513   -7.3596    0.0000 C   0  0  0  0  0  0  0  0  0  0  0  0
   21.4004   -5.9284    0.0000 C   0  0  0  0  0  0  0  0  0  0  0  0
   21.7518   -4.4701    0.0000 C   0  0  0  0  0  0  0  0  0  0  0  0
   22.0039   -2.9914    0.0000 C   0  0  0  0  0  0  0  0  0  0  0  0
   22.1557   -1.4991    0.0000 C   0  0  0  0  0  0  0  0  0  0  0  0
  1  2  1  0
  2  3  1  0
  3  4  1  0
  4  5  1  0
  5  6  1  0
  6  7  1  0
  7  8  1  0
  8  9  1  0
  9 10  1  0
 10 11  1  0
 11 12  1  0
 12 13  1  0
 13 14  1  0
 14 15  1  0
 15 16  1  0
 16 17  1  0
 17 18  1  0
 18 19  1  0
 19 20  1  0
 20 21  1  0
 21 22  1  0
 22 23  1  0
 23 24  1  0
 24 25  1  0
 25 26  1  0
 26 27  1  0
 27 28  1  0
 28 29  1  0
 29 30  1  0
 30 31  1  0
 31 32  1  0
 32 33  1  0
 33 34  1  0
 34 35  1  0
 35 36  1  0
 36 37  1  0
 37 38  1  0
 38 39  1  0
 39 40  1  0
 40 41  1  0
 41 42  1  0
 42 43  1  0
 43 44  1  0
 44 45  1  0
 45 46  1  0
 46 47  1  0
 47 48  1  0
 48 49  1  0
 49 50  1  0
 50 51  1  0
 51 52  1  0
 52 53  1  0
 53 54  1  0
 54 55  1  0
 55 56  1  0
 56 57  1  0
 57 58  1  0
 58 59  1  0
 59 60  1  0
 60 61  1  0
 61 62  1  0
 62 63  1  0
 63 64  1  0
 64 65  1  0
 65 66  1  0
 66 67  1  0
 67 68  1  0
 68 69  1  0
 69 70  1  0
 70 71  1  0
 71 72  1  0
 72 73  1  0
 73 74  1  0
 74 75  1  0
 75 76  1  0
 76 77  1  0
 77 78  1  0
 78 79  1  0
 79 80  1  0
 80 81  1  0
 81 82  1  0
 82 83  1  0
 83 84  1  0
 84 85  1  0
 85 86  1  0
 86 87  1  0
 87 88  1  0
 88 89  1  0
 89 90  1  0
 90 91  1  0
 91 92  1  0
 92 93  1  0
 93 94  1  0
 94  2  1  0
M  END
>  <Title>  (933) 
idABICgen7

$$$$

     RDKit          2D

 28 31  0  0  0  0  0  0  0  0999 V2000
   -1.3240   -6.3062    0.0000 C   0  0  0  0  0  0  0  0  0  0  0  0
   -0.7500   -4.9204    0.0000 C   0  0  0  0  0  0  0  0  0  0  0  0
    0.7500   -4.9204    0.0000 C   0  0  0  0  0  0  0  0  0  0  0  0
    1.8107   -3.8597    0.0000 C   0  0  0  0  0  0  0  0  0  0  0  0
    1.8107   -2.3597    0.0000 C   0  0  0  0  0  0  0  0  0  0  0  0
    3.1965   -1.7857    0.0000 C   0  0  0  0  0  0  0  0  0  0  0  0
    3.3923   -0.2985    0.0000 O   0  0  0  0  0  0  0  0  0  0  0  0
    4.3865   -2.6988    0.0000 N   0  0  0  0  0  0  0  0  0  0  0  0
    5.7723   -2.1248    0.0000 C   0  0  0  0  0  0  0  0  0  0  0  0
    6.9624   -3.0379    0.0000 N   0  0  0  0  0  0  0  0  0  0  0  0
    8.3482   -2.4639    0.0000 N   0  0  0  0  0  0  0  0  0  0  0  0
    8.5440   -0.9767    0.0000 N   0  0  0  0  0  0  0  0  0  0  0  0
    7.3539   -0.0636    0.0000 N   0  0  0  0  0  0  0  0  0  0  0  0
    5.9681   -0.6376    0.0000 N   0  0  0  0  0  0  0  0  0  0  0  0
    0.7500   -1.2990    0.0000 C   0  0  0  0  0  0  0  0  0  0  0  0
    1.5000    0.0000    0.0000 C   0  0  0  0  0  0  0  0  0  0  0  0
    0.7500    1.2990    0.0000 C   0  0  0  0  0  0  0  0  0  0  0  0
   -0.7500    1.2990    0.0000 C   0  0  0  0  0  0  0  0  0  0  0  0
   -1.5000    0.0000    0.0000 C   0  0  0  0  0  0  0  0  0  0  0  0
   -0.7500   -1.2990    0.0000 C   0  0  0  0  0  0  0  0  0  0  0  0
   -1.8107   -2.3597    0.0000 N   0  0  0  0  0  0  0  0  0  0  0  0
   -3.1097   -1.6097    0.0000 C   0  0  0  0  0  0  0  0  0  0  0  0
   -4.4087   -2.3597    0.0000 C   0  0  0  0  0  0  0  0  0  0  0  0
   -4.4087   -3.8597    0.0000 C   0  0  0  0  0  0  0  0  0  0  0  0
   -5.7078   -4.6097    0.0000 C   0  0  0  0  0  0  0  0  0  0  0  0
   -7.0068   -5.3597    0.0000 N   0  0  0  0  0  0  0  0  0  0  0  0
   -3.1097   -4.6097    0.0000 C   0  0  0  0  0  0  0  0  0  0  0  0
   -1.8107   -3.8597    0.0000 C   0  0  0  0  0  0  0  0  0  0  0  0
  1  2  1  0
  2  3  1  0
  3  4  1  0
  4  5  1  0
  5  6  1  0
  6  7  2  0
  6  8  1  0
  8  9  1  0
  9 10  2  0
 10 11  1  0
 11 12  2  0
 12 13  1  0
 13 14  2  0
  5 15  1  0
 15 16  2  0
 16 17  1  0
 17 18  2  0
 18 19  1  0
 19 20  2  0
 20 21  1  0
 21 22  1  0
 22 23  1  0
 23 24  1  0
 24 25  1  0
 25 26  3  0
 24 27  1  0
 27 28  2  0
 28  2  1  0
 14  9  1  0
 20 15  1  0
 28 21  1  0
M  END
>  <Title>  (934) 
idABIDgen7

$$$$

     RDKit          2D

  7  7  0  0  0  0  0  0  0  0999 V2000
    3.5260   -1.2990    0.0000 C   0  0  0  0  0  0  0  0  0  0  0  0
    2.7760    0.0000    0.0000 O   0  0  0  0  0  0  0  0  0  0  0  0
    1.2760    0.0000    0.0000 C   0  0  0  0  0  0  0  0  0  0  0  0
    0.3943    1.2135    0.0000 C   0  0  0  0  0  0  0  0  0  0  0  0
   -1.0323    0.7500    0.0000 C   0  0  0  0  0  0  0  0  0  0  0  0
   -1.0323   -0.7500    0.0000 C   0  0  0  0  0  0  0  0  0  0  0  0
    0.3943   -1.2135    0.0000 C   0  0  0  0  0  0  0  0  0  0  0  0
  1  2  1  0
  2  3  1  0
  3  4  2  0
  4  5  1  0
  5  6  1  0
  6  7  2  0
  7  3  1  0
M  END
>  <Title>  (935) 
idABIEgen7

$$$$

     RDKit          2D

 19 20  0  0  0  0  0  0  0  0999 V2000
    0.3207  -11.1638    0.0000 C   0  0  0  0  0  0  0  0  0  0  0  0
    0.4775   -9.6721    0.0000 C   0  0  0  0  0  0  0  0  0  0  0  0
   -0.7360   -8.7904    0.0000 O   0  0  0  0  0  0  0  0  0  0  0  0
    1.8478   -9.0619    0.0000 C   0  0  0  0  0  0  0  0  0  0  0  0
    3.0613   -9.9436    0.0000 O   0  0  0  0  0  0  0  0  0  0  0  0
    2.0046   -7.5702    0.0000 N   0  0  0  0  0  0  0  0  0  0  0  0
    3.3037   -6.8202    0.0000 C   0  0  0  0  0  0  0  0  0  0  0  0
    2.9918   -5.3529    0.0000 C   0  0  0  0  0  0  0  0  0  0  0  0
    1.5000   -5.1962    0.0000 C   0  0  0  0  0  0  0  0  0  0  0  0
    0.7500   -3.8971    0.0000 C   0  0  0  0  0  0  0  0  0  0  0  0
   -0.7500   -3.8971    0.0000 O   0  0  0  0  0  0  0  0  0  0  0  0
    1.5000   -2.5981    0.0000 N   0  0  0  0  0  0  0  0  0  0  0  0
    0.7500   -1.2990    0.0000 C   0  0  0  0  0  0  0  0  0  0  0  0
    1.5000    0.0000    0.0000 C   0  0  0  0  0  0  0  0  0  0  0  0
    0.7500    1.2990    0.0000 C   0  0  0  0  0  0  0  0  0  0  0  0
   -0.7500    1.2990    0.0000 C   0  0  0  0  0  0  0  0  0  0  0  0
   -1.5000    0.0000    0.0000 C   0  0  0  0  0  0  0  0  0  0  0  0
   -0.7500   -1.2990    0.0000 C   0  0  0  0  0  0  0  0  0  0  0  0
    0.8899   -6.5665    0.0000 C   0  0  0  0  0  0  0  0  0  0  0  0
  1  2  2  0
  2  3  1  0
  2  4  1  0
  4  5  2  0
  4  6  1  0
  6  7  1  0
  7  8  1  0
  8  9  1  0
  9 10  1  0
 10 11  2  0
 10 12  1  0
 12 13  1  0
 13 14  2  0
 14 15  1  0
 15 16  2  0
 16 17  1  0
 17 18  2  0
  9 19  1  0
 19  6  1  0
 18 13  1  0
M  END
>  <Title>  (936) 
idABIFgen7

$$$$

     RDKit          2D

 41 46  0  0  0  0  0  0  0  0999 V2000
    2.1535   -8.4451    0.0000 C   0  0  0  0  0  0  0  0  0  0  0  0
    1.4564   -7.1169    0.0000 C   0  0  0  0  0  0  0  0  0  0  0  0
    2.5792   -6.1222    0.0000 C   0  0  0  0  0  0  0  0  0  0  0  0
    3.1111   -4.7197    0.0000 C   0  0  0  0  0  0  0  0  0  0  0  0
    2.9303   -3.2306    0.0000 C   0  0  0  0  0  0  0  0  0  0  0  0
    2.0782   -1.9961    0.0000 C   0  0  0  0  0  0  0  0  0  0  0  0
    3.0729   -0.8734    0.0000 C   0  0  0  0  0  0  0  0  0  0  0  0
    2.5979    0.5494    0.0000 O   0  0  0  0  0  0  0  0  0  0  0  0
    4.5426   -1.1734    0.0000 N   0  0  0  0  0  0  0  0  0  0  0  0
    5.5372   -0.0506    0.0000 C   0  0  0  0  0  0  0  0  0  0  0  0
    7.0069   -0.3507    0.0000 N   0  0  0  0  0  0  0  0  0  0  0  0
    8.0016    0.7721    0.0000 N   0  0  0  0  0  0  0  0  0  0  0  0
    7.5266    2.1949    0.0000 N   0  0  0  0  0  0  0  0  0  0  0  0
    6.0569    2.4949    0.0000 N   0  0  0  0  0  0  0  0  0  0  0  0
    5.0622    1.3722    0.0000 N   0  0  0  0  0  0  0  0  0  0  0  0
    0.7500   -1.2990    0.0000 C   0  0  0  0  0  0  0  0  0  0  0  0
    1.5000    0.0000    0.0000 C   0  0  0  0  0  0  0  0  0  0  0  0
    0.7500    1.2990    0.0000 C   0  0  0  0  0  0  0  0  0  0  0  0
   -0.7500    1.2990    0.0000 C   0  0  0  0  0  0  0  0  0  0  0  0
   -1.5000    0.0000    0.0000 C   0  0  0  0  0  0  0  0  0  0  0  0
   -0.7500   -1.2990    0.0000 C   0  0  0  0  0  0  0  0  0  0  0  0
   -2.0782   -1.9961    0.0000 C   0  0  0  0  0  0  0  0  0  0  0  0
   -2.7212   -0.6409    0.0000 C   0  0  0  0  0  0  0  0  0  0  0  0
   -4.2164   -0.5202    0.0000 C   0  0  0  0  0  0  0  0  0  0  0  0
   -5.0685   -1.7547    0.0000 C   0  0  0  0  0  0  0  0  0  0  0  0
   -4.4254   -3.1099    0.0000 C   0  0  0  0  0  0  0  0  0  0  0  0
   -2.9303   -3.2306    0.0000 C   0  0  0  0  0  0  0  0  0  0  0  0
   -3.1111   -4.7197    0.0000 C   0  0  0  0  0  0  0  0  0  0  0  0
   -4.5917   -4.4790    0.0000 C   0  0  0  0  0  0  0  0  0  0  0  0
   -5.5403   -5.6410    0.0000 C   0  0  0  0  0  0  0  0  0  0  0  0
   -5.0084   -7.0435    0.0000 C   0  0  0  0  0  0  0  0  0  0  0  0
   -3.5278   -7.2841    0.0000 C   0  0  0  0  0  0  0  0  0  0  0  0
   -2.5792   -6.1222    0.0000 C   0  0  0  0  0  0  0  0  0  0  0  0
   -1.4564   -7.1169    0.0000 C   0  0  0  0  0  0  0  0  0  0  0  0
   -2.4955   -8.1987    0.0000 C   0  0  0  0  0  0  0  0  0  0  0  0
   -2.0782   -9.6395    0.0000 C   0  0  0  0  0  0  0  0  0  0  0  0
   -0.6218   -9.9984    0.0000 C   0  0  0  0  0  0  0  0  0  0  0  0
   -0.2044  -11.4392    0.0000 C   0  0  0  0  0  0  0  0  0  0  0  0
    0.2129  -12.8800    0.0000 N   0  0  0  0  0  0  0  0  0  0  0  0
    0.4173   -8.9166    0.0000 C   0  0  0  0  0  0  0  0  0  0  0  0
   -0.0000   -7.4758    0.0000 C   0  0  0  0  0  0  0  0  0  0  0  0
  1  2  1  0
  2  3  2  0
  3  4  1  0
  4  5  1  0
  5  6  1  0
  6  7  1  0
  7  8  2  0
  7  9  1  0
  9 10  1  0
 10 11  2  0
 11 12  1  0
 12 13  2  0
 13 14  1  0
 14 15  2  0
  6 16  1  0
 16 17  2  0
 17 18  1  0
 18 19  2  0
 19 20  1  0
 20 21  2  0
 21 22  1  0
 22 23  2  0
 23 24  1  0
 24 25  2  0
 25 26  1  0
 26 27  2  0
 27 28  1  0
 28 29  2  0
 29 30  1  0
 30 31  2  0
 31 32  1  0
 32 33  2  0
 33 34  1  0
 34 35  2  0
 35 36  1  0
 36 37  2  0
 37 38  1  0
 38 39  3  0
 37 40  1  0
 40 41  2  0
 41  2  1  0
 15 10  1  0
 21 16  1  0
 27 22  1  0
 33 28  1  0
 41 34  1  0
M  END
>  <Title>  (937) 
idABIGgen7

$$$$

     RDKit          2D

 12 12  0  0  0  0  0  0  0  0999 V2000
    4.1621    0.0000    0.0000 O   0  0  0  0  0  0  0  0  0  0  0  0
    2.6621    0.0000    0.0000 C   0  0  0  0  0  0  0  0  0  0  0  0
    2.2395    1.4392    0.0000 C   0  0  0  0  0  0  0  0  0  0  0  0
    1.1059    2.4215    0.0000 C   0  0  0  0  0  0  0  0  0  0  0  0
   -0.3789    2.6350    0.0000 C   0  0  0  0  0  0  0  0  0  0  0  0
   -1.7433    2.0119    0.0000 C   0  0  0  0  0  0  0  0  0  0  0  0
   -2.5543    0.7500    0.0000 C   0  0  0  0  0  0  0  0  0  0  0  0
   -2.5543   -0.7500    0.0000 C   0  0  0  0  0  0  0  0  0  0  0  0
   -1.7433   -2.0119    0.0000 C   0  0  0  0  0  0  0  0  0  0  0  0
   -0.3789   -2.6350    0.0000 C   0  0  0  0  0  0  0  0  0  0  0  0
    1.1059   -2.4215    0.0000 C   0  0  0  0  0  0  0  0  0  0  0  0
    2.2395   -1.4392    0.0000 C   0  0  0  0  0  0  0  0  0  0  0  0
  1  2  1  0
  2  3  1  0
  3  4  1  0
  4  5  1  0
  5  6  1  0
  6  7  1  0
  7  8  1  0
  8  9  1  0
  9 10  1  0
 10 11  1  0
 11 12  1  0
 12  2  1  0
M  END
>  <Title>  (938) 
idABIHgen7

$$$$

     RDKit          2D

 10 10  0  0  0  0  0  0  0  0999 V2000
    5.2500   -1.2990    0.0000 C   0  0  0  0  0  0  0  0  0  0  0  0
    3.7500   -1.2990    0.0000 C   0  0  0  0  0  0  0  0  0  0  0  0
    3.0000   -2.5981    0.0000 O   0  0  0  0  0  0  0  0  0  0  0  0
    3.0000    0.0000    0.0000 N   0  0  0  0  0  0  0  0  0  0  0  0
    1.5000    0.0000    0.0000 C   0  0  0  0  0  0  0  0  0  0  0  0
    0.7500   -1.2990    0.0000 C   0  0  0  0  0  0  0  0  0  0  0  0
   -0.7500   -1.2990    0.0000 C   0  0  0  0  0  0  0  0  0  0  0  0
   -1.5000    0.0000    0.0000 C   0  0  0  0  0  0  0  0  0  0  0  0
   -0.7500    1.2990    0.0000 C   0  0  0  0  0  0  0  0  0  0  0  0
    0.7500    1.2990    0.0000 C   0  0  0  0  0  0  0  0  0  0  0  0
  1  2  1  0
  2  3  2  0
  2  4  1  0
  4  5  1  0
  5  6  2  0
  6  7  1  0
  7  8  2  0
  8  9  1  0
  9 10  1  0
 10  5  1  0
M  END
>  <Title>  (939) 
idABIIgen7

$$$$

     RDKit          2D

 27 30  0  0  0  0  0  0  0  0999 V2000
   -2.3737   -6.1885    0.0000 C   0  0  0  0  0  0  0  0  0  0  0  0
   -1.4095   -5.0395    0.0000 C   0  0  0  0  0  0  0  0  0  0  0  0
   -0.0000   -5.5525    0.0000 C   0  0  0  0  0  0  0  0  0  0  0  0
    1.4095   -5.0395    0.0000 C   0  0  0  0  0  0  0  0  0  0  0  0
    2.1595   -3.7404    0.0000 C   0  0  0  0  0  0  0  0  0  0  0  0
    1.8991   -2.2632    0.0000 C   0  0  0  0  0  0  0  0  0  0  0  0
    3.1981   -1.5132    0.0000 C   0  0  0  0  0  0  0  0  0  0  0  0
    3.1981   -0.0132    0.0000 O   0  0  0  0  0  0  0  0  0  0  0  0
    4.4971   -2.2632    0.0000 O   0  0  0  0  0  0  0  0  0  0  0  0
    5.7962   -1.5132    0.0000 C   0  0  0  0  0  0  0  0  0  0  0  0
    7.0952   -2.2632    0.0000 N   0  0  0  0  0  0  0  0  0  0  0  0
    8.3943   -1.5132    0.0000 N   0  0  0  0  0  0  0  0  0  0  0  0
    8.3943   -0.0132    0.0000 N   0  0  0  0  0  0  0  0  0  0  0  0
    7.0952    0.7368    0.0000 N   0  0  0  0  0  0  0  0  0  0  0  0
    5.7962   -0.0132    0.0000 N   0  0  0  0  0  0  0  0  0  0  0  0
    0.7500   -1.2990    0.0000 C   0  0  0  0  0  0  0  0  0  0  0  0
    1.5000    0.0000    0.0000 C   0  0  0  0  0  0  0  0  0  0  0  0
    0.7500    1.2990    0.0000 C   0  0  0  0  0  0  0  0  0  0  0  0
   -0.7500    1.2990    0.0000 C   0  0  0  0  0  0  0  0  0  0  0  0
   -1.5000    0.0000    0.0000 C   0  0  0  0  0  0  0  0  0  0  0  0
   -0.7500   -1.2990    0.0000 C   0  0  0  0  0  0  0  0  0  0  0  0
   -1.8991   -2.2632    0.0000 C   0  0  0  0  0  0  0  0  0  0  0  0
   -3.0481   -1.2990    0.0000 C   0  0  0  0  0  0  0  0  0  0  0  0
   -4.4577   -1.8121    0.0000 C   0  0  0  0  0  0  0  0  0  0  0  0
   -4.7181   -3.2893    0.0000 C   0  0  0  0  0  0  0  0  0  0  0  0
   -3.5691   -4.2535    0.0000 C   0  0  0  0  0  0  0  0  0  0  0  0
   -2.1595   -3.7404    0.0000 C   0  0  0  0  0  0  0  0  0  0  0  0
  1  2  1  0
  2  3  2  0
  3  4  1  0
  4  5  1  0
  5  6  1  0
  6  7  1  0
  7  8  2  0
  7  9  1  0
  9 10  1  0
 10 11  2  0
 11 12  1  0
 12 13  2  0
 13 14  1  0
 14 15  2  0
  6 16  1  0
 16 17  2  0
 17 18  1  0
 18 19  2  0
 19 20  1  0
 20 21  2  0
 21 22  1  0
 22 23  2  0
 23 24  1  0
 24 25  2  0
 25 26  1  0
 26 27  2  0
 27  2  1  0
 15 10  1  0
 21 16  1  0
 27 22  1  0
M  END
>  <Title>  (940) 
idABIJgen7

$$$$

     RDKit          2D

 21 21  0  0  0  0  0  0  0  0999 V2000
    6.8067   -1.2990    0.0000 O   0  0  0  0  0  0  0  0  0  0  0  0
    6.0567    0.0000    0.0000 C   0  0  0  0  0  0  0  0  0  0  0  0
    4.5567    0.0000    0.0000 C   0  0  0  0  0  0  0  0  0  0  0  0
    4.3098    1.4795    0.0000 C   0  0  0  0  0  0  0  0  0  0  0  0
    3.5958    2.7988    0.0000 C   0  0  0  0  0  0  0  0  0  0  0  0
    2.4923    3.8147    0.0000 C   0  0  0  0  0  0  0  0  0  0  0  0
    1.1186    4.4172    0.0000 C   0  0  0  0  0  0  0  0  0  0  0  0
   -0.3763    4.5411    0.0000 C   0  0  0  0  0  0  0  0  0  0  0  0
   -1.8304    4.1729    0.0000 C   0  0  0  0  0  0  0  0  0  0  0  0
   -3.0861    3.3524    0.0000 C   0  0  0  0  0  0  0  0  0  0  0  0
   -4.0075    2.1687    0.0000 C   0  0  0  0  0  0  0  0  0  0  0  0
   -4.4945    0.7500    0.0000 C   0  0  0  0  0  0  0  0  0  0  0  0
   -4.4945   -0.7500    0.0000 C   0  0  0  0  0  0  0  0  0  0  0  0
   -4.0075   -2.1687    0.0000 C   0  0  0  0  0  0  0  0  0  0  0  0
   -3.0861   -3.3524    0.0000 C   0  0  0  0  0  0  0  0  0  0  0  0
   -1.8304   -4.1729    0.0000 C   0  0  0  0  0  0  0  0  0  0  0  0
   -0.3763   -4.5411    0.0000 C   0  0  0  0  0  0  0  0  0  0  0  0
    1.1186   -4.4172    0.0000 C   0  0  0  0  0  0  0  0  0  0  0  0
    2.4923   -3.8147    0.0000 N   0  0  0  0  0  0  0  0  0  0  0  0
    3.5958   -2.7988    0.0000 C   0  0  0  0  0  0  0  0  0  0  0  0
    4.3098   -1.4795    0.0000 C   0  0  0  0  0  0  0  0  0  0  0  0
  1  2  1  0
  2  3  1  0
  3  4  1  0
  4  5  1  0
  5  6  2  0
  6  7  1  0
  7  8  1  0
  8  9  1  0
  9 10  1  0
 10 11  1  0
 11 12  1  0
 12 13  1  0
 13 14  1  0
 14 15  1  0
 15 16  1  0
 16 17  1  0
 17 18  1  0
 18 19  1  0
 19 20  1  0
 20 21  1  0
 21  3  1  0
M  END
>  <Title>  (941) 
idABIKgen7

$$$$

     RDKit          2D

  9  8  0  0  0  0  0  0  0  0999 V2000
    0.0000    0.0000    0.0000 C   0  0  0  0  0  0  0  0  0  0  0  0
    1.2990    0.7500    0.0000 C   0  0  0  0  0  0  0  0  0  0  0  0
    2.5981    1.5000    0.0000 C   0  0  0  0  0  0  0  0  0  0  0  0
    3.8971    2.2500    0.0000 C   0  0  0  0  0  0  0  0  0  0  0  0
    5.1962    1.5000    0.0000 C   0  0  0  0  0  0  0  0  0  0  0  0
    6.4952    2.2500    0.0000 C   0  0  0  0  0  0  0  0  0  0  0  0
    7.7942    1.5000    0.0000 C   0  0  0  0  0  0  0  0  0  0  0  0
    9.0933    2.2500    0.0000 C   0  0  0  0  0  0  0  0  0  0  0  0
   10.3923    1.5000    0.0000 C   0  0  0  0  0  0  0  0  0  0  0  0
  1  2  1  0
  2  3  3  0
  3  4  1  0
  4  5  1  0
  5  6  1  0
  6  7  1  0
  7  8  1  0
  8  9  1  0
M  END
>  <Title>  (942) 
idABILgen7

$$$$

     RDKit          2D

  8  8  0  0  0  0  0  0  0  0999 V2000
    3.0000    0.0000    0.0000 C   0  0  0  0  0  0  0  0  0  0  0  0
    1.5000    0.0000    0.0000 C   0  0  0  0  0  0  0  0  0  0  0  0
    0.7500   -1.2990    0.0000 C   0  0  0  0  0  0  0  0  0  0  0  0
   -0.7500   -1.2990    0.0000 C   0  0  0  0  0  0  0  0  0  0  0  0
   -1.5000    0.0000    0.0000 C   0  0  0  0  0  0  0  0  0  0  0  0
   -0.7500    1.2990    0.0000 C   0  0  0  0  0  0  0  0  0  0  0  0
    0.7500    1.2990    0.0000 C   0  0  0  0  0  0  0  0  0  0  0  0
    1.5000    2.5981    0.0000 O   0  0  0  0  0  0  0  0  0  0  0  0
  1  2  1  0
  2  3  1  0
  3  4  1  0
  4  5  1  0
  5  6  1  0
  6  7  1  0
  7  8  2  0
  7  2  1  0
M  END
>  <Title>  (943) 
idABIMgen7

$$$$

     RDKit          2D

 10 10  0  0  0  0  0  0  0  0999 V2000
    2.7760    0.0000    0.0000 C   0  0  0  0  0  0  0  0  0  0  0  0
    1.2760    0.0000    0.0000 C   0  0  0  0  0  0  0  0  0  0  0  0
    0.3943    1.2135    0.0000 C   0  0  0  0  0  0  0  0  0  0  0  0
   -1.0323    0.7500    0.0000 C   0  0  0  0  0  0  0  0  0  0  0  0
   -1.0323   -0.7500    0.0000 C   0  0  0  0  0  0  0  0  0  0  0  0
   -2.2458   -1.6317    0.0000 C   0  0  0  0  0  0  0  0  0  0  0  0
   -2.0890   -3.1235    0.0000 O   0  0  0  0  0  0  0  0  0  0  0  0
   -3.6161   -1.0216    0.0000 O   0  0  0  0  0  0  0  0  0  0  0  0
    0.3943   -1.2135    0.0000 C   0  0  0  0  0  0  0  0  0  0  0  0
    0.8578   -2.6401    0.0000 O   0  0  0  0  0  0  0  0  0  0  0  0
  1  2  1  0
  2  3  1  0
  3  4  1  0
  4  5  1  0
  5  6  1  0
  6  7  2  0
  6  8  1  0
  5  9  1  0
  9 10  2  0
  9  2  1  0
M  END
>  <Title>  (944) 
idABINgen7

$$$$

     RDKit          2D

 94 94  0  0  0  0  0  0  0  0999 V2000
   23.7063    0.0000    0.0000 C   0  0  0  0  0  0  0  0  0  0  0  0
   22.2063    0.0000    0.0000 C   0  0  0  0  0  0  0  0  0  0  0  0
   22.1557    1.4991    0.0000 C   0  0  0  0  0  0  0  0  0  0  0  0
   22.0039    2.9914    0.0000 C   0  0  0  0  0  0  0  0  0  0  0  0
   21.7518    4.4701    0.0000 C   0  0  0  0  0  0  0  0  0  0  0  0
   21.4004    5.9284    0.0000 C   0  0  0  0  0  0  0  0  0  0  0  0
   20.9513    7.3596    0.0000 C   0  0  0  0  0  0  0  0  0  0  0  0
   20.4067    8.7572    0.0000 C   0  0  0  0  0  0  0  0  0  0  0  0
   19.7689   10.1149    0.0000 C   0  0  0  0  0  0  0  0  0  0  0  0
   19.0410   11.4264    0.0000 C   0  0  0  0  0  0  0  0  0  0  0  0
   18.2262   12.6858    0.0000 C   0  0  0  0  0  0  0  0  0  0  0  0
   17.3282   13.8873    0.0000 C   0  0  0  0  0  0  0  0  0  0  0  0
   16.3511   15.0254    0.0000 C   0  0  0  0  0  0  0  0  0  0  0  0
   15.2994   16.0950    0.0000 C   0  0  0  0  0  0  0  0  0  0  0  0
   14.1780   17.0911    0.0000 C   0  0  0  0  0  0  0  0  0  0  0  0
   12.9918   18.0093    0.0000 C   0  0  0  0  0  0  0  0  0  0  0  0
   11.7464   18.8453    0.0000 C   0  0  0  0  0  0  0  0  0  0  0  0
   10.4473   19.5953    0.0000 C   0  0  0  0  0  0  0  0  0  0  0  0
    9.1006   20.2559    0.0000 C   0  0  0  0  0  0  0  0  0  0  0  0
    7.7124   20.8240    0.0000 C   0  0  0  0  0  0  0  0  0  0  0  0
    6.2890   21.2972    0.0000 C   0  0  0  0  0  0  0  0  0  0  0  0
    4.8368   21.6732    0.0000 C   0  0  0  0  0  0  0  0  0  0  0  0
    3.3627   21.9503    0.0000 C   0  0  0  0  0  0  0  0  0  0  0  0
    1.8731   22.1272    0.0000 C   0  0  0  0  0  0  0  0  0  0  0  0
    0.3751   22.2032    0.0000 C   0  0  0  0  0  0  0  0  0  0  0  0
   -1.1247   22.1778    0.0000 C   0  0  0  0  0  0  0  0  0  0  0  0
   -2.6194   22.0513    0.0000 C   0  0  0  0  0  0  0  0  0  0  0  0
   -4.1021   21.8242    0.0000 C   0  0  0  0  0  0  0  0  0  0  0  0
   -5.5661   21.4974    0.0000 C   0  0  0  0  0  0  0  0  0  0  0  0
   -7.0047   21.0726    0.0000 C   0  0  0  0  0  0  0  0  0  0  0  0
   -8.4113   20.5517    0.0000 C   0  0  0  0  0  0  0  0  0  0  0  0
   -9.7795   19.9370    0.0000 C   0  0  0  0  0  0  0  0  0  0  0  0
  -11.1032   19.2313    0.0000 C   0  0  0  0  0  0  0  0  0  0  0  0
  -12.3761   18.4378    0.0000 C   0  0  0  0  0  0  0  0  0  0  0  0
  -13.5926   17.5602    0.0000 N   0  0  0  0  0  0  0  0  0  0  0  0
  -14.7471   16.6025    0.0000 C   0  0  0  0  0  0  0  0  0  0  0  0
  -15.8343   15.5691    0.0000 C   0  0  0  0  0  0  0  0  0  0  0  0
  -16.8492   14.4646    0.0000 C   0  0  0  0  0  0  0  0  0  0  0  0
  -17.7873   13.2941    0.0000 C   0  0  0  0  0  0  0  0  0  0  0  0
  -18.6442   12.0630    0.0000 C   0  0  0  0  0  0  0  0  0  0  0  0
  -19.4160   10.7768    0.0000 N   0  0  0  0  0  0  0  0  0  0  0  0
  -20.0993    9.4414    0.0000 C   0  0  0  0  0  0  0  0  0  0  0  0
  -20.6908    8.0630    0.0000 C   0  0  0  0  0  0  0  0  0  0  0  0
  -21.1879    6.6478    0.0000 C   0  0  0  0  0  0  0  0  0  0  0  0
  -21.5884    5.2022    0.0000 C   0  0  0  0  0  0  0  0  0  0  0  0
  -21.8903    3.7329    0.0000 C   0  0  0  0  0  0  0  0  0  0  0  0
  -22.0924    2.2466    0.0000 C   0  0  0  0  0  0  0  0  0  0  0  0
  -22.1937    0.7500    0.0000 C   0  0  0  0  0  0  0  0  0  0  0  0
  -22.1937   -0.7500    0.0000 C   0  0  0  0  0  0  0  0  0  0  0  0
  -22.0924   -2.2466    0.0000 C   0  0  0  0  0  0  0  0  0  0  0  0
  -21.8903   -3.7329    0.0000 C   0  0  0  0  0  0  0  0  0  0  0  0
  -21.5884   -5.2022    0.0000 C   0  0  0  0  0  0  0  0  0  0  0  0
  -21.1879   -6.6478    0.0000 C   0  0  0  0  0  0  0  0  0  0  0  0
  -20.6908   -8.0630    0.0000 C   0  0  0  0  0  0  0  0  0  0  0  0
  -20.0993   -9.4414    0.0000 C   0  0  0  0  0  0  0  0  0  0  0  0
  -19.4160  -10.7768    0.0000 C   0  0  0  0  0  0  0  0  0  0  0  0
  -18.6442  -12.0630    0.0000 C   0  0  0  0  0  0  0  0  0  0  0  0
  -17.7873  -13.2941    0.0000 C   0  0  0  0  0  0  0  0  0  0  0  0
  -16.8492  -14.4646    0.0000 C   0  0  0  0  0  0  0  0  0  0  0  0
  -15.8343  -15.5691    0.0000 C   0  0  0  0  0  0  0  0  0  0  0  0
  -14.7471  -16.6025    0.0000 C   0  0  0  0  0  0  0  0  0  0  0  0
  -13.5926  -17.5602    0.0000 C   0  0  0  0  0  0  0  0  0  0  0  0
  -12.3761  -18.4378    0.0000 C   0  0  0  0  0  0  0  0  0  0  0  0
  -11.1032  -19.2313    0.0000 C   0  0  0  0  0  0  0  0  0  0  0  0
   -9.7795  -19.9370    0.0000 C   0  0  0  0  0  0  0  0  0  0  0  0
   -8.4113  -20.5517    0.0000 C   0  0  0  0  0  0  0  0  0  0  0  0
   -7.0047  -21.0726    0.0000 C   0  0  0  0  0  0  0  0  0  0  0  0
   -5.5661  -21.4974    0.0000 C   0  0  0  0  0  0  0  0  0  0  0  0
   -4.1021  -21.8242    0.0000 C   0  0  0  0  0  0  0  0  0  0  0  0
   -2.6194  -22.0513    0.0000 C   0  0  0  0  0  0  0  0  0  0  0  0
   -1.1247  -22.1778    0.0000 C   0  0  0  0  0  0  0  0  0  0  0  0
    0.3751  -22.2032    0.0000 C   0  0  0  0  0  0  0  0  0  0  0  0
    1.8731  -22.1272    0.0000 C   0  0  0  0  0  0  0  0  0  0  0  0
    3.3627  -21.9503    0.0000 C   0  0  0  0  0  0  0  0  0  0  0  0
    4.8368  -21.6732    0.0000 C   0  0  0  0  0  0  0  0  0  0  0  0
    6.2890  -21.2972    0.0000 N   0  0  0  0  0  0  0  0  0  0  0  0
    7.7124  -20.8240    0.0000 C   0  0  0  0  0  0  0  0  0  0  0  0
    9.1006  -20.2559    0.0000 C   0  0  0  0  0  0  0  0  0  0  0  0
   10.4473  -19.5953    0.0000 C   0  0  0  0  0  0  0  0  0  0  0  0
   11.7464  -18.8453    0.0000 C   0  0  0  0  0  0  0  0  0  0  0  0
   12.9918  -18.0093    0.0000 C   0  0  0  0  0  0  0  0  0  0  0  0
   14.1780  -17.0911    0.0000 C   0  0  0  0  0  0  0  0  0  0  0  0
   15.2994  -16.0950    0.0000 C   0  0  0  0  0  0  0  0  0  0  0  0
   16.3511  -15.0254    0.0000 C   0  0  0  0  0  0  0  0  0  0  0  0
   17.3282  -13.8873    0.0000 C   0  0  0  0  0  0  0  0  0  0  0  0
   18.2262  -12.6858    0.0000 C   0  0  0  0  0  0  0  0  0  0  0  0
   19.0410  -11.4264    0.0000 C   0  0  0  0  0  0  0  0  0  0  0  0
   19.7689  -10.1149    0.0000 C   0  0  0  0  0  0  0  0  0  0  0  0
   20.4067   -8.7572    0.0000 C   0  0  0  0  0  0  0  0  0  0  0  0
   20.9513   -7.3596    0.0000 C   0  0  0  0  0  0  0  0  0  0  0  0
   21.4004   -5.9284    0.0000 C   0  0  0  0  0  0  0  0  0  0  0  0
   21.7518   -4.4701    0.0000 C   0  0  0  0  0  0  0  0  0  0  0  0
   22.0039   -2.9914    0.0000 C   0  0  0  0  0  0  0  0  0  0  0  0
   22.1557   -1.4991    0.0000 C   0  0  0  0  0  0  0  0  0  0  0  0
  1  2  1  0
  2  3  1  0
  3  4  1  0
  4  5  1  0
  5  6  1  0
  6  7  1  0
  7  8  1  0
  8  9  1  0
  9 10  1  0
 10 11  1  0
 11 12  1  0
 12 13  1  0
 13 14  1  0
 14 15  1  0
 15 16  1  0
 16 17  1  0
 17 18  1  0
 18 19  1  0
 19 20  1  0
 20 21  1  0
 21 22  1  0
 22 23  1  0
 23 24  1  0
 24 25  1  0
 25 26  1  0
 26 27  1  0
 27 28  1  0
 28 29  1  0
 29 30  1  0
 30 31  1  0
 31 32  1  0
 32 33  1  0
 33 34  1  0
 34 35  1  0
 35 36  1  0
 36 37  1  0
 37 38  1  0
 38 39  2  0
 39 40  1  0
 40 41  1  0
 41 42  1  0
 42 43  1  0
 43 44  1  0
 44 45  1  0
 45 46  1  0
 46 47  1  0
 47 48  1  0
 48 49  1  0
 49 50  1  0
 50 51  1  0
 51 52  1  0
 52 53  1  0
 53 54  1  0
 54 55  1  0
 55 56  1  0
 56 57  1  0
 57 58  1  0
 58 59  1  0
 59 60  1  0
 60 61  1  0
 61 62  1  0
 62 63  1  0
 63 64  1  0
 64 65  1  0
 65 66  1  0
 66 67  1  0
 67 68  1  0
 68 69  1  0
 69 70  1  0
 70 71  1  0
 71 72  1  0
 72 73  1  0
 73 74  1  0
 74 75  1  0
 75 76  1  0
 76 77  1  0
 77 78  1  0
 78 79  1  0
 79 80  1  0
 80 81  1  0
 81 82  1  0
 82 83  1  0
 83 84  1  0
 84 85  1  0
 85 86  1  0
 86 87  1  0
 87 88  1  0
 88 89  1  0
 89 90  1  0
 90 91  1  0
 91 92  1  0
 92 93  1  0
 93 94  1  0
 94  2  1  0
M  END
>  <Title>  (945) 
idABIOgen7

$$$$

     RDKit          2D

  7  7  0  0  0  0  0  0  0  0999 V2000
    3.0000    0.0000    0.0000 C   0  0  0  0  0  0  0  0  0  0  0  0
    1.5000    0.0000    0.0000 C   0  0  0  0  0  0  0  0  0  0  0  0
    0.7500   -1.2990    0.0000 C   0  0  0  0  0  0  0  0  0  0  0  0
   -0.7500   -1.2990    0.0000 C   0  0  0  0  0  0  0  0  0  0  0  0
   -1.5000    0.0000    0.0000 C   0  0  0  0  0  0  0  0  0  0  0  0
   -0.7500    1.2990    0.0000 C   0  0  0  0  0  0  0  0  0  0  0  0
    0.7500    1.2990    0.0000 C   0  0  0  0  0  0  0  0  0  0  0  0
  1  2  1  0
  2  3  1  0
  3  4  2  0
  4  5  1  0
  5  6  1  0
  6  7  2  0
  7  2  1  0
M  END
>  <Title>  (946) 
idABIPgen7

$$$$

     RDKit          2D

 65 65  0  0  0  0  0  0  0  0999 V2000
   16.7850    0.0000    0.0000 C   0  0  0  0  0  0  0  0  0  0  0  0
   15.2850    0.0000    0.0000 C   0  0  0  0  0  0  0  0  0  0  0  0
   15.2114   -1.4982    0.0000 C   0  0  0  0  0  0  0  0  0  0  0  0
   14.9913   -2.9820    0.0000 C   0  0  0  0  0  0  0  0  0  0  0  0
   14.6268   -4.4370    0.0000 C   0  0  0  0  0  0  0  0  0  0  0  0
   14.1215   -5.8493    0.0000 C   0  0  0  0  0  0  0  0  0  0  0  0
   13.4802   -7.2053    0.0000 C   0  0  0  0  0  0  0  0  0  0  0  0
   12.7090   -8.4919    0.0000 C   0  0  0  0  0  0  0  0  0  0  0  0
   11.8155   -9.6967    0.0000 C   0  0  0  0  0  0  0  0  0  0  0  0
   10.8081  -10.8081    0.0000 C   0  0  0  0  0  0  0  0  0  0  0  0
    9.6967  -11.8155    0.0000 C   0  0  0  0  0  0  0  0  0  0  0  0
    8.4919  -12.7090    0.0000 C   0  0  0  0  0  0  0  0  0  0  0  0
    7.2053  -13.4802    0.0000 C   0  0  0  0  0  0  0  0  0  0  0  0
    5.8493  -14.1215    0.0000 C   0  0  0  0  0  0  0  0  0  0  0  0
    4.4370  -14.6268    0.0000 C   0  0  0  0  0  0  0  0  0  0  0  0
    2.9820  -14.9913    0.0000 C   0  0  0  0  0  0  0  0  0  0  0  0
    1.4982  -15.2114    0.0000 C   0  0  0  0  0  0  0  0  0  0  0  0
   -0.0000  -15.2850    0.0000 C   0  0  0  0  0  0  0  0  0  0  0  0
   -1.4982  -15.2114    0.0000 C   0  0  0  0  0  0  0  0  0  0  0  0
   -2.9820  -14.9913    0.0000 C   0  0  0  0  0  0  0  0  0  0  0  0
   -4.4370  -14.6268    0.0000 C   0  0  0  0  0  0  0  0  0  0  0  0
   -5.8493  -14.1215    0.0000 C   0  0  0  0  0  0  0  0  0  0  0  0
   -7.2053  -13.4802    0.0000 C   0  0  0  0  0  0  0  0  0  0  0  0
   -8.4919  -12.7090    0.0000 C   0  0  0  0  0  0  0  0  0  0  0  0
   -9.6967  -11.8155    0.0000 C   0  0  0  0  0  0  0  0  0  0  0  0
  -10.8081  -10.8081    0.0000 C   0  0  0  0  0  0  0  0  0  0  0  0
  -11.8155   -9.6967    0.0000 C   0  0  0  0  0  0  0  0  0  0  0  0
  -12.7090   -8.4919    0.0000 C   0  0  0  0  0  0  0  0  0  0  0  0
  -13.4802   -7.2053    0.0000 C   0  0  0  0  0  0  0  0  0  0  0  0
  -14.1215   -5.8493    0.0000 C   0  0  0  0  0  0  0  0  0  0  0  0
  -14.6268   -4.4370    0.0000 C   0  0  0  0  0  0  0  0  0  0  0  0
  -14.9913   -2.9820    0.0000 C   0  0  0  0  0  0  0  0  0  0  0  0
  -15.2114   -1.4982    0.0000 C   0  0  0  0  0  0  0  0  0  0  0  0
  -15.2850    0.0000    0.0000 C   0  0  0  0  0  0  0  0  0  0  0  0
  -15.2114    1.4982    0.0000 C   0  0  0  0  0  0  0  0  0  0  0  0
  -14.9913    2.9820    0.0000 C   0  0  0  0  0  0  0  0  0  0  0  0
  -14.6268    4.4370    0.0000 C   0  0  0  0  0  0  0  0  0  0  0  0
  -14.1215    5.8493    0.0000 C   0  0  0  0  0  0  0  0  0  0  0  0
  -13.4802    7.2053    0.0000 C   0  0  0  0  0  0  0  0  0  0  0  0
  -12.7090    8.4919    0.0000 C   0  0  0  0  0  0  0  0  0  0  0  0
  -11.8155    9.6967    0.0000 C   0  0  0  0  0  0  0  0  0  0  0  0
  -10.8081   10.8081    0.0000 C   0  0  0  0  0  0  0  0  0  0  0  0
   -9.6967   11.8155    0.0000 C   0  0  0  0  0  0  0  0  0  0  0  0
   -8.4919   12.7090    0.0000 C   0  0  0  0  0  0  0  0  0  0  0  0
   -7.2053   13.4802    0.0000 C   0  0  0  0  0  0  0  0  0  0  0  0
   -5.8493   14.1215    0.0000 C   0  0  0  0  0  0  0  0  0  0  0  0
   -4.4370   14.6268    0.0000 C   0  0  0  0  0  0  0  0  0  0  0  0
   -2.9820   14.9913    0.0000 C   0  0  0  0  0  0  0  0  0  0  0  0
   -1.4982   15.2114    0.0000 C   0  0  0  0  0  0  0  0  0  0  0  0
    0.0000   15.2850    0.0000 C   0  0  0  0  0  0  0  0  0  0  0  0
    1.4982   15.2114    0.0000 C   0  0  0  0  0  0  0  0  0  0  0  0
    2.9820   14.9913    0.0000 C   0  0  0  0  0  0  0  0  0  0  0  0
    4.4370   14.6268    0.0000 C   0  0  0  0  0  0  0  0  0  0  0  0
    5.8493   14.1215    0.0000 C   0  0  0  0  0  0  0  0  0  0  0  0
    7.2053   13.4802    0.0000 C   0  0  0  0  0  0  0  0  0  0  0  0
    8.4919   12.7090    0.0000 C   0  0  0  0  0  0  0  0  0  0  0  0
    9.6967   11.8155    0.0000 C   0  0  0  0  0  0  0  0  0  0  0  0
   10.8081   10.8081    0.0000 C   0  0  0  0  0  0  0  0  0  0  0  0
   11.8155    9.6967    0.0000 C   0  0  0  0  0  0  0  0  0  0  0  0
   12.7090    8.4919    0.0000 C   0  0  0  0  0  0  0  0  0  0  0  0
   13.4802    7.2053    0.0000 C   0  0  0  0  0  0  0  0  0  0  0  0
   14.1215    5.8493    0.0000 C   0  0  0  0  0  0  0  0  0  0  0  0
   14.6268    4.4370    0.0000 C   0  0  0  0  0  0  0  0  0  0  0  0
   14.9913    2.9820    0.0000 C   0  0  0  0  0  0  0  0  0  0  0  0
   15.2114    1.4982    0.0000 C   0  0  0  0  0  0  0  0  0  0  0  0
  1  2  1  0
  2  3  1  0
  3  4  2  0
  4  5  1  0
  5  6  2  0
  6  7  1  0
  7  8  1  0
  8  9  1  0
  9 10  1  0
 10 11  1  0
 11 12  1  0
 12 13  1  0
 13 14  1  0
 14 15  1  0
 15 16  1  0
 16 17  1  0
 17 18  1  0
 18 19  1  0
 19 20  1  0
 20 21  1  0
 21 22  1  0
 22 23  1  0
 23 24  1  0
 24 25  1  0
 25 26  1  0
 26 27  1  0
 27 28  1  0
 28 29  1  0
 29 30  1  0
 30 31  1  0
 31 32  1  0
 32 33  1  0
 33 34  1  0
 34 35  1  0
 35 36  1  0
 36 37  1  0
 37 38  1  0
 38 39  1  0
 39 40  1  0
 40 41  1  0
 41 42  1  0
 42 43  1  0
 43 44  1  0
 44 45  1  0
 45 46  1  0
 46 47  1  0
 47 48  1  0
 48 49  1  0
 49 50  1  0
 50 51  1  0
 51 52  1  0
 52 53  1  0
 53 54  1  0
 54 55  1  0
 55 56  1  0
 56 57  1  0
 57 58  1  0
 58 59  1  0
 59 60  1  0
 60 61  1  0
 61 62  1  0
 62 63  1  0
 63 64  1  0
 64 65  2  0
 65  2  1  0
M  END
>  <Title>  (947) 
idABIQgen7

$$$$

     RDKit          2D

 10 10  0  0  0  0  0  0  0  0999 V2000
    3.0000    0.0000    0.0000 C   0  0  0  0  0  0  0  0  0  0  0  0
    1.5000    0.0000    0.0000 C   0  0  0  0  0  0  0  0  0  0  0  0
    0.7500   -1.2990    0.0000 C   0  0  0  0  0  0  0  0  0  0  0  0
   -0.7500   -1.2990    0.0000 C   0  0  0  0  0  0  0  0  0  0  0  0
   -1.5000    0.0000    0.0000 C   0  0  0  0  0  0  0  0  0  0  0  0
   -3.0000    0.0000    0.0000 C   0  0  0  0  0  0  0  0  0  0  0  0
   -3.7500    1.2990    0.0000 N   0  0  0  0  0  0  0  0  0  0  0  0
   -3.7500   -1.2990    0.0000 O   0  0  0  0  0  0  0  0  0  0  0  0
   -0.7500    1.2990    0.0000 C   0  0  0  0  0  0  0  0  0  0  0  0
    0.7500    1.2990    0.0000 C   0  0  0  0  0  0  0  0  0  0  0  0
  1  2  1  0
  2  3  1  0
  3  4  1  0
  4  5  1  0
  5  6  1  0
  6  7  1  0
  6  8  2  0
  5  9  1  0
  9 10  1  0
 10  2  1  0
M  END
>  <Title>  (948) 
idABIRgen7

$$$$

     RDKit          2D

 25 26  0  0  0  0  0  0  0  0999 V2000
    5.1073    0.0000    0.0000 C   0  0  0  0  0  0  0  0  0  0  0  0
    3.6073    0.0000    0.0000 C   0  0  0  0  0  0  0  0  0  0  0  0
    3.2954    1.4672    0.0000 C   0  0  0  0  0  0  0  0  0  0  0  0
    2.4138    2.6807    0.0000 C   0  0  0  0  0  0  0  0  0  0  0  0
    1.1147    3.4307    0.0000 C   0  0  0  0  0  0  0  0  0  0  0  0
   -0.3771    3.5875    0.0000 C   0  0  0  0  0  0  0  0  0  0  0  0
   -1.8037    3.1240    0.0000 C   0  0  0  0  0  0  0  0  0  0  0  0
   -2.9184    2.1203    0.0000 C   0  0  0  0  0  0  0  0  0  0  0  0
   -3.5285    0.7500    0.0000 C   0  0  0  0  0  0  0  0  0  0  0  0
   -3.5285   -0.7500    0.0000 C   0  0  0  0  0  0  0  0  0  0  0  0
   -2.9184   -2.1203    0.0000 C   0  0  0  0  0  0  0  0  0  0  0  0
   -1.8037   -3.1240    0.0000 C   0  0  0  0  0  0  0  0  0  0  0  0
   -0.3771   -3.5875    0.0000 C   0  0  0  0  0  0  0  0  0  0  0  0
    1.1147   -3.4307    0.0000 C   0  0  0  0  0  0  0  0  0  0  0  0
    2.4138   -2.6807    0.0000 C   0  0  0  0  0  0  0  0  0  0  0  0
    3.4175   -3.7955    0.0000 C   0  0  0  0  0  0  0  0  0  0  0  0
    4.8847   -3.4836    0.0000 O   0  0  0  0  0  0  0  0  0  0  0  0
    2.9539   -5.2220    0.0000 N   0  0  0  0  0  0  0  0  0  0  0  0
    3.9576   -6.3368    0.0000 C   0  0  0  0  0  0  0  0  0  0  0  0
    3.4941   -7.7634    0.0000 N   0  0  0  0  0  0  0  0  0  0  0  0
    4.4978   -8.8781    0.0000 N   0  0  0  0  0  0  0  0  0  0  0  0
    5.9650   -8.5662    0.0000 N   0  0  0  0  0  0  0  0  0  0  0  0
    6.4285   -7.1396    0.0000 N   0  0  0  0  0  0  0  0  0  0  0  0
    5.4248   -6.0249    0.0000 N   0  0  0  0  0  0  0  0  0  0  0  0
    3.2954   -1.4672    0.0000 C   0  0  0  0  0  0  0  0  0  0  0  0
  1  2  1  0
  2  3  1  0
  3  4  1  0
  4  5  1  0
  5  6  1  0
  6  7  1  0
  7  8  1  0
  8  9  1  0
  9 10  1  0
 10 11  1  0
 11 12  1  0
 12 13  1  0
 13 14  1  0
 14 15  1  0
 15 16  1  0
 16 17  2  0
 16 18  1  0
 18 19  1  0
 19 20  2  0
 20 21  1  0
 21 22  2  0
 22 23  1  0
 23 24  2  0
 15 25  1  0
 25  2  1  0
 24 19  1  0
M  END
>  <Title>  (949) 
idABISgen7

$$$$

     RDKit          2D

 15 16  0  0  0  0  0  0  0  0999 V2000
    1.8478   -9.0619    0.0000 C   0  0  0  0  0  0  0  0  0  0  0  0
    2.0046   -7.5702    0.0000 C   0  0  0  0  0  0  0  0  0  0  0  0
    3.3037   -6.8202    0.0000 C   0  0  0  0  0  0  0  0  0  0  0  0
    2.9918   -5.3529    0.0000 C   0  0  0  0  0  0  0  0  0  0  0  0
    1.5000   -5.1962    0.0000 C   0  0  0  0  0  0  0  0  0  0  0  0
    0.7500   -3.8971    0.0000 C   0  0  0  0  0  0  0  0  0  0  0  0
   -0.7500   -3.8971    0.0000 O   0  0  0  0  0  0  0  0  0  0  0  0
    1.5000   -2.5981    0.0000 O   0  0  0  0  0  0  0  0  0  0  0  0
    0.7500   -1.2990    0.0000 C   0  0  0  0  0  0  0  0  0  0  0  0
    1.5000    0.0000    0.0000 N   0  0  0  0  0  0  0  0  0  0  0  0
    0.7500    1.2990    0.0000 N   0  0  0  0  0  0  0  0  0  0  0  0
   -0.7500    1.2990    0.0000 N   0  0  0  0  0  0  0  0  0  0  0  0
   -1.5000    0.0000    0.0000 N   0  0  0  0  0  0  0  0  0  0  0  0
   -0.7500   -1.2990    0.0000 N   0  0  0  0  0  0  0  0  0  0  0  0
    0.8899   -6.5665    0.0000 C   0  0  0  0  0  0  0  0  0  0  0  0
  1  2  1  0
  2  3  1  0
  3  4  1  0
  4  5  1  0
  5  6  1  0
  6  7  2  0
  6  8  1  0
  8  9  1  0
  9 10  2  0
 10 11  1  0
 11 12  2  0
 12 13  1  0
 13 14  2  0
  5 15  1  0
 15  2  1  0
 14  9  1  0
M  END
>  <Title>  (950) 
idABITgen7

$$$$

     RDKit          2D

  7  7  0  0  0  0  0  0  0  0999 V2000
    3.0000    0.0000    0.0000 O   0  0  0  0  0  0  0  0  0  0  0  0
    1.5000    0.0000    0.0000 C   0  0  0  0  0  0  0  0  0  0  0  0
    0.7500   -1.2990    0.0000 C   0  0  0  0  0  0  0  0  0  0  0  0
   -0.7500   -1.2990    0.0000 C   0  0  0  0  0  0  0  0  0  0  0  0
   -1.5000    0.0000    0.0000 N   0  0  0  0  0  0  0  0  0  0  0  0
   -0.7500    1.2990    0.0000 C   0  0  0  0  0  0  0  0  0  0  0  0
    0.7500    1.2990    0.0000 C   0  0  0  0  0  0  0  0  0  0  0  0
  1  2  1  0
  2  3  1  0
  3  4  1  0
  4  5  1  0
  5  6  1  0
  6  7  1  0
  7  2  1  0
M  END
>  <Title>  (951) 
idABIUgen7

$$$$

     RDKit          2D

 80 80  0  0  0  0  0  0  0  0999 V2000
   20.3648    0.0000    0.0000 C   0  0  0  0  0  0  0  0  0  0  0  0
   18.8648    0.0000    0.0000 C   0  0  0  0  0  0  0  0  0  0  0  0
   18.8052    1.4988    0.0000 C   0  0  0  0  0  0  0  0  0  0  0  0
   18.6267    2.9882    0.0000 C   0  0  0  0  0  0  0  0  0  0  0  0
   18.3304    4.4586    0.0000 C   0  0  0  0  0  0  0  0  0  0  0  0
   17.9182    5.9009    0.0000 C   0  0  0  0  0  0  0  0  0  0  0  0
   17.3927    7.3058    0.0000 C   0  0  0  0  0  0  0  0  0  0  0  0
   16.7573    8.6646    0.0000 C   0  0  0  0  0  0  0  0  0  0  0  0
   16.0159    9.9685    0.0000 C   0  0  0  0  0  0  0  0  0  0  0  0
   15.1733   11.2095    0.0000 C   0  0  0  0  0  0  0  0  0  0  0  0
   14.2347   12.3796    0.0000 C   0  0  0  0  0  0  0  0  0  0  0  0
   13.2062   13.4714    0.0000 C   0  0  0  0  0  0  0  0  0  0  0  0
   12.0941   14.4781    0.0000 C   0  0  0  0  0  0  0  0  0  0  0  0
   10.9056   15.3932    0.0000 C   0  0  0  0  0  0  0  0  0  0  0  0
    9.6481   16.2110    0.0000 C   0  0  0  0  0  0  0  0  0  0  0  0
    8.3297   16.9263    0.0000 C   0  0  0  0  0  0  0  0  0  0  0  0
    6.9586   17.5345    0.0000 C   0  0  0  0  0  0  0  0  0  0  0  0
    5.5434   18.0320    0.0000 C   0  0  0  0  0  0  0  0  0  0  0  0
    4.0933   18.4154    0.0000 C   0  0  0  0  0  0  0  0  0  0  0  0
    2.6172   18.6824    0.0000 C   0  0  0  0  0  0  0  0  0  0  0  0
    1.1246   18.8313    0.0000 C   0  0  0  0  0  0  0  0  0  0  0  0
   -0.3751   18.8611    0.0000 C   0  0  0  0  0  0  0  0  0  0  0  0
   -1.8724   18.7717    0.0000 C   0  0  0  0  0  0  0  0  0  0  0  0
   -3.3579   18.5636    0.0000 C   0  0  0  0  0  0  0  0  0  0  0  0
   -4.8222   18.2381    0.0000 C   0  0  0  0  0  0  0  0  0  0  0  0
   -6.2559   17.7973    0.0000 C   0  0  0  0  0  0  0  0  0  0  0  0
   -7.6502   17.2440    0.0000 C   0  0  0  0  0  0  0  0  0  0  0  0
   -8.9960   16.5817    0.0000 C   0  0  0  0  0  0  0  0  0  0  0  0
  -10.2850   15.8146    0.0000 C   0  0  0  0  0  0  0  0  0  0  0  0
  -11.5090   14.9474    0.0000 C   0  0  0  0  0  0  0  0  0  0  0  0
  -12.6602   13.9858    0.0000 C   0  0  0  0  0  0  0  0  0  0  0  0
  -13.7313   12.9357    0.0000 C   0  0  0  0  0  0  0  0  0  0  0  0
  -14.7157   11.8039    0.0000 C   0  0  0  0  0  0  0  0  0  0  0  0
  -15.6070   10.5974    0.0000 C   0  0  0  0  0  0  0  0  0  0  0  0
  -16.3996    9.3239    0.0000 C   0  0  0  0  0  0  0  0  0  0  0  0
  -17.0885    7.9915    0.0000 C   0  0  0  0  0  0  0  0  0  0  0  0
  -17.6694    6.6086    0.0000 C   0  0  0  0  0  0  0  0  0  0  0  0
  -18.1386    5.1838    0.0000 C   0  0  0  0  0  0  0  0  0  0  0  0
  -18.4931    3.7263    0.0000 C   0  0  0  0  0  0  0  0  0  0  0  0
  -18.7307    2.2453    0.0000 C   0  0  0  0  0  0  0  0  0  0  0  0
  -18.8499    0.7500    0.0000 C   0  0  0  0  0  0  0  0  0  0  0  0
  -18.8499   -0.7500    0.0000 C   0  0  0  0  0  0  0  0  0  0  0  0
  -18.7307   -2.2453    0.0000 C   0  0  0  0  0  0  0  0  0  0  0  0
  -18.4931   -3.7263    0.0000 C   0  0  0  0  0  0  0  0  0  0  0  0
  -18.1386   -5.1838    0.0000 C   0  0  0  0  0  0  0  0  0  0  0  0
  -17.6694   -6.6086    0.0000 C   0  0  0  0  0  0  0  0  0  0  0  0
  -17.0885   -7.9915    0.0000 C   0  0  0  0  0  0  0  0  0  0  0  0
  -16.3996   -9.3239    0.0000 C   0  0  0  0  0  0  0  0  0  0  0  0
  -15.6070  -10.5974    0.0000 C   0  0  0  0  0  0  0  0  0  0  0  0
  -14.7157  -11.8039    0.0000 C   0  0  0  0  0  0  0  0  0  0  0  0
  -13.7313  -12.9357    0.0000 C   0  0  0  0  0  0  0  0  0  0  0  0
  -12.6602  -13.9858    0.0000 C   0  0  0  0  0  0  0  0  0  0  0  0
  -11.5090  -14.9474    0.0000 C   0  0  0  0  0  0  0  0  0  0  0  0
  -10.2850  -15.8146    0.0000 C   0  0  0  0  0  0  0  0  0  0  0  0
   -8.9960  -16.5817    0.0000 C   0  0  0  0  0  0  0  0  0  0  0  0
   -7.6502  -17.2440    0.0000 C   0  0  0  0  0  0  0  0  0  0  0  0
   -6.2559  -17.7973    0.0000 C   0  0  0  0  0  0  0  0  0  0  0  0
   -4.8222  -18.2381    0.0000 C   0  0  0  0  0  0  0  0  0  0  0  0
   -3.3579  -18.5636    0.0000 C   0  0  0  0  0  0  0  0  0  0  0  0
   -1.8724  -18.7717    0.0000 C   0  0  0  0  0  0  0  0  0  0  0  0
   -0.3751  -18.8611    0.0000 C   0  0  0  0  0  0  0  0  0  0  0  0
    1.1246  -18.8313    0.0000 C   0  0  0  0  0  0  0  0  0  0  0  0
    2.6172  -18.6824    0.0000 C   0  0  0  0  0  0  0  0  0  0  0  0
    4.0933  -18.4154    0.0000 C   0  0  0  0  0  0  0  0  0  0  0  0
    5.5434  -18.0320    0.0000 C   0  0  0  0  0  0  0  0  0  0  0  0
    6.9586  -17.5345    0.0000 C   0  0  0  0  0  0  0  0  0  0  0  0
    8.3297  -16.9263    0.0000 C   0  0  0  0  0  0  0  0  0  0  0  0
    9.6481  -16.2110    0.0000 C   0  0  0  0  0  0  0  0  0  0  0  0
   10.9056  -15.3932    0.0000 C   0  0  0  0  0  0  0  0  0  0  0  0
   12.0941  -14.4781    0.0000 C   0  0  0  0  0  0  0  0  0  0  0  0
   13.2062  -13.4714    0.0000 C   0  0  0  0  0  0  0  0  0  0  0  0
   14.2347  -12.3796    0.0000 C   0  0  0  0  0  0  0  0  0  0  0  0
   15.1733  -11.2095    0.0000 C   0  0  0  0  0  0  0  0  0  0  0  0
   16.0159   -9.9685    0.0000 C   0  0  0  0  0  0  0  0  0  0  0  0
   16.7573   -8.6646    0.0000 C   0  0  0  0  0  0  0  0  0  0  0  0
   17.3927   -7.3058    0.0000 C   0  0  0  0  0  0  0  0  0  0  0  0
   17.9182   -5.9009    0.0000 C   0  0  0  0  0  0  0  0  0  0  0  0
   18.3304   -4.4586    0.0000 C   0  0  0  0  0  0  0  0  0  0  0  0
   18.6267   -2.9882    0.0000 C   0  0  0  0  0  0  0  0  0  0  0  0
   18.8052   -1.4988    0.0000 C   0  0  0  0  0  0  0  0  0  0  0  0
  1  2  1  0
  2  3  1  0
  3  4  2  0
  4  5  1  0
  5  6  2  0
  6  7  1  0
  7  8  2  0
  8  9  1  0
  9 10  2  0
 10 11  1  0
 11 12  2  0
 12 13  1  0
 13 14  2  0
 14 15  1  0
 15 16  2  0
 16 17  1  0
 17 18  2  0
 18 19  1  0
 19 20  2  0
 20 21  1  0
 21 22  2  0
 22 23  1  0
 23 24  2  0
 24 25  1  0
 25 26  2  0
 26 27  1  0
 27 28  2  0
 28 29  1  0
 29 30  2  0
 30 31  1  0
 31 32  1  0
 32 33  1  0
 33 34  1  0
 34 35  1  0
 35 36  1  0
 36 37  1  0
 37 38  1  0
 38 39  1  0
 39 40  1  0
 40 41  1  0
 41 42  1  0
 42 43  1  0
 43 44  1  0
 44 45  1  0
 45 46  1  0
 46 47  1  0
 47 48  1  0
 48 49  1  0
 49 50  1  0
 50 51  1  0
 51 52  1  0
 52 53  1  0
 53 54  1  0
 54 55  1  0
 55 56  1  0
 56 57  1  0
 57 58  1  0
 58 59  1  0
 59 60  1  0
 60 61  1  0
 61 62  1  0
 62 63  1  0
 63 64  1  0
 64 65  1  0
 65 66  1  0
 66 67  1  0
 67 68  1  0
 68 69  1  0
 69 70  1  0
 70 71  1  0
 71 72  1  0
 72 73  1  0
 73 74  1  0
 74 75  1  0
 75 76  1  0
 76 77  1  0
 77 78  1  0
 78 79  1  0
 79 80  1  0
 80  2  1  0
M  END
>  <Title>  (952) 
idABIVgen7

$$$$

     RDKit          2D

 24 26  0  0  0  0  0  0  0  0999 V2000
   -3.7500   -3.8971    0.0000 C   0  0  0  0  0  0  0  0  0  0  0  0
   -3.0000   -2.5981    0.0000 C   0  0  0  0  0  0  0  0  0  0  0  0
   -3.7500   -1.2990    0.0000 C   0  0  0  0  0  0  0  0  0  0  0  0
   -4.5000   -0.0000    0.0000 N   0  0  0  0  0  0  0  0  0  0  0  0
   -1.5000   -2.5981    0.0000 C   0  0  0  0  0  0  0  0  0  0  0  0
   -0.7500   -3.8971    0.0000 C   0  0  0  0  0  0  0  0  0  0  0  0
    0.7500   -3.8971    0.0000 C   0  0  0  0  0  0  0  0  0  0  0  0
    1.5000   -2.5981    0.0000 C   0  0  0  0  0  0  0  0  0  0  0  0
    3.0000   -2.5981    0.0000 C   0  0  0  0  0  0  0  0  0  0  0  0
    3.7500   -1.2990    0.0000 O   0  0  0  0  0  0  0  0  0  0  0  0
    3.7500   -3.8971    0.0000 N   0  0  0  0  0  0  0  0  0  0  0  0
    5.2500   -3.8971    0.0000 C   0  0  0  0  0  0  0  0  0  0  0  0
    6.0000   -5.1962    0.0000 N   0  0  0  0  0  0  0  0  0  0  0  0
    7.5000   -5.1962    0.0000 N   0  0  0  0  0  0  0  0  0  0  0  0
    8.2500   -3.8971    0.0000 N   0  0  0  0  0  0  0  0  0  0  0  0
    7.5000   -2.5981    0.0000 N   0  0  0  0  0  0  0  0  0  0  0  0
    6.0000   -2.5981    0.0000 N   0  0  0  0  0  0  0  0  0  0  0  0
    0.7500   -1.2990    0.0000 C   0  0  0  0  0  0  0  0  0  0  0  0
    1.5000    0.0000    0.0000 C   0  0  0  0  0  0  0  0  0  0  0  0
    0.7500    1.2990    0.0000 C   0  0  0  0  0  0  0  0  0  0  0  0
   -0.7500    1.2990    0.0000 C   0  0  0  0  0  0  0  0  0  0  0  0
   -1.5000    2.5981    0.0000 O   0  0  0  0  0  0  0  0  0  0  0  0
   -1.5000    0.0000    0.0000 C   0  0  0  0  0  0  0  0  0  0  0  0
   -0.7500   -1.2990    0.0000 C   0  0  0  0  0  0  0  0  0  0  0  0
  1  2  1  0
  2  3  1  0
  3  4  3  0
  2  5  1  0
  5  6  1  0
  6  7  1  0
  7  8  2  0
  8  9  1  0
  9 10  2  0
  9 11  1  0
 11 12  1  0
 12 13  2  0
 13 14  1  0
 14 15  2  0
 15 16  1  0
 16 17  2  0
  8 18  1  0
 18 19  2  0
 19 20  1  0
 20 21  2  0
 21 22  1  0
 21 23  1  0
 23 24  2  0
 24  5  1  0
 17 12  1  0
 24 18  1  0
M  END
>  <Title>  (953) 
idABIWgen7

$$$$

     RDKit          2D

 12 12  0  0  0  0  0  0  0  0999 V2000
    3.7500   -1.2990    0.0000 C   0  0  0  0  0  0  0  0  0  0  0  0
    3.0000    0.0000    0.0000 C   0  0  0  0  0  0  0  0  0  0  0  0
    3.7500    1.2990    0.0000 C   0  0  0  0  0  0  0  0  0  0  0  0
    3.0000    2.5981    0.0000 O   0  0  0  0  0  0  0  0  0  0  0  0
    5.2500    1.2990    0.0000 C   0  0  0  0  0  0  0  0  0  0  0  0
    6.7500    1.2990    0.0000 N   0  0  0  0  0  0  0  0  0  0  0  0
    1.5000    0.0000    0.0000 C   0  0  0  0  0  0  0  0  0  0  0  0
    0.7500   -1.2990    0.0000 C   0  0  0  0  0  0  0  0  0  0  0  0
   -0.7500   -1.2990    0.0000 C   0  0  0  0  0  0  0  0  0  0  0  0
   -1.5000    0.0000    0.0000 C   0  0  0  0  0  0  0  0  0  0  0  0
   -0.7500    1.2990    0.0000 C   0  0  0  0  0  0  0  0  0  0  0  0
    0.7500    1.2990    0.0000 C   0  0  0  0  0  0  0  0  0  0  0  0
  1  2  1  0
  2  3  1  0
  3  4  2  0
  3  5  1  0
  5  6  3  0
  2  7  1  0
  7  8  1  0
  8  9  1  0
  9 10  1  0
 10 11  1  0
 11 12  1  0
 12  7  1  0
M  END
>  <Title>  (954) 
idABIXgen7

$$$$

     RDKit          2D

 16 17  0  0  0  0  0  0  0  0999 V2000
    3.5260    1.2990    0.0000 O   0  0  0  0  0  0  0  0  0  0  0  0
    2.7760    0.0000    0.0000 C   0  0  0  0  0  0  0  0  0  0  0  0
    3.5260   -1.2990    0.0000 O   0  0  0  0  0  0  0  0  0  0  0  0
    1.2760    0.0000    0.0000 C   0  0  0  0  0  0  0  0  0  0  0  0
    0.3943    1.2135    0.0000 C   0  0  0  0  0  0  0  0  0  0  0  0
   -1.0323    0.7500    0.0000 C   0  0  0  0  0  0  0  0  0  0  0  0
   -1.0323   -0.7500    0.0000 N   0  0  0  0  0  0  0  0  0  0  0  0
   -2.2458   -1.6317    0.0000 C   0  0  0  0  0  0  0  0  0  0  0  0
   -2.0890   -3.1235    0.0000 O   0  0  0  0  0  0  0  0  0  0  0  0
   -3.6161   -1.0216    0.0000 C   0  0  0  0  0  0  0  0  0  0  0  0
   -4.8297   -1.9033    0.0000 C   0  0  0  0  0  0  0  0  0  0  0  0
   -4.8297   -3.4033    0.0000 C   0  0  0  0  0  0  0  0  0  0  0  0
   -6.2562   -3.8668    0.0000 C   0  0  0  0  0  0  0  0  0  0  0  0
   -7.1379   -2.6533    0.0000 C   0  0  0  0  0  0  0  0  0  0  0  0
   -6.2562   -1.4397    0.0000 C   0  0  0  0  0  0  0  0  0  0  0  0
    0.3943   -1.2135    0.0000 C   0  0  0  0  0  0  0  0  0  0  0  0
  1  2  2  0
  2  3  1  0
  2  4  1  0
  4  5  1  0
  5  6  1  0
  6  7  1  0
  7  8  1  0
  8  9  2  0
  8 10  1  0
 10 11  1  0
 11 12  2  0
 12 13  1  0
 13 14  1  0
 14 15  2  0
  7 16  1  0
 16  4  1  0
 15 11  1  0
M  END
>  <Title>  (955) 
idABIYgen7

$$$$

     RDKit          2D

 10 10  0  0  0  0  0  0  0  0999 V2000
    8.7760   -0.0000    0.0000 O   0  0  0  0  0  0  0  0  0  0  0  0
    7.2760   -0.0000    0.0000 C   0  0  0  0  0  0  0  0  0  0  0  0
    5.7760   -0.0000    0.0000 C   0  0  0  0  0  0  0  0  0  0  0  0
    4.2760   -0.0000    0.0000 C   0  0  0  0  0  0  0  0  0  0  0  0
    2.7760    0.0000    0.0000 C   0  0  0  0  0  0  0  0  0  0  0  0
    1.2760    0.0000    0.0000 C   0  0  0  0  0  0  0  0  0  0  0  0
    0.3943    1.2135    0.0000 C   0  0  0  0  0  0  0  0  0  0  0  0
   -1.0323    0.7500    0.0000 C   0  0  0  0  0  0  0  0  0  0  0  0
   -1.0323   -0.7500    0.0000 C   0  0  0  0  0  0  0  0  0  0  0  0
    0.3943   -1.2135    0.0000 C   0  0  0  0  0  0  0  0  0  0  0  0
  1  2  1  0
  2  3  3  0
  3  4  1  0
  4  5  3  0
  5  6  1  0
  6  7  2  0
  7  8  1  0
  8  9  1  0
  9 10  2  0
 10  6  1  0
M  END
>  <Title>  (956) 
idABIZgen7

$$$$

     RDKit          2D

 25 28  0  0  0  0  0  0  0  0999 V2000
   -3.0000   -2.5981    0.0000 C   0  0  0  0  0  0  0  0  0  0  0  0
   -1.5000   -2.5981    0.0000 C   0  0  0  0  0  0  0  0  0  0  0  0
   -0.7500   -3.8971    0.0000 C   0  0  0  0  0  0  0  0  0  0  0  0
    0.7500   -3.8971    0.0000 C   0  0  0  0  0  0  0  0  0  0  0  0
    1.5000   -2.5981    0.0000 C   0  0  0  0  0  0  0  0  0  0  0  0
    3.0000   -2.5981    0.0000 C   0  0  0  0  0  0  0  0  0  0  0  0
    3.7500   -1.2990    0.0000 O   0  0  0  0  0  0  0  0  0  0  0  0
    3.7500   -3.8971    0.0000 N   0  0  0  0  0  0  0  0  0  0  0  0
    5.2500   -3.8971    0.0000 C   0  0  0  0  0  0  0  0  0  0  0  0
    6.1317   -2.6836    0.0000 N   0  0  0  0  0  0  0  0  0  0  0  0
    7.5583   -3.1471    0.0000 N   0  0  0  0  0  0  0  0  0  0  0  0
    7.5583   -4.6471    0.0000 N   0  0  0  0  0  0  0  0  0  0  0  0
    6.1317   -5.1106    0.0000 N   0  0  0  0  0  0  0  0  0  0  0  0
    5.6682   -6.5372    0.0000 C   0  0  0  0  0  0  0  0  0  0  0  0
    4.2009   -6.8491    0.0000 C   0  0  0  0  0  0  0  0  0  0  0  0
    3.7374   -8.2757    0.0000 C   0  0  0  0  0  0  0  0  0  0  0  0
    4.7411   -9.3904    0.0000 C   0  0  0  0  0  0  0  0  0  0  0  0
    6.2083   -9.0785    0.0000 C   0  0  0  0  0  0  0  0  0  0  0  0
    6.6718   -7.6519    0.0000 C   0  0  0  0  0  0  0  0  0  0  0  0
    0.7500   -1.2990    0.0000 C   0  0  0  0  0  0  0  0  0  0  0  0
    1.5000    0.0000    0.0000 C   0  0  0  0  0  0  0  0  0  0  0  0
    0.7500    1.2990    0.0000 C   0  0  0  0  0  0  0  0  0  0  0  0
   -0.7500    1.2990    0.0000 C   0  0  0  0  0  0  0  0  0  0  0  0
   -1.5000    0.0000    0.0000 C   0  0  0  0  0  0  0  0  0  0  0  0
   -0.7500   -1.2990    0.0000 C   0  0  0  0  0  0  0  0  0  0  0  0
  1  2  1  0
  2  3  1  0
  3  4  1  0
  4  5  1  0
  5  6  1  0
  6  7  2  0
  6  8  1  0
  8  9  1  0
  9 10  2  0
 10 11  1  0
 11 12  2  0
 12 13  1  0
 13 14  1  0
 14 15  2  0
 15 16  1  0
 16 17  2  0
 17 18  1  0
 18 19  2  0
  5 20  1  0
 20 21  2  0
 21 22  1  0
 22 23  2  0
 23 24  1  0
 24 25  2  0
 25  2  1  0
 13  9  1  0
 19 14  1  0
 25 20  1  0
M  END
>  <Title>  (957) 
idABJAgen7

$$$$

     RDKit          2D

 48 50  0  0  0  0  0  0  0  0999 V2000
   -4.2508   -0.6593    0.0000 C   0  0  0  0  0  0  0  0  0  0  0  0
   -3.6483   -2.0330    0.0000 C   0  0  0  0  0  0  0  0  0  0  0  0
   -4.9675   -2.7469    0.0000 C   0  0  0  0  0  0  0  0  0  0  0  0
   -6.1512   -3.6682    0.0000 C   0  0  0  0  0  0  0  0  0  0  0  0
   -7.1671   -4.7718    0.0000 C   0  0  0  0  0  0  0  0  0  0  0  0
   -7.9875   -6.0276    0.0000 C   0  0  0  0  0  0  0  0  0  0  0  0
   -8.5901   -7.4012    0.0000 C   0  0  0  0  0  0  0  0  0  0  0  0
   -8.9583   -8.8553    0.0000 C   0  0  0  0  0  0  0  0  0  0  0  0
   -9.0822  -10.3502    0.0000 C   0  0  0  0  0  0  0  0  0  0  0  0
   -8.9583  -11.8451    0.0000 C   0  0  0  0  0  0  0  0  0  0  0  0
   -8.5901  -13.2992    0.0000 C   0  0  0  0  0  0  0  0  0  0  0  0
   -7.9875  -14.6728    0.0000 C   0  0  0  0  0  0  0  0  0  0  0  0
   -7.1671  -15.9286    0.0000 N   0  0  0  0  0  0  0  0  0  0  0  0
   -6.1512  -17.0322    0.0000 N   0  0  0  0  0  0  0  0  0  0  0  0
   -4.9675  -17.9535    0.0000 N   0  0  0  0  0  0  0  0  0  0  0  0
   -3.6483  -18.6674    0.0000 C   0  0  0  0  0  0  0  0  0  0  0  0
   -2.2295  -19.1545    0.0000 C   0  0  0  0  0  0  0  0  0  0  0  0
   -0.7500  -19.4013    0.0000 C   0  0  0  0  0  0  0  0  0  0  0  0
    0.7500  -19.4013    0.0000 C   0  0  0  0  0  0  0  0  0  0  0  0
    2.2295  -19.1545    0.0000 C   0  0  0  0  0  0  0  0  0  0  0  0
    3.6483  -18.6674    0.0000 C   0  0  0  0  0  0  0  0  0  0  0  0
    4.9675  -17.9535    0.0000 C   0  0  0  0  0  0  0  0  0  0  0  0
    6.1512  -17.0322    0.0000 C   0  0  0  0  0  0  0  0  0  0  0  0
    7.1671  -15.9286    0.0000 C   0  0  0  0  0  0  0  0  0  0  0  0
    7.9875  -14.6728    0.0000 C   0  0  0  0  0  0  0  0  0  0  0  0
    9.3067  -15.3868    0.0000 O   0  0  0  0  0  0  0  0  0  0  0  0
    8.5901  -13.2992    0.0000 C   0  0  0  0  0  0  0  0  0  0  0  0
    8.9583  -11.8451    0.0000 C   0  0  0  0  0  0  0  0  0  0  0  0
    9.0822  -10.3502    0.0000 C   0  0  0  0  0  0  0  0  0  0  0  0
    8.9583   -8.8553    0.0000 C   0  0  0  0  0  0  0  0  0  0  0  0
    8.5901   -7.4012    0.0000 C   0  0  0  0  0  0  0  0  0  0  0  0
    7.9875   -6.0276    0.0000 C   0  0  0  0  0  0  0  0  0  0  0  0
    7.1671   -4.7718    0.0000 C   0  0  0  0  0  0  0  0  0  0  0  0
    6.1512   -3.6682    0.0000 C   0  0  0  0  0  0  0  0  0  0  0  0
    4.9675   -2.7469    0.0000 C   0  0  0  0  0  0  0  0  0  0  0  0
    3.6483   -2.0330    0.0000 C   0  0  0  0  0  0  0  0  0  0  0  0
    4.5499   -0.8342    0.0000 C   0  0  0  0  0  0  0  0  0  0  0  0
    3.6884    0.3937    0.0000 C   0  0  0  0  0  0  0  0  0  0  0  0
    2.2543   -0.0461    0.0000 C   0  0  0  0  0  0  0  0  0  0  0  0
    2.2295   -1.5459    0.0000 C   0  0  0  0  0  0  0  0  0  0  0  0
    0.7500   -1.2990    0.0000 C   0  0  0  0  0  0  0  0  0  0  0  0
    1.5000    0.0000    0.0000 C   0  0  0  0  0  0  0  0  0  0  0  0
    0.7500    1.2990    0.0000 C   0  0  0  0  0  0  0  0  0  0  0  0
   -0.7500    1.2990    0.0000 C   0  0  0  0  0  0  0  0  0  0  0  0
   -1.5000    0.0000    0.0000 C   0  0  0  0  0  0  0  0  0  0  0  0
   -0.7500   -1.2990    0.0000 C   0  0  0  0  0  0  0  0  0  0  0  0
   -2.2295   -1.5459    0.0000 C   0  0  0  0  0  0  0  0  0  0  0  0
   -2.5978   -0.0918    0.0000 O   0  0  0  0  0  0  0  0  0  0  0  0
  1  2  1  0
  2  3  1  0
  3  4  1  0
  4  5  1  0
  5  6  1  0
  6  7  1  0
  7  8  1  0
  8  9  1  0
  9 10  1  0
 10 11  1  0
 11 12  1  0
 12 13  2  0
 13 14  1  0
 14 15  2  0
 15 16  1  0
 16 17  2  0
 17 18  1  0
 18 19  2  0
 19 20  1  0
 20 21  2  0
 21 22  1  0
 22 23  2  0
 23 24  1  0
 24 25  2  0
 25 26  1  0
 25 27  1  0
 27 28  2  0
 28 29  1  0
 29 30  2  0
 30 31  1  0
 31 32  2  0
 32 33  1  0
 33 34  2  0
 34 35  1  0
 35 36  2  0
 36 37  1  0
 37 38  2  0
 38 39  1  0
 39 40  2  0
 40 41  1  0
 41 42  2  0
 42 43  1  0
 43 44  2  0
 44 45  1  0
 45 46  2  0
 46 47  1  0
 47 48  2  0
 47  2  1  0
 40 36  1  0
 46 41  1  0
M  END
>  <Title>  (958) 
idABJBgen7

$$$$

     RDKit          2D

 84 84  0  0  0  0  0  0  0  0999 V2000
   21.3195    0.0000    0.0000 C   0  0  0  0  0  0  0  0  0  0  0  0
   19.8195    0.0000    0.0000 C   0  0  0  0  0  0  0  0  0  0  0  0
   19.7628    1.4989    0.0000 C   0  0  0  0  0  0  0  0  0  0  0  0
   19.5928    2.9893    0.0000 C   0  0  0  0  0  0  0  0  0  0  0  0
   19.3106    4.4625    0.0000 C   0  0  0  0  0  0  0  0  0  0  0  0
   18.9178    5.9101    0.0000 C   0  0  0  0  0  0  0  0  0  0  0  0
   18.4167    7.3239    0.0000 C   0  0  0  0  0  0  0  0  0  0  0  0
   17.8100    8.6958    0.0000 C   0  0  0  0  0  0  0  0  0  0  0  0
   17.1014   10.0178    0.0000 C   0  0  0  0  0  0  0  0  0  0  0  0
   16.2947   11.2825    0.0000 C   0  0  0  0  0  0  0  0  0  0  0  0
   15.3948   12.4825    0.0000 C   0  0  0  0  0  0  0  0  0  0  0  0
   14.4067   13.6111    0.0000 C   0  0  0  0  0  0  0  0  0  0  0  0
   13.3360   14.6617    0.0000 C   0  0  0  0  0  0  0  0  0  0  0  0
   12.1890   15.6283    0.0000 C   0  0  0  0  0  0  0  0  0  0  0  0
   10.9721   16.5053    0.0000 C   0  0  0  0  0  0  0  0  0  0  0  0
    9.6924   17.2879    0.0000 C   0  0  0  0  0  0  0  0  0  0  0  0
    8.3572   17.9714    0.0000 C   0  0  0  0  0  0  0  0  0  0  0  0
    6.9741   18.5520    0.0000 C   0  0  0  0  0  0  0  0  0  0  0  0
    5.5511   19.0263    0.0000 C   0  0  0  0  0  0  0  0  0  0  0  0
    4.0962   19.3916    0.0000 C   0  0  0  0  0  0  0  0  0  0  0  0
    2.6180   19.6459    0.0000 C   0  0  0  0  0  0  0  0  0  0  0  0
    1.1247   19.7876    0.0000 C   0  0  0  0  0  0  0  0  0  0  0  0
   -0.3751   19.8160    0.0000 C   0  0  0  0  0  0  0  0  0  0  0  0
   -1.8727   19.7309    0.0000 C   0  0  0  0  0  0  0  0  0  0  0  0
   -3.3595   19.5327    0.0000 C   0  0  0  0  0  0  0  0  0  0  0  0
   -4.8271   19.2227    0.0000 C   0  0  0  0  0  0  0  0  0  0  0  0
   -6.2671   18.8026    0.0000 C   0  0  0  0  0  0  0  0  0  0  0  0
   -7.6712   18.2748    0.0000 C   0  0  0  0  0  0  0  0  0  0  0  0
   -9.0313   17.6423    0.0000 C   0  0  0  0  0  0  0  0  0  0  0  0
  -10.3397   16.9087    0.0000 C   0  0  0  0  0  0  0  0  0  0  0  0
  -11.5888   16.0783    0.0000 C   0  0  0  0  0  0  0  0  0  0  0  0
  -12.7716   15.1558    0.0000 C   0  0  0  0  0  0  0  0  0  0  0  0
  -13.8813   14.1465    0.0000 C   0  0  0  0  0  0  0  0  0  0  0  0
  -14.9114   13.0562    0.0000 C   0  0  0  0  0  0  0  0  0  0  0  0
  -15.8561   11.8910    0.0000 C   0  0  0  0  0  0  0  0  0  0  0  0
  -16.7100   10.6578    0.0000 C   0  0  0  0  0  0  0  0  0  0  0  0
  -17.4682    9.3635    0.0000 C   0  0  0  0  0  0  0  0  0  0  0  0
  -18.1263    8.0156    0.0000 C   0  0  0  0  0  0  0  0  0  0  0  0
  -18.6806    6.6218    0.0000 C   0  0  0  0  0  0  0  0  0  0  0  0
  -19.1279    5.1900    0.0000 C   0  0  0  0  0  0  0  0  0  0  0  0
  -19.4656    3.7285    0.0000 C   0  0  0  0  0  0  0  0  0  0  0  0
  -19.6919    2.2457    0.0000 C   0  0  0  0  0  0  0  0  0  0  0  0
  -19.8053    0.7500    0.0000 C   0  0  0  0  0  0  0  0  0  0  0  0
  -19.8053   -0.7500    0.0000 C   0  0  0  0  0  0  0  0  0  0  0  0
  -19.6919   -2.2457    0.0000 C   0  0  0  0  0  0  0  0  0  0  0  0
  -19.4656   -3.7285    0.0000 C   0  0  0  0  0  0  0  0  0  0  0  0
  -19.1279   -5.1900    0.0000 C   0  0  0  0  0  0  0  0  0  0  0  0
  -18.6806   -6.6218    0.0000 C   0  0  0  0  0  0  0  0  0  0  0  0
  -18.1263   -8.0156    0.0000 C   0  0  0  0  0  0  0  0  0  0  0  0
  -17.4682   -9.3635    0.0000 C   0  0  0  0  0  0  0  0  0  0  0  0
  -16.7100  -10.6578    0.0000 C   0  0  0  0  0  0  0  0  0  0  0  0
  -15.8561  -11.8910    0.0000 C   0  0  0  0  0  0  0  0  0  0  0  0
  -14.9114  -13.0562    0.0000 C   0  0  0  0  0  0  0  0  0  0  0  0
  -13.8813  -14.1465    0.0000 C   0  0  0  0  0  0  0  0  0  0  0  0
  -12.7716  -15.1558    0.0000 N   0  0  0  0  0  0  0  0  0  0  0  0
  -11.5888  -16.0783    0.0000 C   0  0  0  0  0  0  0  0  0  0  0  0
  -10.3397  -16.9087    0.0000 C   0  0  0  0  0  0  0  0  0  0  0  0
   -9.0313  -17.6423    0.0000 C   0  0  0  0  0  0  0  0  0  0  0  0
   -7.6712  -18.2748    0.0000 C   0  0  0  0  0  0  0  0  0  0  0  0
   -6.2671  -18.8026    0.0000 N   0  0  0  0  0  0  0  0  0  0  0  0
   -4.8271  -19.2227    0.0000 C   0  0  0  0  0  0  0  0  0  0  0  0
   -3.3595  -19.5327    0.0000 C   0  0  0  0  0  0  0  0  0  0  0  0
   -1.8727  -19.7309    0.0000 C   0  0  0  0  0  0  0  0  0  0  0  0
   -0.3751  -19.8160    0.0000 C   0  0  0  0  0  0  0  0  0  0  0  0
    1.1247  -19.7876    0.0000 C   0  0  0  0  0  0  0  0  0  0  0  0
    2.6180  -19.6459    0.0000 C   0  0  0  0  0  0  0  0  0  0  0  0
    4.0962  -19.3916    0.0000 C   0  0  0  0  0  0  0  0  0  0  0  0
    5.5511  -19.0263    0.0000 C   0  0  0  0  0  0  0  0  0  0  0  0
    6.9741  -18.5520    0.0000 C   0  0  0  0  0  0  0  0  0  0  0  0
    8.3572  -17.9714    0.0000 C   0  0  0  0  0  0  0  0  0  0  0  0
    9.6924  -17.2879    0.0000 C   0  0  0  0  0  0  0  0  0  0  0  0
   10.9721  -16.5053    0.0000 C   0  0  0  0  0  0  0  0  0  0  0  0
   12.1890  -15.6283    0.0000 C   0  0  0  0  0  0  0  0  0  0  0  0
   13.3360  -14.6617    0.0000 C   0  0  0  0  0  0  0  0  0  0  0  0
   14.4067  -13.6111    0.0000 C   0  0  0  0  0  0  0  0  0  0  0  0
   15.3948  -12.4825    0.0000 C   0  0  0  0  0  0  0  0  0  0  0  0
   16.2947  -11.2825    0.0000 C   0  0  0  0  0  0  0  0  0  0  0  0
   17.1014  -10.0178    0.0000 C   0  0  0  0  0  0  0  0  0  0  0  0
   17.8100   -8.6958    0.0000 C   0  0  0  0  0  0  0  0  0  0  0  0
   18.4167   -7.3239    0.0000 C   0  0  0  0  0  0  0  0  0  0  0  0
   18.9178   -5.9101    0.0000 C   0  0  0  0  0  0  0  0  0  0  0  0
   19.3106   -4.4625    0.0000 C   0  0  0  0  0  0  0  0  0  0  0  0
   19.5928   -2.9893    0.0000 C   0  0  0  0  0  0  0  0  0  0  0  0
   19.7628   -1.4989    0.0000 C   0  0  0  0  0  0  0  0  0  0  0  0
  1  2  1  0
  2  3  1  0
  3  4  1  0
  4  5  1  0
  5  6  1  0
  6  7  1  0
  7  8  1  0
  8  9  1  0
  9 10  1  0
 10 11  1  0
 11 12  1  0
 12 13  1  0
 13 14  1  0
 14 15  1  0
 15 16  1  0
 16 17  1  0
 17 18  1  0
 18 19  1  0
 19 20  1  0
 20 21  1  0
 21 22  1  0
 22 23  1  0
 23 24  1  0
 24 25  1  0
 25 26  1  0
 26 27  1  0
 27 28  1  0
 28 29  1  0
 29 30  1  0
 30 31  1  0
 31 32  1  0
 32 33  1  0
 33 34  1  0
 34 35  1  0
 35 36  1  0
 36 37  1  0
 37 38  1  0
 38 39  1  0
 39 40  1  0
 40 41  1  0
 41 42  1  0
 42 43  1  0
 43 44  1  0
 44 45  1  0
 45 46  1  0
 46 47  1  0
 47 48  1  0
 48 49  1  0
 49 50  1  0
 50 51  1  0
 51 52  1  0
 52 53  1  0
 53 54  1  0
 54 55  1  0
 55 56  1  0
 56 57  1  0
 57 58  1  0
 58 59  1  0
 59 60  1  0
 60 61  1  0
 61 62  1  0
 62 63  1  0
 63 64  1  0
 64 65  1  0
 65 66  1  0
 66 67  1  0
 67 68  1  0
 68 69  1  0
 69 70  1  0
 70 71  1  0
 71 72  1  0
 72 73  1  0
 73 74  1  0
 74 75  1  0
 75 76  1  0
 76 77  1  0
 77 78  1  0
 78 79  1  0
 79 80  1  0
 80 81  1  0
 81 82  1  0
 82 83  1  0
 83 84  1  0
 84  2  1  0
M  END
>  <Title>  (959) 
idABJCgen7

$$$$

     RDKit          2D

  9  9  0  0  0  0  0  0  0  0999 V2000
    3.7500   -1.2990    0.0000 C   0  0  0  0  0  0  0  0  0  0  0  0
    3.0000    0.0000    0.0000 C   0  0  0  0  0  0  0  0  0  0  0  0
    3.7500    1.2990    0.0000 C   0  0  0  0  0  0  0  0  0  0  0  0
    1.5000    0.0000    0.0000 C   0  0  0  0  0  0  0  0  0  0  0  0
    0.7500   -1.2990    0.0000 C   0  0  0  0  0  0  0  0  0  0  0  0
   -0.7500   -1.2990    0.0000 C   0  0  0  0  0  0  0  0  0  0  0  0
   -1.5000    0.0000    0.0000 C   0  0  0  0  0  0  0  0  0  0  0  0
   -0.7500    1.2990    0.0000 C   0  0  0  0  0  0  0  0  0  0  0  0
    0.7500    1.2990    0.0000 C   0  0  0  0  0  0  0  0  0  0  0  0
  1  2  1  0
  2  3  1  0
  2  4  1  0
  4  5  1  0
  5  6  1  0
  6  7  2  0
  7  8  1  0
  8  9  1  0
  9  4  1  0
M  END
>  <Title>  (960) 
idABJDgen7

$$$$

     RDKit          2D

 11 11  0  0  0  0  0  0  0  0999 V2000
    5.0260   -1.2990    0.0000 C   0  0  0  0  0  0  0  0  0  0  0  0
    3.5260   -1.2990    0.0000 C   0  0  0  0  0  0  0  0  0  0  0  0
    2.7760   -2.5981    0.0000 O   0  0  0  0  0  0  0  0  0  0  0  0
    2.7760    0.0000    0.0000 N   0  0  0  0  0  0  0  0  0  0  0  0
    1.2760    0.0000    0.0000 C   0  0  0  0  0  0  0  0  0  0  0  0
    0.3943    1.2135    0.0000 C   0  0  0  0  0  0  0  0  0  0  0  0
   -1.0323    0.7500    0.0000 C   0  0  0  0  0  0  0  0  0  0  0  0
   -2.2458    1.6317    0.0000 C   0  0  0  0  0  0  0  0  0  0  0  0
   -3.4593    2.5134    0.0000 N   0  0  0  0  0  0  0  0  0  0  0  0
   -1.0323   -0.7500    0.0000 C   0  0  0  0  0  0  0  0  0  0  0  0
    0.3943   -1.2135    0.0000 C   0  0  0  0  0  0  0  0  0  0  0  0
  1  2  1  0
  2  3  2  0
  2  4  1  0
  4  5  1  0
  5  6  2  0
  6  7  1  0
  7  8  1  0
  8  9  3  0
  7 10  1  0
 10 11  2  0
 11  5  1  0
M  END
>  <Title>  (961) 
idABJEgen7

$$$$

     RDKit          2D

 13 13  0  0  0  0  0  0  0  0999 V2000
    4.3978    0.0000    0.0000 C   0  0  0  0  0  0  0  0  0  0  0  0
    2.8978    0.0000    0.0000 C   0  0  0  0  0  0  0  0  0  0  0  0
    2.5095   -1.4489    0.0000 C   0  0  0  0  0  0  0  0  0  0  0  0
    1.4489   -2.5095    0.0000 C   0  0  0  0  0  0  0  0  0  0  0  0
   -0.0000   -2.8978    0.0000 C   0  0  0  0  0  0  0  0  0  0  0  0
   -1.4489   -2.5095    0.0000 C   0  0  0  0  0  0  0  0  0  0  0  0
   -2.5095   -1.4489    0.0000 C   0  0  0  0  0  0  0  0  0  0  0  0
   -2.8978    0.0000    0.0000 C   0  0  0  0  0  0  0  0  0  0  0  0
   -2.5095    1.4489    0.0000 C   0  0  0  0  0  0  0  0  0  0  0  0
   -1.4489    2.5095    0.0000 C   0  0  0  0  0  0  0  0  0  0  0  0
    0.0000    2.8978    0.0000 C   0  0  0  0  0  0  0  0  0  0  0  0
    1.4489    2.5095    0.0000 C   0  0  0  0  0  0  0  0  0  0  0  0
    2.5095    1.4489    0.0000 C   0  0  0  0  0  0  0  0  0  0  0  0
  1  2  1  0
  2  3  1  0
  3  4  1  0
  4  5  2  0
  5  6  1  0
  6  7  2  0
  7  8  1  0
  8  9  2  0
  9 10  1  0
 10 11  2  0
 11 12  1  0
 12 13  1  0
 13  2  1  0
M  END
>  <Title>  (962) 
idABJFgen7

$$$$

     RDKit          2D

 27 30  0  0  0  0  0  0  0  0999 V2000
   -5.7078   -4.6097    0.0000 C   0  0  0  0  0  0  0  0  0  0  0  0
   -4.4087   -3.8597    0.0000 C   0  0  0  0  0  0  0  0  0  0  0  0
   -4.4087   -2.3597    0.0000 C   0  0  0  0  0  0  0  0  0  0  0  0
   -3.1097   -1.6097    0.0000 C   0  0  0  0  0  0  0  0  0  0  0  0
   -1.8107   -2.3597    0.0000 C   0  0  0  0  0  0  0  0  0  0  0  0
   -1.8107   -3.8597    0.0000 C   0  0  0  0  0  0  0  0  0  0  0  0
   -3.1097   -4.6097    0.0000 C   0  0  0  0  0  0  0  0  0  0  0  0
   -0.7500   -4.9204    0.0000 C   0  0  0  0  0  0  0  0  0  0  0  0
   -1.3240   -6.3062    0.0000 C   0  0  0  0  0  0  0  0  0  0  0  0
    0.7500   -4.9204    0.0000 C   0  0  0  0  0  0  0  0  0  0  0  0
    1.8107   -3.8597    0.0000 C   0  0  0  0  0  0  0  0  0  0  0  0
    1.8107   -2.3597    0.0000 C   0  0  0  0  0  0  0  0  0  0  0  0
    3.1965   -1.7857    0.0000 C   0  0  0  0  0  0  0  0  0  0  0  0
    3.3923   -0.2985    0.0000 O   0  0  0  0  0  0  0  0  0  0  0  0
    4.3865   -2.6988    0.0000 N   0  0  0  0  0  0  0  0  0  0  0  0
    5.7723   -2.1248    0.0000 C   0  0  0  0  0  0  0  0  0  0  0  0
    6.9624   -3.0379    0.0000 N   0  0  0  0  0  0  0  0  0  0  0  0
    8.3482   -2.4639    0.0000 N   0  0  0  0  0  0  0  0  0  0  0  0
    8.5440   -0.9767    0.0000 N   0  0  0  0  0  0  0  0  0  0  0  0
    7.3539   -0.0636    0.0000 N   0  0  0  0  0  0  0  0  0  0  0  0
    5.9681   -0.6376    0.0000 N   0  0  0  0  0  0  0  0  0  0  0  0
    0.7500   -1.2990    0.0000 C   0  0  0  0  0  0  0  0  0  0  0  0
    1.5000    0.0000    0.0000 C   0  0  0  0  0  0  0  0  0  0  0  0
    0.7500    1.2990    0.0000 C   0  0  0  0  0  0  0  0  0  0  0  0
   -0.7500    1.2990    0.0000 C   0  0  0  0  0  0  0  0  0  0  0  0
   -1.5000    0.0000    0.0000 C   0  0  0  0  0  0  0  0  0  0  0  0
   -0.7500   -1.2990    0.0000 C   0  0  0  0  0  0  0  0  0  0  0  0
  1  2  1  0
  2  3  2  0
  3  4  1  0
  4  5  2  0
  5  6  1  0
  6  7  2  0
  6  8  1  0
  8  9  1  0
  8 10  1  0
 10 11  1  0
 11 12  1  0
 12 13  1  0
 13 14  2  0
 13 15  1  0
 15 16  1  0
 16 17  2  0
 17 18  1  0
 18 19  2  0
 19 20  1  0
 20 21  2  0
 12 22  1  0
 22 23  2  0
 23 24  1  0
 24 25  2  0
 25 26  1  0
 26 27  2  0
  7  2  1  0
 21 16  1  0
 27 22  1  0
 27  5  1  0
M  END
>  <Title>  (963) 
idABJGgen7

$$$$

     RDKit          2D

 32 36  0  0  0  0  0  0  0  0999 V2000
    1.2135   -7.3421    0.0000 C   0  0  0  0  0  0  0  0  0  0  0  0
    0.7500   -5.9156    0.0000 C   0  0  0  0  0  0  0  0  0  0  0  0
    1.9635   -5.0339    0.0000 C   0  0  0  0  0  0  0  0  0  0  0  0
    2.4271   -3.6073    0.0000 C   0  0  0  0  0  0  0  0  0  0  0  0
    1.9635   -2.1807    0.0000 C   0  0  0  0  0  0  0  0  0  0  0  0
    3.1771   -1.2990    0.0000 C   0  0  0  0  0  0  0  0  0  0  0  0
    3.0203    0.1927    0.0000 O   0  0  0  0  0  0  0  0  0  0  0  0
    4.5474   -1.9091    0.0000 N   0  0  0  0  0  0  0  0  0  0  0  0
    5.7609   -1.0275    0.0000 C   0  0  0  0  0  0  0  0  0  0  0  0
    7.1312   -1.6376    0.0000 N   0  0  0  0  0  0  0  0  0  0  0  0
    8.3447   -0.7559    0.0000 N   0  0  0  0  0  0  0  0  0  0  0  0
    8.1879    0.7359    0.0000 N   0  0  0  0  0  0  0  0  0  0  0  0
    6.8176    1.3460    0.0000 N   0  0  0  0  0  0  0  0  0  0  0  0
    5.6041    0.4643    0.0000 N   0  0  0  0  0  0  0  0  0  0  0  0
    0.7500   -1.2990    0.0000 C   0  0  0  0  0  0  0  0  0  0  0  0
    1.5000    0.0000    0.0000 C   0  0  0  0  0  0  0  0  0  0  0  0
    0.7500    1.2990    0.0000 C   0  0  0  0  0  0  0  0  0  0  0  0
   -0.7500    1.2990    0.0000 C   0  0  0  0  0  0  0  0  0  0  0  0
   -1.5000    0.0000    0.0000 C   0  0  0  0  0  0  0  0  0  0  0  0
   -0.7500   -1.2990    0.0000 C   0  0  0  0  0  0  0  0  0  0  0  0
   -1.9635   -2.1807    0.0000 C   0  0  0  0  0  0  0  0  0  0  0  0
   -2.9672   -1.0660    0.0000 C   0  0  0  0  0  0  0  0  0  0  0  0
   -4.4344   -1.3779    0.0000 C   0  0  0  0  0  0  0  0  0  0  0  0
   -4.8980   -2.8045    0.0000 C   0  0  0  0  0  0  0  0  0  0  0  0
   -3.8943   -3.9192    0.0000 C   0  0  0  0  0  0  0  0  0  0  0  0
   -2.4271   -3.6073    0.0000 C   0  0  0  0  0  0  0  0  0  0  0  0
   -1.9635   -5.0339    0.0000 C   0  0  0  0  0  0  0  0  0  0  0  0
   -3.3338   -5.6440    0.0000 N   0  0  0  0  0  0  0  0  0  0  0  0
   -3.4906   -7.1358    0.0000 N   0  0  0  0  0  0  0  0  0  0  0  0
   -2.2771   -8.0175    0.0000 N   0  0  0  0  0  0  0  0  0  0  0  0
   -0.9068   -7.4073    0.0000 N   0  0  0  0  0  0  0  0  0  0  0  0
   -0.7500   -5.9156    0.0000 C   0  0  0  0  0  0  0  0  0  0  0  0
  1  2  1  0
  2  3  1  0
  3  4  1  0
  4  5  1  0
  5  6  1  0
  6  7  2  0
  6  8  1  0
  8  9  1  0
  9 10  2  0
 10 11  1  0
 11 12  2  0
 12 13  1  0
 13 14  2  0
  5 15  1  0
 15 16  2  0
 16 17  1  0
 17 18  2  0
 18 19  1  0
 19 20  2  0
 20 21  1  0
 21 22  2  0
 22 23  1  0
 23 24  2  0
 24 25  1  0
 25 26  2  0
 26 27  1  0
 27 28  2  0
 28 29  1  0
 29 30  2  0
 30 31  1  0
 31 32  2  0
 32  2  1  0
 14  9  1  0
 20 15  1  0
 26 21  1  0
 32 27  1  0
M  END
>  <Title>  (964) 
idABJHgen7

$$$$

     RDKit          2D

 37 37  0  0  0  0  0  0  0  0999 V2000
    8.8437    0.0000    0.0000 C   0  0  0  0  0  0  0  0  0  0  0  0
    8.7165    1.4946    0.0000 C   0  0  0  0  0  0  0  0  0  0  0  0
    8.3385    2.9462    0.0000 C   0  0  0  0  0  0  0  0  0  0  0  0
    7.7207    4.3130    0.0000 C   0  0  0  0  0  0  0  0  0  0  0  0
    6.8807    5.5558    0.0000 C   0  0  0  0  0  0  0  0  0  0  0  0
    5.8428    6.6387    0.0000 C   0  0  0  0  0  0  0  0  0  0  0  0
    4.6368    7.5307    0.0000 C   0  0  0  0  0  0  0  0  0  0  0  0
    3.2974    8.2060    0.0000 C   0  0  0  0  0  0  0  0  0  0  0  0
    1.8632    8.6452    0.0000 C   0  0  0  0  0  0  0  0  0  0  0  0
    0.3753    8.8358    0.0000 C   0  0  0  0  0  0  0  0  0  0  0  0
   -1.1233    8.7721    0.0000 C   0  0  0  0  0  0  0  0  0  0  0  0
   -2.5896    8.4561    0.0000 C   0  0  0  0  0  0  0  0  0  0  0  0
   -3.9815    7.8968    0.0000 C   0  0  0  0  0  0  0  0  0  0  0  0
   -5.2588    7.1103    0.0000 C   0  0  0  0  0  0  0  0  0  0  0  0
   -6.3848    6.1193    0.0000 C   0  0  0  0  0  0  0  0  0  0  0  0
   -7.3271    4.9523    0.0000 C   0  0  0  0  0  0  0  0  0  0  0  0
   -8.0587    3.6427    0.0000 C   0  0  0  0  0  0  0  0  0  0  0  0
   -8.5584    2.2284    0.0000 C   0  0  0  0  0  0  0  0  0  0  0  0
   -8.8119    0.7500    0.0000 C   0  0  0  0  0  0  0  0  0  0  0  0
   -8.8119   -0.7500    0.0000 C   0  0  0  0  0  0  0  0  0  0  0  0
   -8.5584   -2.2284    0.0000 C   0  0  0  0  0  0  0  0  0  0  0  0
   -8.0587   -3.6427    0.0000 C   0  0  0  0  0  0  0  0  0  0  0  0
   -7.3271   -4.9523    0.0000 C   0  0  0  0  0  0  0  0  0  0  0  0
   -6.3848   -6.1193    0.0000 C   0  0  0  0  0  0  0  0  0  0  0  0
   -5.2588   -7.1103    0.0000 C   0  0  0  0  0  0  0  0  0  0  0  0
   -3.9815   -7.8968    0.0000 C   0  0  0  0  0  0  0  0  0  0  0  0
   -2.5896   -8.4561    0.0000 C   0  0  0  0  0  0  0  0  0  0  0  0
   -1.1233   -8.7721    0.0000 C   0  0  0  0  0  0  0  0  0  0  0  0
    0.3753   -8.8358    0.0000 C   0  0  0  0  0  0  0  0  0  0  0  0
    1.8632   -8.6452    0.0000 C   0  0  0  0  0  0  0  0  0  0  0  0
    3.2974   -8.2060    0.0000 C   0  0  0  0  0  0  0  0  0  0  0  0
    4.6368   -7.5307    0.0000 C   0  0  0  0  0  0  0  0  0  0  0  0
    5.8428   -6.6387    0.0000 C   0  0  0  0  0  0  0  0  0  0  0  0
    6.8807   -5.5558    0.0000 C   0  0  0  0  0  0  0  0  0  0  0  0
    7.7207   -4.3130    0.0000 C   0  0  0  0  0  0  0  0  0  0  0  0
    8.3385   -2.9462    0.0000 C   0  0  0  0  0  0  0  0  0  0  0  0
    8.7165   -1.4946    0.0000 C   0  0  0  0  0  0  0  0  0  0  0  0
  1  2  2  0
  2  3  1  0
  3  4  1  0
  4  5  1  0
  5  6  1  0
  6  7  1  0
  7  8  1  0
  8  9  1  0
  9 10  1  0
 10 11  1  0
 11 12  1  0
 12 13  1  0
 13 14  1  0
 14 15  1  0
 15 16  1  0
 16 17  1  0
 17 18  1  0
 18 19  1  0
 19 20  1  0
 20 21  1  0
 21 22  1  0
 22 23  1  0
 23 24  1  0
 24 25  1  0
 25 26  1  0
 26 27  1  0
 27 28  1  0
 28 29  1  0
 29 30  1  0
 30 31  1  0
 31 32  1  0
 32 33  1  0
 33 34  1  0
 34 35  1  0
 35 36  1  0
 36 37  1  0
 37  1  1  0
M  END
>  <Title>  (965) 
idABJIgen7

$$$$

     RDKit          2D

 18 19  0  0  0  0  0  0  0  0999 V2000
    3.7500   -1.2990    0.0000 C   0  0  0  0  0  0  0  0  0  0  0  0
    3.0000    0.0000    0.0000 C   0  0  0  0  0  0  0  0  0  0  0  0
    3.7500    1.2990    0.0000 N   0  0  0  0  0  0  0  0  0  0  0  0
    5.2500    1.2990    0.0000 O   0  0  0  0  0  0  0  0  0  0  0  0
    1.5000    0.0000    0.0000 C   0  0  0  0  0  0  0  0  0  0  0  0
    0.7500   -1.2990    0.0000 C   0  0  0  0  0  0  0  0  0  0  0  0
   -0.7500   -1.2990    0.0000 C   0  0  0  0  0  0  0  0  0  0  0  0
   -1.5000    0.0000    0.0000 C   0  0  0  0  0  0  0  0  0  0  0  0
   -3.0000    0.0000    0.0000 C   0  0  0  0  0  0  0  0  0  0  0  0
   -3.7500   -1.2990    0.0000 O   0  0  0  0  0  0  0  0  0  0  0  0
   -3.7500    1.2990    0.0000 N   0  0  0  0  0  0  0  0  0  0  0  0
   -5.2500    1.2990    0.0000 C   0  0  0  0  0  0  0  0  0  0  0  0
   -6.1317    0.0855    0.0000 C   0  0  0  0  0  0  0  0  0  0  0  0
   -7.5583    0.5490    0.0000 C   0  0  0  0  0  0  0  0  0  0  0  0
   -7.5583    2.0490    0.0000 C   0  0  0  0  0  0  0  0  0  0  0  0
   -6.1317    2.5126    0.0000 C   0  0  0  0  0  0  0  0  0  0  0  0
   -0.7500    1.2990    0.0000 C   0  0  0  0  0  0  0  0  0  0  0  0
    0.7500    1.2990    0.0000 C   0  0  0  0  0  0  0  0  0  0  0  0
  1  2  1  0
  2  3  1  0
  3  4  1  0
  2  5  1  0
  5  6  1  0
  6  7  2  0
  7  8  1  0
  8  9  1  0
  9 10  2  0
  9 11  1  0
 11 12  1  0
 12 13  2  0
 13 14  1  0
 14 15  1  0
 15 16  2  0
  8 17  1  0
 17 18  1  0
 18  5  1  0
 16 12  1  0
M  END
>  <Title>  (966) 
idABJJgen7

$$$$

     RDKit          2D

112112  0  0  0  0  0  0  0  0999 V2000
   28.0028    0.0000    0.0000 C   0  0  0  0  0  0  0  0  0  0  0  0
   26.5028    0.0000    0.0000 C   0  0  0  0  0  0  0  0  0  0  0  0
   26.4604    1.4994    0.0000 C   0  0  0  0  0  0  0  0  0  0  0  0
   26.3332    2.9940    0.0000 C   0  0  0  0  0  0  0  0  0  0  0  0
   26.1216    4.4790    0.0000 C   0  0  0  0  0  0  0  0  0  0  0  0
   25.8264    5.9497    0.0000 C   0  0  0  0  0  0  0  0  0  0  0  0
   25.4484    7.4013    0.0000 C   0  0  0  0  0  0  0  0  0  0  0  0
   24.9889    8.8291    0.0000 C   0  0  0  0  0  0  0  0  0  0  0  0
   24.4494   10.2288    0.0000 C   0  0  0  0  0  0  0  0  0  0  0  0
   23.8315   11.5956    0.0000 C   0  0  0  0  0  0  0  0  0  0  0  0
   23.1374   12.9253    0.0000 C   0  0  0  0  0  0  0  0  0  0  0  0
   22.3690   14.2136    0.0000 C   0  0  0  0  0  0  0  0  0  0  0  0
   21.5291   15.4564    0.0000 C   0  0  0  0  0  0  0  0  0  0  0  0
   20.6202   16.6496    0.0000 C   0  0  0  0  0  0  0  0  0  0  0  0
   19.6452   17.7895    0.0000 C   0  0  0  0  0  0  0  0  0  0  0  0
   18.6073   18.8725    0.0000 C   0  0  0  0  0  0  0  0  0  0  0  0
   17.5098   19.8949    0.0000 C   0  0  0  0  0  0  0  0  0  0  0  0
   16.3562   20.8537    0.0000 C   0  0  0  0  0  0  0  0  0  0  0  0
   15.1502   21.7456    0.0000 C   0  0  0  0  0  0  0  0  0  0  0  0
   13.8956   22.5679    0.0000 C   0  0  0  0  0  0  0  0  0  0  0  0
   12.5966   23.3179    0.0000 C   0  0  0  0  0  0  0  0  0  0  0  0
   11.2572   23.9932    0.0000 C   0  0  0  0  0  0  0  0  0  0  0  0
    9.8818   24.5917    0.0000 C   0  0  0  0  0  0  0  0  0  0  0  0
    8.4747   25.1114    0.0000 C   0  0  0  0  0  0  0  0  0  0  0  0
    7.0404   25.5506    0.0000 C   0  0  0  0  0  0  0  0  0  0  0  0
    5.5836   25.9080    0.0000 C   0  0  0  0  0  0  0  0  0  0  0  0
    4.1089   26.1824    0.0000 C   0  0  0  0  0  0  0  0  0  0  0  0
    2.6211   26.3729    0.0000 C   0  0  0  0  0  0  0  0  0  0  0  0
    1.1248   26.4790    0.0000 C   0  0  0  0  0  0  0  0  0  0  0  0
   -0.3750   26.5002    0.0000 C   0  0  0  0  0  0  0  0  0  0  0  0
   -1.8737   26.4365    0.0000 C   0  0  0  0  0  0  0  0  0  0  0  0
   -3.3663   26.2882    0.0000 C   0  0  0  0  0  0  0  0  0  0  0  0
   -4.8482   26.0556    0.0000 C   0  0  0  0  0  0  0  0  0  0  0  0
   -6.3145   25.7396    0.0000 C   0  0  0  0  0  0  0  0  0  0  0  0
   -7.7606   25.3411    0.0000 C   0  0  0  0  0  0  0  0  0  0  0  0
   -9.1819   24.8615    0.0000 C   0  0  0  0  0  0  0  0  0  0  0  0
  -10.5737   24.3022    0.0000 C   0  0  0  0  0  0  0  0  0  0  0  0
  -11.9317   23.6651    0.0000 C   0  0  0  0  0  0  0  0  0  0  0  0
  -13.2514   22.9521    0.0000 C   0  0  0  0  0  0  0  0  0  0  0  0
  -14.5287   22.1657    0.0000 C   0  0  0  0  0  0  0  0  0  0  0  0
  -15.7595   21.3082    0.0000 C   0  0  0  0  0  0  0  0  0  0  0  0
  -16.9397   20.3825    0.0000 C   0  0  0  0  0  0  0  0  0  0  0  0
  -18.0657   19.3915    0.0000 C   0  0  0  0  0  0  0  0  0  0  0  0
  -19.1339   18.3383    0.0000 C   0  0  0  0  0  0  0  0  0  0  0  0
  -20.1407   17.2265    0.0000 C   0  0  0  0  0  0  0  0  0  0  0  0
  -21.0831   16.0594    0.0000 C   0  0  0  0  0  0  0  0  0  0  0  0
  -21.9579   14.8409    0.0000 C   0  0  0  0  0  0  0  0  0  0  0  0
  -22.7623   13.5749    0.0000 C   0  0  0  0  0  0  0  0  0  0  0  0
  -23.4939   12.2654    0.0000 C   0  0  0  0  0  0  0  0  0  0  0  0
  -24.1501   10.9166    0.0000 C   0  0  0  0  0  0  0  0  0  0  0  0
  -24.7291    9.5328    0.0000 C   0  0  0  0  0  0  0  0  0  0  0  0
  -25.2288    8.1185    0.0000 C   0  0  0  0  0  0  0  0  0  0  0  0
  -25.6477    6.6781    0.0000 C   0  0  0  0  0  0  0  0  0  0  0  0
  -25.9844    5.2164    0.0000 C   0  0  0  0  0  0  0  0  0  0  0  0
  -26.2379    3.7380    0.0000 C   0  0  0  0  0  0  0  0  0  0  0  0
  -26.4074    2.2476    0.0000 C   0  0  0  0  0  0  0  0  0  0  0  0
  -26.4922    0.7500    0.0000 C   0  0  0  0  0  0  0  0  0  0  0  0
  -26.4922   -0.7500    0.0000 C   0  0  0  0  0  0  0  0  0  0  0  0
  -26.4074   -2.2476    0.0000 C   0  0  0  0  0  0  0  0  0  0  0  0
  -26.2379   -3.7380    0.0000 C   0  0  0  0  0  0  0  0  0  0  0  0
  -25.9844   -5.2164    0.0000 C   0  0  0  0  0  0  0  0  0  0  0  0
  -25.6477   -6.6781    0.0000 C   0  0  0  0  0  0  0  0  0  0  0  0
  -25.2288   -8.1185    0.0000 C   0  0  0  0  0  0  0  0  0  0  0  0
  -24.7291   -9.5328    0.0000 C   0  0  0  0  0  0  0  0  0  0  0  0
  -24.1501  -10.9166    0.0000 C   0  0  0  0  0  0  0  0  0  0  0  0
  -23.4939  -12.2654    0.0000 C   0  0  0  0  0  0  0  0  0  0  0  0
  -22.7623  -13.5749    0.0000 C   0  0  0  0  0  0  0  0  0  0  0  0
  -21.9579  -14.8409    0.0000 C   0  0  0  0  0  0  0  0  0  0  0  0
  -21.0831  -16.0594    0.0000 C   0  0  0  0  0  0  0  0  0  0  0  0
  -20.1407  -17.2265    0.0000 C   0  0  0  0  0  0  0  0  0  0  0  0
  -19.1339  -18.3383    0.0000 C   0  0  0  0  0  0  0  0  0  0  0  0
  -18.0657  -19.3915    0.0000 C   0  0  0  0  0  0  0  0  0  0  0  0
  -16.9397  -20.3825    0.0000 C   0  0  0  0  0  0  0  0  0  0  0  0
  -15.7595  -21.3082    0.0000 C   0  0  0  0  0  0  0  0  0  0  0  0
  -14.5287  -22.1657    0.0000 C   0  0  0  0  0  0  0  0  0  0  0  0
  -13.2514  -22.9521    0.0000 C   0  0  0  0  0  0  0  0  0  0  0  0
  -11.9317  -23.6651    0.0000 C   0  0  0  0  0  0  0  0  0  0  0  0
  -10.5737  -24.3022    0.0000 C   0  0  0  0  0  0  0  0  0  0  0  0
   -9.1819  -24.8615    0.0000 C   0  0  0  0  0  0  0  0  0  0  0  0
   -7.7606  -25.3411    0.0000 C   0  0  0  0  0  0  0  0  0  0  0  0
   -6.3145  -25.7396    0.0000 C   0  0  0  0  0  0  0  0  0  0  0  0
   -4.8482  -26.0556    0.0000 C   0  0  0  0  0  0  0  0  0  0  0  0
   -3.3663  -26.2882    0.0000 C   0  0  0  0  0  0  0  0  0  0  0  0
   -1.8737  -26.4365    0.0000 C   0  0  0  0  0  0  0  0  0  0  0  0
   -0.3750  -26.5002    0.0000 C   0  0  0  0  0  0  0  0  0  0  0  0
    1.1248  -26.4790    0.0000 C   0  0  0  0  0  0  0  0  0  0  0  0
    2.6211  -26.3729    0.0000 C   0  0  0  0  0  0  0  0  0  0  0  0
    4.1089  -26.1824    0.0000 C   0  0  0  0  0  0  0  0  0  0  0  0
    5.5836  -25.9080    0.0000 C   0  0  0  0  0  0  0  0  0  0  0  0
    7.0404  -25.5506    0.0000 C   0  0  0  0  0  0  0  0  0  0  0  0
    8.4747  -25.1114    0.0000 C   0  0  0  0  0  0  0  0  0  0  0  0
    9.8818  -24.5917    0.0000 C   0  0  0  0  0  0  0  0  0  0  0  0
   11.2572  -23.9932    0.0000 C   0  0  0  0  0  0  0  0  0  0  0  0
   12.5966  -23.3179    0.0000 C   0  0  0  0  0  0  0  0  0  0  0  0
   13.8956  -22.5679    0.0000 C   0  0  0  0  0  0  0  0  0  0  0  0
   15.1502  -21.7456    0.0000 C   0  0  0  0  0  0  0  0  0  0  0  0
   16.3562  -20.8537    0.0000 C   0  0  0  0  0  0  0  0  0  0  0  0
   17.5098  -19.8949    0.0000 C   0  0  0  0  0  0  0  0  0  0  0  0
   18.6073  -18.8725    0.0000 C   0  0  0  0  0  0  0  0  0  0  0  0
   19.6452  -17.7895    0.0000 C   0  0  0  0  0  0  0  0  0  0  0  0
   20.6202  -16.6496    0.0000 C   0  0  0  0  0  0  0  0  0  0  0  0
   21.5291  -15.4564    0.0000 C   0  0  0  0  0  0  0  0  0  0  0  0
   22.3690  -14.2136    0.0000 C   0  0  0  0  0  0  0  0  0  0  0  0
   23.1374  -12.9253    0.0000 C   0  0  0  0  0  0  0  0  0  0  0  0
   23.8315  -11.5956    0.0000 C   0  0  0  0  0  0  0  0  0  0  0  0
   24.4494  -10.2288    0.0000 C   0  0  0  0  0  0  0  0  0  0  0  0
   24.9889   -8.8291    0.0000 C   0  0  0  0  0  0  0  0  0  0  0  0
   25.4484   -7.4013    0.0000 C   0  0  0  0  0  0  0  0  0  0  0  0
   25.8264   -5.9497    0.0000 C   0  0  0  0  0  0  0  0  0  0  0  0
   26.1216   -4.4790    0.0000 C   0  0  0  0  0  0  0  0  0  0  0  0
   26.3332   -2.9940    0.0000 C   0  0  0  0  0  0  0  0  0  0  0  0
   26.4604   -1.4994    0.0000 C   0  0  0  0  0  0  0  0  0  0  0  0
  1  2  1  0
  2  3  1  0
  3  4  1  0
  4  5  1  0
  5  6  1  0
  6  7  1  0
  7  8  1  0
  8  9  1  0
  9 10  1  0
 10 11  1  0
 11 12  1  0
 12 13  1  0
 13 14  1  0
 14 15  1  0
 15 16  1  0
 16 17  1  0
 17 18  1  0
 18 19  1  0
 19 20  1  0
 20 21  1  0
 21 22  1  0
 22 23  1  0
 23 24  1  0
 24 25  1  0
 25 26  1  0
 26 27  1  0
 27 28  1  0
 28 29  1  0
 29 30  1  0
 30 31  1  0
 31 32  1  0
 32 33  1  0
 33 34  1  0
 34 35  2  0
 35 36  1  0
 36 37  1  0
 37 38  1  0
 38 39  1  0
 39 40  1  0
 40 41  1  0
 41 42  1  0
 42 43  1  0
 43 44  1  0
 44 45  1  0
 45 46  1  0
 46 47  1  0
 47 48  1  0
 48 49  1  0
 49 50  1  0
 50 51  1  0
 51 52  1  0
 52 53  1  0
 53 54  1  0
 54 55  1  0
 55 56  1  0
 56 57  1  0
 57 58  1  0
 58 59  1  0
 59 60  1  0
 60 61  1  0
 61 62  1  0
 62 63  1  0
 63 64  1  0
 64 65  1  0
 65 66  1  0
 66 67  1  0
 67 68  1  0
 68 69  1  0
 69 70  1  0
 70 71  1  0
 71 72  1  0
 72 73  1  0
 73 74  1  0
 74 75  1  0
 75 76  1  0
 76 77  1  0
 77 78  1  0
 78 79  1  0
 79 80  1  0
 80 81  1  0
 81 82  1  0
 82 83  1  0
 83 84  1  0
 84 85  1  0
 85 86  1  0
 86 87  1  0
 87 88  1  0
 88 89  1  0
 89 90  1  0
 90 91  1  0
 91 92  1  0
 92 93  1  0
 93 94  1  0
 94 95  1  0
 95 96  1  0
 96 97  1  0
 97 98  1  0
 98 99  1  0
 99100  1  0
100101  1  0
101102  1  0
102103  1  0
103104  1  0
104105  1  0
105106  1  0
106107  1  0
107108  1  0
108109  1  0
109110  1  0
110111  1  0
111112  1  0
112  2  1  0
M  END
>  <Title>  (967) 
idABJKgen7

$$$$

     RDKit          2D

 90 90  0  0  0  0  0  0  0  0999 V2000
   22.7516    0.0000    0.0000 C   0  0  0  0  0  0  0  0  0  0  0  0
   21.2516    0.0000    0.0000 C   0  0  0  0  0  0  0  0  0  0  0  0
   21.1987    1.4991    0.0000 C   0  0  0  0  0  0  0  0  0  0  0  0
   21.0401    2.9907    0.0000 C   0  0  0  0  0  0  0  0  0  0  0  0
   20.7767    4.4674    0.0000 C   0  0  0  0  0  0  0  0  0  0  0  0
   20.4099    5.9218    0.0000 C   0  0  0  0  0  0  0  0  0  0  0  0
   19.9413    7.3467    0.0000 C   0  0  0  0  0  0  0  0  0  0  0  0
   19.3734    8.7351    0.0000 C   0  0  0  0  0  0  0  0  0  0  0  0
   18.7090   10.0799    0.0000 C   0  0  0  0  0  0  0  0  0  0  0  0
   17.9514   11.3745    0.0000 C   0  0  0  0  0  0  0  0  0  0  0  0
   17.1043   12.6124    0.0000 C   0  0  0  0  0  0  0  0  0  0  0  0
   16.1720   13.7875    0.0000 C   0  0  0  0  0  0  0  0  0  0  0  0
   15.1592   14.8940    0.0000 C   0  0  0  0  0  0  0  0  0  0  0  0
   14.0708   15.9262    0.0000 C   0  0  0  0  0  0  0  0  0  0  0  0
   12.9123   16.8790    0.0000 C   0  0  0  0  0  0  0  0  0  0  0  0
   11.6895   17.7478    0.0000 C   0  0  0  0  0  0  0  0  0  0  0  0
   10.4085   18.5282    0.0000 C   0  0  0  0  0  0  0  0  0  0  0  0
    9.0756   19.2162    0.0000 C   0  0  0  0  0  0  0  0  0  0  0  0
    7.6975   19.8085    0.0000 C   0  0  0  0  0  0  0  0  0  0  0  0
    6.2811   20.3022    0.0000 C   0  0  0  0  0  0  0  0  0  0  0  0
    4.8333   20.6947    0.0000 C   0  0  0  0  0  0  0  0  0  0  0  0
    3.3615   20.9841    0.0000 C   0  0  0  0  0  0  0  0  0  0  0  0
    1.8730   21.1689    0.0000 C   0  0  0  0  0  0  0  0  0  0  0  0
    0.3751   21.2483    0.0000 C   0  0  0  0  0  0  0  0  0  0  0  0
   -1.1247   21.2218    0.0000 C   0  0  0  0  0  0  0  0  0  0  0  0
   -2.6189   21.0896    0.0000 C   0  0  0  0  0  0  0  0  0  0  0  0
   -4.1000   20.8524    0.0000 C   0  0  0  0  0  0  0  0  0  0  0  0
   -5.5607   20.5112    0.0000 C   0  0  0  0  0  0  0  0  0  0  0  0
   -6.9937   20.0679    0.0000 C   0  0  0  0  0  0  0  0  0  0  0  0
   -8.3918   19.5245    0.0000 C   0  0  0  0  0  0  0  0  0  0  0  0
   -9.7481   18.8840    0.0000 C   0  0  0  0  0  0  0  0  0  0  0  0
  -11.0559   18.1493    0.0000 C   0  0  0  0  0  0  0  0  0  0  0  0
  -12.3086   17.3242    0.0000 C   0  0  0  0  0  0  0  0  0  0  0  0
  -13.5000   16.4128    0.0000 C   0  0  0  0  0  0  0  0  0  0  0  0
  -14.6241   15.4197    0.0000 C   0  0  0  0  0  0  0  0  0  0  0  0
  -15.6754   14.3497    0.0000 C   0  0  0  0  0  0  0  0  0  0  0  0
  -16.6485   13.2082    0.0000 C   0  0  0  0  0  0  0  0  0  0  0  0
  -17.5387   12.0009    0.0000 C   0  0  0  0  0  0  0  0  0  0  0  0
  -18.3416   10.7339    0.0000 C   0  0  0  0  0  0  0  0  0  0  0  0
  -19.0531    9.4134    0.0000 C   0  0  0  0  0  0  0  0  0  0  0  0
  -19.6696    8.0459    0.0000 C   0  0  0  0  0  0  0  0  0  0  0  0
  -20.1882    6.6384    0.0000 C   0  0  0  0  0  0  0  0  0  0  0  0
  -20.6061    5.1978    0.0000 C   0  0  0  0  0  0  0  0  0  0  0  0
  -20.9215    3.7313    0.0000 C   0  0  0  0  0  0  0  0  0  0  0  0
  -21.1326    2.2463    0.0000 C   0  0  0  0  0  0  0  0  0  0  0  0
  -21.2384    0.7500    0.0000 C   0  0  0  0  0  0  0  0  0  0  0  0
  -21.2384   -0.7500    0.0000 C   0  0  0  0  0  0  0  0  0  0  0  0
  -21.1326   -2.2463    0.0000 C   0  0  0  0  0  0  0  0  0  0  0  0
  -20.9215   -3.7313    0.0000 C   0  0  0  0  0  0  0  0  0  0  0  0
  -20.6061   -5.1978    0.0000 C   0  0  0  0  0  0  0  0  0  0  0  0
  -20.1882   -6.6384    0.0000 C   0  0  0  0  0  0  0  0  0  0  0  0
  -19.6696   -8.0459    0.0000 C   0  0  0  0  0  0  0  0  0  0  0  0
  -19.0531   -9.4134    0.0000 C   0  0  0  0  0  0  0  0  0  0  0  0
  -18.3416  -10.7339    0.0000 C   0  0  0  0  0  0  0  0  0  0  0  0
  -17.5387  -12.0009    0.0000 C   0  0  0  0  0  0  0  0  0  0  0  0
  -16.6485  -13.2082    0.0000 C   0  0  0  0  0  0  0  0  0  0  0  0
  -15.6754  -14.3497    0.0000 C   0  0  0  0  0  0  0  0  0  0  0  0
  -14.6241  -15.4197    0.0000 C   0  0  0  0  0  0  0  0  0  0  0  0
  -13.5000  -16.4128    0.0000 C   0  0  0  0  0  0  0  0  0  0  0  0
  -12.3086  -17.3242    0.0000 C   0  0  0  0  0  0  0  0  0  0  0  0
  -11.0559  -18.1493    0.0000 C   0  0  0  0  0  0  0  0  0  0  0  0
   -9.7481  -18.8840    0.0000 C   0  0  0  0  0  0  0  0  0  0  0  0
   -8.3918  -19.5245    0.0000 C   0  0  0  0  0  0  0  0  0  0  0  0
   -6.9937  -20.0679    0.0000 C   0  0  0  0  0  0  0  0  0  0  0  0
   -5.5607  -20.5112    0.0000 C   0  0  0  0  0  0  0  0  0  0  0  0
   -4.1000  -20.8524    0.0000 C   0  0  0  0  0  0  0  0  0  0  0  0
   -2.6189  -21.0896    0.0000 C   0  0  0  0  0  0  0  0  0  0  0  0
   -1.1247  -21.2218    0.0000 C   0  0  0  0  0  0  0  0  0  0  0  0
    0.3751  -21.2483    0.0000 C   0  0  0  0  0  0  0  0  0  0  0  0
    1.8730  -21.1689    0.0000 C   0  0  0  0  0  0  0  0  0  0  0  0
    3.3615  -20.9841    0.0000 C   0  0  0  0  0  0  0  0  0  0  0  0
    4.8333  -20.6947    0.0000 C   0  0  0  0  0  0  0  0  0  0  0  0
    6.2811  -20.3022    0.0000 C   0  0  0  0  0  0  0  0  0  0  0  0
    7.6975  -19.8085    0.0000 C   0  0  0  0  0  0  0  0  0  0  0  0
    9.0756  -19.2162    0.0000 C   0  0  0  0  0  0  0  0  0  0  0  0
   10.4085  -18.5282    0.0000 C   0  0  0  0  0  0  0  0  0  0  0  0
   11.6895  -17.7478    0.0000 C   0  0  0  0  0  0  0  0  0  0  0  0
   12.9123  -16.8790    0.0000 C   0  0  0  0  0  0  0  0  0  0  0  0
   14.0708  -15.9262    0.0000 C   0  0  0  0  0  0  0  0  0  0  0  0
   15.1592  -14.8940    0.0000 C   0  0  0  0  0  0  0  0  0  0  0  0
   16.1720  -13.7875    0.0000 C   0  0  0  0  0  0  0  0  0  0  0  0
   17.1043  -12.6124    0.0000 C   0  0  0  0  0  0  0  0  0  0  0  0
   17.9514  -11.3745    0.0000 C   0  0  0  0  0  0  0  0  0  0  0  0
   18.7090  -10.0799    0.0000 C   0  0  0  0  0  0  0  0  0  0  0  0
   19.3734   -8.7351    0.0000 C   0  0  0  0  0  0  0  0  0  0  0  0
   19.9413   -7.3467    0.0000 C   0  0  0  0  0  0  0  0  0  0  0  0
   20.4099   -5.9218    0.0000 C   0  0  0  0  0  0  0  0  0  0  0  0
   20.7767   -4.4674    0.0000 C   0  0  0  0  0  0  0  0  0  0  0  0
   21.0401   -2.9907    0.0000 C   0  0  0  0  0  0  0  0  0  0  0  0
   21.1987   -1.4991    0.0000 C   0  0  0  0  0  0  0  0  0  0  0  0
  1  2  1  0
  2  3  1  0
  3  4  1  0
  4  5  1  0
  5  6  1  0
  6  7  1  0
  7  8  1  0
  8  9  1  0
  9 10  1  0
 10 11  1  0
 11 12  1  0
 12 13  1  0
 13 14  1  0
 14 15  1  0
 15 16  1  0
 16 17  1  0
 17 18  1  0
 18 19  1  0
 19 20  1  0
 20 21  1  0
 21 22  1  0
 22 23  1  0
 23 24  1  0
 24 25  1  0
 25 26  1  0
 26 27  1  0
 27 28  1  0
 28 29  1  0
 29 30  1  0
 30 31  1  0
 31 32  1  0
 32 33  1  0
 33 34  1  0
 34 35  1  0
 35 36  1  0
 36 37  1  0
 37 38  1  0
 38 39  1  0
 39 40  1  0
 40 41  1  0
 41 42  1  0
 42 43  1  0
 43 44  1  0
 44 45  1  0
 45 46  1  0
 46 47  1  0
 47 48  1  0
 48 49  1  0
 49 50  1  0
 50 51  1  0
 51 52  1  0
 52 53  1  0
 53 54  1  0
 54 55  1  0
 55 56  1  0
 56 57  1  0
 57 58  1  0
 58 59  1  0
 59 60  1  0
 60 61  1  0
 61 62  1  0
 62 63  1  0
 63 64  1  0
 64 65  1  0
 65 66  1  0
 66 67  1  0
 67 68  1  0
 68 69  1  0
 69 70  1  0
 70 71  1  0
 71 72  1  0
 72 73  1  0
 73 74  1  0
 74 75  1  0
 75 76  1  0
 76 77  1  0
 77 78  1  0
 78 79  1  0
 79 80  1  0
 80 81  1  0
 81 82  1  0
 82 83  1  0
 83 84  1  0
 84 85  1  0
 85 86  1  0
 86 87  1  0
 87 88  1  0
 88 89  1  0
 89 90  1  0
 90  2  1  0
M  END
>  <Title>  (968) 
idABJLgen7

$$$$

     RDKit          2D

 20 21  0  0  0  0  0  0  0  0999 V2000
    5.2500   -1.2990    0.0000 C   0  0  0  0  0  0  0  0  0  0  0  0
    3.7500   -1.2990    0.0000 C   0  0  0  0  0  0  0  0  0  0  0  0
    3.0000   -2.5981    0.0000 O   0  0  0  0  0  0  0  0  0  0  0  0
    3.0000    0.0000    0.0000 C   0  0  0  0  0  0  0  0  0  0  0  0
    3.7500    1.2990    0.0000 O   0  0  0  0  0  0  0  0  0  0  0  0
    1.5000    0.0000    0.0000 N   0  0  0  0  0  0  0  0  0  0  0  0
    0.7500   -1.2990    0.0000 C   0  0  0  0  0  0  0  0  0  0  0  0
   -0.7500   -1.2990    0.0000 C   0  0  0  0  0  0  0  0  0  0  0  0
   -1.5000    0.0000    0.0000 C   0  0  0  0  0  0  0  0  0  0  0  0
   -3.0000    0.0000    0.0000 C   0  0  0  0  0  0  0  0  0  0  0  0
   -3.7500   -1.2990    0.0000 O   0  0  0  0  0  0  0  0  0  0  0  0
   -3.7500    1.2990    0.0000 N   0  0  0  0  0  0  0  0  0  0  0  0
   -5.2500    1.2990    0.0000 C   0  0  0  0  0  0  0  0  0  0  0  0
   -6.0000    2.5981    0.0000 N   0  0  0  0  0  0  0  0  0  0  0  0
   -7.5000    2.5981    0.0000 N   0  0  0  0  0  0  0  0  0  0  0  0
   -8.2500    1.2990    0.0000 N   0  0  0  0  0  0  0  0  0  0  0  0
   -7.5000    0.0000    0.0000 N   0  0  0  0  0  0  0  0  0  0  0  0
   -6.0000    0.0000    0.0000 N   0  0  0  0  0  0  0  0  0  0  0  0
   -0.7500    1.2990    0.0000 C   0  0  0  0  0  0  0  0  0  0  0  0
    0.7500    1.2990    0.0000 C   0  0  0  0  0  0  0  0  0  0  0  0
  1  2  1  0
  2  3  2  0
  2  4  1  0
  4  5  2  0
  4  6  1  0
  6  7  1  0
  7  8  2  0
  8  9  1  0
  9 10  1  0
 10 11  2  0
 10 12  1  0
 12 13  1  0
 13 14  2  0
 14 15  1  0
 15 16  2  0
 16 17  1  0
 17 18  2  0
  9 19  1  0
 19 20  1  0
 20  6  1  0
 18 13  1  0
M  END
>  <Title>  (969) 
idABJMgen7

$$$$

     RDKit          2D

 98 99  0  0  0  0  0  0  0  0999 V2000
   12.0132    0.0000    0.0000 C   0  0  0  0  0  0  0  0  0  0  0  0
   10.5132    0.0000    0.0000 C   0  0  0  0  0  0  0  0  0  0  0  0
   10.4061   -1.4962    0.0000 C   0  0  0  0  0  0  0  0  0  0  0  0
   10.0873   -2.9619    0.0000 C   0  0  0  0  0  0  0  0  0  0  0  0
    9.5631   -4.3673    0.0000 C   0  0  0  0  0  0  0  0  0  0  0  0
    8.8442   -5.6838    0.0000 C   0  0  0  0  0  0  0  0  0  0  0  0
    7.9453   -6.8847    0.0000 C   0  0  0  0  0  0  0  0  0  0  0  0
    6.8847   -7.9453    0.0000 C   0  0  0  0  0  0  0  0  0  0  0  0
    5.6838   -8.8442    0.0000 C   0  0  0  0  0  0  0  0  0  0  0  0
    4.3673   -9.5631    0.0000 C   0  0  0  0  0  0  0  0  0  0  0  0
    2.9619  -10.0873    0.0000 C   0  0  0  0  0  0  0  0  0  0  0  0
    1.4962  -10.4061    0.0000 C   0  0  0  0  0  0  0  0  0  0  0  0
   -0.0000  -10.5132    0.0000 C   0  0  0  0  0  0  0  0  0  0  0  0
   -1.4962  -10.4061    0.0000 C   0  0  0  0  0  0  0  0  0  0  0  0
   -2.9619  -10.0873    0.0000 C   0  0  0  0  0  0  0  0  0  0  0  0
   -4.3673   -9.5631    0.0000 C   0  0  0  0  0  0  0  0  0  0  0  0
   -5.6838   -8.8442    0.0000 C   0  0  0  0  0  0  0  0  0  0  0  0
   -6.8847   -7.9453    0.0000 C   0  0  0  0  0  0  0  0  0  0  0  0
   -7.9453   -6.8847    0.0000 C   0  0  0  0  0  0  0  0  0  0  0  0
   -8.8442   -5.6838    0.0000 C   0  0  0  0  0  0  0  0  0  0  0  0
   -9.5631   -4.3673    0.0000 C   0  0  0  0  0  0  0  0  0  0  0  0
  -10.0873   -2.9619    0.0000 C   0  0  0  0  0  0  0  0  0  0  0  0
  -10.4061   -1.4962    0.0000 C   0  0  0  0  0  0  0  0  0  0  0  0
  -10.5132    0.0000    0.0000 C   0  0  0  0  0  0  0  0  0  0  0  0
  -12.0132    0.0000    0.0000 C   0  0  0  0  0  0  0  0  0  0  0  0
  -12.7632    1.2990    0.0000 C   0  0  0  0  0  0  0  0  0  0  0  0
  -14.2632    1.2990    0.0000 C   0  0  0  0  0  0  0  0  0  0  0  0
  -15.0132    2.5981    0.0000 C   0  0  0  0  0  0  0  0  0  0  0  0
  -16.5132    2.5981    0.0000 C   0  0  0  0  0  0  0  0  0  0  0  0
  -17.2632    3.8971    0.0000 C   0  0  0  0  0  0  0  0  0  0  0  0
  -18.7632    3.8971    0.0000 C   0  0  0  0  0  0  0  0  0  0  0  0
  -19.5132    5.1962    0.0000 C   0  0  0  0  0  0  0  0  0  0  0  0
  -21.0132    5.1962    0.0000 C   0  0  0  0  0  0  0  0  0  0  0  0
  -21.7632    6.4952    0.0000 C   0  0  0  0  0  0  0  0  0  0  0  0
  -23.2632    6.4952    0.0000 C   0  0  0  0  0  0  0  0  0  0  0  0
  -24.0132    7.7942    0.0000 C   0  0  0  0  0  0  0  0  0  0  0  0
  -25.5132    7.7942    0.0000 C   0  0  0  0  0  0  0  0  0  0  0  0
  -26.2632    9.0933    0.0000 C   0  0  0  0  0  0  0  0  0  0  0  0
  -27.7632    9.0933    0.0000 C   0  0  0  0  0  0  0  0  0  0  0  0
  -28.5132   10.3923    0.0000 C   0  0  0  0  0  0  0  0  0  0  0  0
  -30.0132   10.3923    0.0000 C   0  0  0  0  0  0  0  0  0  0  0  0
  -30.7632   11.6913    0.0000 C   0  0  0  0  0  0  0  0  0  0  0  0
  -32.2632   11.6913    0.0000 C   0  0  0  0  0  0  0  0  0  0  0  0
  -33.0132   12.9904    0.0000 C   0  0  0  0  0  0  0  0  0  0  0  0
  -34.5132   12.9904    0.0000 C   0  0  0  0  0  0  0  0  0  0  0  0
  -35.2632   14.2894    0.0000 C   0  0  0  0  0  0  0  0  0  0  0  0
  -36.7632   14.2894    0.0000 C   0  0  0  0  0  0  0  0  0  0  0  0
  -37.5132   15.5885    0.0000 C   0  0  0  0  0  0  0  0  0  0  0  0
  -39.0132   15.5885    0.0000 C   0  0  0  0  0  0  0  0  0  0  0  0
  -39.7632   16.8875    0.0000 C   0  0  0  0  0  0  0  0  0  0  0  0
  -41.2632   16.8875    0.0000 C   0  0  0  0  0  0  0  0  0  0  0  0
  -42.0132   18.1865    0.0000 C   0  0  0  0  0  0  0  0  0  0  0  0
  -43.5132   18.1865    0.0000 C   0  0  0  0  0  0  0  0  0  0  0  0
  -44.2632   19.4856    0.0000 C   0  0  0  0  0  0  0  0  0  0  0  0
  -45.7632   19.4856    0.0000 C   0  0  0  0  0  0  0  0  0  0  0  0
  -46.5132   20.7846    0.0000 C   0  0  0  0  0  0  0  0  0  0  0  0
  -48.0132   20.7846    0.0000 C   0  0  0  0  0  0  0  0  0  0  0  0
  -48.7632   22.0836    0.0000 C   0  0  0  0  0  0  0  0  0  0  0  0
  -50.2632   22.0836    0.0000 C   0  0  0  0  0  0  0  0  0  0  0  0
  -51.0132   23.3827    0.0000 C   0  0  0  0  0  0  0  0  0  0  0  0
  -52.5132   23.3827    0.0000 C   0  0  0  0  0  0  0  0  0  0  0  0
  -53.2632   24.6817    0.0000 C   0  0  0  0  0  0  0  0  0  0  0  0
  -54.7632   24.6817    0.0000 C   0  0  0  0  0  0  0  0  0  0  0  0
  -55.5132   25.9808    0.0000 C   0  0  0  0  0  0  0  0  0  0  0  0
  -57.0132   25.9808    0.0000 C   0  0  0  0  0  0  0  0  0  0  0  0
  -57.7632   27.2798    0.0000 C   0  0  0  0  0  0  0  0  0  0  0  0
  -59.2632   27.2798    0.0000 C   0  0  0  0  0  0  0  0  0  0  0  0
  -60.0132   28.5788    0.0000 C   0  0  0  0  0  0  0  0  0  0  0  0
  -61.5132   28.5788    0.0000 C   0  0  0  0  0  0  0  0  0  0  0  0
  -62.2632   29.8779    0.0000 C   0  0  0  0  0  0  0  0  0  0  0  0
  -63.7632   29.8779    0.0000 C   0  0  0  0  0  0  0  0  0  0  0  0
  -64.5132   31.1769    0.0000 C   0  0  0  0  0  0  0  0  0  0  0  0
  -63.7632   32.4760    0.0000 C   0  0  0  0  0  0  0  0  0  0  0  0
  -64.5132   33.7750    0.0000 C   0  0  0  0  0  0  0  0  0  0  0  0
  -66.0132   33.7750    0.0000 C   0  0  0  0  0  0  0  0  0  0  0  0
  -66.7632   32.4760    0.0000 C   0  0  0  0  0  0  0  0  0  0  0  0
  -66.0132   31.1769    0.0000 C   0  0  0  0  0  0  0  0  0  0  0  0
  -10.4061    1.4962    0.0000 C   0  0  0  0  0  0  0  0  0  0  0  0
  -10.0873    2.9619    0.0000 C   0  0  0  0  0  0  0  0  0  0  0  0
   -9.5631    4.3673    0.0000 C   0  0  0  0  0  0  0  0  0  0  0  0
   -8.8442    5.6838    0.0000 C   0  0  0  0  0  0  0  0  0  0  0  0
   -7.9453    6.8847    0.0000 C   0  0  0  0  0  0  0  0  0  0  0  0
   -6.8847    7.9453    0.0000 C   0  0  0  0  0  0  0  0  0  0  0  0
   -5.6838    8.8442    0.0000 C   0  0  0  0  0  0  0  0  0  0  0  0
   -4.3673    9.5631    0.0000 C   0  0  0  0  0  0  0  0  0  0  0  0
   -2.9619   10.0873    0.0000 C   0  0  0  0  0  0  0  0  0  0  0  0
   -1.4962   10.4061    0.0000 C   0  0  0  0  0  0  0  0  0  0  0  0
    0.0000   10.5132    0.0000 C   0  0  0  0  0  0  0  0  0  0  0  0
    1.4962   10.4061    0.0000 C   0  0  0  0  0  0  0  0  0  0  0  0
    2.9619   10.0873    0.0000 C   0  0  0  0  0  0  0  0  0  0  0  0
    4.3673    9.5631    0.0000 C   0  0  0  0  0  0  0  0  0  0  0  0
    5.6838    8.8442    0.0000 C   0  0  0  0  0  0  0  0  0  0  0  0
    6.8847    7.9453    0.0000 C   0  0  0  0  0  0  0  0  0  0  0  0
    7.9453    6.8847    0.0000 C   0  0  0  0  0  0  0  0  0  0  0  0
    8.8442    5.6838    0.0000 C   0  0  0  0  0  0  0  0  0  0  0  0
    9.5631    4.3673    0.0000 C   0  0  0  0  0  0  0  0  0  0  0  0
   10.0873    2.9619    0.0000 C   0  0  0  0  0  0  0  0  0  0  0  0
   10.4061    1.4962    0.0000 C   0  0  0  0  0  0  0  0  0  0  0  0
  1  2  1  0
  2  3  1  0
  3  4  1  0
  4  5  1  0
  5  6  1  0
  6  7  1  0
  7  8  1  0
  8  9  1  0
  9 10  1  0
 10 11  1  0
 11 12  1  0
 12 13  1  0
 13 14  1  0
 14 15  1  0
 15 16  1  0
 16 17  1  0
 17 18  1  0
 18 19  1  0
 19 20  1  0
 20 21  1  0
 21 22  1  0
 22 23  1  0
 23 24  1  0
 24 25  1  0
 25 26  1  0
 26 27  1  0
 27 28  1  0
 28 29  1  0
 29 30  1  0
 30 31  1  0
 31 32  1  0
 32 33  1  0
 33 34  1  0
 34 35  1  0
 35 36  1  0
 36 37  1  0
 37 38  1  0
 38 39  1  0
 39 40  1  0
 40 41  1  0
 41 42  1  0
 42 43  1  0
 43 44  1  0
 44 45  1  0
 45 46  1  0
 46 47  1  0
 47 48  1  0
 48 49  1  0
 49 50  1  0
 50 51  1  0
 51 52  1  0
 52 53  1  0
 53 54  1  0
 54 55  1  0
 55 56  1  0
 56 57  1  0
 57 58  1  0
 58 59  1  0
 59 60  1  0
 60 61  1  0
 61 62  1  0
 62 63  1  0
 63 64  1  0
 64 65  1  0
 65 66  1  0
 66 67  1  0
 67 68  1  0
 68 69  1  0
 69 70  1  0
 70 71  1  0
 71 72  1  0
 72 73  2  0
 73 74  1  0
 74 75  2  0
 75 76  1  0
 76 77  2  0
 24 78  1  0
 78 79  1  0
 79 80  1  0
 80 81  1  0
 81 82  1  0
 82 83  1  0
 83 84  1  0
 84 85  1  0
 85 86  1  0
 86 87  1  0
 87 88  1  0
 88 89  1  0
 89 90  1  0
 90 91  1  0
 91 92  1  0
 92 93  1  0
 93 94  1  0
 94 95  1  0
 95 96  1  0
 96 97  1  0
 97 98  1  0
 98  2  1  0
 77 72  1  0
M  END
>  <Title>  (970) 
idABJNgen7

$$$$

     RDKit          2D

 12 11  0  0  0  0  0  0  0  0999 V2000
    0.0000    0.0000    0.0000 C   0  0  0  0  0  0  0  0  0  0  0  0
   -0.0000   -1.5000    0.0000 C   0  0  0  0  0  0  0  0  0  0  0  0
   -0.0000   -3.0000    0.0000 C   0  0  0  0  0  0  0  0  0  0  0  0
   -0.0000   -4.5000    0.0000 C   0  0  0  0  0  0  0  0  0  0  0  0
   -0.0000   -6.0000    0.0000 C   0  0  0  0  0  0  0  0  0  0  0  0
   -0.0000   -7.5000    0.0000 C   0  0  0  0  0  0  0  0  0  0  0  0
   -0.0000   -9.0000    0.0000 C   0  0  0  0  0  0  0  0  0  0  0  0
   -0.0000  -10.5000    0.0000 C   0  0  0  0  0  0  0  0  0  0  0  0
   -0.0000  -12.0000    0.0000 C   0  0  0  0  0  0  0  0  0  0  0  0
   -0.0000  -13.5000    0.0000 C   0  0  0  0  0  0  0  0  0  0  0  0
   -0.0000  -15.0000    0.0000 C   0  0  0  0  0  0  0  0  0  0  0  0
   -0.0000  -16.5000    0.0000 N   0  0  0  0  0  0  0  0  0  0  0  0
  1  2  3  0
  2  3  1  0
  3  4  3  0
  4  5  1  0
  5  6  3  0
  6  7  1  0
  7  8  3  0
  8  9  1  0
  9 10  3  0
 10 11  1  0
 11 12  3  0
M  END
>  <Title>  (971) 
idABJOgen7

$$$$

     RDKit          2D

 30 33  0  0  0  0  0  0  0  0999 V2000
   -0.7500   -3.8971    0.0000 O   0  0  0  0  0  0  0  0  0  0  0  0
    0.7500   -3.8971    0.0000 C   0  0  0  0  0  0  0  0  0  0  0  0
    1.5000   -2.5981    0.0000 N   0  0  0  0  0  0  0  0  0  0  0  0
    0.7500   -1.2990    0.0000 C   0  0  0  0  0  0  0  0  0  0  0  0
    1.5000    0.0000    0.0000 N   0  0  0  0  0  0  0  0  0  0  0  0
    0.7500    1.2990    0.0000 N   0  0  0  0  0  0  0  0  0  0  0  0
   -0.7500    1.2990    0.0000 N   0  0  0  0  0  0  0  0  0  0  0  0
   -1.5000    0.0000    0.0000 N   0  0  0  0  0  0  0  0  0  0  0  0
   -0.7500   -1.2990    0.0000 N   0  0  0  0  0  0  0  0  0  0  0  0
    1.5000   -5.1962    0.0000 N   0  0  0  0  0  0  0  0  0  0  0  0
    2.9918   -5.3529    0.0000 C   0  0  0  0  0  0  0  0  0  0  0  0
    3.3037   -6.8202    0.0000 C   0  0  0  0  0  0  0  0  0  0  0  0
    2.0046   -7.5702    0.0000 N   0  0  0  0  0  0  0  0  0  0  0  0
    1.8478   -9.0619    0.0000 C   0  0  0  0  0  0  0  0  0  0  0  0
    3.0613   -9.9436    0.0000 O   0  0  0  0  0  0  0  0  0  0  0  0
    0.4775   -9.6721    0.0000 C   0  0  0  0  0  0  0  0  0  0  0  0
   -0.7360   -8.7904    0.0000 O   0  0  0  0  0  0  0  0  0  0  0  0
    0.3207  -11.1638    0.0000 N   0  0  0  0  0  0  0  0  0  0  0  0
   -1.0496  -11.7739    0.0000 C   0  0  0  0  0  0  0  0  0  0  0  0
   -1.2064  -13.2657    0.0000 C   0  0  0  0  0  0  0  0  0  0  0  0
    0.0071  -14.1474    0.0000 C   0  0  0  0  0  0  0  0  0  0  0  0
   -0.1497  -15.6392    0.0000 C   0  0  0  0  0  0  0  0  0  0  0  0
   -1.5200  -16.2493    0.0000 C   0  0  0  0  0  0  0  0  0  0  0  0
   -1.6768  -17.7411    0.0000 C   0  0  0  0  0  0  0  0  0  0  0  0
   -0.4633  -18.6228    0.0000 C   0  0  0  0  0  0  0  0  0  0  0  0
    0.9071  -18.0126    0.0000 C   0  0  0  0  0  0  0  0  0  0  0  0
    1.0639  -16.5209    0.0000 C   0  0  0  0  0  0  0  0  0  0  0  0
    1.3774  -13.5373    0.0000 C   0  0  0  0  0  0  0  0  0  0  0  0
    1.5342  -12.0455    0.0000 C   0  0  0  0  0  0  0  0  0  0  0  0
    0.8899   -6.5665    0.0000 C   0  0  0  0  0  0  0  0  0  0  0  0
  1  2  2  0
  2  3  1  0
  3  4  1  0
  4  5  2  0
  5  6  1  0
  6  7  2  0
  7  8  1  0
  8  9  2  0
  2 10  1  0
 10 11  1  0
 11 12  1  0
 12 13  1  0
 13 14  1  0
 14 15  2  0
 14 16  1  0
 16 17  2  0
 16 18  1  0
 18 19  1  0
 19 20  1  0
 20 21  1  0
 21 22  1  0
 22 23  2  0
 23 24  1  0
 24 25  2  0
 25 26  1  0
 26 27  2  0
 21 28  1  0
 28 29  1  0
 13 30  1  0
  9  4  1  0
 30 10  1  0
 29 18  1  0
 27 22  1  0
M  END
>  <Title>  (972) 
idABJPgen7

$$$$

     RDKit          2D

 30 32  0  0  0  0  0  0  0  0999 V2000
    5.8875   -6.5486    0.0000 C   0  0  0  0  0  0  0  0  0  0  0  0
    4.6740   -7.4303    0.0000 C   0  0  0  0  0  0  0  0  0  0  0  0
    4.8308   -8.9221    0.0000 C   0  0  0  0  0  0  0  0  0  0  0  0
    6.2011   -9.5322    0.0000 C   0  0  0  0  0  0  0  0  0  0  0  0
    6.3579  -11.0239    0.0000 C   0  0  0  0  0  0  0  0  0  0  0  0
    5.1443  -11.9056    0.0000 O   0  0  0  0  0  0  0  0  0  0  0  0
    7.7282  -11.6340    0.0000 N   0  0  0  0  0  0  0  0  0  0  0  0
    9.0272  -10.8840    0.0000 C   0  0  0  0  0  0  0  0  0  0  0  0
   10.1419  -11.8877    0.0000 C   0  0  0  0  0  0  0  0  0  0  0  0
    9.5318  -13.2581    0.0000 C   0  0  0  0  0  0  0  0  0  0  0  0
   10.2818  -14.5571    0.0000 C   0  0  0  0  0  0  0  0  0  0  0  0
   11.7818  -14.5571    0.0000 O   0  0  0  0  0  0  0  0  0  0  0  0
    9.5318  -15.8561    0.0000 O   0  0  0  0  0  0  0  0  0  0  0  0
    8.0401  -13.1013    0.0000 C   0  0  0  0  0  0  0  0  0  0  0  0
    7.0364  -14.2160    0.0000 O   0  0  0  0  0  0  0  0  0  0  0  0
    3.3037   -6.8202    0.0000 N   0  0  0  0  0  0  0  0  0  0  0  0
    2.0046   -7.5702    0.0000 C   0  0  0  0  0  0  0  0  0  0  0  0
    0.8899   -6.5665    0.0000 C   0  0  0  0  0  0  0  0  0  0  0  0
    1.5000   -5.1962    0.0000 C   0  0  0  0  0  0  0  0  0  0  0  0
    0.7500   -3.8971    0.0000 C   0  0  0  0  0  0  0  0  0  0  0  0
   -0.7500   -3.8971    0.0000 O   0  0  0  0  0  0  0  0  0  0  0  0
    1.5000   -2.5981    0.0000 N   0  0  0  0  0  0  0  0  0  0  0  0
    0.7500   -1.2990    0.0000 C   0  0  0  0  0  0  0  0  0  0  0  0
    1.5000    0.0000    0.0000 N   0  0  0  0  0  0  0  0  0  0  0  0
    0.7500    1.2990    0.0000 N   0  0  0  0  0  0  0  0  0  0  0  0
   -0.7500    1.2990    0.0000 N   0  0  0  0  0  0  0  0  0  0  0  0
   -1.5000    0.0000    0.0000 N   0  0  0  0  0  0  0  0  0  0  0  0
   -0.7500   -1.2990    0.0000 N   0  0  0  0  0  0  0  0  0  0  0  0
    2.9918   -5.3529    0.0000 C   0  0  0  0  0  0  0  0  0  0  0  0
    3.9955   -4.2382    0.0000 O   0  0  0  0  0  0  0  0  0  0  0  0
  1  2  2  0
  2  3  1  0
  3  4  1  0
  4  5  1  0
  5  6  2  0
  5  7  1  0
  7  8  1  0
  8  9  1  0
  9 10  1  0
 10 11  1  0
 11 12  2  0
 11 13  1  0
 10 14  1  0
 14 15  2  0
  2 16  1  0
 16 17  1  0
 17 18  1  0
 18 19  1  0
 19 20  1  0
 20 21  2  0
 20 22  1  0
 22 23  1  0
 23 24  2  0
 24 25  1  0
 25 26  2  0
 26 27  1  0
 27 28  2  0
 19 29  1  0
 29 30  2  0
 14  7  1  0
 29 16  1  0
 28 23  1  0
M  END
>  <Title>  (973) 
idABJQgen7

$$$$

     RDKit          2D

 46 46  0  0  0  0  0  0  0  0999 V2000
   10.9902    0.0000    0.0000 C   0  0  0  0  0  0  0  0  0  0  0  0
   10.8879   -1.4965    0.0000 C   0  0  0  0  0  0  0  0  0  0  0  0
   10.5827   -2.9651    0.0000 C   0  0  0  0  0  0  0  0  0  0  0  0
   10.0804   -4.3785    0.0000 C   0  0  0  0  0  0  0  0  0  0  0  0
    9.3903   -5.7103    0.0000 C   0  0  0  0  0  0  0  0  0  0  0  0
    8.5252   -6.9358    0.0000 C   0  0  0  0  0  0  0  0  0  0  0  0
    7.5014   -8.0321    0.0000 C   0  0  0  0  0  0  0  0  0  0  0  0
    6.3379   -8.9787    0.0000 C   0  0  0  0  0  0  0  0  0  0  0  0
    5.0562   -9.7581    0.0000 C   0  0  0  0  0  0  0  0  0  0  0  0
    3.6804  -10.3557    0.0000 C   0  0  0  0  0  0  0  0  0  0  0  0
    2.2360  -10.7604    0.0000 C   0  0  0  0  0  0  0  0  0  0  0  0
    0.7500  -10.9646    0.0000 C   0  0  0  0  0  0  0  0  0  0  0  0
   -0.7500  -10.9646    0.0000 C   0  0  0  0  0  0  0  0  0  0  0  0
   -2.2360  -10.7604    0.0000 C   0  0  0  0  0  0  0  0  0  0  0  0
   -3.6804  -10.3557    0.0000 C   0  0  0  0  0  0  0  0  0  0  0  0
   -5.0562   -9.7581    0.0000 C   0  0  0  0  0  0  0  0  0  0  0  0
   -6.3379   -8.9787    0.0000 C   0  0  0  0  0  0  0  0  0  0  0  0
   -7.5014   -8.0321    0.0000 C   0  0  0  0  0  0  0  0  0  0  0  0
   -8.5252   -6.9358    0.0000 C   0  0  0  0  0  0  0  0  0  0  0  0
   -9.3903   -5.7103    0.0000 C   0  0  0  0  0  0  0  0  0  0  0  0
  -10.0804   -4.3785    0.0000 C   0  0  0  0  0  0  0  0  0  0  0  0
  -10.5827   -2.9651    0.0000 C   0  0  0  0  0  0  0  0  0  0  0  0
  -10.8879   -1.4965    0.0000 C   0  0  0  0  0  0  0  0  0  0  0  0
  -10.9902    0.0000    0.0000 C   0  0  0  0  0  0  0  0  0  0  0  0
  -10.8879    1.4965    0.0000 C   0  0  0  0  0  0  0  0  0  0  0  0
  -10.5827    2.9651    0.0000 C   0  0  0  0  0  0  0  0  0  0  0  0
  -10.0804    4.3785    0.0000 C   0  0  0  0  0  0  0  0  0  0  0  0
   -9.3903    5.7103    0.0000 C   0  0  0  0  0  0  0  0  0  0  0  0
   -8.5252    6.9358    0.0000 C   0  0  0  0  0  0  0  0  0  0  0  0
   -7.5014    8.0321    0.0000 C   0  0  0  0  0  0  0  0  0  0  0  0
   -6.3379    8.9787    0.0000 C   0  0  0  0  0  0  0  0  0  0  0  0
   -5.0562    9.7581    0.0000 C   0  0  0  0  0  0  0  0  0  0  0  0
   -3.6804   10.3557    0.0000 C   0  0  0  0  0  0  0  0  0  0  0  0
   -2.2360   10.7604    0.0000 C   0  0  0  0  0  0  0  0  0  0  0  0
   -0.7500   10.9646    0.0000 C   0  0  0  0  0  0  0  0  0  0  0  0
    0.7500   10.9646    0.0000 C   0  0  0  0  0  0  0  0  0  0  0  0
    2.2360   10.7604    0.0000 C   0  0  0  0  0  0  0  0  0  0  0  0
    3.6804   10.3557    0.0000 C   0  0  0  0  0  0  0  0  0  0  0  0
    5.0562    9.7581    0.0000 C   0  0  0  0  0  0  0  0  0  0  0  0
    6.3379    8.9787    0.0000 C   0  0  0  0  0  0  0  0  0  0  0  0
    7.5014    8.0321    0.0000 C   0  0  0  0  0  0  0  0  0  0  0  0
    8.5252    6.9358    0.0000 C   0  0  0  0  0  0  0  0  0  0  0  0
    9.3903    5.7103    0.0000 C   0  0  0  0  0  0  0  0  0  0  0  0
   10.0804    4.3785    0.0000 C   0  0  0  0  0  0  0  0  0  0  0  0
   10.5827    2.9651    0.0000 C   0  0  0  0  0  0  0  0  0  0  0  0
   10.8879    1.4965    0.0000 C   0  0  0  0  0  0  0  0  0  0  0  0
  1  2  1  0
  2  3  1  0
  3  4  1  0
  4  5  1  0
  5  6  1  0
  6  7  1  0
  7  8  1  0
  8  9  1  0
  9 10  1  0
 10 11  1  0
 11 12  1  0
 12 13  1  0
 13 14  1  0
 14 15  1  0
 15 16  1  0
 16 17  1  0
 17 18  1  0
 18 19  1  0
 19 20  1  0
 20 21  1  0
 21 22  1  0
 22 23  1  0
 23 24  1  0
 24 25  1  0
 25 26  1  0
 26 27  1  0
 27 28  1  0
 28 29  1  0
 29 30  1  0
 30 31  1  0
 31 32  1  0
 32 33  1  0
 33 34  1  0
 34 35  1  0
 35 36  1  0
 36 37  1  0
 37 38  1  0
 38 39  1  0
 39 40  1  0
 40 41  1  0
 41 42  1  0
 42 43  1  0
 43 44  1  0
 44 45  1  0
 45 46  1  0
 46  1  1  0
M  END
>  <Title>  (974) 
idABJRgen7

$$$$

     RDKit          2D

 11 11  0  0  0  0  0  0  0  0999 V2000
    5.4786   -1.2990    0.0000 N   0  0  0  0  0  0  0  0  0  0  0  0
    3.9786   -1.2990    0.0000 C   0  0  0  0  0  0  0  0  0  0  0  0
    3.2286   -2.5981    0.0000 O   0  0  0  0  0  0  0  0  0  0  0  0
    3.2286   -0.0000    0.0000 O   0  0  0  0  0  0  0  0  0  0  0  0
    1.7286    0.0000    0.0000 C   0  0  0  0  0  0  0  0  0  0  0  0
    1.0777    1.3515    0.0000 C   0  0  0  0  0  0  0  0  0  0  0  0
   -0.3846    1.6852    0.0000 C   0  0  0  0  0  0  0  0  0  0  0  0
   -1.5574    0.7500    0.0000 C   0  0  0  0  0  0  0  0  0  0  0  0
   -1.5574   -0.7500    0.0000 C   0  0  0  0  0  0  0  0  0  0  0  0
   -0.3846   -1.6852    0.0000 C   0  0  0  0  0  0  0  0  0  0  0  0
    1.0777   -1.3515    0.0000 C   0  0  0  0  0  0  0  0  0  0  0  0
  1  2  2  0
  2  3  1  0
  2  4  1  0
  4  5  1  0
  5  6  1  0
  6  7  1  0
  7  8  1  0
  8  9  1  0
  9 10  1  0
 10 11  1  0
 11  5  1  0
M  END
>  <Title>  (975) 
idABJSgen7

$$$$

     RDKit          2D

 39 44  0  0  0  0  0  0  0  0999 V2000
    3.1097   -7.2078    0.0000 C   0  0  0  0  0  0  0  0  0  0  0  0
    2.0490   -6.1471    0.0000 C   0  0  0  0  0  0  0  0  0  0  0  0
    2.7990   -4.8481    0.0000 C   0  0  0  0  0  0  0  0  0  0  0  0
    2.7990   -3.3481    0.0000 C   0  0  0  0  0  0  0  0  0  0  0  0
    2.0490   -2.0490    0.0000 C   0  0  0  0  0  0  0  0  0  0  0  0
    3.1097   -0.9884    0.0000 N   0  0  0  0  0  0  0  0  0  0  0  0
    4.5586   -1.3766    0.0000 C   0  0  0  0  0  0  0  0  0  0  0  0
    4.9468   -2.8255    0.0000 O   0  0  0  0  0  0  0  0  0  0  0  0
    5.6192   -0.3159    0.0000 C   0  0  0  0  0  0  0  0  0  0  0  0
    7.0681   -0.7042    0.0000 C   0  0  0  0  0  0  0  0  0  0  0  0
    7.4564   -2.1531    0.0000 C   0  0  0  0  0  0  0  0  0  0  0  0
    8.9053   -2.5413    0.0000 N   0  0  0  0  0  0  0  0  0  0  0  0
    9.9659   -1.4806    0.0000 N   0  0  0  0  0  0  0  0  0  0  0  0
    9.5777   -0.0317    0.0000 N   0  0  0  0  0  0  0  0  0  0  0  0
    8.1288    0.3565    0.0000 N   0  0  0  0  0  0  0  0  0  0  0  0
    0.7500   -1.2990    0.0000 C   0  0  0  0  0  0  0  0  0  0  0  0
    1.5000    0.0000    0.0000 C   0  0  0  0  0  0  0  0  0  0  0  0
    0.7500    1.2990    0.0000 C   0  0  0  0  0  0  0  0  0  0  0  0
   -0.7500    1.2990    0.0000 C   0  0  0  0  0  0  0  0  0  0  0  0
   -1.5000    0.0000    0.0000 C   0  0  0  0  0  0  0  0  0  0  0  0
   -0.7500   -1.2990    0.0000 C   0  0  0  0  0  0  0  0  0  0  0  0
   -2.0490   -2.0490    0.0000 C   0  0  0  0  0  0  0  0  0  0  0  0
   -2.7990   -0.7500    0.0000 C   0  0  0  0  0  0  0  0  0  0  0  0
   -4.2990   -0.7500    0.0000 C   0  0  0  0  0  0  0  0  0  0  0  0
   -5.0490   -2.0490    0.0000 C   0  0  0  0  0  0  0  0  0  0  0  0
   -4.2990   -3.3481    0.0000 C   0  0  0  0  0  0  0  0  0  0  0  0
   -2.7990   -3.3481    0.0000 C   0  0  0  0  0  0  0  0  0  0  0  0
   -2.7990   -4.8481    0.0000 C   0  0  0  0  0  0  0  0  0  0  0  0
   -4.2990   -4.8481    0.0000 C   0  0  0  0  0  0  0  0  0  0  0  0
   -5.0490   -6.1471    0.0000 C   0  0  0  0  0  0  0  0  0  0  0  0
   -4.2990   -7.4462    0.0000 C   0  0  0  0  0  0  0  0  0  0  0  0
   -2.7990   -7.4462    0.0000 C   0  0  0  0  0  0  0  0  0  0  0  0
   -2.0490   -6.1471    0.0000 C   0  0  0  0  0  0  0  0  0  0  0  0
   -0.7500   -6.8971    0.0000 C   0  0  0  0  0  0  0  0  0  0  0  0
   -1.5000   -8.1962    0.0000 C   0  0  0  0  0  0  0  0  0  0  0  0
   -0.7500   -9.4952    0.0000 C   0  0  0  0  0  0  0  0  0  0  0  0
    0.7500   -9.4952    0.0000 C   0  0  0  0  0  0  0  0  0  0  0  0
    1.5000   -8.1962    0.0000 C   0  0  0  0  0  0  0  0  0  0  0  0
    0.7500   -6.8971    0.0000 C   0  0  0  0  0  0  0  0  0  0  0  0
  1  2  1  0
  2  3  2  0
  3  4  1  0
  4  5  2  0
  5  6  1  0
  6  7  1  0
  7  8  2  0
  7  9  1  0
  9 10  1  0
 10 11  2  0
 11 12  1  0
 12 13  2  0
 13 14  1  0
 14 15  2  0
  5 16  1  0
 16 17  2  0
 17 18  1  0
 18 19  2  0
 19 20  1  0
 20 21  2  0
 21 22  1  0
 22 23  2  0
 23 24  1  0
 24 25  2  0
 25 26  1  0
 26 27  2  0
 27 28  1  0
 28 29  2  0
 29 30  1  0
 30 31  2  0
 31 32  1  0
 32 33  2  0
 33 34  1  0
 34 35  2  0
 35 36  1  0
 36 37  2  0
 37 38  1  0
 38 39  2  0
 39  2  1  0
 15 10  1  0
 21 16  1  0
 27 22  1  0
 33 28  1  0
 39 34  1  0
M  END
>  <Title>  (976) 
idABJTgen7

$$$$

     RDKit          2D

 41 41  0  0  0  0  0  0  0  0999 V2000
   11.0591    0.0000    0.0000 C   0  0  0  0  0  0  0  0  0  0  0  0
    9.5591    0.0000    0.0000 C   0  0  0  0  0  0  0  0  0  0  0  0
    9.4414   -1.4954    0.0000 C   0  0  0  0  0  0  0  0  0  0  0  0
    9.0913   -2.9539    0.0000 C   0  0  0  0  0  0  0  0  0  0  0  0
    8.5172   -4.3398    0.0000 C   0  0  0  0  0  0  0  0  0  0  0  0
    7.7335   -5.6187    0.0000 C   0  0  0  0  0  0  0  0  0  0  0  0
    6.7593   -6.7593    0.0000 C   0  0  0  0  0  0  0  0  0  0  0  0
    5.6187   -7.7335    0.0000 C   0  0  0  0  0  0  0  0  0  0  0  0
    4.3398   -8.5172    0.0000 C   0  0  0  0  0  0  0  0  0  0  0  0
    2.9539   -9.0913    0.0000 C   0  0  0  0  0  0  0  0  0  0  0  0
    1.4954   -9.4414    0.0000 C   0  0  0  0  0  0  0  0  0  0  0  0
   -0.0000   -9.5591    0.0000 C   0  0  0  0  0  0  0  0  0  0  0  0
   -1.4954   -9.4414    0.0000 C   0  0  0  0  0  0  0  0  0  0  0  0
   -2.9539   -9.0913    0.0000 C   0  0  0  0  0  0  0  0  0  0  0  0
   -4.3398   -8.5172    0.0000 C   0  0  0  0  0  0  0  0  0  0  0  0
   -5.6187   -7.7335    0.0000 C   0  0  0  0  0  0  0  0  0  0  0  0
   -6.7593   -6.7593    0.0000 C   0  0  0  0  0  0  0  0  0  0  0  0
   -7.7335   -5.6187    0.0000 C   0  0  0  0  0  0  0  0  0  0  0  0
   -8.5172   -4.3398    0.0000 C   0  0  0  0  0  0  0  0  0  0  0  0
   -9.0913   -2.9539    0.0000 C   0  0  0  0  0  0  0  0  0  0  0  0
   -9.4414   -1.4954    0.0000 C   0  0  0  0  0  0  0  0  0  0  0  0
   -9.5591    0.0000    0.0000 C   0  0  0  0  0  0  0  0  0  0  0  0
   -9.4414    1.4954    0.0000 C   0  0  0  0  0  0  0  0  0  0  0  0
   -9.0913    2.9539    0.0000 C   0  0  0  0  0  0  0  0  0  0  0  0
   -8.5172    4.3398    0.0000 C   0  0  0  0  0  0  0  0  0  0  0  0
   -7.7335    5.6187    0.0000 C   0  0  0  0  0  0  0  0  0  0  0  0
   -6.7593    6.7593    0.0000 C   0  0  0  0  0  0  0  0  0  0  0  0
   -5.6187    7.7335    0.0000 C   0  0  0  0  0  0  0  0  0  0  0  0
   -4.3398    8.5172    0.0000 C   0  0  0  0  0  0  0  0  0  0  0  0
   -2.9539    9.0913    0.0000 C   0  0  0  0  0  0  0  0  0  0  0  0
   -1.4954    9.4414    0.0000 C   0  0  0  0  0  0  0  0  0  0  0  0
    0.0000    9.5591    0.0000 C   0  0  0  0  0  0  0  0  0  0  0  0
    1.4954    9.4414    0.0000 C   0  0  0  0  0  0  0  0  0  0  0  0
    2.9539    9.0913    0.0000 C   0  0  0  0  0  0  0  0  0  0  0  0
    4.3398    8.5172    0.0000 C   0  0  0  0  0  0  0  0  0  0  0  0
    5.6187    7.7335    0.0000 C   0  0  0  0  0  0  0  0  0  0  0  0
    6.7593    6.7593    0.0000 C   0  0  0  0  0  0  0  0  0  0  0  0
    7.7335    5.6187    0.0000 C   0  0  0  0  0  0  0  0  0  0  0  0
    8.5172    4.3398    0.0000 C   0  0  0  0  0  0  0  0  0  0  0  0
    9.0913    2.9539    0.0000 C   0  0  0  0  0  0  0  0  0  0  0  0
    9.4414    1.4954    0.0000 C   0  0  0  0  0  0  0  0  0  0  0  0
  1  2  1  0
  2  3  1  0
  3  4  1  0
  4  5  2  0
  5  6  1  0
  6  7  2  0
  7  8  1  0
  8  9  2  0
  9 10  1  0
 10 11  1  0
 11 12  1  0
 12 13  1  0
 13 14  1  0
 14 15  1  0
 15 16  1  0
 16 17  1  0
 17 18  1  0
 18 19  1  0
 19 20  1  0
 20 21  1  0
 21 22  1  0
 22 23  1  0
 23 24  1  0
 24 25  1  0
 25 26  1  0
 26 27  1  0
 27 28  1  0
 28 29  1  0
 29 30  1  0
 30 31  1  0
 31 32  1  0
 32 33  1  0
 33 34  1  0
 34 35  1  0
 35 36  1  0
 36 37  1  0
 37 38  1  0
 38 39  1  0
 39 40  1  0
 40 41  1  0
 41  2  1  0
M  END
>  <Title>  (977) 
idABJUgen7

$$$$

     RDKit          2D

 59 59  0  0  0  0  0  0  0  0999 V2000
   15.3533    0.0000    0.0000 O   0  0  0  0  0  0  0  0  0  0  0  0
   13.8533    0.0000    0.0000 C   0  0  0  0  0  0  0  0  0  0  0  0
   13.7720   -1.4978    0.0000 C   0  0  0  0  0  0  0  0  0  0  0  0
   13.5294   -2.9780    0.0000 C   0  0  0  0  0  0  0  0  0  0  0  0
   13.1281   -4.4234    0.0000 C   0  0  0  0  0  0  0  0  0  0  0  0
   12.5729   -5.8168    0.0000 C   0  0  0  0  0  0  0  0  0  0  0  0
   11.8703   -7.1421    0.0000 C   0  0  0  0  0  0  0  0  0  0  0  0
   11.0285   -8.3836    0.0000 C   0  0  0  0  0  0  0  0  0  0  0  0
   10.0574   -9.5269    0.0000 C   0  0  0  0  0  0  0  0  0  0  0  0
    8.9684  -10.5584    0.0000 C   0  0  0  0  0  0  0  0  0  0  0  0
    7.7743  -11.4662    0.0000 C   0  0  0  0  0  0  0  0  0  0  0  0
    6.4890  -12.2395    0.0000 C   0  0  0  0  0  0  0  0  0  0  0  0
    5.1276  -12.8693    0.0000 C   0  0  0  0  0  0  0  0  0  0  0  0
    3.7061  -13.3483    0.0000 C   0  0  0  0  0  0  0  0  0  0  0  0
    2.2412  -13.6708    0.0000 C   0  0  0  0  0  0  0  0  0  0  0  0
    0.7500  -13.8329    0.0000 C   0  0  0  0  0  0  0  0  0  0  0  0
   -0.7500  -13.8329    0.0000 C   0  0  0  0  0  0  0  0  0  0  0  0
   -2.2412  -13.6708    0.0000 C   0  0  0  0  0  0  0  0  0  0  0  0
   -3.7061  -13.3483    0.0000 C   0  0  0  0  0  0  0  0  0  0  0  0
   -5.1276  -12.8693    0.0000 C   0  0  0  0  0  0  0  0  0  0  0  0
   -6.4890  -12.2395    0.0000 C   0  0  0  0  0  0  0  0  0  0  0  0
   -7.7743  -11.4662    0.0000 C   0  0  0  0  0  0  0  0  0  0  0  0
   -8.9684  -10.5584    0.0000 C   0  0  0  0  0  0  0  0  0  0  0  0
  -10.0574   -9.5269    0.0000 C   0  0  0  0  0  0  0  0  0  0  0  0
  -11.0285   -8.3836    0.0000 C   0  0  0  0  0  0  0  0  0  0  0  0
  -11.8703   -7.1421    0.0000 C   0  0  0  0  0  0  0  0  0  0  0  0
  -12.5729   -5.8168    0.0000 C   0  0  0  0  0  0  0  0  0  0  0  0
  -13.1281   -4.4234    0.0000 C   0  0  0  0  0  0  0  0  0  0  0  0
  -13.5294   -2.9780    0.0000 C   0  0  0  0  0  0  0  0  0  0  0  0
  -13.7720   -1.4978    0.0000 C   0  0  0  0  0  0  0  0  0  0  0  0
  -13.8533    0.0000    0.0000 C   0  0  0  0  0  0  0  0  0  0  0  0
  -13.7720    1.4978    0.0000 C   0  0  0  0  0  0  0  0  0  0  0  0
  -13.5294    2.9780    0.0000 C   0  0  0  0  0  0  0  0  0  0  0  0
  -13.1281    4.4234    0.0000 C   0  0  0  0  0  0  0  0  0  0  0  0
  -12.5729    5.8168    0.0000 C   0  0  0  0  0  0  0  0  0  0  0  0
  -11.8703    7.1421    0.0000 C   0  0  0  0  0  0  0  0  0  0  0  0
  -11.0285    8.3836    0.0000 C   0  0  0  0  0  0  0  0  0  0  0  0
  -10.0574    9.5269    0.0000 C   0  0  0  0  0  0  0  0  0  0  0  0
   -8.9684   10.5584    0.0000 C   0  0  0  0  0  0  0  0  0  0  0  0
   -7.7743   11.4662    0.0000 C   0  0  0  0  0  0  0  0  0  0  0  0
   -6.4890   12.2395    0.0000 C   0  0  0  0  0  0  0  0  0  0  0  0
   -5.1276   12.8693    0.0000 C   0  0  0  0  0  0  0  0  0  0  0  0
   -3.7061   13.3483    0.0000 C   0  0  0  0  0  0  0  0  0  0  0  0
   -2.2412   13.6708    0.0000 C   0  0  0  0  0  0  0  0  0  0  0  0
   -0.7500   13.8329    0.0000 C   0  0  0  0  0  0  0  0  0  0  0  0
    0.7500   13.8329    0.0000 C   0  0  0  0  0  0  0  0  0  0  0  0
    2.2412   13.6708    0.0000 C   0  0  0  0  0  0  0  0  0  0  0  0
    3.7061   13.3483    0.0000 C   0  0  0  0  0  0  0  0  0  0  0  0
    5.1276   12.8693    0.0000 C   0  0  0  0  0  0  0  0  0  0  0  0
    6.4890   12.2395    0.0000 C   0  0  0  0  0  0  0  0  0  0  0  0
    7.7743   11.4662    0.0000 C   0  0  0  0  0  0  0  0  0  0  0  0
    8.9684   10.5584    0.0000 C   0  0  0  0  0  0  0  0  0  0  0  0
   10.0574    9.5269    0.0000 C   0  0  0  0  0  0  0  0  0  0  0  0
   11.0285    8.3836    0.0000 C   0  0  0  0  0  0  0  0  0  0  0  0
   11.8703    7.1421    0.0000 C   0  0  0  0  0  0  0  0  0  0  0  0
   12.5729    5.8168    0.0000 C   0  0  0  0  0  0  0  0  0  0  0  0
   13.1281    4.4234    0.0000 C   0  0  0  0  0  0  0  0  0  0  0  0
   13.5294    2.9780    0.0000 C   0  0  0  0  0  0  0  0  0  0  0  0
   13.7720    1.4978    0.0000 C   0  0  0  0  0  0  0  0  0  0  0  0
  1  2  1  0
  2  3  1  0
  3  4  1  0
  4  5  1  0
  5  6  1  0
  6  7  2  0
  7  8  1  0
  8  9  1  0
  9 10  1  0
 10 11  1  0
 11 12  1  0
 12 13  1  0
 13 14  1  0
 14 15  1  0
 15 16  1  0
 16 17  1  0
 17 18  1  0
 18 19  1  0
 19 20  1  0
 20 21  1  0
 21 22  1  0
 22 23  1  0
 23 24  1  0
 24 25  1  0
 25 26  1  0
 26 27  1  0
 27 28  1  0
 28 29  1  0
 29 30  1  0
 30 31  1  0
 31 32  1  0
 32 33  1  0
 33 34  1  0
 34 35  1  0
 35 36  1  0
 36 37  1  0
 37 38  1  0
 38 39  1  0
 39 40  1  0
 40 41  1  0
 41 42  1  0
 42 43  1  0
 43 44  1  0
 44 45  1  0
 45 46  1  0
 46 47  1  0
 47 48  1  0
 48 49  1  0
 49 50  1  0
 50 51  1  0
 51 52  1  0
 52 53  1  0
 53 54  1  0
 54 55  1  0
 55 56  1  0
 56 57  1  0
 57 58  1  0
 58 59  1  0
 59  2  1  0
M  END
>  <Title>  (978) 
idABJVgen7

$$$$

     RDKit          2D

 51 54  0  0  0  0  0  0  0  0999 V2000
   -2.5978   -0.0918    0.0000 C   0  0  0  0  0  0  0  0  0  0  0  0
   -2.2295   -1.5459    0.0000 C   0  0  0  0  0  0  0  0  0  0  0  0
   -3.6483   -2.0330    0.0000 C   0  0  0  0  0  0  0  0  0  0  0  0
   -4.9675   -2.7469    0.0000 C   0  0  0  0  0  0  0  0  0  0  0  0
   -6.1512   -3.6682    0.0000 C   0  0  0  0  0  0  0  0  0  0  0  0
   -7.1671   -4.7718    0.0000 C   0  0  0  0  0  0  0  0  0  0  0  0
   -7.9875   -6.0276    0.0000 C   0  0  0  0  0  0  0  0  0  0  0  0
   -8.5901   -7.4012    0.0000 C   0  0  0  0  0  0  0  0  0  0  0  0
   -8.9583   -8.8553    0.0000 C   0  0  0  0  0  0  0  0  0  0  0  0
   -9.0822  -10.3502    0.0000 C   0  0  0  0  0  0  0  0  0  0  0  0
   -8.9583  -11.8451    0.0000 C   0  0  0  0  0  0  0  0  0  0  0  0
   -8.5901  -13.2992    0.0000 C   0  0  0  0  0  0  0  0  0  0  0  0
   -7.9875  -14.6728    0.0000 C   0  0  0  0  0  0  0  0  0  0  0  0
   -7.1671  -15.9286    0.0000 C   0  0  0  0  0  0  0  0  0  0  0  0
   -6.1512  -17.0322    0.0000 C   0  0  0  0  0  0  0  0  0  0  0  0
   -4.9675  -17.9535    0.0000 C   0  0  0  0  0  0  0  0  0  0  0  0
   -3.6483  -18.6674    0.0000 C   0  0  0  0  0  0  0  0  0  0  0  0
   -2.2295  -19.1545    0.0000 C   0  0  0  0  0  0  0  0  0  0  0  0
   -0.7500  -19.4013    0.0000 C   0  0  0  0  0  0  0  0  0  0  0  0
    0.7500  -19.4013    0.0000 C   0  0  0  0  0  0  0  0  0  0  0  0
    2.2295  -19.1545    0.0000 C   0  0  0  0  0  0  0  0  0  0  0  0
    3.6483  -18.6674    0.0000 C   0  0  0  0  0  0  0  0  0  0  0  0
    4.9675  -17.9535    0.0000 C   0  0  0  0  0  0  0  0  0  0  0  0
    6.1512  -17.0322    0.0000 C   0  0  0  0  0  0  0  0  0  0  0  0
    7.1671  -15.9286    0.0000 C   0  0  0  0  0  0  0  0  0  0  0  0
    7.9875  -14.6728    0.0000 C   0  0  0  0  0  0  0  0  0  0  0  0
    8.5901  -13.2992    0.0000 C   0  0  0  0  0  0  0  0  0  0  0  0
    8.9583  -11.8451    0.0000 C   0  0  0  0  0  0  0  0  0  0  0  0
   10.3417  -12.4248    0.0000 C   0  0  0  0  0  0  0  0  0  0  0  0
   11.3206  -11.2882    0.0000 C   0  0  0  0  0  0  0  0  0  0  0  0
   10.5422  -10.0061    0.0000 C   0  0  0  0  0  0  0  0  0  0  0  0
    9.0822  -10.3502    0.0000 C   0  0  0  0  0  0  0  0  0  0  0  0
    8.9583   -8.8553    0.0000 C   0  0  0  0  0  0  0  0  0  0  0  0
   10.4378   -8.6084    0.0000 O   0  0  0  0  0  0  0  0  0  0  0  0
    8.5901   -7.4012    0.0000 C   0  0  0  0  0  0  0  0  0  0  0  0
   10.0088   -6.9142    0.0000 O   0  0  0  0  0  0  0  0  0  0  0  0
    7.9875   -6.0276    0.0000 C   0  0  0  0  0  0  0  0  0  0  0  0
    7.1671   -4.7718    0.0000 C   0  0  0  0  0  0  0  0  0  0  0  0
    6.1512   -3.6682    0.0000 C   0  0  0  0  0  0  0  0  0  0  0  0
    4.9675   -2.7469    0.0000 C   0  0  0  0  0  0  0  0  0  0  0  0
    3.6483   -2.0330    0.0000 C   0  0  0  0  0  0  0  0  0  0  0  0
    4.5499   -0.8342    0.0000 C   0  0  0  0  0  0  0  0  0  0  0  0
    3.6884    0.3937    0.0000 C   0  0  0  0  0  0  0  0  0  0  0  0
    2.2543   -0.0461    0.0000 C   0  0  0  0  0  0  0  0  0  0  0  0
    2.2295   -1.5459    0.0000 C   0  0  0  0  0  0  0  0  0  0  0  0
    0.7500   -1.2990    0.0000 C   0  0  0  0  0  0  0  0  0  0  0  0
    1.5000    0.0000    0.0000 C   0  0  0  0  0  0  0  0  0  0  0  0
    0.7500    1.2990    0.0000 C   0  0  0  0  0  0  0  0  0  0  0  0
   -0.7500    1.2990    0.0000 C   0  0  0  0  0  0  0  0  0  0  0  0
   -1.5000    0.0000    0.0000 C   0  0  0  0  0  0  0  0  0  0  0  0
   -0.7500   -1.2990    0.0000 C   0  0  0  0  0  0  0  0  0  0  0  0
  1  2  1  0
  2  3  1  0
  3  4  2  0
  4  5  1  0
  5  6  2  0
  6  7  1  0
  7  8  2  0
  8  9  1  0
  9 10  2  0
 10 11  1  0
 11 12  2  0
 12 13  1  0
 13 14  2  0
 14 15  1  0
 15 16  2  0
 16 17  1  0
 17 18  2  0
 18 19  1  0
 19 20  2  0
 20 21  1  0
 21 22  2  0
 22 23  1  0
 23 24  2  0
 24 25  1  0
 25 26  2  0
 26 27  1  0
 27 28  2  0
 28 29  1  0
 29 30  2  0
 30 31  1  0
 31 32  2  0
 32 33  1  0
 33 34  2  0
 33 35  1  0
 35 36  2  0
 35 37  1  0
 37 38  1  0
 38 39  2  0
 39 40  1  0
 40 41  2  0
 41 42  1  0
 42 43  2  0
 43 44  1  0
 44 45  2  0
 45 46  1  0
 46 47  2  0
 47 48  1  0
 48 49  2  0
 49 50  1  0
 50 51  2  0
 51  2  1  0
 32 28  1  0
 45 41  1  0
 51 46  1  0
M  END
>  <Title>  (979) 
idABJWgen7

$$$$

     RDKit          2D

 40 45  0  0  0  0  0  0  0  0999 V2000
    3.1097   -7.2078    0.0000 C   0  0  0  0  0  0  0  0  0  0  0  0
    2.0490   -6.1471    0.0000 C   0  0  0  0  0  0  0  0  0  0  0  0
    2.7990   -4.8481    0.0000 C   0  0  0  0  0  0  0  0  0  0  0  0
    2.7990   -3.3481    0.0000 C   0  0  0  0  0  0  0  0  0  0  0  0
    2.0490   -2.0490    0.0000 C   0  0  0  0  0  0  0  0  0  0  0  0
    3.1097   -0.9884    0.0000 C   0  0  0  0  0  0  0  0  0  0  0  0
    2.7215    0.4605    0.0000 O   0  0  0  0  0  0  0  0  0  0  0  0
    4.5586   -1.3766    0.0000 N   0  0  0  0  0  0  0  0  0  0  0  0
    5.6192   -0.3159    0.0000 C   0  0  0  0  0  0  0  0  0  0  0  0
    7.0681   -0.7042    0.0000 N   0  0  0  0  0  0  0  0  0  0  0  0
    8.1288    0.3565    0.0000 N   0  0  0  0  0  0  0  0  0  0  0  0
    7.7406    1.8054    0.0000 N   0  0  0  0  0  0  0  0  0  0  0  0
    6.2917    2.1936    0.0000 N   0  0  0  0  0  0  0  0  0  0  0  0
    5.2310    1.1329    0.0000 N   0  0  0  0  0  0  0  0  0  0  0  0
    0.7500   -1.2990    0.0000 C   0  0  0  0  0  0  0  0  0  0  0  0
    1.5000    0.0000    0.0000 C   0  0  0  0  0  0  0  0  0  0  0  0
    0.7500    1.2990    0.0000 C   0  0  0  0  0  0  0  0  0  0  0  0
   -0.7500    1.2990    0.0000 C   0  0  0  0  0  0  0  0  0  0  0  0
   -1.5000    0.0000    0.0000 C   0  0  0  0  0  0  0  0  0  0  0  0
   -0.7500   -1.2990    0.0000 C   0  0  0  0  0  0  0  0  0  0  0  0
   -2.0490   -2.0490    0.0000 C   0  0  0  0  0  0  0  0  0  0  0  0
   -2.7990   -0.7500    0.0000 C   0  0  0  0  0  0  0  0  0  0  0  0
   -4.2990   -0.7500    0.0000 C   0  0  0  0  0  0  0  0  0  0  0  0
   -5.0490   -2.0490    0.0000 C   0  0  0  0  0  0  0  0  0  0  0  0
   -4.2990   -3.3481    0.0000 C   0  0  0  0  0  0  0  0  0  0  0  0
   -2.7990   -3.3481    0.0000 C   0  0  0  0  0  0  0  0  0  0  0  0
   -2.7990   -4.8481    0.0000 C   0  0  0  0  0  0  0  0  0  0  0  0
   -4.2990   -4.8481    0.0000 C   0  0  0  0  0  0  0  0  0  0  0  0
   -5.0490   -6.1471    0.0000 C   0  0  0  0  0  0  0  0  0  0  0  0
   -4.2990   -7.4462    0.0000 C   0  0  0  0  0  0  0  0  0  0  0  0
   -5.0490   -8.7452    0.0000 C   0  0  0  0  0  0  0  0  0  0  0  0
   -5.7990  -10.0442    0.0000 N   0  0  0  0  0  0  0  0  0  0  0  0
   -2.7990   -7.4462    0.0000 C   0  0  0  0  0  0  0  0  0  0  0  0
   -2.0490   -6.1471    0.0000 C   0  0  0  0  0  0  0  0  0  0  0  0
   -0.7500   -6.8971    0.0000 C   0  0  0  0  0  0  0  0  0  0  0  0
   -1.5000   -8.1962    0.0000 C   0  0  0  0  0  0  0  0  0  0  0  0
   -0.7500   -9.4952    0.0000 C   0  0  0  0  0  0  0  0  0  0  0  0
    0.7500   -9.4952    0.0000 C   0  0  0  0  0  0  0  0  0  0  0  0
    1.5000   -8.1962    0.0000 C   0  0  0  0  0  0  0  0  0  0  0  0
    0.7500   -6.8971    0.0000 C   0  0  0  0  0  0  0  0  0  0  0  0
  1  2  1  0
  2  3  1  0
  3  4  1  0
  4  5  1  0
  5  6  1  0
  6  7  2  0
  6  8  1  0
  8  9  1  0
  9 10  2  0
 10 11  1  0
 11 12  2  0
 12 13  1  0
 13 14  2  0
  5 15  1  0
 15 16  2  0
 16 17  1  0
 17 18  2  0
 18 19  1  0
 19 20  2  0
 20 21  1  0
 21 22  2  0
 22 23  1  0
 23 24  2  0
 24 25  1  0
 25 26  2  0
 26 27  1  0
 27 28  2  0
 28 29  1  0
 29 30  2  0
 30 31  1  0
 31 32  3  0
 30 33  1  0
 33 34  2  0
 34 35  1  0
 35 36  2  0
 36 37  1  0
 37 38  2  0
 38 39  1  0
 39 40  2  0
 40  2  1  0
 14  9  1  0
 20 15  1  0
 26 21  1  0
 34 27  1  0
 40 35  1  0
M  END
>  <Title>  (980) 
idABJXgen7

$$$$

     RDKit          2D

  8  8  0  0  0  0  0  0  0  0999 V2000
    4.5000    0.0000    0.0000 N   0  0  0  0  0  0  0  0  0  0  0  0
    3.0000    0.0000    0.0000 C   0  0  0  0  0  0  0  0  0  0  0  0
    1.5000    0.0000    0.0000 C   0  0  0  0  0  0  0  0  0  0  0  0
    0.7500   -1.2990    0.0000 C   0  0  0  0  0  0  0  0  0  0  0  0
   -0.7500   -1.2990    0.0000 C   0  0  0  0  0  0  0  0  0  0  0  0
   -1.5000    0.0000    0.0000 C   0  0  0  0  0  0  0  0  0  0  0  0
   -0.7500    1.2990    0.0000 C   0  0  0  0  0  0  0  0  0  0  0  0
    0.7500    1.2990    0.0000 C   0  0  0  0  0  0  0  0  0  0  0  0
  1  2  3  0
  2  3  1  0
  3  4  2  0
  4  5  1  0
  5  6  2  0
  6  7  1  0
  7  8  2  0
  8  3  1  0
M  END
>  <Title>  (981) 
idABJYgen7

$$$$

     RDKit          2D

  8  8  0  0  0  0  0  0  0  0999 V2000
    3.5260   -1.2990    0.0000 N   0  0  0  0  0  0  0  0  0  0  0  0
    2.7760    0.0000    0.0000 C   0  0  0  0  0  0  0  0  0  0  0  0
    3.5260    1.2990    0.0000 O   0  0  0  0  0  0  0  0  0  0  0  0
    1.2760    0.0000    0.0000 C   0  0  0  0  0  0  0  0  0  0  0  0
    0.3943    1.2135    0.0000 C   0  0  0  0  0  0  0  0  0  0  0  0
   -1.0323    0.7500    0.0000 C   0  0  0  0  0  0  0  0  0  0  0  0
   -1.0323   -0.7500    0.0000 C   0  0  0  0  0  0  0  0  0  0  0  0
    0.3943   -1.2135    0.0000 C   0  0  0  0  0  0  0  0  0  0  0  0
  1  2  2  0
  2  3  1  0
  2  4  1  0
  4  5  2  0
  5  6  1  0
  6  7  1  0
  7  8  2  0
  8  4  1  0
M  END
>  <Title>  (982) 
idABJZgen7

$$$$

     RDKit          2D

 17 18  0  0  0  0  0  0  0  0999 V2000
    4.1621    0.0000    0.0000 C   0  0  0  0  0  0  0  0  0  0  0  0
    2.6621    0.0000    0.0000 C   0  0  0  0  0  0  0  0  0  0  0  0
    2.2395    1.4392    0.0000 C   0  0  0  0  0  0  0  0  0  0  0  0
    1.1059    2.4215    0.0000 C   0  0  0  0  0  0  0  0  0  0  0  0
   -0.3789    2.6350    0.0000 C   0  0  0  0  0  0  0  0  0  0  0  0
   -1.5731    3.5850    0.0000 C   0  0  0  0  0  0  0  0  0  0  0  0
   -3.0460    3.3011    0.0000 C   0  0  0  0  0  0  0  0  0  0  0  0
   -4.0282    4.4347    0.0000 O   0  0  0  0  0  0  0  0  0  0  0  0
   -3.5366    1.8836    0.0000 N   0  0  0  0  0  0  0  0  0  0  0  0
   -2.5543    0.7500    0.0000 C   0  0  0  0  0  0  0  0  0  0  0  0
   -2.5543   -0.7500    0.0000 N   0  0  0  0  0  0  0  0  0  0  0  0
   -1.7433   -2.0119    0.0000 N   0  0  0  0  0  0  0  0  0  0  0  0
   -0.3789   -2.6350    0.0000 N   0  0  0  0  0  0  0  0  0  0  0  0
    1.1059   -2.4215    0.0000 N   0  0  0  0  0  0  0  0  0  0  0  0
    2.2395   -1.4392    0.0000 N   0  0  0  0  0  0  0  0  0  0  0  0
   -1.7433    2.0119    0.0000 C   0  0  0  0  0  0  0  0  0  0  0  0
   -2.5486    2.5776    0.0000 O   0  0  0  0  0  0  0  0  0  0  0  0
  1  2  1  0
  2  3  1  0
  3  4  1  0
  4  5  1  0
  5  6  1  0
  6  7  1  0
  7  8  2  0
  7  9  1  0
  9 10  1  0
 10 11  2  0
 11 12  1  0
 12 13  2  0
 13 14  1  0
 14 15  2  0
 10 16  1  0
 16 17  2  0
 15  2  1  0
 16  5  1  0
M  END
>  <Title>  (983) 
idABKAgen7

$$$$

     RDKit          2D

  7  7  0  0  0  0  0  0  0  0999 V2000
    3.0000    0.0000    0.0000 C   0  0  0  0  0  0  0  0  0  0  0  0
    1.5000    0.0000    0.0000 C   0  0  0  0  0  0  0  0  0  0  0  0
    0.7500   -1.2990    0.0000 C   0  0  0  0  0  0  0  0  0  0  0  0
   -0.7500   -1.2990    0.0000 C   0  0  0  0  0  0  0  0  0  0  0  0
   -1.5000    0.0000    0.0000 C   0  0  0  0  0  0  0  0  0  0  0  0
   -0.7500    1.2990    0.0000 C   0  0  0  0  0  0  0  0  0  0  0  0
    0.7500    1.2990    0.0000 C   0  0  0  0  0  0  0  0  0  0  0  0
  1  2  1  0
  2  3  1  0
  3  4  2  0
  4  5  1  0
  5  6  1  0
  6  7  1  0
  7  2  1  0
M  END
>  <Title>  (984) 
idABKBgen7

$$$$

     RDKit          2D

 34 34  0  0  0  0  0  0  0  0999 V2000
   13.1751   -0.0000    0.0000 C   0  0  0  0  0  0  0  0  0  0  0  0
   11.6751   -0.0000    0.0000 C   0  0  0  0  0  0  0  0  0  0  0  0
   10.1751   -0.0000    0.0000 C   0  0  0  0  0  0  0  0  0  0  0  0
    8.6751   -0.0000    0.0000 C   0  0  0  0  0  0  0  0  0  0  0  0
    7.1751    0.0000    0.0000 C   0  0  0  0  0  0  0  0  0  0  0  0
    7.0183   -1.4918    0.0000 C   0  0  0  0  0  0  0  0  0  0  0  0
    6.5548   -2.9184    0.0000 C   0  0  0  0  0  0  0  0  0  0  0  0
    5.8048   -4.2174    0.0000 C   0  0  0  0  0  0  0  0  0  0  0  0
    4.8011   -5.3321    0.0000 C   0  0  0  0  0  0  0  0  0  0  0  0
    3.5875   -6.2138    0.0000 C   0  0  0  0  0  0  0  0  0  0  0  0
    2.2172   -6.8239    0.0000 C   0  0  0  0  0  0  0  0  0  0  0  0
    0.7500   -7.1358    0.0000 C   0  0  0  0  0  0  0  0  0  0  0  0
   -0.7500   -7.1358    0.0000 C   0  0  0  0  0  0  0  0  0  0  0  0
   -2.2172   -6.8239    0.0000 C   0  0  0  0  0  0  0  0  0  0  0  0
   -3.5875   -6.2138    0.0000 C   0  0  0  0  0  0  0  0  0  0  0  0
   -4.8011   -5.3321    0.0000 C   0  0  0  0  0  0  0  0  0  0  0  0
   -5.8048   -4.2174    0.0000 C   0  0  0  0  0  0  0  0  0  0  0  0
   -6.5548   -2.9184    0.0000 C   0  0  0  0  0  0  0  0  0  0  0  0
   -7.0183   -1.4918    0.0000 C   0  0  0  0  0  0  0  0  0  0  0  0
   -7.1751    0.0000    0.0000 C   0  0  0  0  0  0  0  0  0  0  0  0
   -7.0183    1.4918    0.0000 C   0  0  0  0  0  0  0  0  0  0  0  0
   -6.5548    2.9184    0.0000 C   0  0  0  0  0  0  0  0  0  0  0  0
   -5.8048    4.2174    0.0000 C   0  0  0  0  0  0  0  0  0  0  0  0
   -4.8011    5.3321    0.0000 C   0  0  0  0  0  0  0  0  0  0  0  0
   -3.5875    6.2138    0.0000 C   0  0  0  0  0  0  0  0  0  0  0  0
   -2.2172    6.8239    0.0000 C   0  0  0  0  0  0  0  0  0  0  0  0
   -0.7500    7.1358    0.0000 C   0  0  0  0  0  0  0  0  0  0  0  0
    0.7500    7.1358    0.0000 C   0  0  0  0  0  0  0  0  0  0  0  0
    2.2172    6.8239    0.0000 C   0  0  0  0  0  0  0  0  0  0  0  0
    3.5875    6.2138    0.0000 C   0  0  0  0  0  0  0  0  0  0  0  0
    4.8011    5.3321    0.0000 C   0  0  0  0  0  0  0  0  0  0  0  0
    5.8048    4.2174    0.0000 C   0  0  0  0  0  0  0  0  0  0  0  0
    6.5548    2.9184    0.0000 C   0  0  0  0  0  0  0  0  0  0  0  0
    7.0183    1.4918    0.0000 C   0  0  0  0  0  0  0  0  0  0  0  0
  1  2  3  0
  2  3  1  0
  3  4  3  0
  4  5  1  0
  5  6  1  0
  6  7  2  0
  7  8  1  0
  8  9  2  0
  9 10  1  0
 10 11  2  0
 11 12  1  0
 12 13  2  0
 13 14  1  0
 14 15  2  0
 15 16  1  0
 16 17  2  0
 17 18  1  0
 18 19  2  0
 19 20  1  0
 20 21  2  0
 21 22  1  0
 22 23  2  0
 23 24  1  0
 24 25  2  0
 25 26  1  0
 26 27  2  0
 27 28  1  0
 28 29  1  0
 29 30  1  0
 30 31  1  0
 31 32  1  0
 32 33  1  0
 33 34  1  0
 34  5  1  0
M  END
>  <Title>  (985) 
idABKCgen7

$$$$

     RDKit          2D

 20 21  0  0  0  0  0  0  0  0999 V2000
    3.4598   -0.0000    0.0000 C   0  0  0  0  0  0  0  0  0  0  0  0
    1.9598    0.0000    0.0000 C   0  0  0  0  0  0  0  0  0  0  0  0
    1.3858   -1.3858    0.0000 C   0  0  0  0  0  0  0  0  0  0  0  0
   -0.0000   -1.9598    0.0000 C   0  0  0  0  0  0  0  0  0  0  0  0
   -1.3858   -1.3858    0.0000 C   0  0  0  0  0  0  0  0  0  0  0  0
   -2.4465   -2.4465    0.0000 C   0  0  0  0  0  0  0  0  0  0  0  0
   -3.5071   -3.5071    0.0000 C   0  0  0  0  0  0  0  0  0  0  0  0
   -3.5071   -1.3858    0.0000 N   0  0  0  0  0  0  0  0  0  0  0  0
   -1.3858   -3.5071    0.0000 C   0  0  0  0  0  0  0  0  0  0  0  0
   -1.7740   -4.9560    0.0000 C   0  0  0  0  0  0  0  0  0  0  0  0
   -0.7134   -6.0167    0.0000 C   0  0  0  0  0  0  0  0  0  0  0  0
    0.7355   -5.6285    0.0000 C   0  0  0  0  0  0  0  0  0  0  0  0
    1.7962   -6.6891    0.0000 C   0  0  0  0  0  0  0  0  0  0  0  0
    2.8568   -7.7498    0.0000 N   0  0  0  0  0  0  0  0  0  0  0  0
    1.1237   -4.1796    0.0000 C   0  0  0  0  0  0  0  0  0  0  0  0
    0.0631   -3.1189    0.0000 C   0  0  0  0  0  0  0  0  0  0  0  0
   -1.9598    0.0000    0.0000 C   0  0  0  0  0  0  0  0  0  0  0  0
   -1.3858    1.3858    0.0000 C   0  0  0  0  0  0  0  0  0  0  0  0
    0.0000    1.9598    0.0000 C   0  0  0  0  0  0  0  0  0  0  0  0
    1.3858    1.3858    0.0000 C   0  0  0  0  0  0  0  0  0  0  0  0
  1  2  1  0
  2  3  1  0
  3  4  2  0
  4  5  1  0
  5  6  1  0
  6  7  1  0
  6  8  1  0
  6  9  1  0
  9 10  2  0
 10 11  1  0
 11 12  2  0
 12 13  1  0
 13 14  3  0
 12 15  1  0
 15 16  2  0
  5 17  1  0
 17 18  1  0
 18 19  1  0
 19 20  1  0
 20  2  1  0
 16  9  1  0
M  END
>  <Title>  (986) 
idABKDgen7

$$$$

     RDKit          2D

  9  9  0  0  0  0  0  0  0  0999 V2000
    3.2286   -0.0000    0.0000 C   0  0  0  0  0  0  0  0  0  0  0  0
    1.7286    0.0000    0.0000 C   0  0  0  0  0  0  0  0  0  0  0  0
    1.0777    1.3515    0.0000 C   0  0  0  0  0  0  0  0  0  0  0  0
   -0.3846    1.6852    0.0000 C   0  0  0  0  0  0  0  0  0  0  0  0
   -1.5574    0.7500    0.0000 C   0  0  0  0  0  0  0  0  0  0  0  0
   -1.5574   -0.7500    0.0000 C   0  0  0  0  0  0  0  0  0  0  0  0
   -0.3846   -1.6852    0.0000 C   0  0  0  0  0  0  0  0  0  0  0  0
   -0.7184   -3.1476    0.0000 C   0  0  0  0  0  0  0  0  0  0  0  0
    1.0777   -1.3515    0.0000 N   0  0  0  0  0  0  0  0  0  0  0  0
  1  2  1  0
  2  3  1  0
  3  4  1  0
  4  5  1  0
  5  6  1  0
  6  7  1  0
  7  8  1  0
  7  9  1  0
  9  2  1  0
M  END
>  <Title>  (987) 
idABKEgen7

$$$$

     RDKit          2D

 10 10  0  0  0  0  0  0  0  0999 V2000
    7.5000    0.0000    0.0000 N   0  0  0  0  0  0  0  0  0  0  0  0
    6.0000    0.0000    0.0000 C   0  0  0  0  0  0  0  0  0  0  0  0
    4.5000    0.0000    0.0000 C   0  0  0  0  0  0  0  0  0  0  0  0
    3.0000    0.0000    0.0000 C   0  0  0  0  0  0  0  0  0  0  0  0
    1.5000    0.0000    0.0000 C   0  0  0  0  0  0  0  0  0  0  0  0
    0.7500   -1.2990    0.0000 C   0  0  0  0  0  0  0  0  0  0  0  0
   -0.7500   -1.2990    0.0000 C   0  0  0  0  0  0  0  0  0  0  0  0
   -1.5000    0.0000    0.0000 C   0  0  0  0  0  0  0  0  0  0  0  0
   -0.7500    1.2990    0.0000 C   0  0  0  0  0  0  0  0  0  0  0  0
    0.7500    1.2990    0.0000 C   0  0  0  0  0  0  0  0  0  0  0  0
  1  2  3  0
  2  3  1  0
  3  4  3  0
  4  5  1  0
  5  6  1  0
  6  7  2  0
  7  8  1  0
  8  9  2  0
  9 10  1  0
 10  5  1  0
M  END
>  <Title>  (988) 
idABKFgen7

$$$$

     RDKit          2D

 26 28  0  0  0  0  0  0  0  0999 V2000
   -3.1097   -0.9884    0.0000 C   0  0  0  0  0  0  0  0  0  0  0  0
   -2.0490   -2.0490    0.0000 C   0  0  0  0  0  0  0  0  0  0  0  0
   -2.7990   -3.3481    0.0000 C   0  0  0  0  0  0  0  0  0  0  0  0
   -2.7990   -4.8481    0.0000 C   0  0  0  0  0  0  0  0  0  0  0  0
   -2.0490   -6.1471    0.0000 C   0  0  0  0  0  0  0  0  0  0  0  0
   -0.7500   -6.8971    0.0000 C   0  0  0  0  0  0  0  0  0  0  0  0
    0.7500   -6.8971    0.0000 C   0  0  0  0  0  0  0  0  0  0  0  0
    2.0490   -6.1471    0.0000 C   0  0  0  0  0  0  0  0  0  0  0  0
    2.7990   -4.8481    0.0000 C   0  0  0  0  0  0  0  0  0  0  0  0
    2.7990   -3.3481    0.0000 C   0  0  0  0  0  0  0  0  0  0  0  0
    2.0490   -2.0490    0.0000 C   0  0  0  0  0  0  0  0  0  0  0  0
    3.1097   -0.9884    0.0000 C   0  0  0  0  0  0  0  0  0  0  0  0
    2.7215    0.4605    0.0000 O   0  0  0  0  0  0  0  0  0  0  0  0
    4.5586   -1.3766    0.0000 N   0  0  0  0  0  0  0  0  0  0  0  0
    5.6192   -0.3159    0.0000 C   0  0  0  0  0  0  0  0  0  0  0  0
    7.0681   -0.7042    0.0000 N   0  0  0  0  0  0  0  0  0  0  0  0
    8.1288    0.3565    0.0000 N   0  0  0  0  0  0  0  0  0  0  0  0
    7.7406    1.8054    0.0000 N   0  0  0  0  0  0  0  0  0  0  0  0
    6.2917    2.1936    0.0000 N   0  0  0  0  0  0  0  0  0  0  0  0
    5.2310    1.1329    0.0000 N   0  0  0  0  0  0  0  0  0  0  0  0
    0.7500   -1.2990    0.0000 C   0  0  0  0  0  0  0  0  0  0  0  0
    1.5000    0.0000    0.0000 C   0  0  0  0  0  0  0  0  0  0  0  0
    0.7500    1.2990    0.0000 C   0  0  0  0  0  0  0  0  0  0  0  0
   -0.7500    1.2990    0.0000 C   0  0  0  0  0  0  0  0  0  0  0  0
   -1.5000    0.0000    0.0000 C   0  0  0  0  0  0  0  0  0  0  0  0
   -0.7500   -1.2990    0.0000 C   0  0  0  0  0  0  0  0  0  0  0  0
  1  2  1  0
  2  3  1  0
  3  4  1  0
  4  5  2  0
  5  6  1  0
  6  7  2  0
  7  8  1  0
  8  9  2  0
  9 10  1  0
 10 11  1  0
 11 12  1  0
 12 13  2  0
 12 14  1  0
 14 15  1  0
 15 16  2  0
 16 17  1  0
 17 18  2  0
 18 19  1  0
 19 20  2  0
 11 21  1  0
 21 22  2  0
 22 23  1  0
 23 24  2  0
 24 25  1  0
 25 26  2  0
 26  2  1  0
 20 15  1  0
 26 21  1  0
M  END
>  <Title>  (989) 
idABKGgen7

$$$$

     RDKit          2D

 93 93  0  0  0  0  0  0  0  0999 V2000
   23.4677   -0.0000    0.0000 C   0  0  0  0  0  0  0  0  0  0  0  0
   21.9677    0.0000    0.0000 C   0  0  0  0  0  0  0  0  0  0  0  0
   21.9164   -1.4991    0.0000 C   0  0  0  0  0  0  0  0  0  0  0  0
   21.7630   -2.9913    0.0000 C   0  0  0  0  0  0  0  0  0  0  0  0
   21.5082   -4.4695    0.0000 C   0  0  0  0  0  0  0  0  0  0  0  0
   21.1530   -5.9268    0.0000 C   0  0  0  0  0  0  0  0  0  0  0  0
   20.6993   -7.3565    0.0000 C   0  0  0  0  0  0  0  0  0  0  0  0
   20.1490   -8.7519    0.0000 C   0  0  0  0  0  0  0  0  0  0  0  0
   19.5048  -10.1065    0.0000 C   0  0  0  0  0  0  0  0  0  0  0  0
   18.7696  -11.4140    0.0000 C   0  0  0  0  0  0  0  0  0  0  0  0
   17.9469  -12.6683    0.0000 C   0  0  0  0  0  0  0  0  0  0  0  0
   17.0406  -13.8635    0.0000 C   0  0  0  0  0  0  0  0  0  0  0  0
   16.0547  -14.9941    0.0000 C   0  0  0  0  0  0  0  0  0  0  0  0
   14.9941  -16.0547    0.0000 C   0  0  0  0  0  0  0  0  0  0  0  0
   13.8635  -17.0406    0.0000 C   0  0  0  0  0  0  0  0  0  0  0  0
   12.6683  -17.9469    0.0000 C   0  0  0  0  0  0  0  0  0  0  0  0
   11.4140  -18.7696    0.0000 C   0  0  0  0  0  0  0  0  0  0  0  0
   10.1065  -19.5048    0.0000 C   0  0  0  0  0  0  0  0  0  0  0  0
    8.7519  -20.1490    0.0000 C   0  0  0  0  0  0  0  0  0  0  0  0
    7.3565  -20.6993    0.0000 C   0  0  0  0  0  0  0  0  0  0  0  0
    5.9268  -21.1530    0.0000 C   0  0  0  0  0  0  0  0  0  0  0  0
    4.4695  -21.5082    0.0000 C   0  0  0  0  0  0  0  0  0  0  0  0
    2.9913  -21.7630    0.0000 C   0  0  0  0  0  0  0  0  0  0  0  0
    1.4991  -21.9164    0.0000 C   0  0  0  0  0  0  0  0  0  0  0  0
   -0.0000  -21.9677    0.0000 C   0  0  0  0  0  0  0  0  0  0  0  0
   -1.4991  -21.9164    0.0000 C   0  0  0  0  0  0  0  0  0  0  0  0
   -2.9913  -21.7630    0.0000 C   0  0  0  0  0  0  0  0  0  0  0  0
   -4.4695  -21.5082    0.0000 C   0  0  0  0  0  0  0  0  0  0  0  0
   -5.9268  -21.1530    0.0000 C   0  0  0  0  0  0  0  0  0  0  0  0
   -7.3565  -20.6993    0.0000 C   0  0  0  0  0  0  0  0  0  0  0  0
   -8.7519  -20.1490    0.0000 C   0  0  0  0  0  0  0  0  0  0  0  0
  -10.1065  -19.5048    0.0000 C   0  0  0  0  0  0  0  0  0  0  0  0
  -11.4140  -18.7696    0.0000 C   0  0  0  0  0  0  0  0  0  0  0  0
  -12.6683  -17.9469    0.0000 C   0  0  0  0  0  0  0  0  0  0  0  0
  -13.8635  -17.0406    0.0000 C   0  0  0  0  0  0  0  0  0  0  0  0
  -14.9941  -16.0547    0.0000 C   0  0  0  0  0  0  0  0  0  0  0  0
  -16.0547  -14.9941    0.0000 C   0  0  0  0  0  0  0  0  0  0  0  0
  -17.0406  -13.8635    0.0000 C   0  0  0  0  0  0  0  0  0  0  0  0
  -17.9469  -12.6683    0.0000 C   0  0  0  0  0  0  0  0  0  0  0  0
  -18.7696  -11.4140    0.0000 C   0  0  0  0  0  0  0  0  0  0  0  0
  -19.5048  -10.1065    0.0000 C   0  0  0  0  0  0  0  0  0  0  0  0
  -20.1490   -8.7519    0.0000 C   0  0  0  0  0  0  0  0  0  0  0  0
  -20.6993   -7.3565    0.0000 C   0  0  0  0  0  0  0  0  0  0  0  0
  -21.1530   -5.9268    0.0000 C   0  0  0  0  0  0  0  0  0  0  0  0
  -21.5082   -4.4695    0.0000 C   0  0  0  0  0  0  0  0  0  0  0  0
  -21.7630   -2.9913    0.0000 C   0  0  0  0  0  0  0  0  0  0  0  0
  -21.9164   -1.4991    0.0000 C   0  0  0  0  0  0  0  0  0  0  0  0
  -21.9677    0.0000    0.0000 C   0  0  0  0  0  0  0  0  0  0  0  0
  -21.9164    1.4991    0.0000 C   0  0  0  0  0  0  0  0  0  0  0  0
  -21.7630    2.9913    0.0000 C   0  0  0  0  0  0  0  0  0  0  0  0
  -21.5082    4.4695    0.0000 C   0  0  0  0  0  0  0  0  0  0  0  0
  -21.1530    5.9268    0.0000 C   0  0  0  0  0  0  0  0  0  0  0  0
  -20.6993    7.3565    0.0000 C   0  0  0  0  0  0  0  0  0  0  0  0
  -20.1490    8.7519    0.0000 C   0  0  0  0  0  0  0  0  0  0  0  0
  -19.5048   10.1065    0.0000 C   0  0  0  0  0  0  0  0  0  0  0  0
  -18.7696   11.4140    0.0000 C   0  0  0  0  0  0  0  0  0  0  0  0
  -17.9469   12.6683    0.0000 C   0  0  0  0  0  0  0  0  0  0  0  0
  -17.0406   13.8635    0.0000 C   0  0  0  0  0  0  0  0  0  0  0  0
  -16.0547   14.9941    0.0000 C   0  0  0  0  0  0  0  0  0  0  0  0
  -14.9941   16.0547    0.0000 C   0  0  0  0  0  0  0  0  0  0  0  0
  -13.8635   17.0406    0.0000 C   0  0  0  0  0  0  0  0  0  0  0  0
  -12.6683   17.9469    0.0000 C   0  0  0  0  0  0  0  0  0  0  0  0
  -11.4140   18.7696    0.0000 C   0  0  0  0  0  0  0  0  0  0  0  0
  -10.1065   19.5048    0.0000 C   0  0  0  0  0  0  0  0  0  0  0  0
   -8.7519   20.1490    0.0000 C   0  0  0  0  0  0  0  0  0  0  0  0
   -7.3565   20.6993    0.0000 C   0  0  0  0  0  0  0  0  0  0  0  0
   -5.9268   21.1530    0.0000 C   0  0  0  0  0  0  0  0  0  0  0  0
   -4.4695   21.5082    0.0000 C   0  0  0  0  0  0  0  0  0  0  0  0
   -2.9913   21.7630    0.0000 C   0  0  0  0  0  0  0  0  0  0  0  0
   -1.4991   21.9164    0.0000 C   0  0  0  0  0  0  0  0  0  0  0  0
    0.0000   21.9677    0.0000 C   0  0  0  0  0  0  0  0  0  0  0  0
    1.4991   21.9164    0.0000 C   0  0  0  0  0  0  0  0  0  0  0  0
    2.9913   21.7630    0.0000 C   0  0  0  0  0  0  0  0  0  0  0  0
    4.4695   21.5082    0.0000 C   0  0  0  0  0  0  0  0  0  0  0  0
    5.9268   21.1530    0.0000 C   0  0  0  0  0  0  0  0  0  0  0  0
    7.3565   20.6993    0.0000 C   0  0  0  0  0  0  0  0  0  0  0  0
    8.7519   20.1490    0.0000 C   0  0  0  0  0  0  0  0  0  0  0  0
   10.1065   19.5048    0.0000 C   0  0  0  0  0  0  0  0  0  0  0  0
   11.4140   18.7696    0.0000 C   0  0  0  0  0  0  0  0  0  0  0  0
   12.6683   17.9469    0.0000 C   0  0  0  0  0  0  0  0  0  0  0  0
   13.8635   17.0406    0.0000 C   0  0  0  0  0  0  0  0  0  0  0  0
   14.9941   16.0547    0.0000 C   0  0  0  0  0  0  0  0  0  0  0  0
   16.0547   14.9941    0.0000 C   0  0  0  0  0  0  0  0  0  0  0  0
   17.0406   13.8635    0.0000 C   0  0  0  0  0  0  0  0  0  0  0  0
   17.9469   12.6683    0.0000 C   0  0  0  0  0  0  0  0  0  0  0  0
   18.7696   11.4140    0.0000 C   0  0  0  0  0  0  0  0  0  0  0  0
   19.5048   10.1065    0.0000 C   0  0  0  0  0  0  0  0  0  0  0  0
   20.1490    8.7519    0.0000 C   0  0  0  0  0  0  0  0  0  0  0  0
   20.6993    7.3565    0.0000 C   0  0  0  0  0  0  0  0  0  0  0  0
   21.1530    5.9268    0.0000 C   0  0  0  0  0  0  0  0  0  0  0  0
   21.5082    4.4695    0.0000 C   0  0  0  0  0  0  0  0  0  0  0  0
   21.7630    2.9913    0.0000 C   0  0  0  0  0  0  0  0  0  0  0  0
   21.9164    1.4991    0.0000 C   0  0  0  0  0  0  0  0  0  0  0  0
  1  2  1  0
  2  3  1  0
  3  4  2  0
  4  5  1  0
  5  6  2  0
  6  7  1  0
  7  8  2  0
  8  9  1  0
  9 10  2  0
 10 11  1  0
 11 12  2  0
 12 13  1  0
 13 14  2  0
 14 15  1  0
 15 16  1  0
 16 17  1  0
 17 18  2  0
 18 19  1  0
 19 20  1  0
 20 21  1  0
 21 22  1  0
 22 23  1  0
 23 24  1  0
 24 25  1  0
 25 26  1  0
 26 27  1  0
 27 28  1  0
 28 29  1  0
 29 30  1  0
 30 31  1  0
 31 32  1  0
 32 33  1  0
 33 34  1  0
 34 35  1  0
 35 36  1  0
 36 37  1  0
 37 38  1  0
 38 39  1  0
 39 40  1  0
 40 41  1  0
 41 42  1  0
 42 43  1  0
 43 44  1  0
 44 45  1  0
 45 46  1  0
 46 47  1  0
 47 48  1  0
 48 49  1  0
 49 50  1  0
 50 51  1  0
 51 52  1  0
 52 53  1  0
 53 54  1  0
 54 55  1  0
 55 56  1  0
 56 57  1  0
 57 58  1  0
 58 59  1  0
 59 60  1  0
 60 61  1  0
 61 62  1  0
 62 63  1  0
 63 64  1  0
 64 65  1  0
 65 66  1  0
 66 67  1  0
 67 68  1  0
 68 69  1  0
 69 70  1  0
 70 71  1  0
 71 72  1  0
 72 73  1  0
 73 74  1  0
 74 75  1  0
 75 76  1  0
 76 77  1  0
 77 78  1  0
 78 79  1  0
 79 80  1  0
 80 81  1  0
 81 82  1  0
 82 83  1  0
 83 84  1  0
 84 85  1  0
 85 86  1  0
 86 87  1  0
 87 88  1  0
 88 89  1  0
 89 90  1  0
 90 91  1  0
 91 92  1  0
 92 93  1  0
 93  2  1  0
M  END
>  <Title>  (990) 
idABKHgen7

$$$$

     RDKit          2D

 40 45  0  0  0  0  0  0  0  0999 V2000
   -1.0426  -10.3112    0.0000 C   0  0  0  0  0  0  0  0  0  0  0  0
   -0.7500   -8.8400    0.0000 C   0  0  0  0  0  0  0  0  0  0  0  0
    0.7500   -8.8400    0.0000 C   0  0  0  0  0  0  0  0  0  0  0  0
    2.1358   -8.2660    0.0000 C   0  0  0  0  0  0  0  0  0  0  0  0
    3.1965   -7.2054    0.0000 C   0  0  0  0  0  0  0  0  0  0  0  0
    4.4437   -8.0387    0.0000 C   0  0  0  0  0  0  0  0  0  0  0  0
    4.3456   -9.5355    0.0000 N   0  0  0  0  0  0  0  0  0  0  0  0
    5.7890   -7.3753    0.0000 O   0  0  0  0  0  0  0  0  0  0  0  0
    3.7705   -5.8195    0.0000 C   0  0  0  0  0  0  0  0  0  0  0  0
    5.2417   -6.1122    0.0000 O   0  0  0  0  0  0  0  0  0  0  0  0
    3.7705   -4.3195    0.0000 N   0  0  0  0  0  0  0  0  0  0  0  0
    3.1965   -2.9337    0.0000 C   0  0  0  0  0  0  0  0  0  0  0  0
    4.5330   -2.2527    0.0000 N   0  0  0  0  0  0  0  0  0  0  0  0
    4.2983   -0.7712    0.0000 N   0  0  0  0  0  0  0  0  0  0  0  0
    2.8168   -0.5366    0.0000 N   0  0  0  0  0  0  0  0  0  0  0  0
    2.1358   -1.8731    0.0000 N   0  0  0  0  0  0  0  0  0  0  0  0
    0.7500   -1.2990    0.0000 C   0  0  0  0  0  0  0  0  0  0  0  0
    1.5000    0.0000    0.0000 C   0  0  0  0  0  0  0  0  0  0  0  0
    0.7500    1.2990    0.0000 C   0  0  0  0  0  0  0  0  0  0  0  0
   -0.7500    1.2990    0.0000 C   0  0  0  0  0  0  0  0  0  0  0  0
   -1.5000    0.0000    0.0000 C   0  0  0  0  0  0  0  0  0  0  0  0
   -0.7500   -1.2990    0.0000 C   0  0  0  0  0  0  0  0  0  0  0  0
   -2.1358   -1.8731    0.0000 C   0  0  0  0  0  0  0  0  0  0  0  0
   -2.5240   -0.4242    0.0000 C   0  0  0  0  0  0  0  0  0  0  0  0
   -3.9729   -0.0359    0.0000 C   0  0  0  0  0  0  0  0  0  0  0  0
   -5.0336   -1.0966    0.0000 C   0  0  0  0  0  0  0  0  0  0  0  0
   -4.6454   -2.5455    0.0000 C   0  0  0  0  0  0  0  0  0  0  0  0
   -3.1965   -2.9337    0.0000 C   0  0  0  0  0  0  0  0  0  0  0  0
   -3.7705   -4.3195    0.0000 C   0  0  0  0  0  0  0  0  0  0  0  0
   -5.0695   -3.5695    0.0000 C   0  0  0  0  0  0  0  0  0  0  0  0
   -6.3686   -4.3195    0.0000 C   0  0  0  0  0  0  0  0  0  0  0  0
   -6.3686   -5.8195    0.0000 C   0  0  0  0  0  0  0  0  0  0  0  0
   -5.0695   -6.5695    0.0000 C   0  0  0  0  0  0  0  0  0  0  0  0
   -3.7705   -5.8195    0.0000 C   0  0  0  0  0  0  0  0  0  0  0  0
   -3.1965   -7.2054    0.0000 C   0  0  0  0  0  0  0  0  0  0  0  0
   -4.6454   -7.5936    0.0000 C   0  0  0  0  0  0  0  0  0  0  0  0
   -5.0336   -9.0425    0.0000 C   0  0  0  0  0  0  0  0  0  0  0  0
   -3.9729  -10.1031    0.0000 C   0  0  0  0  0  0  0  0  0  0  0  0
   -2.5240   -9.7149    0.0000 C   0  0  0  0  0  0  0  0  0  0  0  0
   -2.1358   -8.2660    0.0000 C   0  0  0  0  0  0  0  0  0  0  0  0
  1  2  1  0
  2  3  1  0
  3  4  1  0
  4  5  1  0
  5  6  1  0
  6  7  1  0
  6  8  2  0
  5  9  1  0
  9 10  2  0
  9 11  1  0
 11 12  1  0
 12 13  2  0
 13 14  1  0
 14 15  2  0
 15 16  1  0
 16 17  1  0
 17 18  2  0
 18 19  1  0
 19 20  2  0
 20 21  1  0
 21 22  2  0
 22 23  1  0
 23 24  2  0
 24 25  1  0
 25 26  2  0
 26 27  1  0
 27 28  2  0
 28 29  1  0
 29 30  2  0
 30 31  1  0
 31 32  2  0
 32 33  1  0
 33 34  2  0
 34 35  1  0
 35 36  2  0
 36 37  1  0
 37 38  2  0
 38 39  1  0
 39 40  2  0
 40  2  1  0
 16 12  1  0
 22 17  1  0
 28 23  1  0
 34 29  1  0
 40 35  1  0
M  END
>  <Title>  (991) 
idABKIgen7

$$$$

     RDKit          2D

 38 43  0  0  0  0  0  0  0  0999 V2000
    3.1097   -7.2078    0.0000 C   0  0  0  0  0  0  0  0  0  0  0  0
    2.0490   -6.1471    0.0000 C   0  0  0  0  0  0  0  0  0  0  0  0
    2.7990   -4.8481    0.0000 C   0  0  0  0  0  0  0  0  0  0  0  0
    2.7990   -3.3481    0.0000 C   0  0  0  0  0  0  0  0  0  0  0  0
    2.0490   -2.0490    0.0000 C   0  0  0  0  0  0  0  0  0  0  0  0
    3.1097   -0.9884    0.0000 C   0  0  0  0  0  0  0  0  0  0  0  0
    2.7215    0.4605    0.0000 O   0  0  0  0  0  0  0  0  0  0  0  0
    4.5586   -1.3766    0.0000 N   0  0  0  0  0  0  0  0  0  0  0  0
    5.6192   -0.3159    0.0000 C   0  0  0  0  0  0  0  0  0  0  0  0
    7.0681   -0.7042    0.0000 C   0  0  0  0  0  0  0  0  0  0  0  0
    8.1288    0.3565    0.0000 C   0  0  0  0  0  0  0  0  0  0  0  0
    7.7406    1.8054    0.0000 N   0  0  0  0  0  0  0  0  0  0  0  0
    6.2917    2.1936    0.0000 N   0  0  0  0  0  0  0  0  0  0  0  0
    5.2310    1.1329    0.0000 N   0  0  0  0  0  0  0  0  0  0  0  0
    0.7500   -1.2990    0.0000 C   0  0  0  0  0  0  0  0  0  0  0  0
    1.5000    0.0000    0.0000 C   0  0  0  0  0  0  0  0  0  0  0  0
    0.7500    1.2990    0.0000 C   0  0  0  0  0  0  0  0  0  0  0  0
   -0.7500    1.2990    0.0000 C   0  0  0  0  0  0  0  0  0  0  0  0
   -1.5000    0.0000    0.0000 C   0  0  0  0  0  0  0  0  0  0  0  0
   -0.7500   -1.2990    0.0000 C   0  0  0  0  0  0  0  0  0  0  0  0
   -2.0490   -2.0490    0.0000 C   0  0  0  0  0  0  0  0  0  0  0  0
   -2.7990   -0.7500    0.0000 C   0  0  0  0  0  0  0  0  0  0  0  0
   -4.2990   -0.7500    0.0000 C   0  0  0  0  0  0  0  0  0  0  0  0
   -5.0490   -2.0490    0.0000 C   0  0  0  0  0  0  0  0  0  0  0  0
   -4.2990   -3.3481    0.0000 C   0  0  0  0  0  0  0  0  0  0  0  0
   -2.7990   -3.3481    0.0000 C   0  0  0  0  0  0  0  0  0  0  0  0
   -2.7990   -4.8481    0.0000 C   0  0  0  0  0  0  0  0  0  0  0  0
   -4.2990   -4.8481    0.0000 C   0  0  0  0  0  0  0  0  0  0  0  0
   -5.0490   -6.1471    0.0000 C   0  0  0  0  0  0  0  0  0  0  0  0
   -4.2990   -7.4462    0.0000 C   0  0  0  0  0  0  0  0  0  0  0  0
   -2.7990   -7.4462    0.0000 C   0  0  0  0  0  0  0  0  0  0  0  0
   -2.0490   -6.1471    0.0000 C   0  0  0  0  0  0  0  0  0  0  0  0
   -0.7500   -6.8971    0.0000 C   0  0  0  0  0  0  0  0  0  0  0  0
   -1.5000   -8.1962    0.0000 C   0  0  0  0  0  0  0  0  0  0  0  0
   -0.7500   -9.4952    0.0000 C   0  0  0  0  0  0  0  0  0  0  0  0
    0.7500   -9.4952    0.0000 C   0  0  0  0  0  0  0  0  0  0  0  0
    1.5000   -8.1962    0.0000 C   0  0  0  0  0  0  0  0  0  0  0  0
    0.7500   -6.8971    0.0000 C   0  0  0  0  0  0  0  0  0  0  0  0
  1  2  1  0
  2  3  1  0
  3  4  1  0
  4  5  1  0
  5  6  1  0
  6  7  2  0
  6  8  1  0
  8  9  1  0
  9 10  2  0
 10 11  1  0
 11 12  2  0
 12 13  1  0
 13 14  2  0
  5 15  1  0
 15 16  2  0
 16 17  1  0
 17 18  2  0
 18 19  1  0
 19 20  2  0
 20 21  1  0
 21 22  2  0
 22 23  1  0
 23 24  2  0
 24 25  1  0
 25 26  2  0
 26 27  1  0
 27 28  2  0
 28 29  1  0
 29 30  2  0
 30 31  1  0
 31 32  2  0
 32 33  1  0
 33 34  2  0
 34 35  1  0
 35 36  2  0
 36 37  1  0
 37 38  2  0
 38  2  1  0
 14  9  1  0
 20 15  1  0
 26 21  1  0
 32 27  1  0
 38 33  1  0
M  END
>  <Title>  (992) 
idABKJgen7

$$$$

     RDKit          2D

 62 62  0  0  0  0  0  0  0  0999 V2000
   16.0691    0.0000    0.0000 C   0  0  0  0  0  0  0  0  0  0  0  0
   14.5691    0.0000    0.0000 C   0  0  0  0  0  0  0  0  0  0  0  0
   14.4919    1.4980    0.0000 C   0  0  0  0  0  0  0  0  0  0  0  0
   14.2611    2.9801    0.0000 C   0  0  0  0  0  0  0  0  0  0  0  0
   13.8791    4.4307    0.0000 C   0  0  0  0  0  0  0  0  0  0  0  0
   13.3499    5.8343    0.0000 C   0  0  0  0  0  0  0  0  0  0  0  0
   12.6793    7.1760    0.0000 C   0  0  0  0  0  0  0  0  0  0  0  0
   11.8742    8.4417    0.0000 C   0  0  0  0  0  0  0  0  0  0  0  0
   10.9433    9.6178    0.0000 C   0  0  0  0  0  0  0  0  0  0  0  0
    9.8964   10.6921    0.0000 C   0  0  0  0  0  0  0  0  0  0  0  0
    8.7446   11.6530    0.0000 C   0  0  0  0  0  0  0  0  0  0  0  0
    7.5001   12.4903    0.0000 C   0  0  0  0  0  0  0  0  0  0  0  0
    6.1761   13.1953    0.0000 C   0  0  0  0  0  0  0  0  0  0  0  0
    4.7866   13.7604    0.0000 C   0  0  0  0  0  0  0  0  0  0  0  0
    3.3463   14.1796    0.0000 C   0  0  0  0  0  0  0  0  0  0  0  0
    1.8707   14.4485    0.0000 C   0  0  0  0  0  0  0  0  0  0  0  0
    0.3751   14.5643    0.0000 C   0  0  0  0  0  0  0  0  0  0  0  0
   -1.1244   14.5257    0.0000 C   0  0  0  0  0  0  0  0  0  0  0  0
   -2.6120   14.3331    0.0000 C   0  0  0  0  0  0  0  0  0  0  0  0
   -4.0719   13.9885    0.0000 C   0  0  0  0  0  0  0  0  0  0  0  0
   -5.4886   13.4957    0.0000 C   0  0  0  0  0  0  0  0  0  0  0  0
   -6.8471   12.8599    0.0000 C   0  0  0  0  0  0  0  0  0  0  0  0
   -8.1331   12.0877    0.0000 C   0  0  0  0  0  0  0  0  0  0  0  0
   -9.3329   11.1873    0.0000 C   0  0  0  0  0  0  0  0  0  0  0  0
  -10.4337   10.1684    0.0000 C   0  0  0  0  0  0  0  0  0  0  0  0
  -11.4239    9.0417    0.0000 C   0  0  0  0  0  0  0  0  0  0  0  0
  -12.2931    7.8192    0.0000 C   0  0  0  0  0  0  0  0  0  0  0  0
  -13.0319    6.5138    0.0000 C   0  0  0  0  0  0  0  0  0  0  0  0
  -13.6326    5.1393    0.0000 C   0  0  0  0  0  0  0  0  0  0  0  0
  -14.0887    3.7103    0.0000 C   0  0  0  0  0  0  0  0  0  0  0  0
  -14.3956    2.2420    0.0000 C   0  0  0  0  0  0  0  0  0  0  0  0
  -14.5498    0.7500    0.0000 C   0  0  0  0  0  0  0  0  0  0  0  0
  -14.5498   -0.7500    0.0000 C   0  0  0  0  0  0  0  0  0  0  0  0
  -14.3956   -2.2420    0.0000 C   0  0  0  0  0  0  0  0  0  0  0  0
  -14.0887   -3.7103    0.0000 C   0  0  0  0  0  0  0  0  0  0  0  0
  -13.6326   -5.1393    0.0000 C   0  0  0  0  0  0  0  0  0  0  0  0
  -13.0319   -6.5138    0.0000 C   0  0  0  0  0  0  0  0  0  0  0  0
  -12.2931   -7.8192    0.0000 C   0  0  0  0  0  0  0  0  0  0  0  0
  -11.4239   -9.0417    0.0000 C   0  0  0  0  0  0  0  0  0  0  0  0
  -10.4337  -10.1684    0.0000 C   0  0  0  0  0  0  0  0  0  0  0  0
   -9.3329  -11.1873    0.0000 C   0  0  0  0  0  0  0  0  0  0  0  0
   -8.1331  -12.0877    0.0000 C   0  0  0  0  0  0  0  0  0  0  0  0
   -6.8471  -12.8599    0.0000 C   0  0  0  0  0  0  0  0  0  0  0  0
   -5.4886  -13.4957    0.0000 C   0  0  0  0  0  0  0  0  0  0  0  0
   -4.0719  -13.9885    0.0000 C   0  0  0  0  0  0  0  0  0  0  0  0
   -2.6120  -14.3331    0.0000 C   0  0  0  0  0  0  0  0  0  0  0  0
   -1.1244  -14.5257    0.0000 C   0  0  0  0  0  0  0  0  0  0  0  0
    0.3751  -14.5643    0.0000 C   0  0  0  0  0  0  0  0  0  0  0  0
    1.8707  -14.4485    0.0000 C   0  0  0  0  0  0  0  0  0  0  0  0
    3.3463  -14.1796    0.0000 C   0  0  0  0  0  0  0  0  0  0  0  0
    4.7866  -13.7604    0.0000 C   0  0  0  0  0  0  0  0  0  0  0  0
    6.1761  -13.1953    0.0000 C   0  0  0  0  0  0  0  0  0  0  0  0
    7.5001  -12.4903    0.0000 C   0  0  0  0  0  0  0  0  0  0  0  0
    8.7446  -11.6530    0.0000 C   0  0  0  0  0  0  0  0  0  0  0  0
    9.8964  -10.6921    0.0000 C   0  0  0  0  0  0  0  0  0  0  0  0
   10.9433   -9.6178    0.0000 C   0  0  0  0  0  0  0  0  0  0  0  0
   11.8742   -8.4417    0.0000 C   0  0  0  0  0  0  0  0  0  0  0  0
   12.6793   -7.1760    0.0000 C   0  0  0  0  0  0  0  0  0  0  0  0
   13.3499   -5.8343    0.0000 C   0  0  0  0  0  0  0  0  0  0  0  0
   13.8791   -4.4307    0.0000 C   0  0  0  0  0  0  0  0  0  0  0  0
   14.2611   -2.9801    0.0000 C   0  0  0  0  0  0  0  0  0  0  0  0
   14.4919   -1.4980    0.0000 C   0  0  0  0  0  0  0  0  0  0  0  0
  1  2  1  0
  2  3  1  0
  3  4  1  0
  4  5  1  0
  5  6  1  0
  6  7  1  0
  7  8  1  0
  8  9  1  0
  9 10  1  0
 10 11  1  0
 11 12  1  0
 12 13  1  0
 13 14  1  0
 14 15  1  0
 15 16  1  0
 16 17  1  0
 17 18  1  0
 18 19  1  0
 19 20  1  0
 20 21  1  0
 21 22  1  0
 22 23  1  0
 23 24  1  0
 24 25  1  0
 25 26  1  0
 26 27  1  0
 27 28  1  0
 28 29  1  0
 29 30  1  0
 30 31  1  0
 31 32  1  0
 32 33  1  0
 33 34  1  0
 34 35  1  0
 35 36  1  0
 36 37  1  0
 37 38  1  0
 38 39  1  0
 39 40  1  0
 40 41  1  0
 41 42  1  0
 42 43  1  0
 43 44  1  0
 44 45  1  0
 45 46  1  0
 46 47  1  0
 47 48  1  0
 48 49  1  0
 49 50  1  0
 50 51  1  0
 51 52  1  0
 52 53  1  0
 53 54  1  0
 54 55  1  0
 55 56  1  0
 56 57  1  0
 57 58  1  0
 58 59  1  0
 59 60  1  0
 60 61  1  0
 61 62  1  0
 62  2  1  0
M  END
>  <Title>  (993) 
idABKKgen7

$$$$

     RDKit          2D

 19 19  0  0  0  0  0  0  0  0999 V2000
    5.8191    0.0000    0.0000 N   0  0  0  0  0  0  0  0  0  0  0  0
    4.3191    0.0000    0.0000 C   0  0  0  0  0  0  0  0  0  0  0  0
    4.0586   -1.4772    0.0000 C   0  0  0  0  0  0  0  0  0  0  0  0
    3.3086   -2.7762    0.0000 C   0  0  0  0  0  0  0  0  0  0  0  0
    2.1595   -3.7404    0.0000 C   0  0  0  0  0  0  0  0  0  0  0  0
    0.7500   -4.2535    0.0000 C   0  0  0  0  0  0  0  0  0  0  0  0
   -0.7500   -4.2535    0.0000 C   0  0  0  0  0  0  0  0  0  0  0  0
   -2.1595   -3.7404    0.0000 C   0  0  0  0  0  0  0  0  0  0  0  0
   -3.3086   -2.7762    0.0000 C   0  0  0  0  0  0  0  0  0  0  0  0
   -4.0586   -1.4772    0.0000 C   0  0  0  0  0  0  0  0  0  0  0  0
   -4.3191    0.0000    0.0000 C   0  0  0  0  0  0  0  0  0  0  0  0
   -4.0586    1.4772    0.0000 C   0  0  0  0  0  0  0  0  0  0  0  0
   -3.3086    2.7762    0.0000 C   0  0  0  0  0  0  0  0  0  0  0  0
   -2.1595    3.7404    0.0000 C   0  0  0  0  0  0  0  0  0  0  0  0
   -0.7500    4.2535    0.0000 C   0  0  0  0  0  0  0  0  0  0  0  0
    0.7500    4.2535    0.0000 C   0  0  0  0  0  0  0  0  0  0  0  0
    2.1595    3.7404    0.0000 C   0  0  0  0  0  0  0  0  0  0  0  0
    3.3086    2.7762    0.0000 C   0  0  0  0  0  0  0  0  0  0  0  0
    4.0586    1.4772    0.0000 C   0  0  0  0  0  0  0  0  0  0  0  0
  1  2  1  0
  2  3  1  0
  3  4  1  0
  4  5  2  0
  5  6  1  0
  6  7  2  0
  7  8  1  0
  8  9  1  0
  9 10  1  0
 10 11  1  0
 11 12  1  0
 12 13  1  0
 13 14  1  0
 14 15  1  0
 15 16  1  0
 16 17  2  0
 17 18  1  0
 18 19  1  0
 19  2  1  0
M  END
>  <Title>  (994) 
idABKLgen7

$$$$

     RDKit          2D

  9  9  0  0  0  0  0  0  0  0999 V2000
    4.2760   -2.5981    0.0000 N   0  0  0  0  0  0  0  0  0  0  0  0
    3.5260   -1.2990    0.0000 C   0  0  0  0  0  0  0  0  0  0  0  0
    2.7760    0.0000    0.0000 C   0  0  0  0  0  0  0  0  0  0  0  0
    3.5260    1.2990    0.0000 O   0  0  0  0  0  0  0  0  0  0  0  0
    1.2760    0.0000    0.0000 C   0  0  0  0  0  0  0  0  0  0  0  0
    0.3943    1.2135    0.0000 C   0  0  0  0  0  0  0  0  0  0  0  0
   -1.0323    0.7500    0.0000 C   0  0  0  0  0  0  0  0  0  0  0  0
   -1.0323   -0.7500    0.0000 C   0  0  0  0  0  0  0  0  0  0  0  0
    0.3943   -1.2135    0.0000 C   0  0  0  0  0  0  0  0  0  0  0  0
  1  2  3  0
  2  3  1  0
  3  4  2  0
  3  5  1  0
  5  6  1  0
  6  7  1  0
  7  8  1  0
  8  9  1  0
  9  5  1  0
M  END
>  <Title>  (995) 
idABKMgen7

$$$$

     RDKit          2D

  9  9  0  0  0  0  0  0  0  0999 V2000
    4.7286   -0.0000    0.0000 N   0  0  0  0  0  0  0  0  0  0  0  0
    3.2286   -0.0000    0.0000 C   0  0  0  0  0  0  0  0  0  0  0  0
    1.7286    0.0000    0.0000 C   0  0  0  0  0  0  0  0  0  0  0  0
    1.0777    1.3515    0.0000 C   0  0  0  0  0  0  0  0  0  0  0  0
   -0.3846    1.6852    0.0000 C   0  0  0  0  0  0  0  0  0  0  0  0
   -1.5574    0.7500    0.0000 C   0  0  0  0  0  0  0  0  0  0  0  0
   -1.5574   -0.7500    0.0000 C   0  0  0  0  0  0  0  0  0  0  0  0
   -0.3846   -1.6852    0.0000 C   0  0  0  0  0  0  0  0  0  0  0  0
    1.0777   -1.3515    0.0000 C   0  0  0  0  0  0  0  0  0  0  0  0
  1  2  3  0
  2  3  1  0
  3  4  2  0
  4  5  1  0
  5  6  1  0
  6  7  1  0
  7  8  1  0
  8  9  1  0
  9  3  1  0
M  END
>  <Title>  (996) 
idABKNgen7

$$$$

     RDKit          2D

125125  0  0  0  0  0  0  0  0999 V2000
   31.1060    0.0000    0.0000 C   0  0  0  0  0  0  0  0  0  0  0  0
   29.6060    0.0000    0.0000 C   0  0  0  0  0  0  0  0  0  0  0  0
   29.5680   -1.4995    0.0000 C   0  0  0  0  0  0  0  0  0  0  0  0
   29.4541   -2.9952    0.0000 C   0  0  0  0  0  0  0  0  0  0  0  0
   29.2646   -4.4832    0.0000 C   0  0  0  0  0  0  0  0  0  0  0  0
   29.0000   -5.9596    0.0000 C   0  0  0  0  0  0  0  0  0  0  0  0
   28.6609   -7.4208    0.0000 C   0  0  0  0  0  0  0  0  0  0  0  0
   28.2482   -8.8629    0.0000 C   0  0  0  0  0  0  0  0  0  0  0  0
   27.7631  -10.2823    0.0000 C   0  0  0  0  0  0  0  0  0  0  0  0
   27.2067  -11.6753    0.0000 C   0  0  0  0  0  0  0  0  0  0  0  0
   26.5804  -13.0383    0.0000 C   0  0  0  0  0  0  0  0  0  0  0  0
   25.8859  -14.3678    0.0000 C   0  0  0  0  0  0  0  0  0  0  0  0
   25.1250  -15.6605    0.0000 C   0  0  0  0  0  0  0  0  0  0  0  0
   24.2995  -16.9130    0.0000 C   0  0  0  0  0  0  0  0  0  0  0  0
   23.4117  -18.1220    0.0000 C   0  0  0  0  0  0  0  0  0  0  0  0
   22.4638  -19.2845    0.0000 C   0  0  0  0  0  0  0  0  0  0  0  0
   21.4582  -20.3975    0.0000 C   0  0  0  0  0  0  0  0  0  0  0  0
   20.3975  -21.4582    0.0000 C   0  0  0  0  0  0  0  0  0  0  0  0
   19.2845  -22.4638    0.0000 C   0  0  0  0  0  0  0  0  0  0  0  0
   18.1220  -23.4117    0.0000 C   0  0  0  0  0  0  0  0  0  0  0  0
   16.9130  -24.2995    0.0000 C   0  0  0  0  0  0  0  0  0  0  0  0
   15.6605  -25.1250    0.0000 C   0  0  0  0  0  0  0  0  0  0  0  0
   14.3678  -25.8859    0.0000 C   0  0  0  0  0  0  0  0  0  0  0  0
   13.0383  -26.5804    0.0000 C   0  0  0  0  0  0  0  0  0  0  0  0
   11.6753  -27.2067    0.0000 C   0  0  0  0  0  0  0  0  0  0  0  0
   10.2823  -27.7631    0.0000 C   0  0  0  0  0  0  0  0  0  0  0  0
    8.8629  -28.2482    0.0000 C   0  0  0  0  0  0  0  0  0  0  0  0
    7.4208  -28.6609    0.0000 C   0  0  0  0  0  0  0  0  0  0  0  0
    5.9596  -29.0000    0.0000 C   0  0  0  0  0  0  0  0  0  0  0  0
    4.4832  -29.2646    0.0000 C   0  0  0  0  0  0  0  0  0  0  0  0
    2.9952  -29.4541    0.0000 C   0  0  0  0  0  0  0  0  0  0  0  0
    1.4995  -29.5680    0.0000 C   0  0  0  0  0  0  0  0  0  0  0  0
   -0.0000  -29.6060    0.0000 C   0  0  0  0  0  0  0  0  0  0  0  0
   -1.4995  -29.5680    0.0000 C   0  0  0  0  0  0  0  0  0  0  0  0
   -2.9952  -29.4541    0.0000 C   0  0  0  0  0  0  0  0  0  0  0  0
   -4.4832  -29.2646    0.0000 C   0  0  0  0  0  0  0  0  0  0  0  0
   -5.9596  -29.0000    0.0000 C   0  0  0  0  0  0  0  0  0  0  0  0
   -7.4208  -28.6609    0.0000 C   0  0  0  0  0  0  0  0  0  0  0  0
   -8.8629  -28.2482    0.0000 C   0  0  0  0  0  0  0  0  0  0  0  0
  -10.2823  -27.7631    0.0000 C   0  0  0  0  0  0  0  0  0  0  0  0
  -11.6753  -27.2067    0.0000 C   0  0  0  0  0  0  0  0  0  0  0  0
  -13.0383  -26.5804    0.0000 C   0  0  0  0  0  0  0  0  0  0  0  0
  -14.3678  -25.8859    0.0000 C   0  0  0  0  0  0  0  0  0  0  0  0
  -15.6605  -25.1250    0.0000 C   0  0  0  0  0  0  0  0  0  0  0  0
  -16.9130  -24.2995    0.0000 C   0  0  0  0  0  0  0  0  0  0  0  0
  -18.1220  -23.4117    0.0000 C   0  0  0  0  0  0  0  0  0  0  0  0
  -19.2845  -22.4638    0.0000 C   0  0  0  0  0  0  0  0  0  0  0  0
  -20.3975  -21.4582    0.0000 C   0  0  0  0  0  0  0  0  0  0  0  0
  -21.4582  -20.3975    0.0000 C   0  0  0  0  0  0  0  0  0  0  0  0
  -22.4638  -19.2845    0.0000 C   0  0  0  0  0  0  0  0  0  0  0  0
  -23.4117  -18.1220    0.0000 C   0  0  0  0  0  0  0  0  0  0  0  0
  -24.2995  -16.9130    0.0000 C   0  0  0  0  0  0  0  0  0  0  0  0
  -25.1250  -15.6605    0.0000 C   0  0  0  0  0  0  0  0  0  0  0  0
  -25.8859  -14.3678    0.0000 C   0  0  0  0  0  0  0  0  0  0  0  0
  -26.5804  -13.0383    0.0000 C   0  0  0  0  0  0  0  0  0  0  0  0
  -27.2067  -11.6753    0.0000 C   0  0  0  0  0  0  0  0  0  0  0  0
  -27.7631  -10.2823    0.0000 C   0  0  0  0  0  0  0  0  0  0  0  0
  -28.2482   -8.8629    0.0000 C   0  0  0  0  0  0  0  0  0  0  0  0
  -28.6609   -7.4208    0.0000 C   0  0  0  0  0  0  0  0  0  0  0  0
  -29.0000   -5.9596    0.0000 C   0  0  0  0  0  0  0  0  0  0  0  0
  -29.2646   -4.4832    0.0000 C   0  0  0  0  0  0  0  0  0  0  0  0
  -29.4541   -2.9952    0.0000 C   0  0  0  0  0  0  0  0  0  0  0  0
  -29.5680   -1.4995    0.0000 C   0  0  0  0  0  0  0  0  0  0  0  0
  -29.6060    0.0000    0.0000 C   0  0  0  0  0  0  0  0  0  0  0  0
  -29.5680    1.4995    0.0000 C   0  0  0  0  0  0  0  0  0  0  0  0
  -29.4541    2.9952    0.0000 C   0  0  0  0  0  0  0  0  0  0  0  0
  -29.2646    4.4832    0.0000 C   0  0  0  0  0  0  0  0  0  0  0  0
  -29.0000    5.9596    0.0000 C   0  0  0  0  0  0  0  0  0  0  0  0
  -28.6609    7.4208    0.0000 C   0  0  0  0  0  0  0  0  0  0  0  0
  -28.2482    8.8629    0.0000 C   0  0  0  0  0  0  0  0  0  0  0  0
  -27.7631   10.2823    0.0000 C   0  0  0  0  0  0  0  0  0  0  0  0
  -27.2067   11.6753    0.0000 C   0  0  0  0  0  0  0  0  0  0  0  0
  -26.5804   13.0383    0.0000 C   0  0  0  0  0  0  0  0  0  0  0  0
  -25.8859   14.3678    0.0000 C   0  0  0  0  0  0  0  0  0  0  0  0
  -25.1250   15.6605    0.0000 C   0  0  0  0  0  0  0  0  0  0  0  0
  -24.2995   16.9130    0.0000 C   0  0  0  0  0  0  0  0  0  0  0  0
  -23.4117   18.1220    0.0000 C   0  0  0  0  0  0  0  0  0  0  0  0
  -22.4638   19.2845    0.0000 C   0  0  0  0  0  0  0  0  0  0  0  0
  -21.4582   20.3975    0.0000 C   0  0  0  0  0  0  0  0  0  0  0  0
  -20.3975   21.4582    0.0000 C   0  0  0  0  0  0  0  0  0  0  0  0
  -19.2845   22.4638    0.0000 C   0  0  0  0  0  0  0  0  0  0  0  0
  -18.1220   23.4117    0.0000 C   0  0  0  0  0  0  0  0  0  0  0  0
  -16.9130   24.2995    0.0000 C   0  0  0  0  0  0  0  0  0  0  0  0
  -15.6605   25.1250    0.0000 C   0  0  0  0  0  0  0  0  0  0  0  0
  -14.3678   25.8859    0.0000 C   0  0  0  0  0  0  0  0  0  0  0  0
  -13.0383   26.5804    0.0000 C   0  0  0  0  0  0  0  0  0  0  0  0
  -11.6753   27.2067    0.0000 C   0  0  0  0  0  0  0  0  0  0  0  0
  -10.2823   27.7631    0.0000 C   0  0  0  0  0  0  0  0  0  0  0  0
   -8.8629   28.2482    0.0000 C   0  0  0  0  0  0  0  0  0  0  0  0
   -7.4208   28.6609    0.0000 C   0  0  0  0  0  0  0  0  0  0  0  0
   -5.9596   29.0000    0.0000 C   0  0  0  0  0  0  0  0  0  0  0  0
   -4.4832   29.2646    0.0000 C   0  0  0  0  0  0  0  0  0  0  0  0
   -2.9952   29.4541    0.0000 C   0  0  0  0  0  0  0  0  0  0  0  0
   -1.4995   29.5680    0.0000 C   0  0  0  0  0  0  0  0  0  0  0  0
    0.0000   29.6060    0.0000 C   0  0  0  0  0  0  0  0  0  0  0  0
    1.4995   29.5680    0.0000 C   0  0  0  0  0  0  0  0  0  0  0  0
    2.9952   29.4541    0.0000 C   0  0  0  0  0  0  0  0  0  0  0  0
    4.4832   29.2646    0.0000 C   0  0  0  0  0  0  0  0  0  0  0  0
    5.9596   29.0000    0.0000 C   0  0  0  0  0  0  0  0  0  0  0  0
    7.4208   28.6609    0.0000 C   0  0  0  0  0  0  0  0  0  0  0  0
    8.8629   28.2482    0.0000 C   0  0  0  0  0  0  0  0  0  0  0  0
   10.2823   27.7631    0.0000 C   0  0  0  0  0  0  0  0  0  0  0  0
   11.6753   27.2067    0.0000 C   0  0  0  0  0  0  0  0  0  0  0  0
   13.0383   26.5804    0.0000 C   0  0  0  0  0  0  0  0  0  0  0  0
   14.3678   25.8859    0.0000 C   0  0  0  0  0  0  0  0  0  0  0  0
   15.6605   25.1250    0.0000 C   0  0  0  0  0  0  0  0  0  0  0  0
   16.9130   24.2995    0.0000 C   0  0  0  0  0  0  0  0  0  0  0  0
   18.1220   23.4117    0.0000 C   0  0  0  0  0  0  0  0  0  0  0  0
   19.2845   22.4638    0.0000 C   0  0  0  0  0  0  0  0  0  0  0  0
   20.3975   21.4582    0.0000 C   0  0  0  0  0  0  0  0  0  0  0  0
   21.4582   20.3975    0.0000 C   0  0  0  0  0  0  0  0  0  0  0  0
   22.4638   19.2845    0.0000 C   0  0  0  0  0  0  0  0  0  0  0  0
   23.4117   18.1220    0.0000 C   0  0  0  0  0  0  0  0  0  0  0  0
   24.2995   16.9130    0.0000 C   0  0  0  0  0  0  0  0  0  0  0  0
   25.1250   15.6605    0.0000 C   0  0  0  0  0  0  0  0  0  0  0  0
   25.8859   14.3678    0.0000 C   0  0  0  0  0  0  0  0  0  0  0  0
   26.5804   13.0383    0.0000 C   0  0  0  0  0  0  0  0  0  0  0  0
   27.2067   11.6753    0.0000 C   0  0  0  0  0  0  0  0  0  0  0  0
   27.7631   10.2823    0.0000 C   0  0  0  0  0  0  0  0  0  0  0  0
   28.2482    8.8629    0.0000 C   0  0  0  0  0  0  0  0  0  0  0  0
   28.6609    7.4208    0.0000 C   0  0  0  0  0  0  0  0  0  0  0  0
   29.0000    5.9596    0.0000 C   0  0  0  0  0  0  0  0  0  0  0  0
   29.2646    4.4832    0.0000 C   0  0  0  0  0  0  0  0  0  0  0  0
   29.4541    2.9952    0.0000 C   0  0  0  0  0  0  0  0  0  0  0  0
   29.5680    1.4995    0.0000 C   0  0  0  0  0  0  0  0  0  0  0  0
  1  2  1  0
  2  3  1  0
  3  4  1  0
  4  5  1  0
  5  6  1  0
  6  7  1  0
  7  8  1  0
  8  9  1  0
  9 10  1  0
 10 11  1  0
 11 12  1  0
 12 13  1  0
 13 14  1  0
 14 15  1  0
 15 16  1  0
 16 17  1  0
 17 18  1  0
 18 19  1  0
 19 20  1  0
 20 21  1  0
 21 22  1  0
 22 23  1  0
 23 24  1  0
 24 25  1  0
 25 26  1  0
 26 27  1  0
 27 28  1  0
 28 29  1  0
 29 30  1  0
 30 31  1  0
 31 32  1  0
 32 33  1  0
 33 34  1  0
 34 35  1  0
 35 36  1  0
 36 37  1  0
 37 38  1  0
 38 39  1  0
 39 40  1  0
 40 41  1  0
 41 42  1  0
 42 43  1  0
 43 44  1  0
 44 45  1  0
 45 46  1  0
 46 47  1  0
 47 48  1  0
 48 49  1  0
 49 50  1  0
 50 51  1  0
 51 52  1  0
 52 53  1  0
 53 54  1  0
 54 55  1  0
 55 56  1  0
 56 57  1  0
 57 58  1  0
 58 59  1  0
 59 60  1  0
 60 61  1  0
 61 62  1  0
 62 63  1  0
 63 64  1  0
 64 65  1  0
 65 66  1  0
 66 67  1  0
 67 68  1  0
 68 69  1  0
 69 70  1  0
 70 71  1  0
 71 72  1  0
 72 73  1  0
 73 74  1  0
 74 75  1  0
 75 76  1  0
 76 77  1  0
 77 78  1  0
 78 79  1  0
 79 80  1  0
 80 81  1  0
 81 82  1  0
 82 83  1  0
 83 84  1  0
 84 85  1  0
 85 86  1  0
 86 87  1  0
 87 88  1  0
 88 89  1  0
 89 90  1  0
 90 91  1  0
 91 92  1  0
 92 93  1  0
 93 94  1  0
 94 95  1  0
 95 96  1  0
 96 97  1  0
 97 98  1  0
 98 99  1  0
 99100  1  0
100101  1  0
101102  1  0
102103  1  0
103104  1  0
104105  1  0
105106  1  0
106107  1  0
107108  1  0
108109  1  0
109110  1  0
110111  1  0
111112  1  0
112113  1  0
113114  1  0
114115  1  0
115116  1  0
116117  1  0
117118  1  0
118119  1  0
119120  1  0
120121  1  0
121122  1  0
122123  1  0
123124  1  0
124125  1  0
125  2  1  0
M  END
>  <Title>  (997) 
idABKOgen7

$$$$

     RDKit          2D

  6  6  0  0  0  0  0  0  0  0999 V2000
    2.7760    0.0000    0.0000 N   0  0  0  0  0  0  0  0  0  0  0  0
    1.2760    0.0000    0.0000 C   0  0  0  0  0  0  0  0  0  0  0  0
    0.3943    1.2135    0.0000 C   0  0  0  0  0  0  0  0  0  0  0  0
   -1.0323    0.7500    0.0000 C   0  0  0  0  0  0  0  0  0  0  0  0
   -1.0323   -0.7500    0.0000 C   0  0  0  0  0  0  0  0  0  0  0  0
    0.3943   -1.2135    0.0000 C   0  0  0  0  0  0  0  0  0  0  0  0
  1  2  1  0
  2  3  2  0
  3  4  1  0
  4  5  1  0
  5  6  1  0
  6  2  1  0
M  END
>  <Title>  (998) 
idABKPgen7

$$$$

     RDKit          2D

  7  7  0  0  0  0  0  0  0  0999 V2000
    4.2760   -0.0000    0.0000 N   0  0  0  0  0  0  0  0  0  0  0  0
    2.7760    0.0000    0.0000 C   0  0  0  0  0  0  0  0  0  0  0  0
    1.2760    0.0000    0.0000 C   0  0  0  0  0  0  0  0  0  0  0  0
    0.3943    1.2135    0.0000 C   0  0  0  0  0  0  0  0  0  0  0  0
   -1.0323    0.7500    0.0000 C   0  0  0  0  0  0  0  0  0  0  0  0
   -1.0323   -0.7500    0.0000 C   0  0  0  0  0  0  0  0  0  0  0  0
    0.3943   -1.2135    0.0000 C   0  0  0  0  0  0  0  0  0  0  0  0
  1  2  3  0
  2  3  1  0
  3  4  2  0
  4  5  1  0
  5  6  1  0
  6  7  2  0
  7  3  1  0
M  END
>  <Title>  (999) 
idABKQgen7

$$$$

     RDKit          2D

 61 61  0  0  0  0  0  0  0  0999 V2000
   15.8305    0.0000    0.0000 C   0  0  0  0  0  0  0  0  0  0  0  0
   14.3305    0.0000    0.0000 C   0  0  0  0  0  0  0  0  0  0  0  0
   14.2520   -1.4979    0.0000 C   0  0  0  0  0  0  0  0  0  0  0  0
   14.0173   -2.9795    0.0000 C   0  0  0  0  0  0  0  0  0  0  0  0
   13.6291   -4.4284    0.0000 C   0  0  0  0  0  0  0  0  0  0  0  0
   13.0916   -5.8287    0.0000 C   0  0  0  0  0  0  0  0  0  0  0  0
   12.4106   -7.1652    0.0000 C   0  0  0  0  0  0  0  0  0  0  0  0
   11.5936   -8.4233    0.0000 C   0  0  0  0  0  0  0  0  0  0  0  0
   10.6496   -9.5890    0.0000 C   0  0  0  0  0  0  0  0  0  0  0  0
    9.5890  -10.6496    0.0000 C   0  0  0  0  0  0  0  0  0  0  0  0
    8.4233  -11.5936    0.0000 C   0  0  0  0  0  0  0  0  0  0  0  0
    7.1652  -12.4106    0.0000 C   0  0  0  0  0  0  0  0  0  0  0  0
    5.8287  -13.0916    0.0000 C   0  0  0  0  0  0  0  0  0  0  0  0
    4.4284  -13.6291    0.0000 C   0  0  0  0  0  0  0  0  0  0  0  0
    2.9795  -14.0173    0.0000 C   0  0  0  0  0  0  0  0  0  0  0  0
    1.4979  -14.2520    0.0000 C   0  0  0  0  0  0  0  0  0  0  0  0
   -0.0000  -14.3305    0.0000 C   0  0  0  0  0  0  0  0  0  0  0  0
   -1.4979  -14.2520    0.0000 C   0  0  0  0  0  0  0  0  0  0  0  0
   -2.9795  -14.0173    0.0000 C   0  0  0  0  0  0  0  0  0  0  0  0
   -4.4284  -13.6291    0.0000 C   0  0  0  0  0  0  0  0  0  0  0  0
   -5.8287  -13.0916    0.0000 C   0  0  0  0  0  0  0  0  0  0  0  0
   -7.1652  -12.4106    0.0000 C   0  0  0  0  0  0  0  0  0  0  0  0
   -8.4233  -11.5936    0.0000 C   0  0  0  0  0  0  0  0  0  0  0  0
   -9.5890  -10.6496    0.0000 C   0  0  0  0  0  0  0  0  0  0  0  0
  -10.6496   -9.5890    0.0000 C   0  0  0  0  0  0  0  0  0  0  0  0
  -11.5936   -8.4233    0.0000 C   0  0  0  0  0  0  0  0  0  0  0  0
  -12.4106   -7.1652    0.0000 C   0  0  0  0  0  0  0  0  0  0  0  0
  -13.0916   -5.8287    0.0000 C   0  0  0  0  0  0  0  0  0  0  0  0
  -13.6291   -4.4284    0.0000 C   0  0  0  0  0  0  0  0  0  0  0  0
  -14.0173   -2.9795    0.0000 C   0  0  0  0  0  0  0  0  0  0  0  0
  -14.2520   -1.4979    0.0000 C   0  0  0  0  0  0  0  0  0  0  0  0
  -14.3305    0.0000    0.0000 C   0  0  0  0  0  0  0  0  0  0  0  0
  -14.2520    1.4979    0.0000 C   0  0  0  0  0  0  0  0  0  0  0  0
  -14.0173    2.9795    0.0000 C   0  0  0  0  0  0  0  0  0  0  0  0
  -13.6291    4.4284    0.0000 C   0  0  0  0  0  0  0  0  0  0  0  0
  -13.0916    5.8287    0.0000 C   0  0  0  0  0  0  0  0  0  0  0  0
  -12.4106    7.1652    0.0000 C   0  0  0  0  0  0  0  0  0  0  0  0
  -11.5936    8.4233    0.0000 C   0  0  0  0  0  0  0  0  0  0  0  0
  -10.6496    9.5890    0.0000 C   0  0  0  0  0  0  0  0  0  0  0  0
   -9.5890   10.6496    0.0000 C   0  0  0  0  0  0  0  0  0  0  0  0
   -8.4233   11.5936    0.0000 C   0  0  0  0  0  0  0  0  0  0  0  0
   -7.1652   12.4106    0.0000 C   0  0  0  0  0  0  0  0  0  0  0  0
   -5.8287   13.0916    0.0000 C   0  0  0  0  0  0  0  0  0  0  0  0
   -4.4284   13.6291    0.0000 C   0  0  0  0  0  0  0  0  0  0  0  0
   -2.9795   14.0173    0.0000 C   0  0  0  0  0  0  0  0  0  0  0  0
   -1.4979   14.2520    0.0000 C   0  0  0  0  0  0  0  0  0  0  0  0
    0.0000   14.3305    0.0000 C   0  0  0  0  0  0  0  0  0  0  0  0
    1.4979   14.2520    0.0000 C   0  0  0  0  0  0  0  0  0  0  0  0
    2.9795   14.0173    0.0000 C   0  0  0  0  0  0  0  0  0  0  0  0
    4.4284   13.6291    0.0000 C   0  0  0  0  0  0  0  0  0  0  0  0
    5.8287   13.0916    0.0000 C   0  0  0  0  0  0  0  0  0  0  0  0
    7.1652   12.4106    0.0000 C   0  0  0  0  0  0  0  0  0  0  0  0
    8.4233   11.5936    0.0000 C   0  0  0  0  0  0  0  0  0  0  0  0
    9.5890   10.6496    0.0000 C   0  0  0  0  0  0  0  0  0  0  0  0
   10.6496    9.5890    0.0000 C   0  0  0  0  0  0  0  0  0  0  0  0
   11.5936    8.4233    0.0000 C   0  0  0  0  0  0  0  0  0  0  0  0
   12.4106    7.1652    0.0000 C   0  0  0  0  0  0  0  0  0  0  0  0
   13.0916    5.8287    0.0000 C   0  0  0  0  0  0  0  0  0  0  0  0
   13.6291    4.4284    0.0000 C   0  0  0  0  0  0  0  0  0  0  0  0
   14.0173    2.9795    0.0000 C   0  0  0  0  0  0  0  0  0  0  0  0
   14.2520    1.4979    0.0000 C   0  0  0  0  0  0  0  0  0  0  0  0
  1  2  1  0
  2  3  1  0
  3  4  1  0
  4  5  1  0
  5  6  2  0
  6  7  1  0
  7  8  2  0
  8  9  1  0
  9 10  1  0
 10 11  1  0
 11 12  1  0
 12 13  1  0
 13 14  1  0
 14 15  1  0
 15 16  1  0
 16 17  1  0
 17 18  1  0
 18 19  1  0
 19 20  1  0
 20 21  1  0
 21 22  1  0
 22 23  1  0
 23 24  1  0
 24 25  1  0
 25 26  1  0
 26 27  1  0
 27 28  1  0
 28 29  1  0
 29 30  1  0
 30 31  1  0
 31 32  1  0
 32 33  1  0
 33 34  1  0
 34 35  1  0
 35 36  1  0
 36 37  1  0
 37 38  1  0
 38 39  1  0
 39 40  1  0
 40 41  1  0
 41 42  1  0
 42 43  1  0
 43 44  1  0
 44 45  1  0
 45 46  1  0
 46 47  1  0
 47 48  1  0
 48 49  1  0
 49 50  1  0
 50 51  1  0
 51 52  1  0
 52 53  1  0
 53 54  1  0
 54 55  1  0
 55 56  1  0
 56 57  1  0
 57 58  1  0
 58 59  1  0
 59 60  1  0
 60 61  1  0
 61  2  1  0
M  END
>  <Title>  (1000) 
idABKRgen7

$$$$

     RDKit          2D

 41 41  0  0  0  0  0  0  0  0999 V2000
   12.3206   -0.0000    0.0000 N   0  0  0  0  0  0  0  0  0  0  0  0
   10.8206    0.0000    0.0000 C   0  0  0  0  0  0  0  0  0  0  0  0
    9.3206    0.0000    0.0000 C   0  0  0  0  0  0  0  0  0  0  0  0
    9.1999    1.4951    0.0000 C   0  0  0  0  0  0  0  0  0  0  0  0
    8.8410    2.9515    0.0000 C   0  0  0  0  0  0  0  0  0  0  0  0
    8.2530    4.3315    0.0000 C   0  0  0  0  0  0  0  0  0  0  0  0
    7.4513    5.5993    0.0000 C   0  0  0  0  0  0  0  0  0  0  0  0
    6.4566    6.7221    0.0000 C   0  0  0  0  0  0  0  0  0  0  0  0
    5.2947    7.6707    0.0000 C   0  0  0  0  0  0  0  0  0  0  0  0
    3.9957    8.4207    0.0000 C   0  0  0  0  0  0  0  0  0  0  0  0
    2.5932    8.9526    0.0000 C   0  0  0  0  0  0  0  0  0  0  0  0
    1.1235    9.2527    0.0000 C   0  0  0  0  0  0  0  0  0  0  0  0
   -0.3753    9.3131    0.0000 C   0  0  0  0  0  0  0  0  0  0  0  0
   -1.8644    9.1323    0.0000 C   0  0  0  0  0  0  0  0  0  0  0  0
   -3.3051    8.7150    0.0000 C   0  0  0  0  0  0  0  0  0  0  0  0
   -4.6603    8.0719    0.0000 C   0  0  0  0  0  0  0  0  0  0  0  0
   -5.8948    7.2198    0.0000 C   0  0  0  0  0  0  0  0  0  0  0  0
   -6.9766    6.1807    0.0000 C   0  0  0  0  0  0  0  0  0  0  0  0
   -7.8777    4.9816    0.0000 C   0  0  0  0  0  0  0  0  0  0  0  0
   -8.5748    3.6534    0.0000 C   0  0  0  0  0  0  0  0  0  0  0  0
   -9.0498    2.2306    0.0000 C   0  0  0  0  0  0  0  0  0  0  0  0
   -9.2904    0.7500    0.0000 C   0  0  0  0  0  0  0  0  0  0  0  0
   -9.2904   -0.7500    0.0000 C   0  0  0  0  0  0  0  0  0  0  0  0
   -9.0498   -2.2306    0.0000 C   0  0  0  0  0  0  0  0  0  0  0  0
   -8.5748   -3.6534    0.0000 C   0  0  0  0  0  0  0  0  0  0  0  0
   -7.8777   -4.9816    0.0000 C   0  0  0  0  0  0  0  0  0  0  0  0
   -6.9766   -6.1807    0.0000 C   0  0  0  0  0  0  0  0  0  0  0  0
   -5.8948   -7.2198    0.0000 C   0  0  0  0  0  0  0  0  0  0  0  0
   -4.6603   -8.0719    0.0000 C   0  0  0  0  0  0  0  0  0  0  0  0
   -3.3051   -8.7150    0.0000 C   0  0  0  0  0  0  0  0  0  0  0  0
   -1.8644   -9.1323    0.0000 C   0  0  0  0  0  0  0  0  0  0  0  0
   -0.3753   -9.3131    0.0000 C   0  0  0  0  0  0  0  0  0  0  0  0
    1.1235   -9.2527    0.0000 C   0  0  0  0  0  0  0  0  0  0  0  0
    2.5932   -8.9526    0.0000 C   0  0  0  0  0  0  0  0  0  0  0  0
    3.9957   -8.4207    0.0000 C   0  0  0  0  0  0  0  0  0  0  0  0
    5.2947   -7.6707    0.0000 C   0  0  0  0  0  0  0  0  0  0  0  0
    6.4566   -6.7221    0.0000 C   0  0  0  0  0  0  0  0  0  0  0  0
    7.4513   -5.5993    0.0000 C   0  0  0  0  0  0  0  0  0  0  0  0
    8.2530   -4.3315    0.0000 C   0  0  0  0  0  0  0  0  0  0  0  0
    8.8410   -2.9515    0.0000 C   0  0  0  0  0  0  0  0  0  0  0  0
    9.1999   -1.4951    0.0000 C   0  0  0  0  0  0  0  0  0  0  0  0
  1  2  3  0
  2  3  1  0
  3  4  1  0
  4  5  1  0
  5  6  1  0
  6  7  1  0
  7  8  1  0
  8  9  1  0
  9 10  1  0
 10 11  1  0
 11 12  1  0
 12 13  1  0
 13 14  1  0
 14 15  1  0
 15 16  1  0
 16 17  1  0
 17 18  1  0
 18 19  1  0
 19 20  1  0
 20 21  1  0
 21 22  1  0
 22 23  1  0
 23 24  1  0
 24 25  1  0
 25 26  1  0
 26 27  1  0
 27 28  1  0
 28 29  1  0
 29 30  1  0
 30 31  1  0
 31 32  1  0
 32 33  1  0
 33 34  1  0
 34 35  1  0
 35 36  1  0
 36 37  1  0
 37 38  1  0
 38 39  1  0
 39 40  1  0
 40 41  1  0
 41  3  1  0
M  END
>  <Title>  (1001) 
idABKSgen7

$$$$

     RDKit          2D

 60 60  0  0  0  0  0  0  0  0999 V2000
   15.5919    0.0000    0.0000 C   0  0  0  0  0  0  0  0  0  0  0  0
   14.0919    0.0000    0.0000 C   0  0  0  0  0  0  0  0  0  0  0  0
   14.0120    1.4979    0.0000 C   0  0  0  0  0  0  0  0  0  0  0  0
   13.7734    2.9788    0.0000 C   0  0  0  0  0  0  0  0  0  0  0  0
   13.3788    4.4259    0.0000 C   0  0  0  0  0  0  0  0  0  0  0  0
   12.8325    5.8229    0.0000 C   0  0  0  0  0  0  0  0  0  0  0  0
   12.1409    7.1540    0.0000 C   0  0  0  0  0  0  0  0  0  0  0  0
   11.3117    8.4039    0.0000 C   0  0  0  0  0  0  0  0  0  0  0  0
   10.3543    9.5587    0.0000 C   0  0  0  0  0  0  0  0  0  0  0  0
    9.2797   10.6051    0.0000 C   0  0  0  0  0  0  0  0  0  0  0  0
    8.0998   11.5314    0.0000 C   0  0  0  0  0  0  0  0  0  0  0  0
    6.8282   12.3270    0.0000 C   0  0  0  0  0  0  0  0  0  0  0  0
    5.4793   12.9830    0.0000 C   0  0  0  0  0  0  0  0  0  0  0  0
    4.0682   13.4919    0.0000 C   0  0  0  0  0  0  0  0  0  0  0  0
    2.6111   13.8479    0.0000 C   0  0  0  0  0  0  0  0  0  0  0  0
    1.1243   14.0469    0.0000 C   0  0  0  0  0  0  0  0  0  0  0  0
   -0.3751   14.0869    0.0000 C   0  0  0  0  0  0  0  0  0  0  0  0
   -1.8704   13.9672    0.0000 C   0  0  0  0  0  0  0  0  0  0  0  0
   -3.3444   13.6893    0.0000 C   0  0  0  0  0  0  0  0  0  0  0  0
   -4.7805   13.2562    0.0000 C   0  0  0  0  0  0  0  0  0  0  0  0
   -6.1625   12.6730    0.0000 C   0  0  0  0  0  0  0  0  0  0  0  0
   -7.4746   11.9462    0.0000 C   0  0  0  0  0  0  0  0  0  0  0  0
   -8.7021   11.0840    0.0000 C   0  0  0  0  0  0  0  0  0  0  0  0
   -9.8309   10.0962    0.0000 C   0  0  0  0  0  0  0  0  0  0  0  0
  -10.8484    8.9941    0.0000 C   0  0  0  0  0  0  0  0  0  0  0  0
  -11.7430    7.7900    0.0000 C   0  0  0  0  0  0  0  0  0  0  0  0
  -12.5045    6.4977    0.0000 C   0  0  0  0  0  0  0  0  0  0  0  0
  -13.1243    5.1317    0.0000 C   0  0  0  0  0  0  0  0  0  0  0  0
  -13.5954    3.7076    0.0000 C   0  0  0  0  0  0  0  0  0  0  0  0
  -13.9125    2.2415    0.0000 C   0  0  0  0  0  0  0  0  0  0  0  0
  -14.0719    0.7500    0.0000 C   0  0  0  0  0  0  0  0  0  0  0  0
  -14.0719   -0.7500    0.0000 C   0  0  0  0  0  0  0  0  0  0  0  0
  -13.9125   -2.2415    0.0000 C   0  0  0  0  0  0  0  0  0  0  0  0
  -13.5954   -3.7076    0.0000 C   0  0  0  0  0  0  0  0  0  0  0  0
  -13.1243   -5.1317    0.0000 C   0  0  0  0  0  0  0  0  0  0  0  0
  -12.5045   -6.4977    0.0000 C   0  0  0  0  0  0  0  0  0  0  0  0
  -11.7430   -7.7900    0.0000 C   0  0  0  0  0  0  0  0  0  0  0  0
  -10.8484   -8.9941    0.0000 C   0  0  0  0  0  0  0  0  0  0  0  0
   -9.8309  -10.0962    0.0000 C   0  0  0  0  0  0  0  0  0  0  0  0
   -8.7021  -11.0840    0.0000 C   0  0  0  0  0  0  0  0  0  0  0  0
   -7.4746  -11.9462    0.0000 C   0  0  0  0  0  0  0  0  0  0  0  0
   -6.1625  -12.6730    0.0000 C   0  0  0  0  0  0  0  0  0  0  0  0
   -4.7805  -13.2562    0.0000 C   0  0  0  0  0  0  0  0  0  0  0  0
   -3.3444  -13.6893    0.0000 C   0  0  0  0  0  0  0  0  0  0  0  0
   -1.8704  -13.9672    0.0000 C   0  0  0  0  0  0  0  0  0  0  0  0
   -0.3751  -14.0869    0.0000 C   0  0  0  0  0  0  0  0  0  0  0  0
    1.1243  -14.0469    0.0000 C   0  0  0  0  0  0  0  0  0  0  0  0
    2.6111  -13.8479    0.0000 C   0  0  0  0  0  0  0  0  0  0  0  0
    4.0682  -13.4919    0.0000 C   0  0  0  0  0  0  0  0  0  0  0  0
    5.4793  -12.9830    0.0000 C   0  0  0  0  0  0  0  0  0  0  0  0
    6.8282  -12.3270    0.0000 C   0  0  0  0  0  0  0  0  0  0  0  0
    8.0998  -11.5314    0.0000 C   0  0  0  0  0  0  0  0  0  0  0  0
    9.2797  -10.6051    0.0000 C   0  0  0  0  0  0  0  0  0  0  0  0
   10.3543   -9.5587    0.0000 C   0  0  0  0  0  0  0  0  0  0  0  0
   11.3117   -8.4039    0.0000 C   0  0  0  0  0  0  0  0  0  0  0  0
   12.1409   -7.1540    0.0000 C   0  0  0  0  0  0  0  0  0  0  0  0
   12.8325   -5.8229    0.0000 C   0  0  0  0  0  0  0  0  0  0  0  0
   13.3788   -4.4259    0.0000 C   0  0  0  0  0  0  0  0  0  0  0  0
   13.7734   -2.9788    0.0000 C   0  0  0  0  0  0  0  0  0  0  0  0
   14.0120   -1.4979    0.0000 C   0  0  0  0  0  0  0  0  0  0  0  0
  1  2  1  0
  2  3  1  0
  3  4  2  0
  4  5  1  0
  5  6  2  0
  6  7  1  0
  7  8  2  0
  8  9  1  0
  9 10  2  0
 10 11  1  0
 11 12  2  0
 12 13  1  0
 13 14  2  0
 14 15  1  0
 15 16  2  0
 16 17  1  0
 17 18  2  0
 18 19  1  0
 19 20  2  0
 20 21  1  0
 21 22  2  0
 22 23  1  0
 23 24  2  0
 24 25  1  0
 25 26  1  0
 26 27  1  0
 27 28  1  0
 28 29  1  0
 29 30  1  0
 30 31  1  0
 31 32  1  0
 32 33  1  0
 33 34  1  0
 34 35  1  0
 35 36  1  0
 36 37  1  0
 37 38  1  0
 38 39  1  0
 39 40  1  0
 40 41  1  0
 41 42  1  0
 42 43  1  0
 43 44  1  0
 44 45  1  0
 45 46  1  0
 46 47  1  0
 47 48  1  0
 48 49  1  0
 49 50  1  0
 50 51  1  0
 51 52  1  0
 52 53  1  0
 53 54  1  0
 54 55  1  0
 55 56  1  0
 56 57  1  0
 57 58  2  0
 58 59  1  0
 59 60  1  0
 60  2  1  0
M  END
>  <Title>  (1002) 
idABKTgen7

$$$$

     RDKit          2D

  8  8  0  0  0  0  0  0  0  0999 V2000
    3.5260    1.2990    0.0000 O   0  0  0  0  0  0  0  0  0  0  0  0
    2.7760    0.0000    0.0000 C   0  0  0  0  0  0  0  0  0  0  0  0
    3.5260   -1.2990    0.0000 O   0  0  0  0  0  0  0  0  0  0  0  0
    1.2760    0.0000    0.0000 C   0  0  0  0  0  0  0  0  0  0  0  0
    0.3943    1.2135    0.0000 C   0  0  0  0  0  0  0  0  0  0  0  0
   -1.0323    0.7500    0.0000 C   0  0  0  0  0  0  0  0  0  0  0  0
   -1.0323   -0.7500    0.0000 C   0  0  0  0  0  0  0  0  0  0  0  0
    0.3943   -1.2135    0.0000 C   0  0  0  0  0  0  0  0  0  0  0  0
  1  2  2  0
  2  3  1  0
  2  4  1  0
  4  5  2  0
  5  6  1  0
  6  7  1  0
  7  8  2  0
  8  4  1  0
M  END
>  <Title>  (1003) 
idABKUgen7

$$$$

     RDKit          2D

 10 10  0  0  0  0  0  0  0  0999 V2000
    5.0260   -1.2990    0.0000 C   0  0  0  0  0  0  0  0  0  0  0  0
    3.5260   -1.2990    0.0000 C   0  0  0  0  0  0  0  0  0  0  0  0
    2.7760   -2.5981    0.0000 C   0  0  0  0  0  0  0  0  0  0  0  0
    3.5260   -3.8971    0.0000 O   0  0  0  0  0  0  0  0  0  0  0  0
    2.7760    0.0000    0.0000 C   0  0  0  0  0  0  0  0  0  0  0  0
    1.2760    0.0000    0.0000 C   0  0  0  0  0  0  0  0  0  0  0  0
    0.3943    1.2135    0.0000 C   0  0  0  0  0  0  0  0  0  0  0  0
   -1.0323    0.7500    0.0000 C   0  0  0  0  0  0  0  0  0  0  0  0
   -1.0323   -0.7500    0.0000 C   0  0  0  0  0  0  0  0  0  0  0  0
    0.3943   -1.2135    0.0000 C   0  0  0  0  0  0  0  0  0  0  0  0
  1  2  1  0
  2  3  1  0
  3  4  1  0
  2  5  1  0
  5  6  1  0
  6  7  2  0
  7  8  1  0
  8  9  1  0
  9 10  1  0
 10  6  1  0
M  END
>  <Title>  (1004) 
idABKVgen7

$$$$

     RDKit          2D

 11 12  0  0  0  0  0  0  0  0999 V2000
    4.2479   -2.2363    0.0000 O   0  0  0  0  0  0  0  0  0  0  0  0
    2.9489   -2.9863    0.0000 C   0  0  0  0  0  0  0  0  0  0  0  0
    2.5607   -4.4352    0.0000 C   0  0  0  0  0  0  0  0  0  0  0  0
    1.1118   -4.0470    0.0000 C   0  0  0  0  0  0  0  0  0  0  0  0
    1.5000   -2.5981    0.0000 C   0  0  0  0  0  0  0  0  0  0  0  0
    0.7500   -1.2990    0.0000 C   0  0  0  0  0  0  0  0  0  0  0  0
    1.5000    0.0000    0.0000 C   0  0  0  0  0  0  0  0  0  0  0  0
    0.7500    1.2990    0.0000 C   0  0  0  0  0  0  0  0  0  0  0  0
   -0.7500    1.2990    0.0000 C   0  0  0  0  0  0  0  0  0  0  0  0
   -1.5000    0.0000    0.0000 C   0  0  0  0  0  0  0  0  0  0  0  0
   -0.7500   -1.2990    0.0000 C   0  0  0  0  0  0  0  0  0  0  0  0
  1  2  1  0
  2  3  1  0
  3  4  1  0
  4  5  1  0
  5  6  1  0
  6  7  2  0
  7  8  1  0
  8  9  2  0
  9 10  1  0
 10 11  2  0
  5  2  1  0
 11  6  1  0
M  END
>  <Title>  (1005) 
idABKWgen7

$$$$

     RDKit          2D

 70 70  0  0  0  0  0  0  0  0999 V2000
   16.7169    0.0000    0.0000 C   0  0  0  0  0  0  0  0  0  0  0  0
   16.6496   -1.4985    0.0000 C   0  0  0  0  0  0  0  0  0  0  0  0
   16.4482   -2.9849    0.0000 C   0  0  0  0  0  0  0  0  0  0  0  0
   16.1145   -4.4473    0.0000 C   0  0  0  0  0  0  0  0  0  0  0  0
   15.6509   -5.8739    0.0000 C   0  0  0  0  0  0  0  0  0  0  0  0
   15.0614   -7.2532    0.0000 C   0  0  0  0  0  0  0  0  0  0  0  0
   14.3506   -8.5741    0.0000 C   0  0  0  0  0  0  0  0  0  0  0  0
   13.5242   -9.8259    0.0000 C   0  0  0  0  0  0  0  0  0  0  0  0
   12.5890  -10.9987    0.0000 C   0  0  0  0  0  0  0  0  0  0  0  0
   11.5524  -12.0829    0.0000 C   0  0  0  0  0  0  0  0  0  0  0  0
   10.4228  -13.0698    0.0000 C   0  0  0  0  0  0  0  0  0  0  0  0
    9.2093  -13.9515    0.0000 C   0  0  0  0  0  0  0  0  0  0  0  0
    7.9216  -14.7208    0.0000 C   0  0  0  0  0  0  0  0  0  0  0  0
    6.5702  -15.3716    0.0000 C   0  0  0  0  0  0  0  0  0  0  0  0
    5.1658  -15.8987    0.0000 C   0  0  0  0  0  0  0  0  0  0  0  0
    3.7199  -16.2978    0.0000 C   0  0  0  0  0  0  0  0  0  0  0  0
    2.2440  -16.5656    0.0000 C   0  0  0  0  0  0  0  0  0  0  0  0
    0.7500  -16.7000    0.0000 C   0  0  0  0  0  0  0  0  0  0  0  0
   -0.7500  -16.7000    0.0000 C   0  0  0  0  0  0  0  0  0  0  0  0
   -2.2440  -16.5656    0.0000 C   0  0  0  0  0  0  0  0  0  0  0  0
   -3.7199  -16.2978    0.0000 C   0  0  0  0  0  0  0  0  0  0  0  0
   -5.1658  -15.8987    0.0000 C   0  0  0  0  0  0  0  0  0  0  0  0
   -6.5702  -15.3716    0.0000 C   0  0  0  0  0  0  0  0  0  0  0  0
   -7.9216  -14.7208    0.0000 C   0  0  0  0  0  0  0  0  0  0  0  0
   -9.2093  -13.9515    0.0000 C   0  0  0  0  0  0  0  0  0  0  0  0
  -10.4228  -13.0698    0.0000 C   0  0  0  0  0  0  0  0  0  0  0  0
  -11.5524  -12.0829    0.0000 C   0  0  0  0  0  0  0  0  0  0  0  0
  -12.5890  -10.9987    0.0000 C   0  0  0  0  0  0  0  0  0  0  0  0
  -13.5242   -9.8259    0.0000 C   0  0  0  0  0  0  0  0  0  0  0  0
  -14.3506   -8.5741    0.0000 C   0  0  0  0  0  0  0  0  0  0  0  0
  -15.0614   -7.2532    0.0000 C   0  0  0  0  0  0  0  0  0  0  0  0
  -15.6509   -5.8739    0.0000 C   0  0  0  0  0  0  0  0  0  0  0  0
  -16.1145   -4.4473    0.0000 C   0  0  0  0  0  0  0  0  0  0  0  0
  -16.4482   -2.9849    0.0000 C   0  0  0  0  0  0  0  0  0  0  0  0
  -16.6496   -1.4985    0.0000 C   0  0  0  0  0  0  0  0  0  0  0  0
  -16.7169    0.0000    0.0000 C   0  0  0  0  0  0  0  0  0  0  0  0
  -16.6496    1.4985    0.0000 C   0  0  0  0  0  0  0  0  0  0  0  0
  -16.4482    2.9849    0.0000 C   0  0  0  0  0  0  0  0  0  0  0  0
  -16.1145    4.4473    0.0000 C   0  0  0  0  0  0  0  0  0  0  0  0
  -15.6509    5.8739    0.0000 C   0  0  0  0  0  0  0  0  0  0  0  0
  -15.0614    7.2532    0.0000 C   0  0  0  0  0  0  0  0  0  0  0  0
  -14.3506    8.5741    0.0000 C   0  0  0  0  0  0  0  0  0  0  0  0
  -13.5242    9.8259    0.0000 C   0  0  0  0  0  0  0  0  0  0  0  0
  -12.5890   10.9987    0.0000 C   0  0  0  0  0  0  0  0  0  0  0  0
  -11.5524   12.0829    0.0000 C   0  0  0  0  0  0  0  0  0  0  0  0
  -10.4228   13.0698    0.0000 C   0  0  0  0  0  0  0  0  0  0  0  0
   -9.2093   13.9515    0.0000 C   0  0  0  0  0  0  0  0  0  0  0  0
   -7.9216   14.7208    0.0000 C   0  0  0  0  0  0  0  0  0  0  0  0
   -6.5702   15.3716    0.0000 C   0  0  0  0  0  0  0  0  0  0  0  0
   -5.1658   15.8987    0.0000 C   0  0  0  0  0  0  0  0  0  0  0  0
   -3.7199   16.2978    0.0000 C   0  0  0  0  0  0  0  0  0  0  0  0
   -2.2440   16.5656    0.0000 C   0  0  0  0  0  0  0  0  0  0  0  0
   -0.7500   16.7000    0.0000 C   0  0  0  0  0  0  0  0  0  0  0  0
    0.7500   16.7000    0.0000 C   0  0  0  0  0  0  0  0  0  0  0  0
    2.2440   16.5656    0.0000 C   0  0  0  0  0  0  0  0  0  0  0  0
    3.7199   16.2978    0.0000 C   0  0  0  0  0  0  0  0  0  0  0  0
    5.1658   15.8987    0.0000 C   0  0  0  0  0  0  0  0  0  0  0  0
    6.5702   15.3716    0.0000 C   0  0  0  0  0  0  0  0  0  0  0  0
    7.9216   14.7208    0.0000 C   0  0  0  0  0  0  0  0  0  0  0  0
    9.2093   13.9515    0.0000 C   0  0  0  0  0  0  0  0  0  0  0  0
   10.4228   13.0698    0.0000 C   0  0  0  0  0  0  0  0  0  0  0  0
   11.5524   12.0829    0.0000 C   0  0  0  0  0  0  0  0  0  0  0  0
   12.5890   10.9987    0.0000 C   0  0  0  0  0  0  0  0  0  0  0  0
   13.5242    9.8259    0.0000 C   0  0  0  0  0  0  0  0  0  0  0  0
   14.3506    8.5741    0.0000 C   0  0  0  0  0  0  0  0  0  0  0  0
   15.0614    7.2532    0.0000 C   0  0  0  0  0  0  0  0  0  0  0  0
   15.6509    5.8739    0.0000 C   0  0  0  0  0  0  0  0  0  0  0  0
   16.1145    4.4473    0.0000 C   0  0  0  0  0  0  0  0  0  0  0  0
   16.4482    2.9849    0.0000 C   0  0  0  0  0  0  0  0  0  0  0  0
   16.6496    1.4985    0.0000 C   0  0  0  0  0  0  0  0  0  0  0  0
  1  2  1  0
  2  3  1  0
  3  4  1  0
  4  5  1  0
  5  6  1  0
  6  7  1  0
  7  8  1  0
  8  9  1  0
  9 10  1  0
 10 11  1  0
 11 12  1  0
 12 13  1  0
 13 14  1  0
 14 15  1  0
 15 16  1  0
 16 17  1  0
 17 18  1  0
 18 19  1  0
 19 20  1  0
 20 21  1  0
 21 22  1  0
 22 23  1  0
 23 24  1  0
 24 25  1  0
 25 26  1  0
 26 27  1  0
 27 28  1  0
 28 29  1  0
 29 30  1  0
 30 31  1  0
 31 32  1  0
 32 33  1  0
 33 34  1  0
 34 35  1  0
 35 36  1  0
 36 37  1  0
 37 38  1  0
 38 39  1  0
 39 40  1  0
 40 41  1  0
 41 42  1  0
 42 43  1  0
 43 44  1  0
 44 45  1  0
 45 46  1  0
 46 47  1  0
 47 48  1  0
 48 49  1  0
 49 50  1  0
 50 51  1  0
 51 52  1  0
 52 53  1  0
 53 54  1  0
 54 55  1  0
 55 56  1  0
 56 57  1  0
 57 58  1  0
 58 59  1  0
 59 60  1  0
 60 61  1  0
 61 62  1  0
 62 63  1  0
 63 64  1  0
 64 65  1  0
 65 66  1  0
 66 67  1  0
 67 68  1  0
 68 69  1  0
 69 70  1  0
 70  1  1  0
M  END
>  <Title>  (1006) 
idABKXgen7

$$$$

     RDKit          2D

100100  0  0  0  0  0  0  0  0999 V2000
   25.1385    0.0000    0.0000 O   0  0  0  0  0  0  0  0  0  0  0  0
   23.6385    0.0000    0.0000 C   0  0  0  0  0  0  0  0  0  0  0  0
   23.5909    1.4992    0.0000 C   0  0  0  0  0  0  0  0  0  0  0  0
   23.4483    2.9925    0.0000 C   0  0  0  0  0  0  0  0  0  0  0  0
   23.2113    4.4736    0.0000 C   0  0  0  0  0  0  0  0  0  0  0  0
   22.8808    5.9368    0.0000 C   0  0  0  0  0  0  0  0  0  0  0  0
   22.4582    7.3760    0.0000 C   0  0  0  0  0  0  0  0  0  0  0  0
   21.9452    8.7855    0.0000 C   0  0  0  0  0  0  0  0  0  0  0  0
   21.3438   10.1597    0.0000 C   0  0  0  0  0  0  0  0  0  0  0  0
   20.6565   11.4929    0.0000 C   0  0  0  0  0  0  0  0  0  0  0  0
   19.8860   12.7799    0.0000 C   0  0  0  0  0  0  0  0  0  0  0  0
   19.0354   14.0154    0.0000 C   0  0  0  0  0  0  0  0  0  0  0  0
   18.1081   15.1945    0.0000 C   0  0  0  0  0  0  0  0  0  0  0  0
   17.1080   16.3124    0.0000 C   0  0  0  0  0  0  0  0  0  0  0  0
   16.0389   17.3646    0.0000 C   0  0  0  0  0  0  0  0  0  0  0  0
   14.9053   18.3469    0.0000 C   0  0  0  0  0  0  0  0  0  0  0  0
   13.7117   19.2553    0.0000 C   0  0  0  0  0  0  0  0  0  0  0  0
   12.4628   20.0862    0.0000 C   0  0  0  0  0  0  0  0  0  0  0  0
   11.1638   20.8362    0.0000 C   0  0  0  0  0  0  0  0  0  0  0  0
    9.8198   21.5023    0.0000 C   0  0  0  0  0  0  0  0  0  0  0  0
    8.4362   22.0818    0.0000 C   0  0  0  0  0  0  0  0  0  0  0  0
    7.0187   22.5724    0.0000 C   0  0  0  0  0  0  0  0  0  0  0  0
    5.5730   22.9721    0.0000 C   0  0  0  0  0  0  0  0  0  0  0  0
    4.1048   23.2794    0.0000 C   0  0  0  0  0  0  0  0  0  0  0  0
    2.6200   23.4928    0.0000 C   0  0  0  0  0  0  0  0  0  0  0  0
    1.1248   23.6117    0.0000 C   0  0  0  0  0  0  0  0  0  0  0  0
   -0.3750   23.6355    0.0000 C   0  0  0  0  0  0  0  0  0  0  0  0
   -1.8733   23.5641    0.0000 C   0  0  0  0  0  0  0  0  0  0  0  0
   -3.3641   23.3979    0.0000 C   0  0  0  0  0  0  0  0  0  0  0  0
   -4.8413   23.1374    0.0000 C   0  0  0  0  0  0  0  0  0  0  0  0
   -6.2990   22.7838    0.0000 C   0  0  0  0  0  0  0  0  0  0  0  0
   -7.7314   22.3384    0.0000 C   0  0  0  0  0  0  0  0  0  0  0  0
   -9.1326   21.8031    0.0000 C   0  0  0  0  0  0  0  0  0  0  0  0
  -10.4971   21.1799    0.0000 C   0  0  0  0  0  0  0  0  0  0  0  0
  -11.8192   20.4715    0.0000 C   0  0  0  0  0  0  0  0  0  0  0  0
  -13.0938   19.6807    0.0000 C   0  0  0  0  0  0  0  0  0  0  0  0
  -14.3157   18.8106    0.0000 C   0  0  0  0  0  0  0  0  0  0  0  0
  -15.4799   17.8648    0.0000 C   0  0  0  0  0  0  0  0  0  0  0  0
  -16.5818   16.8470    0.0000 C   0  0  0  0  0  0  0  0  0  0  0  0
  -17.6169   15.7614    0.0000 C   0  0  0  0  0  0  0  0  0  0  0  0
  -18.5811   14.6123    0.0000 C   0  0  0  0  0  0  0  0  0  0  0  0
  -19.4705   13.4044    0.0000 C   0  0  0  0  0  0  0  0  0  0  0  0
  -20.2814   12.1426    0.0000 C   0  0  0  0  0  0  0  0  0  0  0  0
  -21.0107   10.8318    0.0000 C   0  0  0  0  0  0  0  0  0  0  0  0
  -21.6554    9.4774    0.0000 C   0  0  0  0  0  0  0  0  0  0  0  0
  -22.2129    8.0848    0.0000 C   0  0  0  0  0  0  0  0  0  0  0  0
  -22.6810    6.6597    0.0000 C   0  0  0  0  0  0  0  0  0  0  0  0
  -23.0577    5.2078    0.0000 C   0  0  0  0  0  0  0  0  0  0  0  0
  -23.3416    3.7349    0.0000 C   0  0  0  0  0  0  0  0  0  0  0  0
  -23.5314    2.2470    0.0000 C   0  0  0  0  0  0  0  0  0  0  0  0
  -23.6266    0.7500    0.0000 C   0  0  0  0  0  0  0  0  0  0  0  0
  -23.6266   -0.7500    0.0000 C   0  0  0  0  0  0  0  0  0  0  0  0
  -23.5314   -2.2470    0.0000 C   0  0  0  0  0  0  0  0  0  0  0  0
  -23.3416   -3.7349    0.0000 C   0  0  0  0  0  0  0  0  0  0  0  0
  -23.0577   -5.2078    0.0000 C   0  0  0  0  0  0  0  0  0  0  0  0
  -22.6810   -6.6597    0.0000 C   0  0  0  0  0  0  0  0  0  0  0  0
  -22.2129   -8.0848    0.0000 C   0  0  0  0  0  0  0  0  0  0  0  0
  -21.6554   -9.4774    0.0000 C   0  0  0  0  0  0  0  0  0  0  0  0
  -21.0107  -10.8318    0.0000 C   0  0  0  0  0  0  0  0  0  0  0  0
  -20.2814  -12.1426    0.0000 C   0  0  0  0  0  0  0  0  0  0  0  0
  -19.4705  -13.4044    0.0000 C   0  0  0  0  0  0  0  0  0  0  0  0
  -18.5811  -14.6123    0.0000 C   0  0  0  0  0  0  0  0  0  0  0  0
  -17.6169  -15.7614    0.0000 C   0  0  0  0  0  0  0  0  0  0  0  0
  -16.5818  -16.8470    0.0000 C   0  0  0  0  0  0  0  0  0  0  0  0
  -15.4799  -17.8648    0.0000 C   0  0  0  0  0  0  0  0  0  0  0  0
  -14.3157  -18.8106    0.0000 C   0  0  0  0  0  0  0  0  0  0  0  0
  -13.0938  -19.6807    0.0000 C   0  0  0  0  0  0  0  0  0  0  0  0
  -11.8192  -20.4715    0.0000 C   0  0  0  0  0  0  0  0  0  0  0  0
  -10.4971  -21.1799    0.0000 C   0  0  0  0  0  0  0  0  0  0  0  0
   -9.1326  -21.8031    0.0000 C   0  0  0  0  0  0  0  0  0  0  0  0
   -7.7314  -22.3384    0.0000 C   0  0  0  0  0  0  0  0  0  0  0  0
   -6.2990  -22.7838    0.0000 C   0  0  0  0  0  0  0  0  0  0  0  0
   -4.8413  -23.1374    0.0000 C   0  0  0  0  0  0  0  0  0  0  0  0
   -3.3641  -23.3979    0.0000 C   0  0  0  0  0  0  0  0  0  0  0  0
   -1.8733  -23.5641    0.0000 C   0  0  0  0  0  0  0  0  0  0  0  0
   -0.3750  -23.6355    0.0000 C   0  0  0  0  0  0  0  0  0  0  0  0
    1.1248  -23.6117    0.0000 C   0  0  0  0  0  0  0  0  0  0  0  0
    2.6200  -23.4928    0.0000 C   0  0  0  0  0  0  0  0  0  0  0  0
    4.1048  -23.2794    0.0000 C   0  0  0  0  0  0  0  0  0  0  0  0
    5.5730  -22.9721    0.0000 C   0  0  0  0  0  0  0  0  0  0  0  0
    7.0187  -22.5724    0.0000 C   0  0  0  0  0  0  0  0  0  0  0  0
    8.4362  -22.0818    0.0000 C   0  0  0  0  0  0  0  0  0  0  0  0
    9.8198  -21.5023    0.0000 C   0  0  0  0  0  0  0  0  0  0  0  0
   11.1638  -20.8362    0.0000 C   0  0  0  0  0  0  0  0  0  0  0  0
   12.4628  -20.0862    0.0000 C   0  0  0  0  0  0  0  0  0  0  0  0
   13.7117  -19.2553    0.0000 C   0  0  0  0  0  0  0  0  0  0  0  0
   14.9053  -18.3469    0.0000 C   0  0  0  0  0  0  0  0  0  0  0  0
   16.0389  -17.3646    0.0000 C   0  0  0  0  0  0  0  0  0  0  0  0
   17.1080  -16.3124    0.0000 C   0  0  0  0  0  0  0  0  0  0  0  0
   18.1081  -15.1945    0.0000 C   0  0  0  0  0  0  0  0  0  0  0  0
   19.0354  -14.0154    0.0000 C   0  0  0  0  0  0  0  0  0  0  0  0
   19.8860  -12.7799    0.0000 C   0  0  0  0  0  0  0  0  0  0  0  0
   20.6565  -11.4929    0.0000 C   0  0  0  0  0  0  0  0  0  0  0  0
   21.3438  -10.1597    0.0000 C   0  0  0  0  0  0  0  0  0  0  0  0
   21.9452   -8.7855    0.0000 C   0  0  0  0  0  0  0  0  0  0  0  0
   22.4582   -7.3760    0.0000 C   0  0  0  0  0  0  0  0  0  0  0  0
   22.8808   -5.9368    0.0000 C   0  0  0  0  0  0  0  0  0  0  0  0
   23.2113   -4.4736    0.0000 C   0  0  0  0  0  0  0  0  0  0  0  0
   23.4483   -2.9925    0.0000 C   0  0  0  0  0  0  0  0  0  0  0  0
   23.5909   -1.4992    0.0000 C   0  0  0  0  0  0  0  0  0  0  0  0
  1  2  1  0
  2  3  1  0
  3  4  1  0
  4  5  1  0
  5  6  1  0
  6  7  2  0
  7  8  1  0
  8  9  1  0
  9 10  1  0
 10 11  1  0
 11 12  1  0
 12 13  1  0
 13 14  1  0
 14 15  1  0
 15 16  1  0
 16 17  1  0
 17 18  1  0
 18 19  1  0
 19 20  1  0
 20 21  1  0
 21 22  1  0
 22 23  1  0
 23 24  1  0
 24 25  1  0
 25 26  1  0
 26 27  1  0
 27 28  1  0
 28 29  1  0
 29 30  1  0
 30 31  1  0
 31 32  1  0
 32 33  1  0
 33 34  1  0
 34 35  1  0
 35 36  1  0
 36 37  1  0
 37 38  1  0
 38 39  1  0
 39 40  1  0
 40 41  1  0
 41 42  1  0
 42 43  1  0
 43 44  1  0
 44 45  1  0
 45 46  1  0
 46 47  1  0
 47 48  1  0
 48 49  1  0
 49 50  1  0
 50 51  1  0
 51 52  1  0
 52 53  1  0
 53 54  1  0
 54 55  1  0
 55 56  1  0
 56 57  1  0
 57 58  1  0
 58 59  1  0
 59 60  1  0
 60 61  1  0
 61 62  1  0
 62 63  1  0
 63 64  1  0
 64 65  1  0
 65 66  1  0
 66 67  1  0
 67 68  1  0
 68 69  1  0
 69 70  1  0
 70 71  1  0
 71 72  1  0
 72 73  1  0
 73 74  1  0
 74 75  1  0
 75 76  1  0
 76 77  1  0
 77 78  1  0
 78 79  1  0
 79 80  1  0
 80 81  1  0
 81 82  1  0
 82 83  1  0
 83 84  1  0
 84 85  1  0
 85 86  1  0
 86 87  1  0
 87 88  1  0
 88 89  1  0
 89 90  1  0
 90 91  1  0
 91 92  1  0
 92 93  1  0
 93 94  1  0
 94 95  1  0
 95 96  1  0
 96 97  1  0
 97 98  1  0
 98 99  1  0
 99100  1  0
100  2  1  0
M  END
>  <Title>  (1007) 
idABKYgen7

$$$$

     RDKit          2D

 55 55  0  0  0  0  0  0  0  0999 V2000
   14.3988    0.0000    0.0000 C   0  0  0  0  0  0  0  0  0  0  0  0
   12.8988    0.0000    0.0000 C   0  0  0  0  0  0  0  0  0  0  0  0
   12.8116   -1.4975    0.0000 C   0  0  0  0  0  0  0  0  0  0  0  0
   12.5511   -2.9747    0.0000 C   0  0  0  0  0  0  0  0  0  0  0  0
   12.1209   -4.4117    0.0000 C   0  0  0  0  0  0  0  0  0  0  0  0
   11.5268   -5.7890    0.0000 C   0  0  0  0  0  0  0  0  0  0  0  0
   10.7768   -7.0880    0.0000 C   0  0  0  0  0  0  0  0  0  0  0  0
    9.8811   -8.2912    0.0000 C   0  0  0  0  0  0  0  0  0  0  0  0
    8.8517   -9.3823    0.0000 C   0  0  0  0  0  0  0  0  0  0  0  0
    7.7026  -10.3464    0.0000 C   0  0  0  0  0  0  0  0  0  0  0  0
    6.4494  -11.1707    0.0000 C   0  0  0  0  0  0  0  0  0  0  0  0
    5.1090  -11.8439    0.0000 C   0  0  0  0  0  0  0  0  0  0  0  0
    3.6994  -12.3569    0.0000 C   0  0  0  0  0  0  0  0  0  0  0  0
    2.2399  -12.7029    0.0000 C   0  0  0  0  0  0  0  0  0  0  0  0
    0.7500  -12.8770    0.0000 C   0  0  0  0  0  0  0  0  0  0  0  0
   -0.7500  -12.8770    0.0000 C   0  0  0  0  0  0  0  0  0  0  0  0
   -2.2399  -12.7029    0.0000 C   0  0  0  0  0  0  0  0  0  0  0  0
   -3.6994  -12.3569    0.0000 C   0  0  0  0  0  0  0  0  0  0  0  0
   -5.1090  -11.8439    0.0000 C   0  0  0  0  0  0  0  0  0  0  0  0
   -6.4494  -11.1707    0.0000 C   0  0  0  0  0  0  0  0  0  0  0  0
   -7.7026  -10.3464    0.0000 C   0  0  0  0  0  0  0  0  0  0  0  0
   -8.8517   -9.3823    0.0000 C   0  0  0  0  0  0  0  0  0  0  0  0
   -9.8811   -8.2912    0.0000 C   0  0  0  0  0  0  0  0  0  0  0  0
  -10.7768   -7.0880    0.0000 C   0  0  0  0  0  0  0  0  0  0  0  0
  -11.5268   -5.7890    0.0000 C   0  0  0  0  0  0  0  0  0  0  0  0
  -12.1209   -4.4117    0.0000 C   0  0  0  0  0  0  0  0  0  0  0  0
  -12.5511   -2.9747    0.0000 C   0  0  0  0  0  0  0  0  0  0  0  0
  -12.8116   -1.4975    0.0000 C   0  0  0  0  0  0  0  0  0  0  0  0
  -12.8988    0.0000    0.0000 C   0  0  0  0  0  0  0  0  0  0  0  0
  -12.8116    1.4975    0.0000 C   0  0  0  0  0  0  0  0  0  0  0  0
  -12.5511    2.9747    0.0000 C   0  0  0  0  0  0  0  0  0  0  0  0
  -12.1209    4.4117    0.0000 C   0  0  0  0  0  0  0  0  0  0  0  0
  -11.5268    5.7890    0.0000 C   0  0  0  0  0  0  0  0  0  0  0  0
  -10.7768    7.0880    0.0000 C   0  0  0  0  0  0  0  0  0  0  0  0
   -9.8811    8.2912    0.0000 C   0  0  0  0  0  0  0  0  0  0  0  0
   -8.8517    9.3823    0.0000 C   0  0  0  0  0  0  0  0  0  0  0  0
   -7.7026   10.3464    0.0000 C   0  0  0  0  0  0  0  0  0  0  0  0
   -6.4494   11.1707    0.0000 C   0  0  0  0  0  0  0  0  0  0  0  0
   -5.1090   11.8439    0.0000 C   0  0  0  0  0  0  0  0  0  0  0  0
   -3.6994   12.3569    0.0000 C   0  0  0  0  0  0  0  0  0  0  0  0
   -2.2399   12.7029    0.0000 C   0  0  0  0  0  0  0  0  0  0  0  0
   -0.7500   12.8770    0.0000 C   0  0  0  0  0  0  0  0  0  0  0  0
    0.7500   12.8770    0.0000 C   0  0  0  0  0  0  0  0  0  0  0  0
    2.2399   12.7029    0.0000 C   0  0  0  0  0  0  0  0  0  0  0  0
    3.6994   12.3569    0.0000 C   0  0  0  0  0  0  0  0  0  0  0  0
    5.1090   11.8439    0.0000 C   0  0  0  0  0  0  0  0  0  0  0  0
    6.4494   11.1707    0.0000 C   0  0  0  0  0  0  0  0  0  0  0  0
    7.7026   10.3464    0.0000 C   0  0  0  0  0  0  0  0  0  0  0  0
    8.8517    9.3823    0.0000 C   0  0  0  0  0  0  0  0  0  0  0  0
    9.8811    8.2912    0.0000 C   0  0  0  0  0  0  0  0  0  0  0  0
   10.7768    7.0880    0.0000 C   0  0  0  0  0  0  0  0  0  0  0  0
   11.5268    5.7890    0.0000 C   0  0  0  0  0  0  0  0  0  0  0  0
   12.1209    4.4117    0.0000 C   0  0  0  0  0  0  0  0  0  0  0  0
   12.5511    2.9747    0.0000 C   0  0  0  0  0  0  0  0  0  0  0  0
   12.8116    1.4975    0.0000 C   0  0  0  0  0  0  0  0  0  0  0  0
  1  2  1  0
  2  3  1  0
  3  4  2  0
  4  5  1  0
  5  6  2  0
  6  7  1  0
  7  8  2  0
  8  9  1  0
  9 10  2  0
 10 11  1  0
 11 12  2  0
 12 13  1  0
 13 14  2  0
 14 15  1  0
 15 16  2  0
 16 17  1  0
 17 18  2  0
 18 19  1  0
 19 20  2  0
 20 21  1  0
 21 22  2  0
 22 23  1  0
 23 24  2  0
 24 25  1  0
 25 26  2  0
 26 27  1  0
 27 28  2  0
 28 29  1  0
 29 30  2  0
 30 31  1  0
 31 32  2  0
 32 33  1  0
 33 34  2  0
 34 35  1  0
 35 36  2  0
 36 37  1  0
 37 38  2  0
 38 39  1  0
 39 40  2  0
 40 41  1  0
 41 42  1  0
 42 43  1  0
 43 44  1  0
 44 45  1  0
 45 46  1  0
 46 47  1  0
 47 48  1  0
 48 49  1  0
 49 50  1  0
 50 51  1  0
 51 52  1  0
 52 53  1  0
 53 54  1  0
 54 55  1  0
 55  2  1  0
M  END
>  <Title>  (1008) 
idABKZgen7

$$$$

     RDKit          2D

127126  0  0  0  0  0  0  0  0999 V2000
    0.0000    0.0000    0.0000 C   0  0  0  0  0  0  0  0  0  0  0  0
    1.2990    0.7500    0.0000 C   0  0  0  0  0  0  0  0  0  0  0  0
    2.5981   -0.0000    0.0000 C   0  0  0  0  0  0  0  0  0  0  0  0
    3.8971    0.7500    0.0000 C   0  0  0  0  0  0  0  0  0  0  0  0
    5.1962   -0.0000    0.0000 C   0  0  0  0  0  0  0  0  0  0  0  0
    6.4952    0.7500    0.0000 C   0  0  0  0  0  0  0  0  0  0  0  0
    7.7942   -0.0000    0.0000 C   0  0  0  0  0  0  0  0  0  0  0  0
    9.0933    0.7500    0.0000 C   0  0  0  0  0  0  0  0  0  0  0  0
   10.3923   -0.0000    0.0000 C   0  0  0  0  0  0  0  0  0  0  0  0
   11.6913    0.7500    0.0000 C   0  0  0  0  0  0  0  0  0  0  0  0
   12.9904   -0.0000    0.0000 C   0  0  0  0  0  0  0  0  0  0  0  0
   14.2894    0.7500    0.0000 C   0  0  0  0  0  0  0  0  0  0  0  0
   15.5885   -0.0000    0.0000 C   0  0  0  0  0  0  0  0  0  0  0  0
   16.8875    0.7500    0.0000 C   0  0  0  0  0  0  0  0  0  0  0  0
   18.1865   -0.0000    0.0000 C   0  0  0  0  0  0  0  0  0  0  0  0
   19.4856    0.7500    0.0000 C   0  0  0  0  0  0  0  0  0  0  0  0
   20.7846   -0.0000    0.0000 C   0  0  0  0  0  0  0  0  0  0  0  0
   22.0836    0.7500    0.0000 C   0  0  0  0  0  0  0  0  0  0  0  0
   23.3827   -0.0000    0.0000 C   0  0  0  0  0  0  0  0  0  0  0  0
   24.6817    0.7500    0.0000 C   0  0  0  0  0  0  0  0  0  0  0  0
   25.9808   -0.0000    0.0000 C   0  0  0  0  0  0  0  0  0  0  0  0
   27.2798    0.7500    0.0000 C   0  0  0  0  0  0  0  0  0  0  0  0
   28.5788   -0.0000    0.0000 C   0  0  0  0  0  0  0  0  0  0  0  0
   29.8779    0.7500    0.0000 C   0  0  0  0  0  0  0  0  0  0  0  0
   31.1769   -0.0000    0.0000 C   0  0  0  0  0  0  0  0  0  0  0  0
   32.4760    0.7500    0.0000 C   0  0  0  0  0  0  0  0  0  0  0  0
   33.7750   -0.0000    0.0000 C   0  0  0  0  0  0  0  0  0  0  0  0
   35.0740    0.7500    0.0000 C   0  0  0  0  0  0  0  0  0  0  0  0
   36.3731   -0.0000    0.0000 C   0  0  0  0  0  0  0  0  0  0  0  0
   37.6721    0.7500    0.0000 C   0  0  0  0  0  0  0  0  0  0  0  0
   38.9711   -0.0000    0.0000 C   0  0  0  0  0  0  0  0  0  0  0  0
   40.2702    0.7500    0.0000 C   0  0  0  0  0  0  0  0  0  0  0  0
   41.5692   -0.0000    0.0000 C   0  0  0  0  0  0  0  0  0  0  0  0
   42.8683    0.7500    0.0000 C   0  0  0  0  0  0  0  0  0  0  0  0
   44.1673   -0.0000    0.0000 C   0  0  0  0  0  0  0  0  0  0  0  0
   45.4663    0.7500    0.0000 C   0  0  0  0  0  0  0  0  0  0  0  0
   46.7654   -0.0000    0.0000 C   0  0  0  0  0  0  0  0  0  0  0  0
   48.0644    0.7500    0.0000 C   0  0  0  0  0  0  0  0  0  0  0  0
   49.3634   -0.0000    0.0000 C   0  0  0  0  0  0  0  0  0  0  0  0
   50.6625    0.7500    0.0000 C   0  0  0  0  0  0  0  0  0  0  0  0
   51.9615   -0.0000    0.0000 C   0  0  0  0  0  0  0  0  0  0  0  0
   53.2606    0.7500    0.0000 C   0  0  0  0  0  0  0  0  0  0  0  0
   54.5596   -0.0000    0.0000 C   0  0  0  0  0  0  0  0  0  0  0  0
   55.8586    0.7500    0.0000 C   0  0  0  0  0  0  0  0  0  0  0  0
   57.1577   -0.0000    0.0000 C   0  0  0  0  0  0  0  0  0  0  0  0
   58.4567    0.7500    0.0000 C   0  0  0  0  0  0  0  0  0  0  0  0
   59.7558   -0.0000    0.0000 C   0  0  0  0  0  0  0  0  0  0  0  0
   61.0548    0.7500    0.0000 C   0  0  0  0  0  0  0  0  0  0  0  0
   62.3538   -0.0000    0.0000 C   0  0  0  0  0  0  0  0  0  0  0  0
   63.6529    0.7500    0.0000 C   0  0  0  0  0  0  0  0  0  0  0  0
   64.9519   -0.0000    0.0000 C   0  0  0  0  0  0  0  0  0  0  0  0
   66.2509    0.7500    0.0000 C   0  0  0  0  0  0  0  0  0  0  0  0
   67.5500   -0.0000    0.0000 C   0  0  0  0  0  0  0  0  0  0  0  0
   68.8490    0.7500    0.0000 C   0  0  0  0  0  0  0  0  0  0  0  0
   70.1481   -0.0000    0.0000 C   0  0  0  0  0  0  0  0  0  0  0  0
   71.4471    0.7500    0.0000 C   0  0  0  0  0  0  0  0  0  0  0  0
   72.7461   -0.0000    0.0000 C   0  0  0  0  0  0  0  0  0  0  0  0
   74.0452    0.7500    0.0000 C   0  0  0  0  0  0  0  0  0  0  0  0
   75.3442   -0.0000    0.0000 C   0  0  0  0  0  0  0  0  0  0  0  0
   76.6432    0.7500    0.0000 C   0  0  0  0  0  0  0  0  0  0  0  0
   77.9423   -0.0000    0.0000 C   0  0  0  0  0  0  0  0  0  0  0  0
   79.2413    0.7500    0.0000 C   0  0  0  0  0  0  0  0  0  0  0  0
   80.5404   -0.0000    0.0000 C   0  0  0  0  0  0  0  0  0  0  0  0
   81.8394    0.7500    0.0000 C   0  0  0  0  0  0  0  0  0  0  0  0
   83.1384   -0.0000    0.0000 C   0  0  0  0  0  0  0  0  0  0  0  0
   84.4375    0.7500    0.0000 C   0  0  0  0  0  0  0  0  0  0  0  0
   85.7365   -0.0000    0.0000 C   0  0  0  0  0  0  0  0  0  0  0  0
   87.0356    0.7500    0.0000 C   0  0  0  0  0  0  0  0  0  0  0  0
   88.3346   -0.0000    0.0000 C   0  0  0  0  0  0  0  0  0  0  0  0
   89.6336    0.7500    0.0000 C   0  0  0  0  0  0  0  0  0  0  0  0
   90.9327   -0.0000    0.0000 C   0  0  0  0  0  0  0  0  0  0  0  0
   92.2317    0.7500    0.0000 C   0  0  0  0  0  0  0  0  0  0  0  0
   93.5307   -0.0000    0.0000 C   0  0  0  0  0  0  0  0  0  0  0  0
   94.8298    0.7500    0.0000 C   0  0  0  0  0  0  0  0  0  0  0  0
   96.1288   -0.0000    0.0000 C   0  0  0  0  0  0  0  0  0  0  0  0
   97.4279    0.7500    0.0000 C   0  0  0  0  0  0  0  0  0  0  0  0
   98.7269   -0.0000    0.0000 C   0  0  0  0  0  0  0  0  0  0  0  0
  100.0259    0.7500    0.0000 C   0  0  0  0  0  0  0  0  0  0  0  0
  101.3250   -0.0000    0.0000 C   0  0  0  0  0  0  0  0  0  0  0  0
  102.6240    0.7500    0.0000 C   0  0  0  0  0  0  0  0  0  0  0  0
  103.9230   -0.0000    0.0000 C   0  0  0  0  0  0  0  0  0  0  0  0
  105.2221    0.7500    0.0000 C   0  0  0  0  0  0  0  0  0  0  0  0
  106.5211   -0.0000    0.0000 C   0  0  0  0  0  0  0  0  0  0  0  0
  107.8202    0.7500    0.0000 C   0  0  0  0  0  0  0  0  0  0  0  0
  109.1192   -0.0000    0.0000 C   0  0  0  0  0  0  0  0  0  0  0  0
  110.4182    0.7500    0.0000 C   0  0  0  0  0  0  0  0  0  0  0  0
  111.7173   -0.0000    0.0000 C   0  0  0  0  0  0  0  0  0  0  0  0
  113.0163    0.7500    0.0000 C   0  0  0  0  0  0  0  0  0  0  0  0
  114.3154   -0.0000    0.0000 C   0  0  0  0  0  0  0  0  0  0  0  0
  115.6144    0.7500    0.0000 C   0  0  0  0  0  0  0  0  0  0  0  0
  116.9134   -0.0000    0.0000 C   0  0  0  0  0  0  0  0  0  0  0  0
  118.2125    0.7500    0.0000 C   0  0  0  0  0  0  0  0  0  0  0  0
  119.5115   -0.0000    0.0000 C   0  0  0  0  0  0  0  0  0  0  0  0
  120.8105    0.7500    0.0000 C   0  0  0  0  0  0  0  0  0  0  0  0
  122.1096   -0.0000    0.0000 C   0  0  0  0  0  0  0  0  0  0  0  0
  123.4086    0.7500    0.0000 C   0  0  0  0  0  0  0  0  0  0  0  0
  124.7077   -0.0000    0.0000 C   0  0  0  0  0  0  0  0  0  0  0  0
  126.0067    0.7500    0.0000 C   0  0  0  0  0  0  0  0  0  0  0  0
  127.3057   -0.0000    0.0000 C   0  0  0  0  0  0  0  0  0  0  0  0
  128.6048    0.7500    0.0000 C   0  0  0  0  0  0  0  0  0  0  0  0
  129.9038   -0.0000    0.0000 C   0  0  0  0  0  0  0  0  0  0  0  0
  131.2028    0.7500    0.0000 C   0  0  0  0  0  0  0  0  0  0  0  0
  132.5019   -0.0000    0.0000 C   0  0  0  0  0  0  0  0  0  0  0  0
  133.8009    0.7500    0.0000 C   0  0  0  0  0  0  0  0  0  0  0  0
  135.1000   -0.0000    0.0000 C   0  0  0  0  0  0  0  0  0  0  0  0
  136.3990    0.7500    0.0000 C   0  0  0  0  0  0  0  0  0  0  0  0
  137.6980   -0.0000    0.0000 C   0  0  0  0  0  0  0  0  0  0  0  0
  138.9971    0.7500    0.0000 C   0  0  0  0  0  0  0  0  0  0  0  0
  140.2961   -0.0000    0.0000 C   0  0  0  0  0  0  0  0  0  0  0  0
  141.5952    0.7500    0.0000 C   0  0  0  0  0  0  0  0  0  0  0  0
  142.8942   -0.0000    0.0000 C   0  0  0  0  0  0  0  0  0  0  0  0
  144.1932    0.7500    0.0000 C   0  0  0  0  0  0  0  0  0  0  0  0
  145.4923   -0.0000    0.0000 C   0  0  0  0  0  0  0  0  0  0  0  0
  146.7913    0.7500    0.0000 C   0  0  0  0  0  0  0  0  0  0  0  0
  148.0903   -0.0000    0.0000 C   0  0  0  0  0  0  0  0  0  0  0  0
  149.3894    0.7500    0.0000 C   0  0  0  0  0  0  0  0  0  0  0  0
  150.6884   -0.0000    0.0000 C   0  0  0  0  0  0  0  0  0  0  0  0
  151.9875    0.7500    0.0000 C   0  0  0  0  0  0  0  0  0  0  0  0
  153.2865   -0.0000    0.0000 C   0  0  0  0  0  0  0  0  0  0  0  0
  154.5855    0.7500    0.0000 C   0  0  0  0  0  0  0  0  0  0  0  0
  155.8846   -0.0000    0.0000 C   0  0  0  0  0  0  0  0  0  0  0  0
  157.1836    0.7500    0.0000 C   0  0  0  0  0  0  0  0  0  0  0  0
  158.4826   -0.0000    0.0000 C   0  0  0  0  0  0  0  0  0  0  0  0
  159.7817    0.7500    0.0000 C   0  0  0  0  0  0  0  0  0  0  0  0
  161.0807   -0.0000    0.0000 C   0  0  0  0  0  0  0  0  0  0  0  0
  162.3798    0.7500    0.0000 C   0  0  0  0  0  0  0  0  0  0  0  0
  163.6788   -0.0000    0.0000 C   0  0  0  0  0  0  0  0  0  0  0  0
  1  2  1  0
  2  3  2  3
  3  4  1  0
  4  5  1  0
  5  6  1  0
  6  7  1  0
  7  8  1  0
  8  9  1  0
  9 10  1  0
 10 11  1  0
 11 12  1  0
 12 13  1  0
 13 14  1  0
 14 15  1  0
 15 16  1  0
 16 17  1  0
 17 18  1  0
 18 19  1  0
 19 20  1  0
 20 21  1  0
 21 22  1  0
 22 23  1  0
 23 24  1  0
 24 25  1  0
 25 26  1  0
 26 27  1  0
 27 28  1  0
 28 29  1  0
 29 30  1  0
 30 31  1  0
 31 32  1  0
 32 33  1  0
 33 34  1  0
 34 35  1  0
 35 36  1  0
 36 37  1  0
 37 38  1  0
 38 39  1  0
 39 40  1  0
 40 41  1  0
 41 42  1  0
 42 43  1  0
 43 44  1  0
 44 45  1  0
 45 46  1  0
 46 47  1  0
 47 48  1  0
 48 49  1  0
 49 50  1  0
 50 51  1  0
 51 52  1  0
 52 53  1  0
 53 54  1  0
 54 55  1  0
 55 56  1  0
 56 57  1  0
 57 58  1  0
 58 59  1  0
 59 60  1  0
 60 61  1  0
 61 62  1  0
 62 63  1  0
 63 64  1  0
 64 65  1  0
 65 66  1  0
 66 67  1  0
 67 68  1  0
 68 69  1  0
 69 70  1  0
 70 71  1  0
 71 72  1  0
 72 73  1  0
 73 74  1  0
 74 75  1  0
 75 76  1  0
 76 77  1  0
 77 78  1  0
 78 79  1  0
 79 80  1  0
 80 81  1  0
 81 82  1  0
 82 83  1  0
 83 84  1  0
 84 85  1  0
 85 86  1  0
 86 87  1  0
 87 88  1  0
 88 89  1  0
 89 90  1  0
 90 91  1  0
 91 92  1  0
 92 93  1  0
 93 94  1  0
 94 95  1  0
 95 96  1  0
 96 97  1  0
 97 98  1  0
 98 99  1  0
 99100  1  0
100101  1  0
101102  1  0
102103  1  0
103104  1  0
104105  1  0
105106  1  0
106107  1  0
107108  1  0
108109  1  0
109110  1  0
110111  1  0
111112  1  0
112113  1  0
113114  1  0
114115  1  0
115116  1  0
116117  1  0
117118  1  0
118119  1  0
119120  1  0
120121  1  0
121122  1  0
122123  1  0
123124  1  0
124125  1  0
125126  1  0
126127  1  0
M  END
>  <Title>  (1009) 
idABLAgen7

$$$$

     RDKit          2D

 46 52  0  0  0  0  0  0  0  0999 V2000
    4.3881   -6.6982    0.0000 C   0  0  0  0  0  0  0  0  0  0  0  0
    3.0367   -6.0474    0.0000 C   0  0  0  0  0  0  0  0  0  0  0  0
    3.3705   -4.5850    0.0000 C   0  0  0  0  0  0  0  0  0  0  0  0
    3.0367   -3.1226    0.0000 C   0  0  0  0  0  0  0  0  0  0  0  0
    2.1015   -1.9499    0.0000 C   0  0  0  0  0  0  0  0  0  0  0  0
    3.0367   -0.7771    0.0000 C   0  0  0  0  0  0  0  0  0  0  0  0
    2.4887    0.6192    0.0000 O   0  0  0  0  0  0  0  0  0  0  0  0
    4.5199   -1.0007    0.0000 N   0  0  0  0  0  0  0  0  0  0  0  0
    5.4552    0.1721    0.0000 C   0  0  0  0  0  0  0  0  0  0  0  0
    6.9384   -0.0515    0.0000 N   0  0  0  0  0  0  0  0  0  0  0  0
    7.8736    1.1213    0.0000 N   0  0  0  0  0  0  0  0  0  0  0  0
    7.3256    2.5176    0.0000 N   0  0  0  0  0  0  0  0  0  0  0  0
    5.8424    2.7411    0.0000 N   0  0  0  0  0  0  0  0  0  0  0  0
    4.9072    1.5684    0.0000 N   0  0  0  0  0  0  0  0  0  0  0  0
    0.7500   -1.2990    0.0000 C   0  0  0  0  0  0  0  0  0  0  0  0
    1.5000    0.0000    0.0000 C   0  0  0  0  0  0  0  0  0  0  0  0
    0.7500    1.2990    0.0000 C   0  0  0  0  0  0  0  0  0  0  0  0
   -0.7500    1.2990    0.0000 C   0  0  0  0  0  0  0  0  0  0  0  0
   -1.5000    0.0000    0.0000 C   0  0  0  0  0  0  0  0  0  0  0  0
   -0.7500   -1.2990    0.0000 C   0  0  0  0  0  0  0  0  0  0  0  0
   -2.1015   -1.9499    0.0000 C   0  0  0  0  0  0  0  0  0  0  0  0
   -2.6495   -0.5536    0.0000 C   0  0  0  0  0  0  0  0  0  0  0  0
   -4.1327   -0.3300    0.0000 C   0  0  0  0  0  0  0  0  0  0  0  0
   -5.0679   -1.5027    0.0000 C   0  0  0  0  0  0  0  0  0  0  0  0
   -4.5199   -2.8990    0.0000 C   0  0  0  0  0  0  0  0  0  0  0  0
   -3.0367   -3.1226    0.0000 C   0  0  0  0  0  0  0  0  0  0  0  0
   -3.3705   -4.5850    0.0000 C   0  0  0  0  0  0  0  0  0  0  0  0
   -4.8038   -4.1429    0.0000 C   0  0  0  0  0  0  0  0  0  0  0  0
   -5.9034   -5.1631    0.0000 C   0  0  0  0  0  0  0  0  0  0  0  0
   -5.5696   -6.6255    0.0000 C   0  0  0  0  0  0  0  0  0  0  0  0
   -6.6692   -7.6458    0.0000 C   0  0  0  0  0  0  0  0  0  0  0  0
   -7.7688   -8.6660    0.0000 N   0  0  0  0  0  0  0  0  0  0  0  0
   -4.1363   -7.0677    0.0000 C   0  0  0  0  0  0  0  0  0  0  0  0
   -3.0367   -6.0474    0.0000 C   0  0  0  0  0  0  0  0  0  0  0  0
   -2.1015   -7.2201    0.0000 C   0  0  0  0  0  0  0  0  0  0  0  0
   -3.3408   -8.0651    0.0000 C   0  0  0  0  0  0  0  0  0  0  0  0
   -3.2287   -9.5609    0.0000 C   0  0  0  0  0  0  0  0  0  0  0  0
   -1.8773  -10.2118    0.0000 C   0  0  0  0  0  0  0  0  0  0  0  0
   -0.6379   -9.3668    0.0000 C   0  0  0  0  0  0  0  0  0  0  0  0
   -0.7500   -7.8710    0.0000 C   0  0  0  0  0  0  0  0  0  0  0  0
    0.7500   -7.8710    0.0000 C   0  0  0  0  0  0  0  0  0  0  0  0
    0.6379   -9.3668    0.0000 C   0  0  0  0  0  0  0  0  0  0  0  0
    1.8773  -10.2118    0.0000 C   0  0  0  0  0  0  0  0  0  0  0  0
    3.2287   -9.5609    0.0000 C   0  0  0  0  0  0  0  0  0  0  0  0
    3.3408   -8.0651    0.0000 C   0  0  0  0  0  0  0  0  0  0  0  0
    2.1015   -7.2201    0.0000 C   0  0  0  0  0  0  0  0  0  0  0  0
  1  2  1  0
  2  3  1  0
  3  4  1  0
  4  5  1  0
  5  6  1  0
  6  7  2  0
  6  8  1  0
  8  9  1  0
  9 10  2  0
 10 11  1  0
 11 12  2  0
 12 13  1  0
 13 14  2  0
  5 15  1  0
 15 16  2  0
 16 17  1  0
 17 18  2  0
 18 19  1  0
 19 20  2  0
 20 21  1  0
 21 22  2  0
 22 23  1  0
 23 24  2  0
 24 25  1  0
 25 26  2  0
 26 27  1  0
 27 28  2  0
 28 29  1  0
 29 30  2  0
 30 31  1  0
 31 32  3  0
 30 33  1  0
 33 34  2  0
 34 35  1  0
 35 36  2  0
 36 37  1  0
 37 38  2  0
 38 39  1  0
 39 40  2  0
 40 41  1  0
 41 42  2  0
 42 43  1  0
 43 44  2  0
 44 45  1  0
 45 46  2  0
 46  2  1  0
 14  9  1  0
 20 15  1  0
 26 21  1  0
 34 27  1  0
 40 35  1  0
 46 41  1  0
M  END
>  <Title>  (1010) 
idABLBgen7

$$$$

     RDKit          2D

 10 10  0  0  0  0  0  0  0  0999 V2000
    5.7760   -2.5981    0.0000 N   0  0  0  0  0  0  0  0  0  0  0  0
    5.0260   -1.2990    0.0000 C   0  0  0  0  0  0  0  0  0  0  0  0
    5.7760    0.0000    0.0000 O   0  0  0  0  0  0  0  0  0  0  0  0
    3.5260   -1.2990    0.0000 C   0  0  0  0  0  0  0  0  0  0  0  0
    2.7760    0.0000    0.0000 C   0  0  0  0  0  0  0  0  0  0  0  0
    1.2760    0.0000    0.0000 C   0  0  0  0  0  0  0  0  0  0  0  0
    0.3943    1.2135    0.0000 C   0  0  0  0  0  0  0  0  0  0  0  0
   -1.0323    0.7500    0.0000 C   0  0  0  0  0  0  0  0  0  0  0  0
   -1.0323   -0.7500    0.0000 C   0  0  0  0  0  0  0  0  0  0  0  0
    0.3943   -1.2135    0.0000 C   0  0  0  0  0  0  0  0  0  0  0  0
  1  2  2  0
  2  3  1  0
  2  4  1  0
  4  5  1  0
  5  6  1  0
  6  7  1  0
  7  8  1  0
  8  9  1  0
  9 10  1  0
 10  6  1  0
M  END
>  <Title>  (1011) 
idABLCgen7

$$$$

     RDKit          2D

 91 91  0  0  0  0  0  0  0  0999 V2000
   21.7290    0.0000    0.0000 C   0  0  0  0  0  0  0  0  0  0  0  0
   21.6772    1.4991    0.0000 C   0  0  0  0  0  0  0  0  0  0  0  0
   21.5221    2.9911    0.0000 C   0  0  0  0  0  0  0  0  0  0  0  0
   21.2645    4.4688    0.0000 C   0  0  0  0  0  0  0  0  0  0  0  0
   20.9055    5.9252    0.0000 C   0  0  0  0  0  0  0  0  0  0  0  0
   20.4469    7.3534    0.0000 C   0  0  0  0  0  0  0  0  0  0  0  0
   19.8909    8.7465    0.0000 C   0  0  0  0  0  0  0  0  0  0  0  0
   19.2400   10.0980    0.0000 C   0  0  0  0  0  0  0  0  0  0  0  0
   18.4975   11.4013    0.0000 C   0  0  0  0  0  0  0  0  0  0  0  0
   17.6669   12.6503    0.0000 C   0  0  0  0  0  0  0  0  0  0  0  0
   16.7520   13.8390    0.0000 C   0  0  0  0  0  0  0  0  0  0  0  0
   15.7573   14.9618    0.0000 C   0  0  0  0  0  0  0  0  0  0  0  0
   14.6876   16.0132    0.0000 C   0  0  0  0  0  0  0  0  0  0  0  0
   13.5478   16.9884    0.0000 C   0  0  0  0  0  0  0  0  0  0  0  0
   12.3435   17.8826    0.0000 C   0  0  0  0  0  0  0  0  0  0  0  0
   11.0803   18.6916    0.0000 C   0  0  0  0  0  0  0  0  0  0  0  0
    9.7644   19.4115    0.0000 C   0  0  0  0  0  0  0  0  0  0  0  0
    8.4019   20.0389    0.0000 C   0  0  0  0  0  0  0  0  0  0  0  0
    6.9993   20.5708    0.0000 C   0  0  0  0  0  0  0  0  0  0  0  0
    5.5635   21.0047    0.0000 C   0  0  0  0  0  0  0  0  0  0  0  0
    4.1011   21.3384    0.0000 C   0  0  0  0  0  0  0  0  0  0  0  0
    2.6191   21.5705    0.0000 C   0  0  0  0  0  0  0  0  0  0  0  0
    1.1247   21.6998    0.0000 C   0  0  0  0  0  0  0  0  0  0  0  0
   -0.3751   21.7257    0.0000 C   0  0  0  0  0  0  0  0  0  0  0  0
   -1.8730   21.6481    0.0000 C   0  0  0  0  0  0  0  0  0  0  0  0
   -3.3621   21.4673    0.0000 C   0  0  0  0  0  0  0  0  0  0  0  0
   -4.8351   21.1842    0.0000 C   0  0  0  0  0  0  0  0  0  0  0  0
   -6.2851   20.8001    0.0000 C   0  0  0  0  0  0  0  0  0  0  0  0
   -7.7052   20.3169    0.0000 C   0  0  0  0  0  0  0  0  0  0  0  0
   -9.0885   19.7369    0.0000 C   0  0  0  0  0  0  0  0  0  0  0  0
  -10.4285   19.0629    0.0000 C   0  0  0  0  0  0  0  0  0  0  0  0
  -11.7189   18.2980    0.0000 C   0  0  0  0  0  0  0  0  0  0  0  0
  -12.9533   17.4459    0.0000 C   0  0  0  0  0  0  0  0  0  0  0  0
  -14.1261   16.5106    0.0000 C   0  0  0  0  0  0  0  0  0  0  0  0
  -15.2315   15.4967    0.0000 C   0  0  0  0  0  0  0  0  0  0  0  0
  -16.2644   14.4090    0.0000 C   0  0  0  0  0  0  0  0  0  0  0  0
  -17.2197   13.2525    0.0000 C   0  0  0  0  0  0  0  0  0  0  0  0
  -18.0930   12.0330    0.0000 C   0  0  0  0  0  0  0  0  0  0  0  0
  -18.8800   10.7560    0.0000 C   0  0  0  0  0  0  0  0  0  0  0  0
  -19.5771    9.4278    0.0000 C   0  0  0  0  0  0  0  0  0  0  0  0
  -20.1809    8.0547    0.0000 C   0  0  0  0  0  0  0  0  0  0  0  0
  -20.6885    6.6432    0.0000 C   0  0  0  0  0  0  0  0  0  0  0  0
  -21.0976    5.2001    0.0000 C   0  0  0  0  0  0  0  0  0  0  0  0
  -21.4061    3.7321    0.0000 C   0  0  0  0  0  0  0  0  0  0  0  0
  -21.6125    2.2464    0.0000 C   0  0  0  0  0  0  0  0  0  0  0  0
  -21.7160    0.7500    0.0000 C   0  0  0  0  0  0  0  0  0  0  0  0
  -21.7160   -0.7500    0.0000 C   0  0  0  0  0  0  0  0  0  0  0  0
  -21.6125   -2.2464    0.0000 C   0  0  0  0  0  0  0  0  0  0  0  0
  -21.4061   -3.7321    0.0000 C   0  0  0  0  0  0  0  0  0  0  0  0
  -21.0976   -5.2001    0.0000 C   0  0  0  0  0  0  0  0  0  0  0  0
  -20.6885   -6.6432    0.0000 C   0  0  0  0  0  0  0  0  0  0  0  0
  -20.1809   -8.0547    0.0000 C   0  0  0  0  0  0  0  0  0  0  0  0
  -19.5771   -9.4278    0.0000 C   0  0  0  0  0  0  0  0  0  0  0  0
  -18.8800  -10.7560    0.0000 C   0  0  0  0  0  0  0  0  0  0  0  0
  -18.0930  -12.0330    0.0000 C   0  0  0  0  0  0  0  0  0  0  0  0
  -17.2197  -13.2525    0.0000 C   0  0  0  0  0  0  0  0  0  0  0  0
  -16.2644  -14.4090    0.0000 C   0  0  0  0  0  0  0  0  0  0  0  0
  -15.2315  -15.4967    0.0000 C   0  0  0  0  0  0  0  0  0  0  0  0
  -14.1261  -16.5106    0.0000 C   0  0  0  0  0  0  0  0  0  0  0  0
  -12.9533  -17.4459    0.0000 C   0  0  0  0  0  0  0  0  0  0  0  0
  -11.7189  -18.2980    0.0000 C   0  0  0  0  0  0  0  0  0  0  0  0
  -10.4285  -19.0629    0.0000 C   0  0  0  0  0  0  0  0  0  0  0  0
   -9.0885  -19.7369    0.0000 C   0  0  0  0  0  0  0  0  0  0  0  0
   -7.7052  -20.3169    0.0000 C   0  0  0  0  0  0  0  0  0  0  0  0
   -6.2851  -20.8001    0.0000 C   0  0  0  0  0  0  0  0  0  0  0  0
   -4.8351  -21.1842    0.0000 C   0  0  0  0  0  0  0  0  0  0  0  0
   -3.3621  -21.4673    0.0000 C   0  0  0  0  0  0  0  0  0  0  0  0
   -1.8730  -21.6481    0.0000 C   0  0  0  0  0  0  0  0  0  0  0  0
   -0.3751  -21.7257    0.0000 C   0  0  0  0  0  0  0  0  0  0  0  0
    1.1247  -21.6998    0.0000 C   0  0  0  0  0  0  0  0  0  0  0  0
    2.6191  -21.5705    0.0000 C   0  0  0  0  0  0  0  0  0  0  0  0
    4.1011  -21.3384    0.0000 C   0  0  0  0  0  0  0  0  0  0  0  0
    5.5635  -21.0047    0.0000 C   0  0  0  0  0  0  0  0  0  0  0  0
    6.9993  -20.5708    0.0000 C   0  0  0  0  0  0  0  0  0  0  0  0
    8.4019  -20.0389    0.0000 C   0  0  0  0  0  0  0  0  0  0  0  0
    9.7644  -19.4115    0.0000 C   0  0  0  0  0  0  0  0  0  0  0  0
   11.0803  -18.6916    0.0000 C   0  0  0  0  0  0  0  0  0  0  0  0
   12.3435  -17.8826    0.0000 C   0  0  0  0  0  0  0  0  0  0  0  0
   13.5478  -16.9884    0.0000 C   0  0  0  0  0  0  0  0  0  0  0  0
   14.6876  -16.0132    0.0000 C   0  0  0  0  0  0  0  0  0  0  0  0
   15.7573  -14.9618    0.0000 C   0  0  0  0  0  0  0  0  0  0  0  0
   16.7520  -13.8390    0.0000 C   0  0  0  0  0  0  0  0  0  0  0  0
   17.6669  -12.6503    0.0000 C   0  0  0  0  0  0  0  0  0  0  0  0
   18.4975  -11.4013    0.0000 C   0  0  0  0  0  0  0  0  0  0  0  0
   19.2400  -10.0980    0.0000 C   0  0  0  0  0  0  0  0  0  0  0  0
   19.8909   -8.7465    0.0000 C   0  0  0  0  0  0  0  0  0  0  0  0
   20.4469   -7.3534    0.0000 C   0  0  0  0  0  0  0  0  0  0  0  0
   20.9055   -5.9252    0.0000 C   0  0  0  0  0  0  0  0  0  0  0  0
   21.2645   -4.4688    0.0000 C   0  0  0  0  0  0  0  0  0  0  0  0
   21.5221   -2.9911    0.0000 C   0  0  0  0  0  0  0  0  0  0  0  0
   21.6772   -1.4991    0.0000 C   0  0  0  0  0  0  0  0  0  0  0  0
  1  2  1  0
  2  3  1  0
  3  4  1  0
  4  5  1  0
  5  6  1  0
  6  7  1  0
  7  8  1  0
  8  9  1  0
  9 10  1  0
 10 11  1  0
 11 12  1  0
 12 13  1  0
 13 14  1  0
 14 15  1  0
 15 16  1  0
 16 17  1  0
 17 18  1  0
 18 19  1  0
 19 20  1  0
 20 21  1  0
 21 22  1  0
 22 23  1  0
 23 24  1  0
 24 25  1  0
 25 26  1  0
 26 27  1  0
 27 28  1  0
 28 29  1  0
 29 30  1  0
 30 31  1  0
 31 32  1  0
 32 33  1  0
 33 34  1  0
 34 35  1  0
 35 36  1  0
 36 37  1  0
 37 38  1  0
 38 39  1  0
 39 40  1  0
 40 41  1  0
 41 42  1  0
 42 43  1  0
 43 44  1  0
 44 45  1  0
 45 46  1  0
 46 47  1  0
 47 48  1  0
 48 49  1  0
 49 50  1  0
 50 51  1  0
 51 52  1  0
 52 53  1  0
 53 54  1  0
 54 55  1  0
 55 56  1  0
 56 57  1  0
 57 58  1  0
 58 59  1  0
 59 60  1  0
 60 61  1  0
 61 62  1  0
 62 63  1  0
 63 64  1  0
 64 65  1  0
 65 66  1  0
 66 67  1  0
 67 68  1  0
 68 69  1  0
 69 70  1  0
 70 71  1  0
 71 72  1  0
 72 73  1  0
 73 74  1  0
 74 75  1  0
 75 76  1  0
 76 77  1  0
 77 78  1  0
 78 79  1  0
 79 80  1  0
 80 81  1  0
 81 82  1  0
 82 83  1  0
 83 84  1  0
 84 85  1  0
 85 86  1  0
 86 87  1  0
 87 88  1  0
 88 89  1  0
 89 90  1  0
 90 91  1  0
 91  1  1  0
M  END
>  <Title>  (1012) 
idABLDgen7

$$$$

     RDKit          2D

 35 39  0  0  0  0  0  0  0  0999 V2000
   -1.1382   -8.3460    0.0000 C   0  0  0  0  0  0  0  0  0  0  0  0
   -0.7500   -6.8971    0.0000 C   0  0  0  0  0  0  0  0  0  0  0  0
    0.7500   -6.8971    0.0000 C   0  0  0  0  0  0  0  0  0  0  0  0
    2.0490   -6.1471    0.0000 C   0  0  0  0  0  0  0  0  0  0  0  0
    2.7990   -4.8481    0.0000 C   0  0  0  0  0  0  0  0  0  0  0  0
    4.2479   -5.2363    0.0000 C   0  0  0  0  0  0  0  0  0  0  0  0
    5.3086   -4.1756    0.0000 O   0  0  0  0  0  0  0  0  0  0  0  0
    4.6362   -6.6852    0.0000 N   0  0  0  0  0  0  0  0  0  0  0  0
    6.0850   -7.0734    0.0000 C   0  0  0  0  0  0  0  0  0  0  0  0
    6.4733   -8.5223    0.0000 N   0  0  0  0  0  0  0  0  0  0  0  0
    7.9222   -8.9105    0.0000 N   0  0  0  0  0  0  0  0  0  0  0  0
    8.9828   -7.8499    0.0000 N   0  0  0  0  0  0  0  0  0  0  0  0
    8.5946   -6.4010    0.0000 N   0  0  0  0  0  0  0  0  0  0  0  0
    7.1457   -6.0128    0.0000 N   0  0  0  0  0  0  0  0  0  0  0  0
    2.7990   -3.3481    0.0000 C   0  0  0  0  0  0  0  0  0  0  0  0
    4.2479   -2.9598    0.0000 O   0  0  0  0  0  0  0  0  0  0  0  0
    2.0490   -2.0490    0.0000 N   0  0  0  0  0  0  0  0  0  0  0  0
    0.7500   -1.2990    0.0000 C   0  0  0  0  0  0  0  0  0  0  0  0
    1.5000    0.0000    0.0000 C   0  0  0  0  0  0  0  0  0  0  0  0
    0.7500    1.2990    0.0000 C   0  0  0  0  0  0  0  0  0  0  0  0
   -0.7500    1.2990    0.0000 C   0  0  0  0  0  0  0  0  0  0  0  0
   -1.5000    0.0000    0.0000 C   0  0  0  0  0  0  0  0  0  0  0  0
   -0.7500   -1.2990    0.0000 C   0  0  0  0  0  0  0  0  0  0  0  0
   -2.0490   -2.0490    0.0000 C   0  0  0  0  0  0  0  0  0  0  0  0
   -2.7990   -0.7500    0.0000 C   0  0  0  0  0  0  0  0  0  0  0  0
   -4.2990   -0.7500    0.0000 C   0  0  0  0  0  0  0  0  0  0  0  0
   -5.0490   -2.0490    0.0000 C   0  0  0  0  0  0  0  0  0  0  0  0
   -4.2990   -3.3481    0.0000 C   0  0  0  0  0  0  0  0  0  0  0  0
   -2.7990   -3.3481    0.0000 C   0  0  0  0  0  0  0  0  0  0  0  0
   -2.7990   -4.8481    0.0000 C   0  0  0  0  0  0  0  0  0  0  0  0
   -4.2990   -4.8481    0.0000 C   0  0  0  0  0  0  0  0  0  0  0  0
   -5.0490   -6.1471    0.0000 C   0  0  0  0  0  0  0  0  0  0  0  0
   -4.2990   -7.4462    0.0000 C   0  0  0  0  0  0  0  0  0  0  0  0
   -2.7990   -7.4462    0.0000 C   0  0  0  0  0  0  0  0  0  0  0  0
   -2.0490   -6.1471    0.0000 C   0  0  0  0  0  0  0  0  0  0  0  0
  1  2  1  0
  2  3  2  0
  3  4  1  0
  4  5  2  0
  5  6  1  0
  6  7  2  0
  6  8  1  0
  8  9  1  0
  9 10  2  0
 10 11  1  0
 11 12  2  0
 12 13  1  0
 13 14  2  0
  5 15  1  0
 15 16  2  0
 15 17  1  0
 17 18  1  0
 18 19  2  0
 19 20  1  0
 20 21  2  0
 21 22  1  0
 22 23  2  0
 23 24  1  0
 24 25  2  0
 25 26  1  0
 26 27  2  0
 27 28  1  0
 28 29  2  0
 29 30  1  0
 30 31  2  0
 31 32  1  0
 32 33  2  0
 33 34  1  0
 34 35  2  0
 35  2  1  0
 14  9  1  0
 23 18  1  0
 29 24  1  0
 35 30  1  0
M  END
>  <Title>  (1013) 
idABLEgen7

$$$$

     RDKit          2D

 10 10  0  0  0  0  0  0  0  0999 V2000
    3.0000    0.0000    0.0000 C   0  0  0  0  0  0  0  0  0  0  0  0
    1.5000    0.0000    0.0000 C   0  0  0  0  0  0  0  0  0  0  0  0
    0.7500   -1.2990    0.0000 C   0  0  0  0  0  0  0  0  0  0  0  0
   -0.7500   -1.2990    0.0000 C   0  0  0  0  0  0  0  0  0  0  0  0
   -1.5000    0.0000    0.0000 C   0  0  0  0  0  0  0  0  0  0  0  0
   -0.7500    1.2990    0.0000 C   0  0  0  0  0  0  0  0  0  0  0  0
   -1.5000    2.5981    0.0000 C   0  0  0  0  0  0  0  0  0  0  0  0
   -0.7500    3.8971    0.0000 N   0  0  0  0  0  0  0  0  0  0  0  0
   -3.0000    2.5981    0.0000 O   0  0  0  0  0  0  0  0  0  0  0  0
    0.7500    1.2990    0.0000 C   0  0  0  0  0  0  0  0  0  0  0  0
  1  2  1  0
  2  3  1  0
  3  4  1  0
  4  5  1  0
  5  6  1  0
  6  7  1  0
  7  8  1  0
  7  9  2  0
  6 10  1  0
 10  2  1  0
M  END
>  <Title>  (1014) 
idABLFgen7

$$$$

     RDKit          2D

 52 52  0  0  0  0  0  0  0  0999 V2000
   13.9559   -1.2990    0.0000 C   0  0  0  0  0  0  0  0  0  0  0  0
   13.2059   -0.0000    0.0000 O   0  0  0  0  0  0  0  0  0  0  0  0
   11.7059    0.0000    0.0000 C   0  0  0  0  0  0  0  0  0  0  0  0
   11.6098    1.4969    0.0000 C   0  0  0  0  0  0  0  0  0  0  0  0
   11.3231    2.9693    0.0000 C   0  0  0  0  0  0  0  0  0  0  0  0
   10.8504    4.3928    0.0000 C   0  0  0  0  0  0  0  0  0  0  0  0
   10.1996    5.7443    0.0000 C   0  0  0  0  0  0  0  0  0  0  0  0
    9.3813    7.0014    0.0000 C   0  0  0  0  0  0  0  0  0  0  0  0
    8.4089    8.1436    0.0000 C   0  0  0  0  0  0  0  0  0  0  0  0
    7.2985    9.1520    0.0000 C   0  0  0  0  0  0  0  0  0  0  0  0
    6.0683   10.0102    0.0000 C   0  0  0  0  0  0  0  0  0  0  0  0
    4.7384   10.7040    0.0000 C   0  0  0  0  0  0  0  0  0  0  0  0
    3.3307   11.2221    0.0000 C   0  0  0  0  0  0  0  0  0  0  0  0
    1.8683   11.5559    0.0000 C   0  0  0  0  0  0  0  0  0  0  0  0
    0.3752   11.6999    0.0000 C   0  0  0  0  0  0  0  0  0  0  0  0
   -1.1240   11.6518    0.0000 C   0  0  0  0  0  0  0  0  0  0  0  0
   -2.6048   11.4124    0.0000 C   0  0  0  0  0  0  0  0  0  0  0  0
   -4.0428   10.9856    0.0000 C   0  0  0  0  0  0  0  0  0  0  0  0
   -5.4144   10.3784    0.0000 C   0  0  0  0  0  0  0  0  0  0  0  0
   -6.6971    9.6009    0.0000 C   0  0  0  0  0  0  0  0  0  0  0  0
   -7.8699    8.6656    0.0000 C   0  0  0  0  0  0  0  0  0  0  0  0
   -8.9134    7.5881    0.0000 C   0  0  0  0  0  0  0  0  0  0  0  0
   -9.8106    6.3860    0.0000 C   0  0  0  0  0  0  0  0  0  0  0  0
  -10.5467    5.0790    0.0000 C   0  0  0  0  0  0  0  0  0  0  0  0
  -11.1096    3.6886    0.0000 C   0  0  0  0  0  0  0  0  0  0  0  0
  -11.4900    2.2377    0.0000 C   0  0  0  0  0  0  0  0  0  0  0  0
  -11.6819    0.7500    0.0000 C   0  0  0  0  0  0  0  0  0  0  0  0
  -11.6819   -0.7500    0.0000 C   0  0  0  0  0  0  0  0  0  0  0  0
  -11.4900   -2.2377    0.0000 C   0  0  0  0  0  0  0  0  0  0  0  0
  -11.1096   -3.6886    0.0000 C   0  0  0  0  0  0  0  0  0  0  0  0
  -10.5467   -5.0790    0.0000 C   0  0  0  0  0  0  0  0  0  0  0  0
   -9.8106   -6.3860    0.0000 C   0  0  0  0  0  0  0  0  0  0  0  0
   -8.9134   -7.5881    0.0000 C   0  0  0  0  0  0  0  0  0  0  0  0
   -7.8699   -8.6656    0.0000 C   0  0  0  0  0  0  0  0  0  0  0  0
   -6.6971   -9.6009    0.0000 C   0  0  0  0  0  0  0  0  0  0  0  0
   -5.4144  -10.3784    0.0000 C   0  0  0  0  0  0  0  0  0  0  0  0
   -4.0428  -10.9856    0.0000 C   0  0  0  0  0  0  0  0  0  0  0  0
   -2.6048  -11.4124    0.0000 C   0  0  0  0  0  0  0  0  0  0  0  0
   -1.1240  -11.6518    0.0000 C   0  0  0  0  0  0  0  0  0  0  0  0
    0.3752  -11.6999    0.0000 C   0  0  0  0  0  0  0  0  0  0  0  0
    1.8683  -11.5559    0.0000 C   0  0  0  0  0  0  0  0  0  0  0  0
    3.3307  -11.2221    0.0000 C   0  0  0  0  0  0  0  0  0  0  0  0
    3.7574  -12.6601    0.0000 C   0  0  0  0  0  0  0  0  0  0  0  0
    4.7384  -10.7040    0.0000 C   0  0  0  0  0  0  0  0  0  0  0  0
    6.0683  -10.0102    0.0000 C   0  0  0  0  0  0  0  0  0  0  0  0
    7.2985   -9.1520    0.0000 C   0  0  0  0  0  0  0  0  0  0  0  0
    8.4089   -8.1436    0.0000 C   0  0  0  0  0  0  0  0  0  0  0  0
    9.3813   -7.0014    0.0000 C   0  0  0  0  0  0  0  0  0  0  0  0
   10.1996   -5.7443    0.0000 C   0  0  0  0  0  0  0  0  0  0  0  0
   10.8504   -4.3928    0.0000 C   0  0  0  0  0  0  0  0  0  0  0  0
   11.3231   -2.9693    0.0000 C   0  0  0  0  0  0  0  0  0  0  0  0
   11.6098   -1.4969    0.0000 C   0  0  0  0  0  0  0  0  0  0  0  0
  1  2  1  0
  2  3  1  0
  3  4  1  0
  4  5  1  0
  5  6  1  0
  6  7  1  0
  7  8  1  0
  8  9  1  0
  9 10  1  0
 10 11  1  0
 11 12  1  0
 12 13  1  0
 13 14  1  0
 14 15  1  0
 15 16  1  0
 16 17  1  0
 17 18  1  0
 18 19  1  0
 19 20  1  0
 20 21  1  0
 21 22  1  0
 22 23  1  0
 23 24  1  0
 24 25  1  0
 25 26  1  0
 26 27  1  0
 27 28  1  0
 28 29  1  0
 29 30  1  0
 30 31  1  0
 31 32  1  0
 32 33  1  0
 33 34  1  0
 34 35  1  0
 35 36  1  0
 36 37  1  0
 37 38  1  0
 38 39  1  0
 39 40  1  0
 40 41  1  0
 41 42  1  0
 42 43  1  0
 42 44  1  0
 44 45  1  0
 45 46  1  0
 46 47  1  0
 47 48  1  0
 48 49  1  0
 49 50  1  0
 50 51  1  0
 51 52  1  0
 52  3  1  0
M  END
>  <Title>  (1015) 
idABLGgen7

$$$$

     RDKit          2D

 10 11  0  0  0  0  0  0  0  0999 V2000
    1.2760    0.0000    0.0000 C   0  0  0  0  0  0  0  0  0  0  0  0
    0.3943    1.2135    0.0000 N   0  0  0  0  0  0  0  0  0  0  0  0
   -1.0323    0.7500    0.0000 N   0  0  0  0  0  0  0  0  0  0  0  0
   -1.0323   -0.7500    0.0000 C   0  0  0  0  0  0  0  0  0  0  0  0
    0.3943   -1.2135    0.0000 C   0  0  0  0  0  0  0  0  0  0  0  0
    0.8578   -2.6401    0.0000 C   0  0  0  0  0  0  0  0  0  0  0  0
    2.2844   -3.1036    0.0000 C   0  0  0  0  0  0  0  0  0  0  0  0
    2.2844   -4.6036    0.0000 C   0  0  0  0  0  0  0  0  0  0  0  0
    0.8578   -5.0672    0.0000 C   0  0  0  0  0  0  0  0  0  0  0  0
   -0.0239   -3.8536    0.0000 C   0  0  0  0  0  0  0  0  0  0  0  0
  1  2  2  0
  2  3  1  0
  3  4  1  0
  4  5  1  0
  5  6  1  0
  6  7  2  0
  7  8  1  0
  8  9  1  0
  9 10  1  0
  5  1  1  0
 10  6  1  0
M  END
>  <Title>  (1016) 
idABLHgen7

$$$$

     RDKit          2D

  9  9  0  0  0  0  0  0  0  0999 V2000
    5.7760   -2.5981    0.0000 C   0  0  0  0  0  0  0  0  0  0  0  0
    5.0260   -1.2990    0.0000 C   0  0  0  0  0  0  0  0  0  0  0  0
    3.5260   -1.2990    0.0000 C   0  0  0  0  0  0  0  0  0  0  0  0
    2.7760    0.0000    0.0000 C   0  0  0  0  0  0  0  0  0  0  0  0
    1.2760    0.0000    0.0000 C   0  0  0  0  0  0  0  0  0  0  0  0
    0.3943    1.2135    0.0000 C   0  0  0  0  0  0  0  0  0  0  0  0
   -1.0323    0.7500    0.0000 C   0  0  0  0  0  0  0  0  0  0  0  0
   -1.0323   -0.7500    0.0000 C   0  0  0  0  0  0  0  0  0  0  0  0
    0.3943   -1.2135    0.0000 C   0  0  0  0  0  0  0  0  0  0  0  0
  1  2  2  0
  2  3  1  0
  3  4  2  3
  4  5  1  0
  5  6  2  0
  6  7  1  0
  7  8  2  0
  8  9  1  0
  9  5  1  0
M  END
>  <Title>  (1017) 
idABLIgen7

$$$$

     RDKit          2D

 12 12  0  0  0  0  0  0  0  0999 V2000
    6.0000   -2.5981    0.0000 C   0  0  0  0  0  0  0  0  0  0  0  0
    5.2500   -1.2990    0.0000 C   0  0  0  0  0  0  0  0  0  0  0  0
    6.0000    0.0000    0.0000 O   0  0  0  0  0  0  0  0  0  0  0  0
    3.7500   -1.2990    0.0000 C   0  0  0  0  0  0  0  0  0  0  0  0
    3.0000   -2.5981    0.0000 O   0  0  0  0  0  0  0  0  0  0  0  0
    3.0000    0.0000    0.0000 N   0  0  0  0  0  0  0  0  0  0  0  0
    1.5000    0.0000    0.0000 C   0  0  0  0  0  0  0  0  0  0  0  0
    0.7500   -1.2990    0.0000 C   0  0  0  0  0  0  0  0  0  0  0  0
   -0.7500   -1.2990    0.0000 C   0  0  0  0  0  0  0  0  0  0  0  0
   -1.5000    0.0000    0.0000 C   0  0  0  0  0  0  0  0  0  0  0  0
   -0.7500    1.2990    0.0000 C   0  0  0  0  0  0  0  0  0  0  0  0
    0.7500    1.2990    0.0000 C   0  0  0  0  0  0  0  0  0  0  0  0
  1  2  1  0
  2  3  2  0
  2  4  1  0
  4  5  2  0
  4  6  1  0
  6  7  1  0
  7  8  2  0
  8  9  1  0
  9 10  2  0
 10 11  1  0
 11 12  2  0
 12  7  1  0
M  END
>  <Title>  (1018) 
idABLJgen7

$$$$

     RDKit          2D

118119  0  0  0  0  0  0  0  0999 V2000
  -11.5357   -2.2294    0.0000 C   0  0  0  0  0  0  0  0  0  0  0  0
  -10.9281   -3.6009    0.0000 C   0  0  0  0  0  0  0  0  0  0  0  0
  -12.2822   -4.2463    0.0000 C   0  0  0  0  0  0  0  0  0  0  0  0
  -13.5982   -4.9660    0.0000 C   0  0  0  0  0  0  0  0  0  0  0  0
  -14.8723   -5.7578    0.0000 C   0  0  0  0  0  0  0  0  0  0  0  0
  -16.1003   -6.6191    0.0000 C   0  0  0  0  0  0  0  0  0  0  0  0
  -17.2786   -7.5473    0.0000 C   0  0  0  0  0  0  0  0  0  0  0  0
  -18.4035   -8.5396    0.0000 C   0  0  0  0  0  0  0  0  0  0  0  0
  -19.4715   -9.5929    0.0000 C   0  0  0  0  0  0  0  0  0  0  0  0
  -20.4794  -10.7038    0.0000 C   0  0  0  0  0  0  0  0  0  0  0  0
  -21.4239  -11.8691    0.0000 C   0  0  0  0  0  0  0  0  0  0  0  0
  -22.3022  -13.0851    0.0000 C   0  0  0  0  0  0  0  0  0  0  0  0
  -23.1115  -14.3480    0.0000 C   0  0  0  0  0  0  0  0  0  0  0  0
  -23.8495  -15.6539    0.0000 C   0  0  0  0  0  0  0  0  0  0  0  0
  -24.5137  -16.9989    0.0000 C   0  0  0  0  0  0  0  0  0  0  0  0
  -25.1021  -18.3786    0.0000 C   0  0  0  0  0  0  0  0  0  0  0  0
  -25.6130  -19.7890    0.0000 C   0  0  0  0  0  0  0  0  0  0  0  0
  -26.0447  -21.2255    0.0000 C   0  0  0  0  0  0  0  0  0  0  0  0
  -26.3958  -22.6838    0.0000 C   0  0  0  0  0  0  0  0  0  0  0  0
  -26.6654  -24.1594    0.0000 C   0  0  0  0  0  0  0  0  0  0  0  0
  -26.8526  -25.6477    0.0000 C   0  0  0  0  0  0  0  0  0  0  0  0
  -26.9568  -27.1440    0.0000 C   0  0  0  0  0  0  0  0  0  0  0  0
  -26.9776  -28.6439    0.0000 C   0  0  0  0  0  0  0  0  0  0  0  0
  -26.9151  -30.1426    0.0000 C   0  0  0  0  0  0  0  0  0  0  0  0
  -26.7694  -31.6355    0.0000 C   0  0  0  0  0  0  0  0  0  0  0  0
  -26.5409  -33.1180    0.0000 C   0  0  0  0  0  0  0  0  0  0  0  0
  -26.2304  -34.5855    0.0000 C   0  0  0  0  0  0  0  0  0  0  0  0
  -25.8388  -36.0335    0.0000 C   0  0  0  0  0  0  0  0  0  0  0  0
  -25.3674  -37.4575    0.0000 C   0  0  0  0  0  0  0  0  0  0  0  0
  -24.8175  -38.8530    0.0000 C   0  0  0  0  0  0  0  0  0  0  0  0
  -24.1909  -40.2159    0.0000 C   0  0  0  0  0  0  0  0  0  0  0  0
  -23.4896  -41.5419    0.0000 C   0  0  0  0  0  0  0  0  0  0  0  0
  -22.7156  -42.8268    0.0000 C   0  0  0  0  0  0  0  0  0  0  0  0
  -21.8715  -44.0667    0.0000 C   0  0  0  0  0  0  0  0  0  0  0  0
  -20.9597  -45.2578    0.0000 C   0  0  0  0  0  0  0  0  0  0  0  0
  -19.9832  -46.3964    0.0000 C   0  0  0  0  0  0  0  0  0  0  0  0
  -18.9449  -47.4789    0.0000 C   0  0  0  0  0  0  0  0  0  0  0  0
  -17.8480  -48.5021    0.0000 C   0  0  0  0  0  0  0  0  0  0  0  0
  -16.6959  -49.4627    0.0000 C   0  0  0  0  0  0  0  0  0  0  0  0
  -15.4923  -50.3578    0.0000 C   0  0  0  0  0  0  0  0  0  0  0  0
  -14.2408  -51.1847    0.0000 C   0  0  0  0  0  0  0  0  0  0  0  0
  -12.9452  -51.9407    0.0000 C   0  0  0  0  0  0  0  0  0  0  0  0
  -11.6096  -52.6235    0.0000 C   0  0  0  0  0  0  0  0  0  0  0  0
  -10.2382  -53.2311    0.0000 C   0  0  0  0  0  0  0  0  0  0  0  0
   -8.8351  -53.7615    0.0000 C   0  0  0  0  0  0  0  0  0  0  0  0
   -7.4047  -54.2131    0.0000 C   0  0  0  0  0  0  0  0  0  0  0  0
   -5.9514  -54.5845    0.0000 C   0  0  0  0  0  0  0  0  0  0  0  0
   -4.4797  -54.8746    0.0000 C   0  0  0  0  0  0  0  0  0  0  0  0
   -2.9942  -55.0824    0.0000 C   0  0  0  0  0  0  0  0  0  0  0  0
   -1.4994  -55.2074    0.0000 C   0  0  0  0  0  0  0  0  0  0  0  0
    0.0000  -55.2491    0.0000 C   0  0  0  0  0  0  0  0  0  0  0  0
    1.4994  -55.2074    0.0000 C   0  0  0  0  0  0  0  0  0  0  0  0
    2.9942  -55.0824    0.0000 C   0  0  0  0  0  0  0  0  0  0  0  0
    4.4797  -54.8746    0.0000 C   0  0  0  0  0  0  0  0  0  0  0  0
    5.9514  -54.5845    0.0000 C   0  0  0  0  0  0  0  0  0  0  0  0
    7.4047  -54.2131    0.0000 C   0  0  0  0  0  0  0  0  0  0  0  0
    8.8351  -53.7615    0.0000 C   0  0  0  0  0  0  0  0  0  0  0  0
   10.2382  -53.2311    0.0000 C   0  0  0  0  0  0  0  0  0  0  0  0
   11.6096  -52.6235    0.0000 C   0  0  0  0  0  0  0  0  0  0  0  0
   12.9452  -51.9407    0.0000 C   0  0  0  0  0  0  0  0  0  0  0  0
   14.2408  -51.1847    0.0000 C   0  0  0  0  0  0  0  0  0  0  0  0
   15.4923  -50.3578    0.0000 C   0  0  0  0  0  0  0  0  0  0  0  0
   16.6959  -49.4627    0.0000 C   0  0  0  0  0  0  0  0  0  0  0  0
   17.8480  -48.5021    0.0000 C   0  0  0  0  0  0  0  0  0  0  0  0
   18.9449  -47.4789    0.0000 C   0  0  0  0  0  0  0  0  0  0  0  0
   19.9832  -46.3964    0.0000 C   0  0  0  0  0  0  0  0  0  0  0  0
   20.9597  -45.2578    0.0000 C   0  0  0  0  0  0  0  0  0  0  0  0
   21.8715  -44.0667    0.0000 C   0  0  0  0  0  0  0  0  0  0  0  0
   22.7156  -42.8268    0.0000 C   0  0  0  0  0  0  0  0  0  0  0  0
   23.4896  -41.5419    0.0000 C   0  0  0  0  0  0  0  0  0  0  0  0
   24.1909  -40.2159    0.0000 C   0  0  0  0  0  0  0  0  0  0  0  0
   24.8175  -38.8530    0.0000 C   0  0  0  0  0  0  0  0  0  0  0  0
   25.3674  -37.4575    0.0000 C   0  0  0  0  0  0  0  0  0  0  0  0
   25.8388  -36.0335    0.0000 C   0  0  0  0  0  0  0  0  0  0  0  0
   26.2304  -34.5855    0.0000 C   0  0  0  0  0  0  0  0  0  0  0  0
   26.5409  -33.1180    0.0000 C   0  0  0  0  0  0  0  0  0  0  0  0
   26.7694  -31.6355    0.0000 C   0  0  0  0  0  0  0  0  0  0  0  0
   26.9151  -30.1426    0.0000 C   0  0  0  0  0  0  0  0  0  0  0  0
   26.9776  -28.6439    0.0000 C   0  0  0  0  0  0  0  0  0  0  0  0
   26.9568  -27.1440    0.0000 C   0  0  0  0  0  0  0  0  0  0  0  0
   26.8526  -25.6477    0.0000 C   0  0  0  0  0  0  0  0  0  0  0  0
   26.6654  -24.1594    0.0000 C   0  0  0  0  0  0  0  0  0  0  0  0
   26.3958  -22.6838    0.0000 C   0  0  0  0  0  0  0  0  0  0  0  0
   26.0447  -21.2255    0.0000 C   0  0  0  0  0  0  0  0  0  0  0  0
   25.6130  -19.7890    0.0000 C   0  0  0  0  0  0  0  0  0  0  0  0
   25.1021  -18.3786    0.0000 C   0  0  0  0  0  0  0  0  0  0  0  0
   24.5137  -16.9989    0.0000 C   0  0  0  0  0  0  0  0  0  0  0  0
   23.8495  -15.6539    0.0000 C   0  0  0  0  0  0  0  0  0  0  0  0
   23.1115  -14.3480    0.0000 C   0  0  0  0  0  0  0  0  0  0  0  0
   22.3022  -13.0851    0.0000 C   0  0  0  0  0  0  0  0  0  0  0  0
   21.4239  -11.8691    0.0000 C   0  0  0  0  0  0  0  0  0  0  0  0
   20.4794  -10.7038    0.0000 C   0  0  0  0  0  0  0  0  0  0  0  0
   19.4715   -9.5929    0.0000 C   0  0  0  0  0  0  0  0  0  0  0  0
   18.4035   -8.5396    0.0000 C   0  0  0  0  0  0  0  0  0  0  0  0
   17.2786   -7.5473    0.0000 C   0  0  0  0  0  0  0  0  0  0  0  0
   16.1003   -6.6191    0.0000 C   0  0  0  0  0  0  0  0  0  0  0  0
   14.8723   -5.7578    0.0000 C   0  0  0  0  0  0  0  0  0  0  0  0
   13.5982   -4.9660    0.0000 C   0  0  0  0  0  0  0  0  0  0  0  0
   12.2822   -4.2463    0.0000 C   0  0  0  0  0  0  0  0  0  0  0  0
   10.9281   -3.6009    0.0000 C   0  0  0  0  0  0  0  0  0  0  0  0
    9.5403   -3.0317    0.0000 C   0  0  0  0  0  0  0  0  0  0  0  0
    8.1230   -2.5405    0.0000 C   0  0  0  0  0  0  0  0  0  0  0  0
    6.6806   -2.1288    0.0000 C   0  0  0  0  0  0  0  0  0  0  0  0
    5.2176   -1.7979    0.0000 C   0  0  0  0  0  0  0  0  0  0  0  0
    3.7384   -1.5489    0.0000 C   0  0  0  0  0  0  0  0  0  0  0  0
    2.2477   -1.3824    0.0000 C   0  0  0  0  0  0  0  0  0  0  0  0
    0.7500   -1.2990    0.0000 C   0  0  0  0  0  0  0  0  0  0  0  0
    1.5000    0.0000    0.0000 C   0  0  0  0  0  0  0  0  0  0  0  0
    0.7500    1.2990    0.0000 C   0  0  0  0  0  0  0  0  0  0  0  0
   -0.7500    1.2990    0.0000 C   0  0  0  0  0  0  0  0  0  0  0  0
   -1.5000    0.0000    0.0000 C   0  0  0  0  0  0  0  0  0  0  0  0
   -0.7500   -1.2990    0.0000 C   0  0  0  0  0  0  0  0  0  0  0  0
   -2.2477   -1.3824    0.0000 C   0  0  0  0  0  0  0  0  0  0  0  0
   -3.7384   -1.5489    0.0000 C   0  0  0  0  0  0  0  0  0  0  0  0
   -5.2176   -1.7979    0.0000 C   0  0  0  0  0  0  0  0  0  0  0  0
   -6.6806   -2.1288    0.0000 C   0  0  0  0  0  0  0  0  0  0  0  0
   -8.1230   -2.5405    0.0000 C   0  0  0  0  0  0  0  0  0  0  0  0
   -9.5403   -3.0317    0.0000 C   0  0  0  0  0  0  0  0  0  0  0  0
  1  2  1  0
  2  3  1  0
  3  4  1  0
  4  5  1  0
  5  6  1  0
  6  7  1  0
  7  8  1  0
  8  9  1  0
  9 10  1  0
 10 11  1  0
 11 12  1  0
 12 13  1  0
 13 14  1  0
 14 15  1  0
 15 16  1  0
 16 17  1  0
 17 18  1  0
 18 19  1  0
 19 20  1  0
 20 21  1  0
 21 22  1  0
 22 23  1  0
 23 24  1  0
 24 25  1  0
 25 26  1  0
 26 27  1  0
 27 28  1  0
 28 29  1  0
 29 30  1  0
 30 31  1  0
 31 32  1  0
 32 33  1  0
 33 34  1  0
 34 35  1  0
 35 36  1  0
 36 37  1  0
 37 38  1  0
 38 39  1  0
 39 40  1  0
 40 41  1  0
 41 42  1  0
 42 43  1  0
 43 44  1  0
 44 45  1  0
 45 46  1  0
 46 47  1  0
 47 48  1  0
 48 49  1  0
 49 50  1  0
 50 51  1  0
 51 52  1  0
 52 53  1  0
 53 54  1  0
 54 55  1  0
 55 56  1  0
 56 57  1  0
 57 58  1  0
 58 59  1  0
 59 60  1  0
 60 61  1  0
 61 62  1  0
 62 63  1  0
 63 64  1  0
 64 65  1  0
 65 66  1  0
 66 67  1  0
 67 68  1  0
 68 69  1  0
 69 70  1  0
 70 71  1  0
 71 72  1  0
 72 73  1  0
 73 74  1  0
 74 75  1  0
 75 76  1  0
 76 77  1  0
 77 78  1  0
 78 79  1  0
 79 80  1  0
 80 81  1  0
 81 82  1  0
 82 83  1  0
 83 84  1  0
 84 85  1  0
 85 86  1  0
 86 87  1  0
 87 88  1  0
 88 89  1  0
 89 90  1  0
 90 91  1  0
 91 92  1  0
 92 93  1  0
 93 94  1  0
 94 95  1  0
 95 96  1  0
 96 97  1  0
 97 98  1  0
 98 99  1  0
 99100  1  0
100101  1  0
101102  1  0
102103  1  0
103104  1  0
104105  1  0
105106  1  0
106107  1  0
107108  2  0
108109  1  0
109110  2  0
110111  1  0
111112  2  0
112113  1  0
113114  1  0
114115  1  0
115116  1  0
116117  1  0
117118  1  0
118  2  1  0
112107  1  0
M  END
>  <Title>  (1019) 
idABLKgen7

$$$$

     RDKit          2D

 27 30  0  0  0  0  0  0  0  0999 V2000
   -2.6615    2.7041    0.0000 C   0  0  0  0  0  0  0  0  0  0  0  0
   -1.1827    2.9553    0.0000 C   0  0  0  0  0  0  0  0  0  0  0  0
   -0.8489    4.4177    0.0000 C   0  0  0  0  0  0  0  0  0  0  0  0
    0.4212    5.2158    0.0000 C   0  0  0  0  0  0  0  0  0  0  0  0
    1.8836    4.8820    0.0000 C   0  0  0  0  0  0  0  0  0  0  0  0
    2.7516    6.1053    0.0000 C   0  0  0  0  0  0  0  0  0  0  0  0
    4.2450    5.9653    0.0000 O   0  0  0  0  0  0  0  0  0  0  0  0
    2.1261    7.4687    0.0000 N   0  0  0  0  0  0  0  0  0  0  0  0
    2.9941    8.6920    0.0000 C   0  0  0  0  0  0  0  0  0  0  0  0
    4.4876    8.5520    0.0000 N   0  0  0  0  0  0  0  0  0  0  0  0
    5.3556    9.7753    0.0000 N   0  0  0  0  0  0  0  0  0  0  0  0
    4.7302   11.1387    0.0000 N   0  0  0  0  0  0  0  0  0  0  0  0
    3.2367   11.2788    0.0000 N   0  0  0  0  0  0  0  0  0  0  0  0
    2.3687   10.0554    0.0000 N   0  0  0  0  0  0  0  0  0  0  0  0
    2.6816    3.6119    0.0000 C   0  0  0  0  0  0  0  0  0  0  0  0
    4.1150    4.0540    0.0000 C   0  0  0  0  0  0  0  0  0  0  0  0
    5.2146    3.0338    0.0000 C   0  0  0  0  0  0  0  0  0  0  0  0
    4.8808    1.5714    0.0000 C   0  0  0  0  0  0  0  0  0  0  0  0
    3.4474    1.1292    0.0000 C   0  0  0  0  0  0  0  0  0  0  0  0
    2.3478    2.1495    0.0000 C   0  0  0  0  0  0  0  0  0  0  0  0
    1.0777    1.3515    0.0000 C   0  0  0  0  0  0  0  0  0  0  0  0
    1.7286    0.0000    0.0000 C   0  0  0  0  0  0  0  0  0  0  0  0
    1.0777   -1.3515    0.0000 C   0  0  0  0  0  0  0  0  0  0  0  0
   -0.3846   -1.6852    0.0000 C   0  0  0  0  0  0  0  0  0  0  0  0
   -1.5574   -0.7500    0.0000 C   0  0  0  0  0  0  0  0  0  0  0  0
   -1.5574    0.7500    0.0000 C   0  0  0  0  0  0  0  0  0  0  0  0
   -0.3846    1.6852    0.0000 C   0  0  0  0  0  0  0  0  0  0  0  0
  1  2  1  0
  2  3  1  0
  3  4  1  0
  4  5  1  0
  5  6  1  0
  6  7  2  0
  6  8  1  0
  8  9  1  0
  9 10  2  0
 10 11  1  0
 11 12  2  0
 12 13  1  0
 13 14  2  0
  5 15  1  0
 15 16  2  0
 16 17  1  0
 17 18  2  0
 18 19  1  0
 19 20  2  0
 20 21  1  0
 21 22  2  0
 22 23  1  0
 23 24  1  0
 24 25  1  0
 25 26  1  0
 26 27  2  0
 27  2  1  0
 14  9  1  0
 20 15  1  0
 27 21  1  0
M  END
>  <Title>  (1020) 
idABLLgen7

$$$$

     RDKit          2D

 18 19  0  0  0  0  0  0  0  0999 V2000
    3.4598   -0.0000    0.0000 C   0  0  0  0  0  0  0  0  0  0  0  0
    1.9598    0.0000    0.0000 C   0  0  0  0  0  0  0  0  0  0  0  0
    1.3858   -1.3858    0.0000 C   0  0  0  0  0  0  0  0  0  0  0  0
   -0.0000   -1.9598    0.0000 C   0  0  0  0  0  0  0  0  0  0  0  0
   -1.3858   -1.3858    0.0000 C   0  0  0  0  0  0  0  0  0  0  0  0
   -1.9598    0.0000    0.0000 C   0  0  0  0  0  0  0  0  0  0  0  0
   -1.3858    1.3858    0.0000 C   0  0  0  0  0  0  0  0  0  0  0  0
   -2.4465    2.4465    0.0000 C   0  0  0  0  0  0  0  0  0  0  0  0
   -3.8954    2.0583    0.0000 O   0  0  0  0  0  0  0  0  0  0  0  0
   -2.0583    3.8954    0.0000 N   0  0  0  0  0  0  0  0  0  0  0  0
   -3.1189    4.9560    0.0000 C   0  0  0  0  0  0  0  0  0  0  0  0
   -2.7307    6.4049    0.0000 N   0  0  0  0  0  0  0  0  0  0  0  0
   -3.7913    7.4656    0.0000 N   0  0  0  0  0  0  0  0  0  0  0  0
   -5.2402    7.0773    0.0000 N   0  0  0  0  0  0  0  0  0  0  0  0
   -5.6285    5.6285    0.0000 N   0  0  0  0  0  0  0  0  0  0  0  0
   -4.5678    4.5678    0.0000 N   0  0  0  0  0  0  0  0  0  0  0  0
    0.0000    1.9598    0.0000 C   0  0  0  0  0  0  0  0  0  0  0  0
    1.3858    1.3858    0.0000 C   0  0  0  0  0  0  0  0  0  0  0  0
  1  2  1  0
  2  3  1  0
  3  4  2  0
  4  5  1  0
  5  6  2  0
  6  7  1  0
  7  8  1  0
  8  9  2  0
  8 10  1  0
 10 11  1  0
 11 12  2  0
 12 13  1  0
 13 14  2  0
 14 15  1  0
 15 16  2  0
  7 17  1  0
 17 18  1  0
 18  2  1  0
 16 11  1  0
M  END
>  <Title>  (1021) 
idABLMgen7

$$$$

     RDKit          2D

 55 55  0  0  0  0  0  0  0  0999 V2000
   13.6831   -2.5981    0.0000 O   0  0  0  0  0  0  0  0  0  0  0  0
   14.4331   -1.2990    0.0000 C   0  0  0  0  0  0  0  0  0  0  0  0
   15.9331   -1.2990    0.0000 O   0  0  0  0  0  0  0  0  0  0  0  0
   13.6831    0.0000    0.0000 O   0  0  0  0  0  0  0  0  0  0  0  0
   12.1831    0.0000    0.0000 C   0  0  0  0  0  0  0  0  0  0  0  0
   12.0907    1.4972    0.0000 C   0  0  0  0  0  0  0  0  0  0  0  0
   11.8151    2.9716    0.0000 C   0  0  0  0  0  0  0  0  0  0  0  0
   11.3604    4.4010    0.0000 C   0  0  0  0  0  0  0  0  0  0  0  0
   10.7334    5.7637    0.0000 C   0  0  0  0  0  0  0  0  0  0  0  0
    9.9438    7.0391    0.0000 C   0  0  0  0  0  0  0  0  0  0  0  0
    9.0034    8.2077    0.0000 C   0  0  0  0  0  0  0  0  0  0  0  0
    7.9265    9.2519    0.0000 C   0  0  0  0  0  0  0  0  0  0  0  0
    6.7295   10.1558    0.0000 C   0  0  0  0  0  0  0  0  0  0  0  0
    5.4305   10.9058    0.0000 C   0  0  0  0  0  0  0  0  0  0  0  0
    4.0491   11.4905    0.0000 C   0  0  0  0  0  0  0  0  0  0  0  0
    2.6064   11.9010    0.0000 C   0  0  0  0  0  0  0  0  0  0  0  0
    1.1241   12.1311    0.0000 C   0  0  0  0  0  0  0  0  0  0  0  0
   -0.3752   12.1773    0.0000 C   0  0  0  0  0  0  0  0  0  0  0  0
   -1.8688   12.0389    0.0000 C   0  0  0  0  0  0  0  0  0  0  0  0
   -3.3341   11.7180    0.0000 C   0  0  0  0  0  0  0  0  0  0  0  0
   -4.7488   11.2194    0.0000 C   0  0  0  0  0  0  0  0  0  0  0  0
   -6.0915   10.5508    0.0000 C   0  0  0  0  0  0  0  0  0  0  0  0
   -7.3419    9.7223    0.0000 C   0  0  0  0  0  0  0  0  0  0  0  0
   -8.4810    8.7464    0.0000 C   0  0  0  0  0  0  0  0  0  0  0  0
   -9.4916    7.6378    0.0000 C   0  0  0  0  0  0  0  0  0  0  0  0
  -10.3582    6.4136    0.0000 C   0  0  0  0  0  0  0  0  0  0  0  0
  -11.0679    5.0920    0.0000 C   0  0  0  0  0  0  0  0  0  0  0  0
  -11.6097    3.6933    0.0000 C   0  0  0  0  0  0  0  0  0  0  0  0
  -11.9756    2.2386    0.0000 C   0  0  0  0  0  0  0  0  0  0  0  0
  -12.1599    0.7500    0.0000 C   0  0  0  0  0  0  0  0  0  0  0  0
  -12.1599   -0.7500    0.0000 C   0  0  0  0  0  0  0  0  0  0  0  0
  -11.9756   -2.2386    0.0000 C   0  0  0  0  0  0  0  0  0  0  0  0
  -11.6097   -3.6933    0.0000 C   0  0  0  0  0  0  0  0  0  0  0  0
  -11.0679   -5.0920    0.0000 C   0  0  0  0  0  0  0  0  0  0  0  0
  -10.3582   -6.4136    0.0000 C   0  0  0  0  0  0  0  0  0  0  0  0
   -9.4916   -7.6378    0.0000 C   0  0  0  0  0  0  0  0  0  0  0  0
   -8.4810   -8.7464    0.0000 C   0  0  0  0  0  0  0  0  0  0  0  0
   -7.3419   -9.7223    0.0000 C   0  0  0  0  0  0  0  0  0  0  0  0
   -6.0915  -10.5508    0.0000 C   0  0  0  0  0  0  0  0  0  0  0  0
   -4.7488  -11.2194    0.0000 C   0  0  0  0  0  0  0  0  0  0  0  0
   -3.3341  -11.7180    0.0000 C   0  0  0  0  0  0  0  0  0  0  0  0
   -1.8688  -12.0389    0.0000 C   0  0  0  0  0  0  0  0  0  0  0  0
   -0.3752  -12.1773    0.0000 C   0  0  0  0  0  0  0  0  0  0  0  0
    1.1241  -12.1311    0.0000 C   0  0  0  0  0  0  0  0  0  0  0  0
    2.6064  -11.9010    0.0000 C   0  0  0  0  0  0  0  0  0  0  0  0
    4.0491  -11.4905    0.0000 C   0  0  0  0  0  0  0  0  0  0  0  0
    5.4305  -10.9058    0.0000 C   0  0  0  0  0  0  0  0  0  0  0  0
    6.7295  -10.1558    0.0000 C   0  0  0  0  0  0  0  0  0  0  0  0
    7.9265   -9.2519    0.0000 C   0  0  0  0  0  0  0  0  0  0  0  0
    9.0034   -8.2077    0.0000 C   0  0  0  0  0  0  0  0  0  0  0  0
    9.9438   -7.0391    0.0000 C   0  0  0  0  0  0  0  0  0  0  0  0
   10.7334   -5.7637    0.0000 C   0  0  0  0  0  0  0  0  0  0  0  0
   11.3604   -4.4010    0.0000 C   0  0  0  0  0  0  0  0  0  0  0  0
   11.8151   -2.9716    0.0000 C   0  0  0  0  0  0  0  0  0  0  0  0
   12.0907   -1.4972    0.0000 C   0  0  0  0  0  0  0  0  0  0  0  0
  1  2  2  0
  2  3  1  0
  2  4  1  0
  4  5  1  0
  5  6  1  0
  6  7  1  0
  7  8  1  0
  8  9  1  0
  9 10  1  0
 10 11  1  0
 11 12  1  0
 12 13  1  0
 13 14  1  0
 14 15  1  0
 15 16  1  0
 16 17  1  0
 17 18  1  0
 18 19  1  0
 19 20  1  0
 20 21  1  0
 21 22  1  0
 22 23  1  0
 23 24  1  0
 24 25  1  0
 25 26  1  0
 26 27  1  0
 27 28  1  0
 28 29  1  0
 29 30  1  0
 30 31  1  0
 31 32  1  0
 32 33  1  0
 33 34  1  0
 34 35  1  0
 35 36  1  0
 36 37  1  0
 37 38  1  0
 38 39  1  0
 39 40  1  0
 40 41  1  0
 41 42  1  0
 42 43  1  0
 43 44  1  0
 44 45  1  0
 45 46  1  0
 46 47  1  0
 47 48  1  0
 48 49  1  0
 49 50  1  0
 50 51  1  0
 51 52  1  0
 52 53  1  0
 53 54  1  0
 54 55  1  0
 55  5  1  0
M  END
>  <Title>  (1022) 
idABLNgen7

$$$$

     RDKit          2D

 32 32  0  0  0  0  0  0  0  0999 V2000
    8.9134    0.0000    0.0000 C   0  0  0  0  0  0  0  0  0  0  0  0
    7.4134    0.0000    0.0000 C   0  0  0  0  0  0  0  0  0  0  0  0
    7.2616    1.4923    0.0000 C   0  0  0  0  0  0  0  0  0  0  0  0
    6.8126    2.9235    0.0000 C   0  0  0  0  0  0  0  0  0  0  0  0
    6.0846    4.2350    0.0000 C   0  0  0  0  0  0  0  0  0  0  0  0
    5.1076    5.3732    0.0000 C   0  0  0  0  0  0  0  0  0  0  0  0
    3.9214    6.2913    0.0000 C   0  0  0  0  0  0  0  0  0  0  0  0
    2.5747    6.9519    0.0000 C   0  0  0  0  0  0  0  0  0  0  0  0
    1.1226    7.3279    0.0000 C   0  0  0  0  0  0  0  0  0  0  0  0
   -0.3755    7.4039    0.0000 C   0  0  0  0  0  0  0  0  0  0  0  0
   -1.8582    7.1767    0.0000 C   0  0  0  0  0  0  0  0  0  0  0  0
   -3.2648    6.6558    0.0000 C   0  0  0  0  0  0  0  0  0  0  0  0
   -4.5378    5.8623    0.0000 C   0  0  0  0  0  0  0  0  0  0  0  0
   -5.6250    4.8289    0.0000 C   0  0  0  0  0  0  0  0  0  0  0  0
   -6.4819    3.5977    0.0000 C   0  0  0  0  0  0  0  0  0  0  0  0
   -7.0734    2.2193    0.0000 C   0  0  0  0  0  0  0  0  0  0  0  0
   -7.3754    0.7500    0.0000 C   0  0  0  0  0  0  0  0  0  0  0  0
   -7.3754   -0.7500    0.0000 C   0  0  0  0  0  0  0  0  0  0  0  0
   -7.0734   -2.2193    0.0000 C   0  0  0  0  0  0  0  0  0  0  0  0
   -6.4819   -3.5977    0.0000 C   0  0  0  0  0  0  0  0  0  0  0  0
   -5.6250   -4.8289    0.0000 C   0  0  0  0  0  0  0  0  0  0  0  0
   -4.5378   -5.8623    0.0000 C   0  0  0  0  0  0  0  0  0  0  0  0
   -3.2648   -6.6558    0.0000 C   0  0  0  0  0  0  0  0  0  0  0  0
   -1.8582   -7.1767    0.0000 C   0  0  0  0  0  0  0  0  0  0  0  0
   -0.3755   -7.4039    0.0000 C   0  0  0  0  0  0  0  0  0  0  0  0
    1.1226   -7.3279    0.0000 C   0  0  0  0  0  0  0  0  0  0  0  0
    2.5747   -6.9519    0.0000 C   0  0  0  0  0  0  0  0  0  0  0  0
    3.9214   -6.2913    0.0000 C   0  0  0  0  0  0  0  0  0  0  0  0
    5.1076   -5.3732    0.0000 C   0  0  0  0  0  0  0  0  0  0  0  0
    6.0846   -4.2350    0.0000 C   0  0  0  0  0  0  0  0  0  0  0  0
    6.8126   -2.9235    0.0000 C   0  0  0  0  0  0  0  0  0  0  0  0
    7.2616   -1.4923    0.0000 C   0  0  0  0  0  0  0  0  0  0  0  0
  1  2  1  0
  2  3  1  0
  3  4  2  0
  4  5  1  0
  5  6  2  0
  6  7  1  0
  7  8  2  0
  8  9  1  0
  9 10  1  0
 10 11  1  0
 11 12  1  0
 12 13  1  0
 13 14  1  0
 14 15  1  0
 15 16  1  0
 16 17  1  0
 17 18  1  0
 18 19  1  0
 19 20  1  0
 20 21  1  0
 21 22  1  0
 22 23  1  0
 23 24  1  0
 24 25  1  0
 25 26  1  0
 26 27  1  0
 27 28  1  0
 28 29  1  0
 29 30  1  0
 30 31  1  0
 31 32  1  0
 32  2  1  0
M  END
>  <Title>  (1023) 
idABLOgen7

$$$$

     RDKit          2D

 10 11  0  0  0  0  0  0  0  0999 V2000
    1.2760    0.0000    0.0000 C   0  0  0  0  0  0  0  0  0  0  0  0
    0.3943    1.2135    0.0000 C   0  0  0  0  0  0  0  0  0  0  0  0
   -1.0323    0.7500    0.0000 C   0  0  0  0  0  0  0  0  0  0  0  0
   -1.0323   -0.7500    0.0000 C   0  0  0  0  0  0  0  0  0  0  0  0
   -2.2458   -1.6317    0.0000 C   0  0  0  0  0  0  0  0  0  0  0  0
   -2.2458   -3.1317    0.0000 C   0  0  0  0  0  0  0  0  0  0  0  0
   -3.6724   -3.5952    0.0000 C   0  0  0  0  0  0  0  0  0  0  0  0
   -4.5541   -2.3817    0.0000 C   0  0  0  0  0  0  0  0  0  0  0  0
   -3.6724   -1.1682    0.0000 C   0  0  0  0  0  0  0  0  0  0  0  0
    0.3943   -1.2135    0.0000 C   0  0  0  0  0  0  0  0  0  0  0  0
  1  2  2  0
  2  3  1  0
  3  4  1  0
  4  5  1  0
  5  6  2  0
  6  7  1  0
  7  8  1  0
  8  9  2  0
  4 10  2  0
 10  1  1  0
  9  5  1  0
M  END
>  <Title>  (1024) 
idABLPgen7

$$$$

     RDKit          2D

  9  9  0  0  0  0  0  0  0  0999 V2000
    2.7760    0.0000    0.0000 C   0  0  0  0  0  0  0  0  0  0  0  0
    1.2760    0.0000    0.0000 C   0  0  0  0  0  0  0  0  0  0  0  0
    0.3943    1.2135    0.0000 C   0  0  0  0  0  0  0  0  0  0  0  0
   -1.0323    0.7500    0.0000 C   0  0  0  0  0  0  0  0  0  0  0  0
   -1.0323   -0.7500    0.0000 C   0  0  0  0  0  0  0  0  0  0  0  0
   -2.2458   -1.6317    0.0000 C   0  0  0  0  0  0  0  0  0  0  0  0
   -3.6161   -1.0216    0.0000 N   0  0  0  0  0  0  0  0  0  0  0  0
   -2.0890   -3.1235    0.0000 O   0  0  0  0  0  0  0  0  0  0  0  0
    0.3943   -1.2135    0.0000 C   0  0  0  0  0  0  0  0  0  0  0  0
  1  2  1  0
  2  3  2  0
  3  4  1  0
  4  5  2  0
  5  6  1  0
  6  7  1  0
  6  8  2  0
  5  9  1  0
  9  2  1  0
M  END
>  <Title>  (1025) 
idABLQgen7

$$$$

     RDKit          2D

  8  8  0  0  0  0  0  0  0  0999 V2000
    4.0607    0.0000    0.0000 N   0  0  0  0  0  0  0  0  0  0  0  0
    2.5607    0.0000    0.0000 C   0  0  0  0  0  0  0  0  0  0  0  0
    1.0607    0.0000    0.0000 C   0  0  0  0  0  0  0  0  0  0  0  0
   -0.0000   -1.0607    0.0000 C   0  0  0  0  0  0  0  0  0  0  0  0
   -0.0000   -2.5607    0.0000 C   0  0  0  0  0  0  0  0  0  0  0  0
   -0.0000   -4.0607    0.0000 N   0  0  0  0  0  0  0  0  0  0  0  0
   -1.0607    0.0000    0.0000 C   0  0  0  0  0  0  0  0  0  0  0  0
    0.0000    1.0607    0.0000 C   0  0  0  0  0  0  0  0  0  0  0  0
  1  2  3  0
  2  3  1  0
  3  4  2  0
  4  5  1  0
  5  6  3  0
  4  7  1  0
  7  8  1  0
  8  3  1  0
M  END
>  <Title>  (1026) 
idABLRgen7

$$$$

     RDKit          2D

 34 38  0  0  0  0  0  0  0  0999 V2000
   -3.1965   -1.7857    0.0000 C   0  0  0  0  0  0  0  0  0  0  0  0
   -1.8107   -2.3597    0.0000 C   0  0  0  0  0  0  0  0  0  0  0  0
   -1.8107   -3.8597    0.0000 C   0  0  0  0  0  0  0  0  0  0  0  0
   -0.7500   -4.9204    0.0000 C   0  0  0  0  0  0  0  0  0  0  0  0
    0.7500   -4.9204    0.0000 C   0  0  0  0  0  0  0  0  0  0  0  0
    1.3240   -6.3062    0.0000 C   0  0  0  0  0  0  0  0  0  0  0  0
    2.8112   -6.5020    0.0000 O   0  0  0  0  0  0  0  0  0  0  0  0
    0.4109   -7.4962    0.0000 N   0  0  0  0  0  0  0  0  0  0  0  0
    0.9849   -8.8820    0.0000 C   0  0  0  0  0  0  0  0  0  0  0  0
    0.0718  -10.0721    0.0000 N   0  0  0  0  0  0  0  0  0  0  0  0
    0.6458  -11.4579    0.0000 N   0  0  0  0  0  0  0  0  0  0  0  0
    2.1330  -11.6537    0.0000 N   0  0  0  0  0  0  0  0  0  0  0  0
    3.0461  -10.4636    0.0000 N   0  0  0  0  0  0  0  0  0  0  0  0
    2.4721   -9.0778    0.0000 N   0  0  0  0  0  0  0  0  0  0  0  0
    1.8107   -3.8597    0.0000 C   0  0  0  0  0  0  0  0  0  0  0  0
    3.2372   -4.3232    0.0000 C   0  0  0  0  0  0  0  0  0  0  0  0
    4.1189   -3.1097    0.0000 C   0  0  0  0  0  0  0  0  0  0  0  0
    3.2372   -1.8962    0.0000 C   0  0  0  0  0  0  0  0  0  0  0  0
    3.7008   -0.4696    0.0000 C   0  0  0  0  0  0  0  0  0  0  0  0
    2.6971    0.6451    0.0000 O   0  0  0  0  0  0  0  0  0  0  0  0
    5.1680   -0.1577    0.0000 N   0  0  0  0  0  0  0  0  0  0  0  0
    5.6315    1.2689    0.0000 C   0  0  0  0  0  0  0  0  0  0  0  0
    7.0987    1.5807    0.0000 C   0  0  0  0  0  0  0  0  0  0  0  0
    7.5623    3.0073    0.0000 C   0  0  0  0  0  0  0  0  0  0  0  0
    6.5586    4.1220    0.0000 C   0  0  0  0  0  0  0  0  0  0  0  0
    5.0913    3.8102    0.0000 C   0  0  0  0  0  0  0  0  0  0  0  0
    4.6278    2.3836    0.0000 C   0  0  0  0  0  0  0  0  0  0  0  0
    1.8107   -2.3597    0.0000 C   0  0  0  0  0  0  0  0  0  0  0  0
    0.7500   -1.2990    0.0000 C   0  0  0  0  0  0  0  0  0  0  0  0
    1.5000    0.0000    0.0000 C   0  0  0  0  0  0  0  0  0  0  0  0
    0.7500    1.2990    0.0000 C   0  0  0  0  0  0  0  0  0  0  0  0
   -0.7500    1.2990    0.0000 C   0  0  0  0  0  0  0  0  0  0  0  0
   -1.5000    0.0000    0.0000 C   0  0  0  0  0  0  0  0  0  0  0  0
   -0.7500   -1.2990    0.0000 C   0  0  0  0  0  0  0  0  0  0  0  0
  1  2  1  0
  2  3  1  0
  3  4  1  0
  4  5  1  0
  5  6  1  0
  6  7  2  0
  6  8  1  0
  8  9  1  0
  9 10  2  0
 10 11  1  0
 11 12  2  0
 12 13  1  0
 13 14  2  0
  5 15  1  0
 15 16  2  0
 16 17  1  0
 17 18  2  0
 18 19  1  0
 19 20  2  0
 19 21  1  0
 21 22  1  0
 22 23  2  0
 23 24  1  0
 24 25  2  0
 25 26  1  0
 26 27  2  0
 18 28  1  0
 28 29  1  0
 29 30  2  0
 30 31  1  0
 31 32  2  0
 32 33  1  0
 33 34  2  0
 34  2  1  0
 14  9  1  0
 28 15  1  0
 34 29  1  0
 27 22  1  0
M  END
>  <Title>  (1027) 
idABLSgen7

$$$$

     RDKit          2D

 79 83  0  0  0  0  0  0  0  0999 V2000
   -8.6124   -2.4721    0.0000 C   0  0  0  0  0  0  0  0  0  0  0  0
   -7.7577   -3.7048    0.0000 C   0  0  0  0  0  0  0  0  0  0  0  0
   -8.9414   -4.6261    0.0000 C   0  0  0  0  0  0  0  0  0  0  0  0
  -10.0166   -5.6721    0.0000 C   0  0  0  0  0  0  0  0  0  0  0  0
  -10.9702   -6.8299    0.0000 C   0  0  0  0  0  0  0  0  0  0  0  0
  -11.7906   -8.0857    0.0000 C   0  0  0  0  0  0  0  0  0  0  0  0
  -12.4679   -9.4241    0.0000 C   0  0  0  0  0  0  0  0  0  0  0  0
  -12.9939  -10.8288    0.0000 C   0  0  0  0  0  0  0  0  0  0  0  0
  -13.3621  -12.2829    0.0000 C   0  0  0  0  0  0  0  0  0  0  0  0
  -13.5681  -13.7687    0.0000 C   0  0  0  0  0  0  0  0  0  0  0  0
  -13.6095  -15.2681    0.0000 C   0  0  0  0  0  0  0  0  0  0  0  0
  -13.4856  -16.7630    0.0000 C   0  0  0  0  0  0  0  0  0  0  0  0
  -13.1980  -18.2352    0.0000 C   0  0  0  0  0  0  0  0  0  0  0  0
  -12.7503  -19.6668    0.0000 C   0  0  0  0  0  0  0  0  0  0  0  0
  -12.1477  -21.0405    0.0000 C   0  0  0  0  0  0  0  0  0  0  0  0
  -11.3977  -22.3395    0.0000 C   0  0  0  0  0  0  0  0  0  0  0  0
  -10.5094  -23.5482    0.0000 C   0  0  0  0  0  0  0  0  0  0  0  0
   -9.4934  -24.6517    0.0000 C   0  0  0  0  0  0  0  0  0  0  0  0
   -8.3623  -25.6369    0.0000 C   0  0  0  0  0  0  0  0  0  0  0  0
   -7.1296  -26.4916    0.0000 C   0  0  0  0  0  0  0  0  0  0  0  0
   -5.8104  -27.2055    0.0000 C   0  0  0  0  0  0  0  0  0  0  0  0
   -4.4207  -27.7700    0.0000 C   0  0  0  0  0  0  0  0  0  0  0  0
   -2.9773  -28.1781    0.0000 C   0  0  0  0  0  0  0  0  0  0  0  0
   -1.4977  -28.4250    0.0000 C   0  0  0  0  0  0  0  0  0  0  0  0
    0.0000  -28.5076    0.0000 C   0  0  0  0  0  0  0  0  0  0  0  0
    1.4977  -28.4250    0.0000 C   0  0  0  0  0  0  0  0  0  0  0  0
    2.9773  -28.1781    0.0000 C   0  0  0  0  0  0  0  0  0  0  0  0
    4.4207  -27.7700    0.0000 C   0  0  0  0  0  0  0  0  0  0  0  0
    5.8104  -27.2055    0.0000 C   0  0  0  0  0  0  0  0  0  0  0  0
    7.1296  -26.4916    0.0000 C   0  0  0  0  0  0  0  0  0  0  0  0
    8.3623  -25.6369    0.0000 C   0  0  0  0  0  0  0  0  0  0  0  0
    9.4934  -24.6517    0.0000 C   0  0  0  0  0  0  0  0  0  0  0  0
   10.5094  -23.5482    0.0000 C   0  0  0  0  0  0  0  0  0  0  0  0
   11.3977  -22.3395    0.0000 C   0  0  0  0  0  0  0  0  0  0  0  0
   12.1477  -21.0405    0.0000 C   0  0  0  0  0  0  0  0  0  0  0  0
   12.7503  -19.6668    0.0000 C   0  0  0  0  0  0  0  0  0  0  0  0
   13.1980  -18.2352    0.0000 C   0  0  0  0  0  0  0  0  0  0  0  0
   13.4856  -16.7630    0.0000 C   0  0  0  0  0  0  0  0  0  0  0  0
   13.6095  -15.2681    0.0000 C   0  0  0  0  0  0  0  0  0  0  0  0
   13.5681  -13.7687    0.0000 C   0  0  0  0  0  0  0  0  0  0  0  0
   13.3621  -12.2829    0.0000 C   0  0  0  0  0  0  0  0  0  0  0  0
   12.9939  -10.8288    0.0000 C   0  0  0  0  0  0  0  0  0  0  0  0
   12.4679   -9.4241    0.0000 C   0  0  0  0  0  0  0  0  0  0  0  0
   11.7906   -8.0857    0.0000 C   0  0  0  0  0  0  0  0  0  0  0  0
   10.9702   -6.8299    0.0000 C   0  0  0  0  0  0  0  0  0  0  0  0
   10.0166   -5.6721    0.0000 C   0  0  0  0  0  0  0  0  0  0  0  0
    8.9414   -4.6261    0.0000 C   0  0  0  0  0  0  0  0  0  0  0  0
    7.7577   -3.7048    0.0000 C   0  0  0  0  0  0  0  0  0  0  0  0
    6.4799   -2.9193    0.0000 C   0  0  0  0  0  0  0  0  0  0  0  0
    5.1233   -2.2791    0.0000 C   0  0  0  0  0  0  0  0  0  0  0  0
    3.7046   -1.7921    0.0000 C   0  0  0  0  0  0  0  0  0  0  0  0
    2.2409   -1.4641    0.0000 C   0  0  0  0  0  0  0  0  0  0  0  0
    2.4878    0.0155    0.0000 C   0  0  0  0  0  0  0  0  0  0  0  0
    1.5951    1.2209    0.0000 O   0  0  0  0  0  0  0  0  0  0  0  0
    3.8926    0.5414    0.0000 N   0  0  0  0  0  0  0  0  0  0  0  0
    4.1394    2.0210    0.0000 C   0  0  0  0  0  0  0  0  0  0  0  0
    5.5442    2.5469    0.0000 N   0  0  0  0  0  0  0  0  0  0  0  0
    5.7911    4.0265    0.0000 N   0  0  0  0  0  0  0  0  0  0  0  0
    4.6332    4.9801    0.0000 N   0  0  0  0  0  0  0  0  0  0  0  0
    3.2285    4.4541    0.0000 N   0  0  0  0  0  0  0  0  0  0  0  0
    2.9816    2.9746    0.0000 N   0  0  0  0  0  0  0  0  0  0  0  0
    0.7500   -1.2990    0.0000 C   0  0  0  0  0  0  0  0  0  0  0  0
    1.5000    0.0000    0.0000 C   0  0  0  0  0  0  0  0  0  0  0  0
    0.7500    1.2990    0.0000 C   0  0  0  0  0  0  0  0  0  0  0  0
   -0.7500    1.2990    0.0000 C   0  0  0  0  0  0  0  0  0  0  0  0
   -1.5000    0.0000    0.0000 C   0  0  0  0  0  0  0  0  0  0  0  0
   -0.7500   -1.2990    0.0000 C   0  0  0  0  0  0  0  0  0  0  0  0
   -2.2409   -1.4641    0.0000 C   0  0  0  0  0  0  0  0  0  0  0  0
   -1.2250   -2.5676    0.0000 C   0  0  0  0  0  0  0  0  0  0  0  0
   -1.6727   -3.9992    0.0000 C   0  0  0  0  0  0  0  0  0  0  0  0
   -3.1364   -4.3273    0.0000 C   0  0  0  0  0  0  0  0  0  0  0  0
   -4.1524   -3.2237    0.0000 C   0  0  0  0  0  0  0  0  0  0  0  0
   -3.7046   -1.7921    0.0000 C   0  0  0  0  0  0  0  0  0  0  0  0
   -5.1233   -2.2791    0.0000 C   0  0  0  0  0  0  0  0  0  0  0  0
   -4.9994   -0.7842    0.0000 C   0  0  0  0  0  0  0  0  0  0  0  0
   -6.2321    0.0705    0.0000 C   0  0  0  0  0  0  0  0  0  0  0  0
   -7.5886   -0.5697    0.0000 C   0  0  0  0  0  0  0  0  0  0  0  0
   -7.7125   -2.0646    0.0000 C   0  0  0  0  0  0  0  0  0  0  0  0
   -6.4799   -2.9193    0.0000 C   0  0  0  0  0  0  0  0  0  0  0  0
  1  2  1  0
  2  3  1  0
  3  4  1  0
  4  5  1  0
  5  6  1  0
  6  7  1  0
  7  8  1  0
  8  9  1  0
  9 10  1  0
 10 11  1  0
 11 12  1  0
 12 13  1  0
 13 14  1  0
 14 15  1  0
 15 16  1  0
 16 17  1  0
 17 18  1  0
 18 19  1  0
 19 20  1  0
 20 21  1  0
 21 22  1  0
 22 23  1  0
 23 24  1  0
 24 25  1  0
 25 26  1  0
 26 27  1  0
 27 28  1  0
 28 29  1  0
 29 30  1  0
 30 31  1  0
 31 32  1  0
 32 33  1  0
 33 34  1  0
 34 35  1  0
 35 36  1  0
 36 37  1  0
 37 38  2  0
 38 39  1  0
 39 40  2  0
 40 41  1  0
 41 42  2  0
 42 43  1  0
 43 44  2  0
 44 45  1  0
 45 46  2  0
 46 47  1  0
 47 48  2  0
 48 49  1  0
 49 50  2  0
 50 51  1  0
 51 52  2  0
 52 53  1  0
 53 54  2  0
 53 55  1  0
 55 56  1  0
 56 57  2  0
 57 58  1  0
 58 59  2  0
 59 60  1  0
 60 61  2  0
 52 62  1  0
 62 63  2  0
 63 64  1  0
 64 65  2  0
 65 66  1  0
 66 67  2  0
 67 68  1  0
 68 69  2  0
 69 70  1  0
 70 71  2  0
 71 72  1  0
 72 73  2  0
 73 74  1  0
 74 75  2  0
 75 76  1  0
 76 77  2  0
 77 78  1  0
 78 79  2  0
 79  2  1  0
 61 56  1  0
 67 62  1  0
 73 68  1  0
 79 74  1  0
M  END
>  <Title>  (1028) 
idABLTgen7

$$$$

     RDKit          2D

 55 62  0  0  0  0  0  0  0  0999 V2000
    8.5573   -3.1752    0.0000 C   0  0  0  0  0  0  0  0  0  0  0  0
    7.6338   -1.9932    0.0000 C   0  0  0  0  0  0  0  0  0  0  0  0
    6.3094   -2.6974    0.0000 C   0  0  0  0  0  0  0  0  0  0  0  0
    4.8240   -2.9062    0.0000 C   0  0  0  0  0  0  0  0  0  0  0  0
    3.3567   -2.5943    0.0000 C   0  0  0  0  0  0  0  0  0  0  0  0
    2.7948   -3.9851    0.0000 C   0  0  0  0  0  0  0  0  0  0  0  0
    1.3094   -4.1938    0.0000 O   0  0  0  0  0  0  0  0  0  0  0  0
    3.7183   -5.1671    0.0000 N   0  0  0  0  0  0  0  0  0  0  0  0
    3.1564   -6.5579    0.0000 C   0  0  0  0  0  0  0  0  0  0  0  0
    1.6710   -6.7666    0.0000 N   0  0  0  0  0  0  0  0  0  0  0  0
    1.1091   -8.1574    0.0000 N   0  0  0  0  0  0  0  0  0  0  0  0
    2.0326   -9.3394    0.0000 N   0  0  0  0  0  0  0  0  0  0  0  0
    3.5180   -9.1307    0.0000 N   0  0  0  0  0  0  0  0  0  0  0  0
    4.0799   -7.7399    0.0000 N   0  0  0  0  0  0  0  0  0  0  0  0
    1.9635   -1.4266    0.0000 C   0  0  0  0  0  0  0  0  0  0  0  0
    2.4271    0.0000    0.0000 C   0  0  0  0  0  0  0  0  0  0  0  0
    1.9635    1.4266    0.0000 C   0  0  0  0  0  0  0  0  0  0  0  0
    0.7500    2.3083    0.0000 C   0  0  0  0  0  0  0  0  0  0  0  0
   -0.7500    2.3083    0.0000 C   0  0  0  0  0  0  0  0  0  0  0  0
   -1.9635    1.4266    0.0000 N   0  0  0  0  0  0  0  0  0  0  0  0
   -2.4271    0.0000    0.0000 N   0  0  0  0  0  0  0  0  0  0  0  0
   -1.9635   -1.4266    0.0000 N   0  0  0  0  0  0  0  0  0  0  0  0
   -0.7500   -2.3083    0.0000 N   0  0  0  0  0  0  0  0  0  0  0  0
    0.7500   -2.3083    0.0000 N   0  0  0  0  0  0  0  0  0  0  0  0
    1.3119    3.6990    0.0000 C   0  0  0  0  0  0  0  0  0  0  0  0
   -0.1553    4.0109    0.0000 C   0  0  0  0  0  0  0  0  0  0  0  0
   -0.6188    5.4375    0.0000 C   0  0  0  0  0  0  0  0  0  0  0  0
    0.3849    6.5522    0.0000 C   0  0  0  0  0  0  0  0  0  0  0  0
   -0.0787    7.9788    0.0000 O   0  0  0  0  0  0  0  0  0  0  0  0
    1.8521    6.2403    0.0000 C   0  0  0  0  0  0  0  0  0  0  0  0
    2.3156    4.8138    0.0000 C   0  0  0  0  0  0  0  0  0  0  0  0
    3.6400    5.5180    0.0000 C   0  0  0  0  0  0  0  0  0  0  0  0
    2.7165    6.7000    0.0000 C   0  0  0  0  0  0  0  0  0  0  0  0
    3.2784    8.0908    0.0000 C   0  0  0  0  0  0  0  0  0  0  0  0
    4.7638    8.2995    0.0000 C   0  0  0  0  0  0  0  0  0  0  0  0
    5.6873    7.1175    0.0000 C   0  0  0  0  0  0  0  0  0  0  0  0
    5.1254    5.7267    0.0000 C   0  0  0  0  0  0  0  0  0  0  0  0
    6.5927    5.4149    0.0000 C   0  0  0  0  0  0  0  0  0  0  0  0
    6.6450    6.9139    0.0000 C   0  0  0  0  0  0  0  0  0  0  0  0
    7.9694    7.6181    0.0000 C   0  0  0  0  0  0  0  0  0  0  0  0
    9.2415    6.8233    0.0000 C   0  0  0  0  0  0  0  0  0  0  0  0
    9.1891    5.3242    0.0000 C   0  0  0  0  0  0  0  0  0  0  0  0
    7.8647    4.6200    0.0000 C   0  0  0  0  0  0  0  0  0  0  0  0
    8.7882    3.4380    0.0000 C   0  0  0  0  0  0  0  0  0  0  0  0
    9.7919    4.5527    0.0000 C   0  0  0  0  0  0  0  0  0  0  0  0
   11.2591    4.2408    0.0000 C   0  0  0  0  0  0  0  0  0  0  0  0
   11.7227    2.8142    0.0000 C   0  0  0  0  0  0  0  0  0  0  0  0
   10.7190    1.6995    0.0000 C   0  0  0  0  0  0  0  0  0  0  0  0
    9.2517    2.0114    0.0000 C   0  0  0  0  0  0  0  0  0  0  0  0
    9.1994    0.5123    0.0000 C   0  0  0  0  0  0  0  0  0  0  0  0
   10.6848    0.7210    0.0000 C   0  0  0  0  0  0  0  0  0  0  0  0
   11.6083   -0.4610    0.0000 C   0  0  0  0  0  0  0  0  0  0  0  0
   11.0464   -1.8517    0.0000 C   0  0  0  0  0  0  0  0  0  0  0  0
    9.5610   -2.0605    0.0000 C   0  0  0  0  0  0  0  0  0  0  0  0
    8.6375   -0.8785    0.0000 C   0  0  0  0  0  0  0  0  0  0  0  0
  1  2  1  0
  2  3  1  0
  3  4  1  0
  4  5  1  0
  5  6  1  0
  6  7  2  0
  6  8  1  0
  8  9  1  0
  9 10  2  0
 10 11  1  0
 11 12  2  0
 12 13  1  0
 13 14  2  0
  5 15  1  0
 15 16  2  0
 16 17  1  0
 17 18  2  0
 18 19  1  0
 19 20  2  0
 20 21  1  0
 21 22  2  0
 22 23  1  0
 23 24  2  0
 18 25  1  0
 25 26  2  0
 26 27  1  0
 27 28  2  0
 28 29  1  0
 28 30  1  0
 30 31  2  0
 31 32  1  0
 32 33  2  0
 33 34  1  0
 34 35  2  0
 35 36  1  0
 36 37  2  0
 37 38  1  0
 38 39  2  0
 39 40  1  0
 40 41  2  0
 41 42  1  0
 42 43  2  0
 43 44  1  0
 44 45  2  0
 45 46  1  0
 46 47  2  0
 47 48  1  0
 48 49  2  0
 49 50  1  0
 50 51  2  0
 51 52  1  0
 52 53  2  0
 53 54  1  0
 54 55  2  0
 55  2  1  0
 14  9  1  0
 24 15  1  0
 31 25  1  0
 37 32  1  0
 43 38  1  0
 49 44  1  0
 55 50  1  0
M  END
>  <Title>  (1029) 
idABLUgen7

$$$$

     RDKit          2D

 20 21  0  0  0  0  0  0  0  0999 V2000
    7.5000    0.0000    0.0000 C   0  0  0  0  0  0  0  0  0  0  0  0
    6.0000    0.0000    0.0000 C   0  0  0  0  0  0  0  0  0  0  0  0
    4.5000    0.0000    0.0000 C   0  0  0  0  0  0  0  0  0  0  0  0
    3.0000    0.0000    0.0000 C   0  0  0  0  0  0  0  0  0  0  0  0
    1.5000    0.0000    0.0000 C   0  0  0  0  0  0  0  0  0  0  0  0
    0.7500   -1.2990    0.0000 C   0  0  0  0  0  0  0  0  0  0  0  0
   -0.7500   -1.2990    0.0000 C   0  0  0  0  0  0  0  0  0  0  0  0
   -1.5000    0.0000    0.0000 C   0  0  0  0  0  0  0  0  0  0  0  0
   -3.0000    0.0000    0.0000 C   0  0  0  0  0  0  0  0  0  0  0  0
   -3.7500    1.2990    0.0000 O   0  0  0  0  0  0  0  0  0  0  0  0
   -3.7500   -1.2990    0.0000 N   0  0  0  0  0  0  0  0  0  0  0  0
   -5.2500   -1.2990    0.0000 C   0  0  0  0  0  0  0  0  0  0  0  0
   -6.0000    0.0000    0.0000 N   0  0  0  0  0  0  0  0  0  0  0  0
   -7.5000    0.0000    0.0000 N   0  0  0  0  0  0  0  0  0  0  0  0
   -8.2500   -1.2990    0.0000 N   0  0  0  0  0  0  0  0  0  0  0  0
   -7.5000   -2.5981    0.0000 N   0  0  0  0  0  0  0  0  0  0  0  0
   -6.0000   -2.5981    0.0000 N   0  0  0  0  0  0  0  0  0  0  0  0
   -0.7500    1.2990    0.0000 C   0  0  0  0  0  0  0  0  0  0  0  0
   -1.5000    2.5981    0.0000 C   0  0  0  0  0  0  0  0  0  0  0  0
    0.7500    1.2990    0.0000 C   0  0  0  0  0  0  0  0  0  0  0  0
  1  2  3  0
  2  3  1  0
  3  4  3  0
  4  5  1  0
  5  6  2  0
  6  7  1  0
  7  8  1  0
  8  9  1  0
  9 10  2  0
  9 11  1  0
 11 12  1  0
 12 13  2  0
 13 14  1  0
 14 15  2  0
 15 16  1  0
 16 17  2  0
  8 18  1  0
 18 19  1  0
 18 20  1  0
 20  5  1  0
 17 12  1  0
M  END
>  <Title>  (1030) 
idABLVgen7

$$$$

     RDKit          2D

 11 11  0  0  0  0  0  0  0  0999 V2000
    5.0260    1.2990    0.0000 C   0  0  0  0  0  0  0  0  0  0  0  0
    3.5260    1.2990    0.0000 C   0  0  0  0  0  0  0  0  0  0  0  0
    2.7760    2.5981    0.0000 O   0  0  0  0  0  0  0  0  0  0  0  0
    2.7760    0.0000    0.0000 C   0  0  0  0  0  0  0  0  0  0  0  0
    3.5260   -1.2990    0.0000 C   0  0  0  0  0  0  0  0  0  0  0  0
    1.2760    0.0000    0.0000 N   0  0  0  0  0  0  0  0  0  0  0  0
    0.3943    1.2135    0.0000 C   0  0  0  0  0  0  0  0  0  0  0  0
   -1.0323    0.7500    0.0000 C   0  0  0  0  0  0  0  0  0  0  0  0
   -1.0323   -0.7500    0.0000 C   0  0  0  0  0  0  0  0  0  0  0  0
   -2.2458   -1.6317    0.0000 C   0  0  0  0  0  0  0  0  0  0  0  0
    0.3943   -1.2135    0.0000 C   0  0  0  0  0  0  0  0  0  0  0  0
  1  2  1  0
  2  3  2  0
  2  4  1  0
  4  5  1  0
  4  6  1  0
  6  7  1  0
  7  8  1  0
  8  9  1  0
  9 10  1  0
  9 11  1  0
 11  6  1  0
M  END
>  <Title>  (1031) 
idABLWgen7

$$$$

     RDKit          2D

 84 86  0  0  0  0  0  0  0  0999 V2000
   18.4555    0.0000    0.0000 C   0  0  0  0  0  0  0  0  0  0  0  0
   16.9555    0.0000    0.0000 C   0  0  0  0  0  0  0  0  0  0  0  0
   16.8892    1.4985    0.0000 C   0  0  0  0  0  0  0  0  0  0  0  0
   16.6907    2.9853    0.0000 C   0  0  0  0  0  0  0  0  0  0  0  0
   16.3615    4.4488    0.0000 C   0  0  0  0  0  0  0  0  0  0  0  0
   17.8089    4.8423    0.0000 C   0  0  0  0  0  0  0  0  0  0  0  0
   18.8735    3.7856    0.0000 C   0  0  0  0  0  0  0  0  0  0  0  0
   20.3210    4.1792    0.0000 C   0  0  0  0  0  0  0  0  0  0  0  0
   20.7038    5.6295    0.0000 C   0  0  0  0  0  0  0  0  0  0  0  0
   19.6393    6.6862    0.0000 C   0  0  0  0  0  0  0  0  0  0  0  0
   18.1918    6.2927    0.0000 C   0  0  0  0  0  0  0  0  0  0  0  0
   17.1273    7.3494    0.0000 C   0  0  0  0  0  0  0  0  0  0  0  0
   15.6798    6.9558    0.0000 C   0  0  0  0  0  0  0  0  0  0  0  0
   14.6153    8.0126    0.0000 C   0  0  0  0  0  0  0  0  0  0  0  0
   14.9981    9.4629    0.0000 C   0  0  0  0  0  0  0  0  0  0  0  0
   16.4456    9.8564    0.0000 C   0  0  0  0  0  0  0  0  0  0  0  0
   17.5101    8.7997    0.0000 C   0  0  0  0  0  0  0  0  0  0  0  0
   15.9043    5.8774    0.0000 C   0  0  0  0  0  0  0  0  0  0  0  0
   15.3226    7.2600    0.0000 C   0  0  0  0  0  0  0  0  0  0  0  0
   14.6210    8.5858    0.0000 C   0  0  0  0  0  0  0  0  0  0  0  0
   13.8050    9.8444    0.0000 C   0  0  0  0  0  0  0  0  0  0  0  0
   12.8809   11.0260    0.0000 C   0  0  0  0  0  0  0  0  0  0  0  0
   11.8560   12.1213    0.0000 C   0  0  0  0  0  0  0  0  0  0  0  0
   10.7383   13.1217    0.0000 C   0  0  0  0  0  0  0  0  0  0  0  0
    9.5366   14.0194    0.0000 C   0  0  0  0  0  0  0  0  0  0  0  0
    8.2603   14.8074    0.0000 C   0  0  0  0  0  0  0  0  0  0  0  0
    6.9193   15.4795    0.0000 C   0  0  0  0  0  0  0  0  0  0  0  0
    5.5241   16.0304    0.0000 C   0  0  0  0  0  0  0  0  0  0  0  0
    4.0857   16.4559    0.0000 C   0  0  0  0  0  0  0  0  0  0  0  0
    2.6154   16.7526    0.0000 C   0  0  0  0  0  0  0  0  0  0  0  0
    1.1245   16.9182    0.0000 C   0  0  0  0  0  0  0  0  0  0  0  0
   -0.3751   16.9514    0.0000 C   0  0  0  0  0  0  0  0  0  0  0  0
   -1.8718   16.8519    0.0000 C   0  0  0  0  0  0  0  0  0  0  0  0
   -3.3538   16.6205    0.0000 C   0  0  0  0  0  0  0  0  0  0  0  0
   -4.8096   16.2591    0.0000 C   0  0  0  0  0  0  0  0  0  0  0  0
   -6.2278   15.7704    0.0000 C   0  0  0  0  0  0  0  0  0  0  0  0
   -7.5972   15.1582    0.0000 C   0  0  0  0  0  0  0  0  0  0  0  0
   -8.9072   14.4275    0.0000 C   0  0  0  0  0  0  0  0  0  0  0  0
  -10.1474   13.5838    0.0000 C   0  0  0  0  0  0  0  0  0  0  0  0
  -11.3082   12.6338    0.0000 C   0  0  0  0  0  0  0  0  0  0  0  0
  -12.3806   11.5850    0.0000 C   0  0  0  0  0  0  0  0  0  0  0  0
  -13.3560   10.4454    0.0000 C   0  0  0  0  0  0  0  0  0  0  0  0
  -14.2269    9.2242    0.0000 C   0  0  0  0  0  0  0  0  0  0  0  0
  -14.9865    7.9307    0.0000 C   0  0  0  0  0  0  0  0  0  0  0  0
  -15.6287    6.5751    0.0000 C   0  0  0  0  0  0  0  0  0  0  0  0
  -16.1487    5.1681    0.0000 C   0  0  0  0  0  0  0  0  0  0  0  0
  -16.5423    3.7207    0.0000 C   0  0  0  0  0  0  0  0  0  0  0  0
  -16.8064    2.2441    0.0000 C   0  0  0  0  0  0  0  0  0  0  0  0
  -16.9389    0.7500    0.0000 C   0  0  0  0  0  0  0  0  0  0  0  0
  -16.9389   -0.7500    0.0000 C   0  0  0  0  0  0  0  0  0  0  0  0
  -16.8064   -2.2441    0.0000 C   0  0  0  0  0  0  0  0  0  0  0  0
  -16.5423   -3.7207    0.0000 C   0  0  0  0  0  0  0  0  0  0  0  0
  -16.1487   -5.1681    0.0000 C   0  0  0  0  0  0  0  0  0  0  0  0
  -15.6287   -6.5751    0.0000 C   0  0  0  0  0  0  0  0  0  0  0  0
  -14.9865   -7.9307    0.0000 C   0  0  0  0  0  0  0  0  0  0  0  0
  -14.2269   -9.2242    0.0000 C   0  0  0  0  0  0  0  0  0  0  0  0
  -13.3560  -10.4454    0.0000 C   0  0  0  0  0  0  0  0  0  0  0  0
  -12.3806  -11.5850    0.0000 C   0  0  0  0  0  0  0  0  0  0  0  0
  -11.3082  -12.6338    0.0000 C   0  0  0  0  0  0  0  0  0  0  0  0
  -10.1474  -13.5838    0.0000 C   0  0  0  0  0  0  0  0  0  0  0  0
   -8.9072  -14.4275    0.0000 C   0  0  0  0  0  0  0  0  0  0  0  0
   -7.5972  -15.1582    0.0000 C   0  0  0  0  0  0  0  0  0  0  0  0
   -6.2278  -15.7704    0.0000 C   0  0  0  0  0  0  0  0  0  0  0  0
   -4.8096  -16.2591    0.0000 C   0  0  0  0  0  0  0  0  0  0  0  0
   -3.3538  -16.6205    0.0000 C   0  0  0  0  0  0  0  0  0  0  0  0
   -1.8718  -16.8519    0.0000 C   0  0  0  0  0  0  0  0  0  0  0  0
   -0.3751  -16.9514    0.0000 C   0  0  0  0  0  0  0  0  0  0  0  0
    1.1245  -16.9182    0.0000 C   0  0  0  0  0  0  0  0  0  0  0  0
    2.6154  -16.7526    0.0000 C   0  0  0  0  0  0  0  0  0  0  0  0
    4.0857  -16.4559    0.0000 C   0  0  0  0  0  0  0  0  0  0  0  0
    5.5241  -16.0304    0.0000 C   0  0  0  0  0  0  0  0  0  0  0  0
    6.9193  -15.4795    0.0000 C   0  0  0  0  0  0  0  0  0  0  0  0
    8.2603  -14.8074    0.0000 C   0  0  0  0  0  0  0  0  0  0  0  0
    9.5366  -14.0194    0.0000 C   0  0  0  0  0  0  0  0  0  0  0  0
   10.7383  -13.1217    0.0000 C   0  0  0  0  0  0  0  0  0  0  0  0
   11.8560  -12.1213    0.0000 C   0  0  0  0  0  0  0  0  0  0  0  0
   12.8809  -11.0260    0.0000 C   0  0  0  0  0  0  0  0  0  0  0  0
   13.8050   -9.8444    0.0000 C   0  0  0  0  0  0  0  0  0  0  0  0
   14.6210   -8.5858    0.0000 C   0  0  0  0  0  0  0  0  0  0  0  0
   15.3226   -7.2600    0.0000 C   0  0  0  0  0  0  0  0  0  0  0  0
   15.9043   -5.8774    0.0000 C   0  0  0  0  0  0  0  0  0  0  0  0
   16.3615   -4.4488    0.0000 C   0  0  0  0  0  0  0  0  0  0  0  0
   16.6907   -2.9853    0.0000 C   0  0  0  0  0  0  0  0  0  0  0  0
   16.8892   -1.4985    0.0000 C   0  0  0  0  0  0  0  0  0  0  0  0
  1  2  1  0
  2  3  1  0
  3  4  2  0
  4  5  1  0
  5  6  1  0
  6  7  2  0
  7  8  1  0
  8  9  2  0
  9 10  1  0
 10 11  2  0
 11 12  1  0
 12 13  1  0
 13 14  2  0
 14 15  1  0
 15 16  1  0
 16 17  1  0
  5 18  1  0
 18 19  1  0
 19 20  1  0
 20 21  1  0
 21 22  1  0
 22 23  1  0
 23 24  1  0
 24 25  1  0
 25 26  1  0
 26 27  1  0
 27 28  1  0
 28 29  1  0
 29 30  1  0
 30 31  1  0
 31 32  1  0
 32 33  1  0
 33 34  1  0
 34 35  1  0
 35 36  1  0
 36 37  1  0
 37 38  1  0
 38 39  1  0
 39 40  1  0
 40 41  1  0
 41 42  1  0
 42 43  1  0
 43 44  1  0
 44 45  1  0
 45 46  1  0
 46 47  1  0
 47 48  1  0
 48 49  1  0
 49 50  1  0
 50 51  1  0
 51 52  1  0
 52 53  1  0
 53 54  1  0
 54 55  1  0
 55 56  1  0
 56 57  1  0
 57 58  1  0
 58 59  1  0
 59 60  1  0
 60 61  1  0
 61 62  1  0
 62 63  1  0
 63 64  1  0
 64 65  1  0
 65 66  1  0
 66 67  1  0
 67 68  1  0
 68 69  1  0
 69 70  1  0
 70 71  1  0
 71 72  1  0
 72 73  1  0
 73 74  1  0
 74 75  1  0
 75 76  1  0
 76 77  1  0
 77 78  1  0
 78 79  1  0
 79 80  1  0
 80 81  1  0
 81 82  1  0
 82 83  1  0
 83 84  1  0
 84  2  1  0
 11  6  1  0
 17 12  1  0
M  END
>  <Title>  (1032) 
idABLXgen7

$$$$

     RDKit          2D

 14 14  0  0  0  0  0  0  0  0999 V2000
    5.7760    2.5981    0.0000 C   0  0  0  0  0  0  0  0  0  0  0  0
    5.0260    1.2990    0.0000 C   0  0  0  0  0  0  0  0  0  0  0  0
    3.5260    1.2990    0.0000 C   0  0  0  0  0  0  0  0  0  0  0  0
    2.7760    0.0000    0.0000 C   0  0  0  0  0  0  0  0  0  0  0  0
    3.5260   -1.2990    0.0000 O   0  0  0  0  0  0  0  0  0  0  0  0
    1.2760    0.0000    0.0000 N   0  0  0  0  0  0  0  0  0  0  0  0
    0.3943    1.2135    0.0000 C   0  0  0  0  0  0  0  0  0  0  0  0
   -1.0323    0.7500    0.0000 C   0  0  0  0  0  0  0  0  0  0  0  0
   -1.0323   -0.7500    0.0000 C   0  0  0  0  0  0  0  0  0  0  0  0
   -2.2458   -1.6317    0.0000 C   0  0  0  0  0  0  0  0  0  0  0  0
   -2.0890   -3.1235    0.0000 O   0  0  0  0  0  0  0  0  0  0  0  0
   -3.6161   -1.0216    0.0000 O   0  0  0  0  0  0  0  0  0  0  0  0
    0.3943   -1.2135    0.0000 C   0  0  0  0  0  0  0  0  0  0  0  0
    0.8578   -2.6401    0.0000 O   0  0  0  0  0  0  0  0  0  0  0  0
  1  2  2  0
  2  3  1  0
  3  4  1  0
  4  5  2  0
  4  6  1  0
  6  7  1  0
  7  8  1  0
  8  9  1  0
  9 10  1  0
 10 11  2  0
 10 12  1  0
  9 13  1  0
 13 14  2  0
 13  6  1  0
M  END
>  <Title>  (1033) 
idABLYgen7

$$$$

     RDKit          2D

  9  9  0  0  0  0  0  0  0  0999 V2000
    7.2760   -0.0000    0.0000 N   0  0  0  0  0  0  0  0  0  0  0  0
    5.7760   -0.0000    0.0000 C   0  0  0  0  0  0  0  0  0  0  0  0
    4.2760   -0.0000    0.0000 C   0  0  0  0  0  0  0  0  0  0  0  0
    2.7760    0.0000    0.0000 C   0  0  0  0  0  0  0  0  0  0  0  0
    1.2760    0.0000    0.0000 C   0  0  0  0  0  0  0  0  0  0  0  0
    0.3943    1.2135    0.0000 C   0  0  0  0  0  0  0  0  0  0  0  0
   -1.0323    0.7500    0.0000 C   0  0  0  0  0  0  0  0  0  0  0  0
   -1.0323   -0.7500    0.0000 C   0  0  0  0  0  0  0  0  0  0  0  0
    0.3943   -1.2135    0.0000 C   0  0  0  0  0  0  0  0  0  0  0  0
  1  2  3  0
  2  3  1  0
  3  4  3  0
  4  5  1  0
  5  6  2  0
  6  7  1  0
  7  8  1  0
  8  9  1  0
  9  5  1  0
M  END
>  <Title>  (1034) 
idABLZgen7

$$$$

     RDKit          2D

 11 11  0  0  0  0  0  0  0  0999 V2000
    7.2760    2.5981    0.0000 C   0  0  0  0  0  0  0  0  0  0  0  0
    5.7760    2.5981    0.0000 C   0  0  0  0  0  0  0  0  0  0  0  0
    5.0260    1.2990    0.0000 C   0  0  0  0  0  0  0  0  0  0  0  0
    3.5260    1.2990    0.0000 C   0  0  0  0  0  0  0  0  0  0  0  0
    2.7760    0.0000    0.0000 C   0  0  0  0  0  0  0  0  0  0  0  0
    3.5260   -1.2990    0.0000 C   0  0  0  0  0  0  0  0  0  0  0  0
    1.2760    0.0000    0.0000 C   0  0  0  0  0  0  0  0  0  0  0  0
    0.3943    1.2135    0.0000 C   0  0  0  0  0  0  0  0  0  0  0  0
   -1.0323    0.7500    0.0000 C   0  0  0  0  0  0  0  0  0  0  0  0
   -1.0323   -0.7500    0.0000 C   0  0  0  0  0  0  0  0  0  0  0  0
    0.3943   -1.2135    0.0000 C   0  0  0  0  0  0  0  0  0  0  0  0
  1  2  2  0
  2  3  1  0
  3  4  1  0
  4  5  1  0
  5  6  1  0
  5  7  1  0
  7  8  2  0
  8  9  1  0
  9 10  2  0
 10 11  1  0
 11  7  1  0
M  END
>  <Title>  (1035) 
idABMAgen7

$$$$

     RDKit          2D

 23 25  0  0  0  0  0  0  0  0999 V2000
   -3.3405   -0.0000    0.0000 C   0  0  0  0  0  0  0  0  0  0  0  0
   -2.4589    1.2135    0.0000 C   0  0  0  0  0  0  0  0  0  0  0  0
   -3.3405    2.4271    0.0000 C   0  0  0  0  0  0  0  0  0  0  0  0
   -3.3405    3.9271    0.0000 C   0  0  0  0  0  0  0  0  0  0  0  0
   -2.4589    5.1406    0.0000 C   0  0  0  0  0  0  0  0  0  0  0  0
   -3.3405    6.3541    0.0000 C   0  0  0  0  0  0  0  0  0  0  0  0
   -4.8323    6.1973    0.0000 O   0  0  0  0  0  0  0  0  0  0  0  0
   -2.7304    7.7244    0.0000 N   0  0  0  0  0  0  0  0  0  0  0  0
   -3.6121    8.9379    0.0000 C   0  0  0  0  0  0  0  0  0  0  0  0
   -3.0020   10.3083    0.0000 N   0  0  0  0  0  0  0  0  0  0  0  0
   -3.8837   11.5218    0.0000 N   0  0  0  0  0  0  0  0  0  0  0  0
   -5.3755   11.3650    0.0000 N   0  0  0  0  0  0  0  0  0  0  0  0
   -5.9856    9.9947    0.0000 N   0  0  0  0  0  0  0  0  0  0  0  0
   -5.1039    8.7812    0.0000 N   0  0  0  0  0  0  0  0  0  0  0  0
   -1.0323    5.6041    0.0000 C   0  0  0  0  0  0  0  0  0  0  0  0
    0.3943    5.1406    0.0000 C   0  0  0  0  0  0  0  0  0  0  0  0
    1.2760    3.9271    0.0000 C   0  0  0  0  0  0  0  0  0  0  0  0
    1.2760    2.4271    0.0000 C   0  0  0  0  0  0  0  0  0  0  0  0
    0.3943    1.2135    0.0000 C   0  0  0  0  0  0  0  0  0  0  0  0
    1.2760    0.0000    0.0000 C   0  0  0  0  0  0  0  0  0  0  0  0
    0.3943   -1.2135    0.0000 C   0  0  0  0  0  0  0  0  0  0  0  0
   -1.0323   -0.7500    0.0000 C   0  0  0  0  0  0  0  0  0  0  0  0
   -1.0323    0.7500    0.0000 C   0  0  0  0  0  0  0  0  0  0  0  0
  1  2  1  0
  2  3  1  0
  3  4  1  0
  4  5  1  0
  5  6  1  0
  6  7  2  0
  6  8  1  0
  8  9  1  0
  9 10  2  0
 10 11  1  0
 11 12  2  0
 12 13  1  0
 13 14  2  0
  5 15  1  0
 15 16  1  0
 16 17  2  0
 17 18  1  0
 18 19  2  0
 19 20  1  0
 20 21  2  0
 21 22  1  0
 22 23  2  0
 23  2  1  0
 14  9  1  0
 23 19  1  0
M  END
>  <Title>  (1036) 
idABMBgen7

$$$$

     RDKit          2D

 13 14  0  0  0  0  0  0  0  0999 V2000
    3.3287    1.8373    0.0000 O   0  0  0  0  0  0  0  0  0  0  0  0
    2.3250    2.9520    0.0000 C   0  0  0  0  0  0  0  0  0  0  0  0
    0.8578    2.6401    0.0000 N   0  0  0  0  0  0  0  0  0  0  0  0
    0.3943    1.2135    0.0000 C   0  0  0  0  0  0  0  0  0  0  0  0
    1.2760    0.0000    0.0000 C   0  0  0  0  0  0  0  0  0  0  0  0
    0.3943   -1.2135    0.0000 C   0  0  0  0  0  0  0  0  0  0  0  0
   -1.0323   -0.7500    0.0000 C   0  0  0  0  0  0  0  0  0  0  0  0
   -1.0323    0.7500    0.0000 C   0  0  0  0  0  0  0  0  0  0  0  0
    2.7886    4.3786    0.0000 C   0  0  0  0  0  0  0  0  0  0  0  0
    1.9069    5.5921    0.0000 C   0  0  0  0  0  0  0  0  0  0  0  0
    2.7886    6.8056    0.0000 C   0  0  0  0  0  0  0  0  0  0  0  0
    4.2152    6.3421    0.0000 C   0  0  0  0  0  0  0  0  0  0  0  0
    4.2152    4.8421    0.0000 C   0  0  0  0  0  0  0  0  0  0  0  0
  1  2  2  0
  2  3  1  0
  3  4  1  0
  4  5  2  0
  5  6  1  0
  6  7  1  0
  7  8  2  0
  2  9  1  0
  9 10  1  0
 10 11  1  0
 11 12  1  0
 12 13  1  0
  8  4  1  0
 13  9  1  0
M  END
>  <Title>  (1037) 
idABMCgen7

$$$$

     RDKit          2D

  8  7  0  0  0  0  0  0  0  0999 V2000
    0.0000    0.0000    0.0000 C   0  0  0  0  0  0  0  0  0  0  0  0
   -0.0000   -1.5000    0.0000 C   0  0  0  0  0  0  0  0  0  0  0  0
   -0.0000   -3.0000    0.0000 C   0  0  0  0  0  0  0  0  0  0  0  0
    1.2990   -3.7500    0.0000 C   0  0  0  0  0  0  0  0  0  0  0  0
   -1.2990   -3.7500    0.0000 C   0  0  0  0  0  0  0  0  0  0  0  0
   -2.5981   -4.5000    0.0000 C   0  0  0  0  0  0  0  0  0  0  0  0
   -3.8971   -5.2500    0.0000 C   0  0  0  0  0  0  0  0  0  0  0  0
   -5.1962   -6.0000    0.0000 N   0  0  0  0  0  0  0  0  0  0  0  0
  1  2  3  0
  2  3  1  0
  3  4  1  0
  3  5  1  0
  5  6  3  0
  6  7  1  0
  7  8  3  0
M  END
>  <Title>  (1038) 
idABMDgen7

$$$$

     RDKit          2D

  8  8  0  0  0  0  0  0  0  0999 V2000
    3.0000    0.0000    0.0000 C   0  0  0  0  0  0  0  0  0  0  0  0
    1.5000    0.0000    0.0000 C   0  0  0  0  0  0  0  0  0  0  0  0
    0.7500   -1.2990    0.0000 C   0  0  0  0  0  0  0  0  0  0  0  0
   -0.7500   -1.2990    0.0000 C   0  0  0  0  0  0  0  0  0  0  0  0
   -1.5000    0.0000    0.0000 C   0  0  0  0  0  0  0  0  0  0  0  0
   -0.7500    1.2990    0.0000 C   0  0  0  0  0  0  0  0  0  0  0  0
    0.7500    1.2990    0.0000 C   0  0  0  0  0  0  0  0  0  0  0  0
    1.5000    2.5981    0.0000 O   0  0  0  0  0  0  0  0  0  0  0  0
  1  2  1  0
  2  3  2  0
  3  4  1  0
  4  5  1  0
  5  6  2  0
  6  7  1  0
  7  8  2  0
  7  2  1  0
M  END
>  <Title>  (1039) 
idABMEgen7

$$$$

     RDKit          2D

 38 40  0  0  0  0  0  0  0  0999 V2000
   -2.7729   -0.3014    0.0000 C   0  0  0  0  0  0  0  0  0  0  0  0
   -2.1989   -1.6873    0.0000 C   0  0  0  0  0  0  0  0  0  0  0  0
   -3.4979   -2.4373    0.0000 C   0  0  0  0  0  0  0  0  0  0  0  0
   -4.5586   -3.4979    0.0000 C   0  0  0  0  0  0  0  0  0  0  0  0
   -5.3086   -4.7970    0.0000 C   0  0  0  0  0  0  0  0  0  0  0  0
   -5.6968   -6.2459    0.0000 C   0  0  0  0  0  0  0  0  0  0  0  0
   -5.6968   -7.7459    0.0000 C   0  0  0  0  0  0  0  0  0  0  0  0
   -5.3086   -9.1947    0.0000 C   0  0  0  0  0  0  0  0  0  0  0  0
   -4.5586  -10.4938    0.0000 C   0  0  0  0  0  0  0  0  0  0  0  0
   -3.4979  -11.5544    0.0000 C   0  0  0  0  0  0  0  0  0  0  0  0
   -2.1989  -12.3044    0.0000 C   0  0  0  0  0  0  0  0  0  0  0  0
   -0.7500  -12.6927    0.0000 C   0  0  0  0  0  0  0  0  0  0  0  0
    0.7500  -12.6927    0.0000 C   0  0  0  0  0  0  0  0  0  0  0  0
    2.1989  -12.3044    0.0000 C   0  0  0  0  0  0  0  0  0  0  0  0
    3.4979  -11.5544    0.0000 C   0  0  0  0  0  0  0  0  0  0  0  0
    4.5586  -10.4938    0.0000 C   0  0  0  0  0  0  0  0  0  0  0  0
    5.3086   -9.1947    0.0000 C   0  0  0  0  0  0  0  0  0  0  0  0
    5.6968   -7.7459    0.0000 C   0  0  0  0  0  0  0  0  0  0  0  0
    5.6968   -6.2459    0.0000 C   0  0  0  0  0  0  0  0  0  0  0  0
    5.3086   -4.7970    0.0000 C   0  0  0  0  0  0  0  0  0  0  0  0
    4.5586   -3.4979    0.0000 C   0  0  0  0  0  0  0  0  0  0  0  0
    3.4979   -2.4373    0.0000 C   0  0  0  0  0  0  0  0  0  0  0  0
    2.1989   -1.6873    0.0000 C   0  0  0  0  0  0  0  0  0  0  0  0
    2.7729   -0.3014    0.0000 C   0  0  0  0  0  0  0  0  0  0  0  0
    1.8598    0.8886    0.0000 O   0  0  0  0  0  0  0  0  0  0  0  0
    4.2601   -0.1057    0.0000 N   0  0  0  0  0  0  0  0  0  0  0  0
    4.8341    1.2802    0.0000 C   0  0  0  0  0  0  0  0  0  0  0  0
    6.3213    1.4760    0.0000 N   0  0  0  0  0  0  0  0  0  0  0  0
    6.8953    2.8618    0.0000 N   0  0  0  0  0  0  0  0  0  0  0  0
    5.9822    4.0518    0.0000 N   0  0  0  0  0  0  0  0  0  0  0  0
    4.4950    3.8560    0.0000 N   0  0  0  0  0  0  0  0  0  0  0  0
    3.9210    2.4702    0.0000 N   0  0  0  0  0  0  0  0  0  0  0  0
    0.7500   -1.2990    0.0000 C   0  0  0  0  0  0  0  0  0  0  0  0
    1.5000    0.0000    0.0000 C   0  0  0  0  0  0  0  0  0  0  0  0
    0.7500    1.2990    0.0000 C   0  0  0  0  0  0  0  0  0  0  0  0
   -0.7500    1.2990    0.0000 C   0  0  0  0  0  0  0  0  0  0  0  0
   -1.5000    0.0000    0.0000 C   0  0  0  0  0  0  0  0  0  0  0  0
   -0.7500   -1.2990    0.0000 C   0  0  0  0  0  0  0  0  0  0  0  0
  1  2  1  0
  2  3  1  0
  3  4  1  0
  4  5  2  0
  5  6  1  0
  6  7  1  0
  7  8  1  0
  8  9  1  0
  9 10  1  0
 10 11  1  0
 11 12  1  0
 12 13  1  0
 13 14  1  0
 14 15  1  0
 15 16  1  0
 16 17  1  0
 17 18  1  0
 18 19  1  0
 19 20  1  0
 20 21  1  0
 21 22  1  0
 22 23  1  0
 23 24  1  0
 24 25  2  0
 24 26  1  0
 26 27  1  0
 27 28  2  0
 28 29  1  0
 29 30  2  0
 30 31  1  0
 31 32  2  0
 23 33  1  0
 33 34  2  0
 34 35  1  0
 35 36  2  0
 36 37  1  0
 37 38  2  0
 38  2  1  0
 32 27  1  0
 38 33  1  0
M  END
>  <Title>  (1040) 
idABMFgen7

$$$$

     RDKit          2D

 23 25  0  0  0  0  0  0  0  0999 V2000
   -3.0000   -2.5981    0.0000 C   0  0  0  0  0  0  0  0  0  0  0  0
   -1.5000   -2.5981    0.0000 C   0  0  0  0  0  0  0  0  0  0  0  0
   -0.7500   -3.8971    0.0000 C   0  0  0  0  0  0  0  0  0  0  0  0
    0.7500   -3.8971    0.0000 C   0  0  0  0  0  0  0  0  0  0  0  0
    1.5000   -2.5981    0.0000 C   0  0  0  0  0  0  0  0  0  0  0  0
    3.0000   -2.5981    0.0000 C   0  0  0  0  0  0  0  0  0  0  0  0
    3.7500   -1.2990    0.0000 O   0  0  0  0  0  0  0  0  0  0  0  0
    3.7500   -3.8971    0.0000 N   0  0  0  0  0  0  0  0  0  0  0  0
    5.2500   -3.8971    0.0000 C   0  0  0  0  0  0  0  0  0  0  0  0
    6.0000   -5.1962    0.0000 N   0  0  0  0  0  0  0  0  0  0  0  0
    7.5000   -5.1962    0.0000 N   0  0  0  0  0  0  0  0  0  0  0  0
    8.2500   -3.8971    0.0000 N   0  0  0  0  0  0  0  0  0  0  0  0
    7.5000   -2.5981    0.0000 N   0  0  0  0  0  0  0  0  0  0  0  0
    6.0000   -2.5981    0.0000 N   0  0  0  0  0  0  0  0  0  0  0  0
    0.7500   -1.2990    0.0000 C   0  0  0  0  0  0  0  0  0  0  0  0
    1.5000    0.0000    0.0000 C   0  0  0  0  0  0  0  0  0  0  0  0
    0.7500    1.2990    0.0000 C   0  0  0  0  0  0  0  0  0  0  0  0
   -0.7500    1.2990    0.0000 C   0  0  0  0  0  0  0  0  0  0  0  0
   -1.5000    2.5981    0.0000 C   0  0  0  0  0  0  0  0  0  0  0  0
   -0.7500    3.8971    0.0000 N   0  0  0  0  0  0  0  0  0  0  0  0
   -3.0000    2.5981    0.0000 O   0  0  0  0  0  0  0  0  0  0  0  0
   -1.5000    0.0000    0.0000 C   0  0  0  0  0  0  0  0  0  0  0  0
   -0.7500   -1.2990    0.0000 C   0  0  0  0  0  0  0  0  0  0  0  0
  1  2  1  0
  2  3  1  0
  3  4  1  0
  4  5  1  0
  5  6  1  0
  6  7  2  0
  6  8  1  0
  8  9  1  0
  9 10  2  0
 10 11  1  0
 11 12  2  0
 12 13  1  0
 13 14  2  0
  5 15  1  0
 15 16  2  0
 16 17  1  0
 17 18  2  0
 18 19  1  0
 19 20  1  0
 19 21  2  0
 18 22  1  0
 22 23  2  0
 23  2  1  0
 14  9  1  0
 23 15  1  0
M  END
>  <Title>  (1041) 
idABMGgen7

$$$$

     RDKit          2D

  8  8  0  0  0  0  0  0  0  0999 V2000
    4.2760   -0.0000    0.0000 C   0  0  0  0  0  0  0  0  0  0  0  0
    2.7760    0.0000    0.0000 C   0  0  0  0  0  0  0  0  0  0  0  0
    1.2760    0.0000    0.0000 C   0  0  0  0  0  0  0  0  0  0  0  0
    0.3943    1.2135    0.0000 C   0  0  0  0  0  0  0  0  0  0  0  0
   -1.0323    0.7500    0.0000 C   0  0  0  0  0  0  0  0  0  0  0  0
   -1.0323   -0.7500    0.0000 C   0  0  0  0  0  0  0  0  0  0  0  0
   -2.2458   -1.6317    0.0000 C   0  0  0  0  0  0  0  0  0  0  0  0
    0.3943   -1.2135    0.0000 C   0  0  0  0  0  0  0  0  0  0  0  0
  1  2  3  0
  2  3  1  0
  3  4  2  0
  4  5  1  0
  5  6  2  0
  6  7  1  0
  6  8  1  0
  8  3  1  0
M  END
>  <Title>  (1042) 
idABMHgen7

$$$$

     RDKit          2D

 10 10  0  0  0  0  0  0  0  0999 V2000
    5.0260   -1.2990    0.0000 C   0  0  0  0  0  0  0  0  0  0  0  0
    3.5260   -1.2990    0.0000 C   0  0  0  0  0  0  0  0  0  0  0  0
    2.7760   -2.5981    0.0000 C   0  0  0  0  0  0  0  0  0  0  0  0
    3.5260   -3.8971    0.0000 O   0  0  0  0  0  0  0  0  0  0  0  0
    2.7760    0.0000    0.0000 N   0  0  0  0  0  0  0  0  0  0  0  0
    1.2760    0.0000    0.0000 C   0  0  0  0  0  0  0  0  0  0  0  0
    0.3943    1.2135    0.0000 C   0  0  0  0  0  0  0  0  0  0  0  0
   -1.0323    0.7500    0.0000 C   0  0  0  0  0  0  0  0  0  0  0  0
   -1.0323   -0.7500    0.0000 C   0  0  0  0  0  0  0  0  0  0  0  0
    0.3943   -1.2135    0.0000 C   0  0  0  0  0  0  0  0  0  0  0  0
  1  2  1  0
  2  3  1  0
  3  4  1  0
  2  5  1  0
  5  6  1  0
  6  7  2  0
  7  8  1  0
  8  9  1  0
  9 10  2  0
 10  6  1  0
M  END
>  <Title>  (1043) 
idABMIgen7

$$$$

     RDKit          2D

 25 27  0  0  0  0  0  0  0  0999 V2000
   -3.0000   -2.5981    0.0000 C   0  0  0  0  0  0  0  0  0  0  0  0
   -1.5000   -2.5981    0.0000 C   0  0  0  0  0  0  0  0  0  0  0  0
   -0.7500   -3.8971    0.0000 C   0  0  0  0  0  0  0  0  0  0  0  0
    0.7500   -3.8971    0.0000 C   0  0  0  0  0  0  0  0  0  0  0  0
    1.5000   -2.5981    0.0000 C   0  0  0  0  0  0  0  0  0  0  0  0
    3.0000   -2.5981    0.0000 C   0  0  0  0  0  0  0  0  0  0  0  0
    3.7500   -1.2990    0.0000 O   0  0  0  0  0  0  0  0  0  0  0  0
    3.7500   -3.8971    0.0000 N   0  0  0  0  0  0  0  0  0  0  0  0
    5.2500   -3.8971    0.0000 C   0  0  0  0  0  0  0  0  0  0  0  0
    6.0000   -5.1962    0.0000 C   0  0  0  0  0  0  0  0  0  0  0  0
    6.0000   -2.5981    0.0000 C   0  0  0  0  0  0  0  0  0  0  0  0
    5.2500   -1.2990    0.0000 O   0  0  0  0  0  0  0  0  0  0  0  0
    7.5000   -2.5981    0.0000 N   0  0  0  0  0  0  0  0  0  0  0  0
    8.2500   -1.2990    0.0000 C   0  0  0  0  0  0  0  0  0  0  0  0
    9.7500   -1.2990    0.0000 N   0  0  0  0  0  0  0  0  0  0  0  0
   10.5000   -0.0000    0.0000 N   0  0  0  0  0  0  0  0  0  0  0  0
    9.7500    1.2990    0.0000 N   0  0  0  0  0  0  0  0  0  0  0  0
    8.2500    1.2990    0.0000 N   0  0  0  0  0  0  0  0  0  0  0  0
    7.5000    0.0000    0.0000 N   0  0  0  0  0  0  0  0  0  0  0  0
    0.7500   -1.2990    0.0000 C   0  0  0  0  0  0  0  0  0  0  0  0
    1.5000    0.0000    0.0000 C   0  0  0  0  0  0  0  0  0  0  0  0
    0.7500    1.2990    0.0000 C   0  0  0  0  0  0  0  0  0  0  0  0
   -0.7500    1.2990    0.0000 C   0  0  0  0  0  0  0  0  0  0  0  0
   -1.5000    0.0000    0.0000 C   0  0  0  0  0  0  0  0  0  0  0  0
   -0.7500   -1.2990    0.0000 C   0  0  0  0  0  0  0  0  0  0  0  0
  1  2  1  0
  2  3  2  0
  3  4  1  0
  4  5  2  0
  5  6  1  0
  6  7  2  0
  6  8  1  0
  8  9  1  0
  9 10  1  0
  9 11  1  0
 11 12  2  0
 11 13  1  0
 13 14  1  0
 14 15  2  0
 15 16  1  0
 16 17  2  0
 17 18  1  0
 18 19  2  0
  5 20  1  0
 20 21  2  0
 21 22  1  0
 22 23  2  0
 23 24  1  0
 24 25  2  0
 25  2  1  0
 19 14  1  0
 25 20  1  0
M  END
>  <Title>  (1044) 
idABMJgen7

$$$$

     RDKit          2D

 47 47  0  0  0  0  0  0  0  0999 V2000
   13.0017   -1.2990    0.0000 C   0  0  0  0  0  0  0  0  0  0  0  0
   12.2517    0.0000    0.0000 O   0  0  0  0  0  0  0  0  0  0  0  0
   10.7517    0.0000    0.0000 C   0  0  0  0  0  0  0  0  0  0  0  0
   10.6471    1.4963    0.0000 C   0  0  0  0  0  0  0  0  0  0  0  0
   10.3352    2.9636    0.0000 C   0  0  0  0  0  0  0  0  0  0  0  0
    9.8222    4.3731    0.0000 C   0  0  0  0  0  0  0  0  0  0  0  0
    9.1180    5.6975    0.0000 C   0  0  0  0  0  0  0  0  0  0  0  0
    8.2363    6.9111    0.0000 C   0  0  0  0  0  0  0  0  0  0  0  0
    7.1943    7.9901    0.0000 C   0  0  0  0  0  0  0  0  0  0  0  0
    6.0123    8.9136    0.0000 C   0  0  0  0  0  0  0  0  0  0  0  0
    4.7132    9.6636    0.0000 C   0  0  0  0  0  0  0  0  0  0  0  0
    3.3225   10.2255    0.0000 C   0  0  0  0  0  0  0  0  0  0  0  0
    1.8670   10.5883    0.0000 C   0  0  0  0  0  0  0  0  0  0  0  0
    0.3752   10.7451    0.0000 C   0  0  0  0  0  0  0  0  0  0  0  0
   -1.1239   10.6928    0.0000 C   0  0  0  0  0  0  0  0  0  0  0  0
   -2.6011   10.4323    0.0000 C   0  0  0  0  0  0  0  0  0  0  0  0
   -4.0277    9.9688    0.0000 C   0  0  0  0  0  0  0  0  0  0  0  0
   -5.3758    9.3112    0.0000 C   0  0  0  0  0  0  0  0  0  0  0  0
   -6.6194    8.4724    0.0000 C   0  0  0  0  0  0  0  0  0  0  0  0
   -7.7341    7.4688    0.0000 C   0  0  0  0  0  0  0  0  0  0  0  0
   -8.6983    6.3197    0.0000 C   0  0  0  0  0  0  0  0  0  0  0  0
   -9.4932    5.0476    0.0000 C   0  0  0  0  0  0  0  0  0  0  0  0
  -10.1033    3.6773    0.0000 C   0  0  0  0  0  0  0  0  0  0  0  0
  -10.5167    2.2354    0.0000 C   0  0  0  0  0  0  0  0  0  0  0  0
  -10.7255    0.7500    0.0000 C   0  0  0  0  0  0  0  0  0  0  0  0
  -10.7255   -0.7500    0.0000 C   0  0  0  0  0  0  0  0  0  0  0  0
  -10.5167   -2.2354    0.0000 C   0  0  0  0  0  0  0  0  0  0  0  0
  -10.1033   -3.6773    0.0000 C   0  0  0  0  0  0  0  0  0  0  0  0
   -9.4932   -5.0476    0.0000 C   0  0  0  0  0  0  0  0  0  0  0  0
   -8.6983   -6.3197    0.0000 C   0  0  0  0  0  0  0  0  0  0  0  0
   -7.7341   -7.4688    0.0000 C   0  0  0  0  0  0  0  0  0  0  0  0
   -6.6194   -8.4724    0.0000 C   0  0  0  0  0  0  0  0  0  0  0  0
   -5.3758   -9.3112    0.0000 C   0  0  0  0  0  0  0  0  0  0  0  0
   -4.0277   -9.9688    0.0000 C   0  0  0  0  0  0  0  0  0  0  0  0
   -2.6011  -10.4323    0.0000 C   0  0  0  0  0  0  0  0  0  0  0  0
   -1.1239  -10.6928    0.0000 C   0  0  0  0  0  0  0  0  0  0  0  0
    0.3752  -10.7451    0.0000 C   0  0  0  0  0  0  0  0  0  0  0  0
    1.8670  -10.5883    0.0000 C   0  0  0  0  0  0  0  0  0  0  0  0
    3.3225  -10.2255    0.0000 C   0  0  0  0  0  0  0  0  0  0  0  0
    4.7132   -9.6636    0.0000 C   0  0  0  0  0  0  0  0  0  0  0  0
    6.0123   -8.9136    0.0000 C   0  0  0  0  0  0  0  0  0  0  0  0
    7.1943   -7.9901    0.0000 C   0  0  0  0  0  0  0  0  0  0  0  0
    8.2363   -6.9111    0.0000 C   0  0  0  0  0  0  0  0  0  0  0  0
    9.1180   -5.6975    0.0000 C   0  0  0  0  0  0  0  0  0  0  0  0
    9.8222   -4.3731    0.0000 C   0  0  0  0  0  0  0  0  0  0  0  0
   10.3352   -2.9636    0.0000 C   0  0  0  0  0  0  0  0  0  0  0  0
   10.6471   -1.4963    0.0000 C   0  0  0  0  0  0  0  0  0  0  0  0
  1  2  1  0
  2  3  1  0
  3  4  1  0
  4  5  1  0
  5  6  2  0
  6  7  1  0
  7  8  2  0
  8  9  1  0
  9 10  2  0
 10 11  1  0
 11 12  1  0
 12 13  1  0
 13 14  1  0
 14 15  1  0
 15 16  1  0
 16 17  1  0
 17 18  1  0
 18 19  1  0
 19 20  1  0
 20 21  1  0
 21 22  1  0
 22 23  1  0
 23 24  1  0
 24 25  1  0
 25 26  1  0
 26 27  1  0
 27 28  1  0
 28 29  1  0
 29 30  1  0
 30 31  1  0
 31 32  1  0
 32 33  1  0
 33 34  1  0
 34 35  1  0
 35 36  1  0
 36 37  1  0
 37 38  1  0
 38 39  1  0
 39 40  1  0
 40 41  1  0
 41 42  1  0
 42 43  1  0
 43 44  1  0
 44 45  1  0
 45 46  1  0
 46 47  1  0
 47  3  1  0
M  END
>  <Title>  (1045) 
idABMKgen7

$$$$

     RDKit          2D

 80 80  0  0  0  0  0  0  0  0999 V2000
   20.3648    0.0000    0.0000 C   0  0  0  0  0  0  0  0  0  0  0  0
   18.8648    0.0000    0.0000 C   0  0  0  0  0  0  0  0  0  0  0  0
   18.8052    1.4988    0.0000 C   0  0  0  0  0  0  0  0  0  0  0  0
   18.6267    2.9882    0.0000 C   0  0  0  0  0  0  0  0  0  0  0  0
   18.3304    4.4586    0.0000 C   0  0  0  0  0  0  0  0  0  0  0  0
   17.9182    5.9009    0.0000 C   0  0  0  0  0  0  0  0  0  0  0  0
   17.3927    7.3058    0.0000 C   0  0  0  0  0  0  0  0  0  0  0  0
   16.7573    8.6646    0.0000 C   0  0  0  0  0  0  0  0  0  0  0  0
   16.0159    9.9685    0.0000 C   0  0  0  0  0  0  0  0  0  0  0  0
   15.1733   11.2095    0.0000 C   0  0  0  0  0  0  0  0  0  0  0  0
   14.2347   12.3796    0.0000 C   0  0  0  0  0  0  0  0  0  0  0  0
   13.2062   13.4714    0.0000 C   0  0  0  0  0  0  0  0  0  0  0  0
   12.0941   14.4781    0.0000 C   0  0  0  0  0  0  0  0  0  0  0  0
   10.9056   15.3932    0.0000 C   0  0  0  0  0  0  0  0  0  0  0  0
    9.6481   16.2110    0.0000 C   0  0  0  0  0  0  0  0  0  0  0  0
    8.3297   16.9263    0.0000 C   0  0  0  0  0  0  0  0  0  0  0  0
    6.9586   17.5345    0.0000 C   0  0  0  0  0  0  0  0  0  0  0  0
    5.5434   18.0320    0.0000 C   0  0  0  0  0  0  0  0  0  0  0  0
    4.0933   18.4154    0.0000 C   0  0  0  0  0  0  0  0  0  0  0  0
    2.6172   18.6824    0.0000 C   0  0  0  0  0  0  0  0  0  0  0  0
    1.1246   18.8313    0.0000 C   0  0  0  0  0  0  0  0  0  0  0  0
   -0.3751   18.8611    0.0000 C   0  0  0  0  0  0  0  0  0  0  0  0
   -1.8724   18.7717    0.0000 C   0  0  0  0  0  0  0  0  0  0  0  0
   -3.3579   18.5636    0.0000 C   0  0  0  0  0  0  0  0  0  0  0  0
   -4.8222   18.2381    0.0000 C   0  0  0  0  0  0  0  0  0  0  0  0
   -6.2559   17.7973    0.0000 C   0  0  0  0  0  0  0  0  0  0  0  0
   -7.6502   17.2440    0.0000 C   0  0  0  0  0  0  0  0  0  0  0  0
   -8.9960   16.5817    0.0000 C   0  0  0  0  0  0  0  0  0  0  0  0
  -10.2850   15.8146    0.0000 C   0  0  0  0  0  0  0  0  0  0  0  0
  -11.5090   14.9474    0.0000 C   0  0  0  0  0  0  0  0  0  0  0  0
  -12.6602   13.9858    0.0000 C   0  0  0  0  0  0  0  0  0  0  0  0
  -13.7313   12.9357    0.0000 C   0  0  0  0  0  0  0  0  0  0  0  0
  -14.7157   11.8039    0.0000 C   0  0  0  0  0  0  0  0  0  0  0  0
  -15.6070   10.5974    0.0000 C   0  0  0  0  0  0  0  0  0  0  0  0
  -16.3996    9.3239    0.0000 C   0  0  0  0  0  0  0  0  0  0  0  0
  -17.0885    7.9915    0.0000 C   0  0  0  0  0  0  0  0  0  0  0  0
  -17.6694    6.6086    0.0000 C   0  0  0  0  0  0  0  0  0  0  0  0
  -18.1386    5.1838    0.0000 C   0  0  0  0  0  0  0  0  0  0  0  0
  -18.4931    3.7263    0.0000 C   0  0  0  0  0  0  0  0  0  0  0  0
  -18.7307    2.2453    0.0000 C   0  0  0  0  0  0  0  0  0  0  0  0
  -18.8499    0.7500    0.0000 C   0  0  0  0  0  0  0  0  0  0  0  0
  -18.8499   -0.7500    0.0000 C   0  0  0  0  0  0  0  0  0  0  0  0
  -18.7307   -2.2453    0.0000 C   0  0  0  0  0  0  0  0  0  0  0  0
  -18.4931   -3.7263    0.0000 C   0  0  0  0  0  0  0  0  0  0  0  0
  -18.1386   -5.1838    0.0000 C   0  0  0  0  0  0  0  0  0  0  0  0
  -17.6694   -6.6086    0.0000 C   0  0  0  0  0  0  0  0  0  0  0  0
  -17.0885   -7.9915    0.0000 C   0  0  0  0  0  0  0  0  0  0  0  0
  -16.3996   -9.3239    0.0000 C   0  0  0  0  0  0  0  0  0  0  0  0
  -15.6070  -10.5974    0.0000 C   0  0  0  0  0  0  0  0  0  0  0  0
  -14.7157  -11.8039    0.0000 C   0  0  0  0  0  0  0  0  0  0  0  0
  -13.7313  -12.9357    0.0000 C   0  0  0  0  0  0  0  0  0  0  0  0
  -12.6602  -13.9858    0.0000 C   0  0  0  0  0  0  0  0  0  0  0  0
  -11.5090  -14.9474    0.0000 C   0  0  0  0  0  0  0  0  0  0  0  0
  -10.2850  -15.8146    0.0000 C   0  0  0  0  0  0  0  0  0  0  0  0
   -8.9960  -16.5817    0.0000 C   0  0  0  0  0  0  0  0  0  0  0  0
   -7.6502  -17.2440    0.0000 C   0  0  0  0  0  0  0  0  0  0  0  0
   -6.2559  -17.7973    0.0000 C   0  0  0  0  0  0  0  0  0  0  0  0
   -4.8222  -18.2381    0.0000 C   0  0  0  0  0  0  0  0  0  0  0  0
   -3.3579  -18.5636    0.0000 C   0  0  0  0  0  0  0  0  0  0  0  0
   -1.8724  -18.7717    0.0000 C   0  0  0  0  0  0  0  0  0  0  0  0
   -0.3751  -18.8611    0.0000 C   0  0  0  0  0  0  0  0  0  0  0  0
    1.1246  -18.8313    0.0000 C   0  0  0  0  0  0  0  0  0  0  0  0
    2.6172  -18.6824    0.0000 C   0  0  0  0  0  0  0  0  0  0  0  0
    4.0933  -18.4154    0.0000 C   0  0  0  0  0  0  0  0  0  0  0  0
    5.5434  -18.0320    0.0000 C   0  0  0  0  0  0  0  0  0  0  0  0
    6.9586  -17.5345    0.0000 C   0  0  0  0  0  0  0  0  0  0  0  0
    8.3297  -16.9263    0.0000 C   0  0  0  0  0  0  0  0  0  0  0  0
    9.6481  -16.2110    0.0000 C   0  0  0  0  0  0  0  0  0  0  0  0
   10.9056  -15.3932    0.0000 C   0  0  0  0  0  0  0  0  0  0  0  0
   12.0941  -14.4781    0.0000 C   0  0  0  0  0  0  0  0  0  0  0  0
   13.2062  -13.4714    0.0000 C   0  0  0  0  0  0  0  0  0  0  0  0
   14.2347  -12.3796    0.0000 C   0  0  0  0  0  0  0  0  0  0  0  0
   15.1733  -11.2095    0.0000 C   0  0  0  0  0  0  0  0  0  0  0  0
   16.0159   -9.9685    0.0000 C   0  0  0  0  0  0  0  0  0  0  0  0
   16.7573   -8.6646    0.0000 C   0  0  0  0  0  0  0  0  0  0  0  0
   17.3927   -7.3058    0.0000 C   0  0  0  0  0  0  0  0  0  0  0  0
   17.9182   -5.9009    0.0000 C   0  0  0  0  0  0  0  0  0  0  0  0
   18.3304   -4.4586    0.0000 C   0  0  0  0  0  0  0  0  0  0  0  0
   18.6267   -2.9882    0.0000 C   0  0  0  0  0  0  0  0  0  0  0  0
   18.8052   -1.4988    0.0000 C   0  0  0  0  0  0  0  0  0  0  0  0
  1  2  1  0
  2  3  1  0
  3  4  1  0
  4  5  1  0
  5  6  1  0
  6  7  1  0
  7  8  1  0
  8  9  2  0
  9 10  1  0
 10 11  1  0
 11 12  1  0
 12 13  1  0
 13 14  1  0
 14 15  1  0
 15 16  1  0
 16 17  1  0
 17 18  1  0
 18 19  1  0
 19 20  1  0
 20 21  1  0
 21 22  1  0
 22 23  1  0
 23 24  1  0
 24 25  1  0
 25 26  1  0
 26 27  1  0
 27 28  1  0
 28 29  1  0
 29 30  1  0
 30 31  1  0
 31 32  1  0
 32 33  1  0
 33 34  1  0
 34 35  1  0
 35 36  1  0
 36 37  1  0
 37 38  1  0
 38 39  1  0
 39 40  1  0
 40 41  1  0
 41 42  1  0
 42 43  1  0
 43 44  1  0
 44 45  1  0
 45 46  1  0
 46 47  1  0
 47 48  1  0
 48 49  1  0
 49 50  1  0
 50 51  1  0
 51 52  1  0
 52 53  1  0
 53 54  1  0
 54 55  1  0
 55 56  1  0
 56 57  1  0
 57 58  1  0
 58 59  1  0
 59 60  1  0
 60 61  1  0
 61 62  1  0
 62 63  1  0
 63 64  1  0
 64 65  1  0
 65 66  1  0
 66 67  1  0
 67 68  1  0
 68 69  1  0
 69 70  1  0
 70 71  1  0
 71 72  1  0
 72 73  1  0
 73 74  1  0
 74 75  1  0
 75 76  1  0
 76 77  1  0
 77 78  1  0
 78 79  1  0
 79 80  1  0
 80  2  1  0
M  END
>  <Title>  (1046) 
idABMLgen7

$$$$

     RDKit          2D

 39 44  0  0  0  0  0  0  0  0999 V2000
    3.1097   -7.2078    0.0000 C   0  0  0  0  0  0  0  0  0  0  0  0
    2.0490   -6.1471    0.0000 C   0  0  0  0  0  0  0  0  0  0  0  0
    2.7990   -4.8481    0.0000 C   0  0  0  0  0  0  0  0  0  0  0  0
    2.7990   -3.3481    0.0000 C   0  0  0  0  0  0  0  0  0  0  0  0
    2.0490   -2.0490    0.0000 C   0  0  0  0  0  0  0  0  0  0  0  0
    3.1097   -0.9884    0.0000 C   0  0  0  0  0  0  0  0  0  0  0  0
    2.7215    0.4605    0.0000 O   0  0  0  0  0  0  0  0  0  0  0  0
    4.5586   -1.3766    0.0000 O   0  0  0  0  0  0  0  0  0  0  0  0
    5.6192   -0.3159    0.0000 C   0  0  0  0  0  0  0  0  0  0  0  0
    7.0681   -0.7042    0.0000 N   0  0  0  0  0  0  0  0  0  0  0  0
    8.1288    0.3565    0.0000 N   0  0  0  0  0  0  0  0  0  0  0  0
    7.7406    1.8054    0.0000 N   0  0  0  0  0  0  0  0  0  0  0  0
    6.2917    2.1936    0.0000 N   0  0  0  0  0  0  0  0  0  0  0  0
    5.2310    1.1329    0.0000 N   0  0  0  0  0  0  0  0  0  0  0  0
    0.7500   -1.2990    0.0000 C   0  0  0  0  0  0  0  0  0  0  0  0
    1.5000    0.0000    0.0000 C   0  0  0  0  0  0  0  0  0  0  0  0
    0.7500    1.2990    0.0000 C   0  0  0  0  0  0  0  0  0  0  0  0
   -0.7500    1.2990    0.0000 C   0  0  0  0  0  0  0  0  0  0  0  0
   -1.5000    0.0000    0.0000 C   0  0  0  0  0  0  0  0  0  0  0  0
   -0.7500   -1.2990    0.0000 C   0  0  0  0  0  0  0  0  0  0  0  0
   -2.0490   -2.0490    0.0000 C   0  0  0  0  0  0  0  0  0  0  0  0
   -2.7990   -0.7500    0.0000 C   0  0  0  0  0  0  0  0  0  0  0  0
   -4.2990   -0.7500    0.0000 C   0  0  0  0  0  0  0  0  0  0  0  0
   -5.0490   -2.0490    0.0000 C   0  0  0  0  0  0  0  0  0  0  0  0
   -4.2990   -3.3481    0.0000 C   0  0  0  0  0  0  0  0  0  0  0  0
   -2.7990   -3.3481    0.0000 C   0  0  0  0  0  0  0  0  0  0  0  0
   -2.7990   -4.8481    0.0000 C   0  0  0  0  0  0  0  0  0  0  0  0
   -4.2990   -4.8481    0.0000 C   0  0  0  0  0  0  0  0  0  0  0  0
   -5.0490   -6.1471    0.0000 C   0  0  0  0  0  0  0  0  0  0  0  0
   -4.2990   -7.4462    0.0000 C   0  0  0  0  0  0  0  0  0  0  0  0
   -2.7990   -7.4462    0.0000 C   0  0  0  0  0  0  0  0  0  0  0  0
   -2.0490   -6.1471    0.0000 C   0  0  0  0  0  0  0  0  0  0  0  0
   -0.7500   -6.8971    0.0000 C   0  0  0  0  0  0  0  0  0  0  0  0
   -1.5000   -8.1962    0.0000 C   0  0  0  0  0  0  0  0  0  0  0  0
   -0.7500   -9.4952    0.0000 C   0  0  0  0  0  0  0  0  0  0  0  0
    0.7500   -9.4952    0.0000 C   0  0  0  0  0  0  0  0  0  0  0  0
    1.5000  -10.7942    0.0000 O   0  0  0  0  0  0  0  0  0  0  0  0
    1.5000   -8.1962    0.0000 C   0  0  0  0  0  0  0  0  0  0  0  0
    0.7500   -6.8971    0.0000 C   0  0  0  0  0  0  0  0  0  0  0  0
  1  2  1  0
  2  3  1  0
  3  4  1  0
  4  5  1  0
  5  6  1  0
  6  7  2  0
  6  8  1  0
  8  9  1  0
  9 10  2  0
 10 11  1  0
 11 12  2  0
 12 13  1  0
 13 14  2  0
  5 15  1  0
 15 16  2  0
 16 17  1  0
 17 18  2  0
 18 19  1  0
 19 20  2  0
 20 21  1  0
 21 22  2  0
 22 23  1  0
 23 24  2  0
 24 25  1  0
 25 26  2  0
 26 27  1  0
 27 28  2  0
 28 29  1  0
 29 30  2  0
 30 31  1  0
 31 32  2  0
 32 33  1  0
 33 34  2  0
 34 35  1  0
 35 36  2  0
 36 37  1  0
 36 38  1  0
 38 39  2  0
 39  2  1  0
 14  9  1  0
 20 15  1  0
 26 21  1  0
 32 27  1  0
 39 33  1  0
M  END
>  <Title>  (1047) 
idABMMgen7

$$$$

     RDKit          2D

 24 25  0  0  0  0  0  0  0  0999 V2000
   -3.9227   -0.9159    0.0000 C   0  0  0  0  0  0  0  0  0  0  0  0
   -5.3899   -1.2278    0.0000 C   0  0  0  0  0  0  0  0  0  0  0  0
   -6.5046   -0.2241    0.0000 C   0  0  0  0  0  0  0  0  0  0  0  0
   -7.8037   -0.9741    0.0000 C   0  0  0  0  0  0  0  0  0  0  0  0
   -7.4918   -2.4413    0.0000 C   0  0  0  0  0  0  0  0  0  0  0  0
   -8.4955   -3.5560    0.0000 C   0  0  0  0  0  0  0  0  0  0  0  0
   -6.0000   -2.5981    0.0000 N   0  0  0  0  0  0  0  0  0  0  0  0
   -5.2500   -3.8971    0.0000 C   0  0  0  0  0  0  0  0  0  0  0  0
   -3.7500   -3.8971    0.0000 C   0  0  0  0  0  0  0  0  0  0  0  0
   -3.0000   -5.1962    0.0000 N   0  0  0  0  0  0  0  0  0  0  0  0
   -3.7500   -6.4952    0.0000 C   0  0  0  0  0  0  0  0  0  0  0  0
   -1.5000   -5.1962    0.0000 C   0  0  0  0  0  0  0  0  0  0  0  0
   -0.7500   -6.4952    0.0000 O   0  0  0  0  0  0  0  0  0  0  0  0
   -0.7500   -3.8971    0.0000 C   0  0  0  0  0  0  0  0  0  0  0  0
    0.7500   -3.8971    0.0000 N   0  0  0  0  0  0  0  0  0  0  0  0
    1.5000   -5.1962    0.0000 C   0  0  0  0  0  0  0  0  0  0  0  0
    1.5000   -2.5981    0.0000 C   0  0  0  0  0  0  0  0  0  0  0  0
    3.0000   -2.5981    0.0000 O   0  0  0  0  0  0  0  0  0  0  0  0
    0.7500   -1.2990    0.0000 C   0  0  0  0  0  0  0  0  0  0  0  0
    1.5000    0.0000    0.0000 C   0  0  0  0  0  0  0  0  0  0  0  0
    0.7500    1.2990    0.0000 C   0  0  0  0  0  0  0  0  0  0  0  0
   -0.7500    1.2990    0.0000 C   0  0  0  0  0  0  0  0  0  0  0  0
   -1.5000    0.0000    0.0000 C   0  0  0  0  0  0  0  0  0  0  0  0
   -0.7500   -1.2990    0.0000 C   0  0  0  0  0  0  0  0  0  0  0  0
  1  2  1  0
  2  3  2  0
  3  4  1  0
  4  5  2  0
  5  6  1  0
  5  7  1  0
  7  8  1  0
  8  9  1  0
  9 10  1  0
 10 11  1  0
 10 12  1  0
 12 13  2  0
 12 14  1  0
 14 15  1  0
 15 16  1  0
 15 17  1  0
 17 18  2  0
 17 19  1  0
 19 20  2  0
 20 21  1  0
 21 22  2  0
 22 23  1  0
 23 24  2  0
  7  2  1  0
 24 19  1  0
M  END
>  <Title>  (1048) 
idABMNgen7

$$$$

     RDKit          2D

 11 11  0  0  0  0  0  0  0  0999 V2000
    3.0000    0.0000    0.0000 C   0  0  0  0  0  0  0  0  0  0  0  0
    1.5000    0.0000    0.0000 C   0  0  0  0  0  0  0  0  0  0  0  0
    0.7500   -1.2990    0.0000 C   0  0  0  0  0  0  0  0  0  0  0  0
   -0.7500   -1.2990    0.0000 C   0  0  0  0  0  0  0  0  0  0  0  0
   -1.5000    0.0000    0.0000 C   0  0  0  0  0  0  0  0  0  0  0  0
   -3.0000    0.0000    0.0000 C   0  0  0  0  0  0  0  0  0  0  0  0
   -3.7500    1.2990    0.0000 N   0  0  0  0  0  0  0  0  0  0  0  0
   -3.7500   -1.2990    0.0000 O   0  0  0  0  0  0  0  0  0  0  0  0
   -0.7500    1.2990    0.0000 N   0  0  0  0  0  0  0  0  0  0  0  0
    0.7500    1.2990    0.0000 C   0  0  0  0  0  0  0  0  0  0  0  0
    1.5000    2.5981    0.0000 O   0  0  0  0  0  0  0  0  0  0  0  0
  1  2  1  0
  2  3  1  0
  3  4  1  0
  4  5  1  0
  5  6  1  0
  6  7  1  0
  6  8  2  0
  5  9  1  0
  9 10  1  0
 10 11  2  0
 10  2  1  0
M  END
>  <Title>  (1049) 
idABMOgen7

$$$$

     RDKit          2D

  6  5  0  0  0  0  0  0  0  0999 V2000
    0.0000    0.0000    0.0000 C   0  0  0  0  0  0  0  0  0  0  0  0
    1.2990    0.7500    0.0000 C   0  0  0  0  0  0  0  0  0  0  0  0
    1.2990    2.2500    0.0000 O   0  0  0  0  0  0  0  0  0  0  0  0
    2.5981   -0.0000    0.0000 C   0  0  0  0  0  0  0  0  0  0  0  0
    3.8971    0.7500    0.0000 C   0  0  0  0  0  0  0  0  0  0  0  0
    2.5981   -1.5000    0.0000 C   0  0  0  0  0  0  0  0  0  0  0  0
  1  2  1  0
  2  3  2  0
  2  4  1  0
  4  5  1  0
  4  6  1  0
M  END
>  <Title>  (1050) 
idABMPgen7

$$$$

     RDKit          2D

  7  7  0  0  0  0  0  0  0  0999 V2000
    2.7760    0.0000    0.0000 C   0  0  0  0  0  0  0  0  0  0  0  0
    1.2760    0.0000    0.0000 C   0  0  0  0  0  0  0  0  0  0  0  0
    0.3943    1.2135    0.0000 C   0  0  0  0  0  0  0  0  0  0  0  0
   -1.0323    0.7500    0.0000 C   0  0  0  0  0  0  0  0  0  0  0  0
   -1.0323   -0.7500    0.0000 C   0  0  0  0  0  0  0  0  0  0  0  0
   -2.2458   -1.6317    0.0000 O   0  0  0  0  0  0  0  0  0  0  0  0
    0.3943   -1.2135    0.0000 C   0  0  0  0  0  0  0  0  0  0  0  0
  1  2  1  0
  2  3  1  0
  3  4  1  0
  4  5  1  0
  5  6  1  0
  5  7  1  0
  7  2  1  0
M  END
>  <Title>  (1051) 
idABMQgen7

$$$$

     RDKit          2D

  8  8  0  0  0  0  0  0  0  0999 V2000
    3.0000    0.0000    0.0000 C   0  0  0  0  0  0  0  0  0  0  0  0
    1.5000    0.0000    0.0000 C   0  0  0  0  0  0  0  0  0  0  0  0
    0.7500   -1.2990    0.0000 C   0  0  0  0  0  0  0  0  0  0  0  0
   -0.7500   -1.2990    0.0000 C   0  0  0  0  0  0  0  0  0  0  0  0
   -1.5000    0.0000    0.0000 C   0  0  0  0  0  0  0  0  0  0  0  0
   -3.0000    0.0000    0.0000 O   0  0  0  0  0  0  0  0  0  0  0  0
   -0.7500    1.2990    0.0000 C   0  0  0  0  0  0  0  0  0  0  0  0
    0.7500    1.2990    0.0000 C   0  0  0  0  0  0  0  0  0  0  0  0
  1  2  1  0
  2  3  1  0
  3  4  1  0
  4  5  1  0
  5  6  1  0
  5  7  1  0
  7  8  1  0
  8  2  1  0
M  END
>  <Title>  (1052) 
idABMRgen7

$$$$

     RDKit          2D

 37 41  0  0  0  0  0  0  0  0999 V2000
    1.0838   -9.3334    0.0000 C   0  0  0  0  0  0  0  0  0  0  0  0
    0.7500   -7.8710    0.0000 C   0  0  0  0  0  0  0  0  0  0  0  0
    2.1015   -7.2201    0.0000 C   0  0  0  0  0  0  0  0  0  0  0  0
    3.0367   -6.0474    0.0000 C   0  0  0  0  0  0  0  0  0  0  0  0
    3.3705   -4.5850    0.0000 C   0  0  0  0  0  0  0  0  0  0  0  0
    3.0367   -3.1226    0.0000 C   0  0  0  0  0  0  0  0  0  0  0  0
    4.4410   -2.5955    0.0000 C   0  0  0  0  0  0  0  0  0  0  0  0
    4.3737   -1.0971    0.0000 C   0  0  0  0  0  0  0  0  0  0  0  0
    2.9278   -0.6980    0.0000 C   0  0  0  0  0  0  0  0  0  0  0  0
    2.4007    0.7063    0.0000 C   0  0  0  0  0  0  0  0  0  0  0  0
    1.8737    2.1107    0.0000 N   0  0  0  0  0  0  0  0  0  0  0  0
    2.1015   -1.9499    0.0000 C   0  0  0  0  0  0  0  0  0  0  0  0
    0.7500   -1.2990    0.0000 C   0  0  0  0  0  0  0  0  0  0  0  0
    1.5000    0.0000    0.0000 C   0  0  0  0  0  0  0  0  0  0  0  0
    0.7500    1.2990    0.0000 C   0  0  0  0  0  0  0  0  0  0  0  0
   -0.7500    1.2990    0.0000 C   0  0  0  0  0  0  0  0  0  0  0  0
   -1.5000    0.0000    0.0000 C   0  0  0  0  0  0  0  0  0  0  0  0
   -0.7500   -1.2990    0.0000 C   0  0  0  0  0  0  0  0  0  0  0  0
   -2.1015   -1.9499    0.0000 C   0  0  0  0  0  0  0  0  0  0  0  0
   -3.0367   -3.1226    0.0000 C   0  0  0  0  0  0  0  0  0  0  0  0
   -3.3705   -4.5850    0.0000 C   0  0  0  0  0  0  0  0  0  0  0  0
   -3.0367   -6.0474    0.0000 C   0  0  0  0  0  0  0  0  0  0  0  0
   -4.3881   -6.6982    0.0000 C   0  0  0  0  0  0  0  0  0  0  0  0
   -4.5002   -8.1940    0.0000 O   0  0  0  0  0  0  0  0  0  0  0  0
   -5.6275   -5.8532    0.0000 N   0  0  0  0  0  0  0  0  0  0  0  0
   -6.9790   -6.5041    0.0000 C   0  0  0  0  0  0  0  0  0  0  0  0
   -8.2183   -5.6591    0.0000 N   0  0  0  0  0  0  0  0  0  0  0  0
   -9.5698   -6.3099    0.0000 N   0  0  0  0  0  0  0  0  0  0  0  0
   -9.6819   -7.8057    0.0000 N   0  0  0  0  0  0  0  0  0  0  0  0
   -8.4425   -8.6507    0.0000 N   0  0  0  0  0  0  0  0  0  0  0  0
   -7.0910   -7.9999    0.0000 N   0  0  0  0  0  0  0  0  0  0  0  0
   -2.1015   -7.2201    0.0000 C   0  0  0  0  0  0  0  0  0  0  0  0
   -3.3408   -8.0651    0.0000 C   0  0  0  0  0  0  0  0  0  0  0  0
   -3.2287   -9.5609    0.0000 C   0  0  0  0  0  0  0  0  0  0  0  0
   -1.8773  -10.2118    0.0000 C   0  0  0  0  0  0  0  0  0  0  0  0
   -0.6379   -9.3668    0.0000 C   0  0  0  0  0  0  0  0  0  0  0  0
   -0.7500   -7.8710    0.0000 C   0  0  0  0  0  0  0  0  0  0  0  0
  1  2  1  0
  2  3  1  0
  3  4  2  0
  4  5  1  0
  5  6  2  0
  6  7  1  0
  7  8  1  0
  8  9  1  0
  9 10  1  0
 10 11  3  0
  9 12  2  0
 12 13  1  0
 13 14  2  0
 14 15  1  0
 15 16  2  0
 16 17  1  0
 17 18  2  0
 18 19  1  0
 19 20  1  0
 20 21  1  0
 21 22  1  0
 22 23  1  0
 23 24  2  0
 23 25  1  0
 25 26  1  0
 26 27  2  0
 27 28  1  0
 28 29  2  0
 29 30  1  0
 30 31  2  0
 22 32  1  0
 32 33  2  0
 33 34  1  0
 34 35  2  0
 35 36  1  0
 36 37  2  0
 37  2  1  0
 12  6  1  0
 18 13  1  0
 31 26  1  0
 37 32  1  0
M  END
>  <Title>  (1053) 
idABMSgen7

$$$$

     RDKit          2D

 17 18  0  0  0  0  0  0  0  0999 V2000
    3.5260    1.2990    0.0000 O   0  0  0  0  0  0  0  0  0  0  0  0
    2.7760    0.0000    0.0000 C   0  0  0  0  0  0  0  0  0  0  0  0
    3.5260   -1.2990    0.0000 O   0  0  0  0  0  0  0  0  0  0  0  0
    1.2760    0.0000    0.0000 C   0  0  0  0  0  0  0  0  0  0  0  0
    0.3943    1.2135    0.0000 C   0  0  0  0  0  0  0  0  0  0  0  0
   -1.0323    0.7500    0.0000 C   0  0  0  0  0  0  0  0  0  0  0  0
   -1.0323   -0.7500    0.0000 N   0  0  0  0  0  0  0  0  0  0  0  0
   -2.2458   -1.6317    0.0000 C   0  0  0  0  0  0  0  0  0  0  0  0
   -2.0890   -3.1235    0.0000 O   0  0  0  0  0  0  0  0  0  0  0  0
   -3.6161   -1.0216    0.0000 C   0  0  0  0  0  0  0  0  0  0  0  0
   -4.8297   -1.9033    0.0000 C   0  0  0  0  0  0  0  0  0  0  0  0
   -4.8297   -3.4033    0.0000 C   0  0  0  0  0  0  0  0  0  0  0  0
   -6.2562   -3.8668    0.0000 C   0  0  0  0  0  0  0  0  0  0  0  0
   -7.1379   -2.6533    0.0000 C   0  0  0  0  0  0  0  0  0  0  0  0
   -6.2562   -1.4397    0.0000 C   0  0  0  0  0  0  0  0  0  0  0  0
    0.3943   -1.2135    0.0000 C   0  0  0  0  0  0  0  0  0  0  0  0
    0.8578   -2.6401    0.0000 O   0  0  0  0  0  0  0  0  0  0  0  0
  1  2  2  0
  2  3  1  0
  2  4  1  0
  4  5  1  0
  5  6  1  0
  6  7  1  0
  7  8  1  0
  8  9  1  0
  8 10  1  0
 10 11  1  0
 11 12  2  0
 12 13  1  0
 13 14  1  0
 14 15  1  0
  7 16  1  0
 16 17  2  0
 16  4  1  0
 15 11  1  0
M  END
>  <Title>  (1054) 
idABMTgen7

$$$$

     RDKit          2D

103103  0  0  0  0  0  0  0  0999 V2000
   28.3772   -0.0000    0.0000 C   0  0  0  0  0  0  0  0  0  0  0  0
   26.8772   -0.0000    0.0000 C   0  0  0  0  0  0  0  0  0  0  0  0
   25.3772    0.0000    0.0000 C   0  0  0  0  0  0  0  0  0  0  0  0
   23.8772    0.0000    0.0000 C   0  0  0  0  0  0  0  0  0  0  0  0
   23.8301   -1.4993    0.0000 C   0  0  0  0  0  0  0  0  0  0  0  0
   23.6889   -2.9926    0.0000 C   0  0  0  0  0  0  0  0  0  0  0  0
   23.4542   -4.4741    0.0000 C   0  0  0  0  0  0  0  0  0  0  0  0
   23.1270   -5.9380    0.0000 C   0  0  0  0  0  0  0  0  0  0  0  0
   22.7085   -7.3785    0.0000 C   0  0  0  0  0  0  0  0  0  0  0  0
   22.2004   -8.7898    0.0000 C   0  0  0  0  0  0  0  0  0  0  0  0
   21.6047  -10.1664    0.0000 C   0  0  0  0  0  0  0  0  0  0  0  0
   20.9237  -11.5029    0.0000 C   0  0  0  0  0  0  0  0  0  0  0  0
   20.1602  -12.7940    0.0000 C   0  0  0  0  0  0  0  0  0  0  0  0
   19.3170  -14.0346    0.0000 C   0  0  0  0  0  0  0  0  0  0  0  0
   18.3977  -15.2199    0.0000 C   0  0  0  0  0  0  0  0  0  0  0  0
   17.4057  -16.3450    0.0000 C   0  0  0  0  0  0  0  0  0  0  0  0
   16.3450  -17.4057    0.0000 C   0  0  0  0  0  0  0  0  0  0  0  0
   15.2199  -18.3977    0.0000 C   0  0  0  0  0  0  0  0  0  0  0  0
   14.0346  -19.3170    0.0000 C   0  0  0  0  0  0  0  0  0  0  0  0
   12.7940  -20.1602    0.0000 C   0  0  0  0  0  0  0  0  0  0  0  0
   11.5029  -20.9237    0.0000 C   0  0  0  0  0  0  0  0  0  0  0  0
   10.1664  -21.6047    0.0000 C   0  0  0  0  0  0  0  0  0  0  0  0
    8.7898  -22.2004    0.0000 C   0  0  0  0  0  0  0  0  0  0  0  0
    7.3785  -22.7085    0.0000 C   0  0  0  0  0  0  0  0  0  0  0  0
    5.9380  -23.1270    0.0000 C   0  0  0  0  0  0  0  0  0  0  0  0
    4.4741  -23.4542    0.0000 C   0  0  0  0  0  0  0  0  0  0  0  0
    2.9926  -23.6889    0.0000 C   0  0  0  0  0  0  0  0  0  0  0  0
    1.4993  -23.8301    0.0000 C   0  0  0  0  0  0  0  0  0  0  0  0
   -0.0000  -23.8772    0.0000 C   0  0  0  0  0  0  0  0  0  0  0  0
   -1.4993  -23.8301    0.0000 C   0  0  0  0  0  0  0  0  0  0  0  0
   -2.9926  -23.6889    0.0000 C   0  0  0  0  0  0  0  0  0  0  0  0
   -4.4741  -23.4542    0.0000 C   0  0  0  0  0  0  0  0  0  0  0  0
   -5.9380  -23.1270    0.0000 C   0  0  0  0  0  0  0  0  0  0  0  0
   -7.3785  -22.7085    0.0000 C   0  0  0  0  0  0  0  0  0  0  0  0
   -8.7898  -22.2004    0.0000 C   0  0  0  0  0  0  0  0  0  0  0  0
  -10.1664  -21.6047    0.0000 C   0  0  0  0  0  0  0  0  0  0  0  0
  -11.5029  -20.9237    0.0000 C   0  0  0  0  0  0  0  0  0  0  0  0
  -12.7940  -20.1602    0.0000 C   0  0  0  0  0  0  0  0  0  0  0  0
  -14.0346  -19.3170    0.0000 C   0  0  0  0  0  0  0  0  0  0  0  0
  -15.2199  -18.3977    0.0000 C   0  0  0  0  0  0  0  0  0  0  0  0
  -16.3450  -17.4057    0.0000 C   0  0  0  0  0  0  0  0  0  0  0  0
  -17.4057  -16.3450    0.0000 C   0  0  0  0  0  0  0  0  0  0  0  0
  -18.3977  -15.2199    0.0000 C   0  0  0  0  0  0  0  0  0  0  0  0
  -19.3170  -14.0346    0.0000 C   0  0  0  0  0  0  0  0  0  0  0  0
  -20.1602  -12.7940    0.0000 C   0  0  0  0  0  0  0  0  0  0  0  0
  -20.9237  -11.5029    0.0000 C   0  0  0  0  0  0  0  0  0  0  0  0
  -21.6047  -10.1664    0.0000 C   0  0  0  0  0  0  0  0  0  0  0  0
  -22.2004   -8.7898    0.0000 C   0  0  0  0  0  0  0  0  0  0  0  0
  -22.7085   -7.3785    0.0000 C   0  0  0  0  0  0  0  0  0  0  0  0
  -23.1270   -5.9380    0.0000 C   0  0  0  0  0  0  0  0  0  0  0  0
  -23.4542   -4.4741    0.0000 C   0  0  0  0  0  0  0  0  0  0  0  0
  -23.6889   -2.9926    0.0000 C   0  0  0  0  0  0  0  0  0  0  0  0
  -23.8301   -1.4993    0.0000 C   0  0  0  0  0  0  0  0  0  0  0  0
  -23.8772   -0.0000    0.0000 C   0  0  0  0  0  0  0  0  0  0  0  0
  -23.8301    1.4993    0.0000 C   0  0  0  0  0  0  0  0  0  0  0  0
  -23.6889    2.9926    0.0000 C   0  0  0  0  0  0  0  0  0  0  0  0
  -23.4542    4.4741    0.0000 C   0  0  0  0  0  0  0  0  0  0  0  0
  -23.1270    5.9380    0.0000 C   0  0  0  0  0  0  0  0  0  0  0  0
  -22.7085    7.3785    0.0000 C   0  0  0  0  0  0  0  0  0  0  0  0
  -22.2004    8.7898    0.0000 C   0  0  0  0  0  0  0  0  0  0  0  0
  -21.6047   10.1664    0.0000 C   0  0  0  0  0  0  0  0  0  0  0  0
  -20.9237   11.5029    0.0000 C   0  0  0  0  0  0  0  0  0  0  0  0
  -20.1602   12.7940    0.0000 C   0  0  0  0  0  0  0  0  0  0  0  0
  -19.3170   14.0346    0.0000 C   0  0  0  0  0  0  0  0  0  0  0  0
  -18.3977   15.2199    0.0000 C   0  0  0  0  0  0  0  0  0  0  0  0
  -17.4057   16.3450    0.0000 C   0  0  0  0  0  0  0  0  0  0  0  0
  -16.3450   17.4057    0.0000 C   0  0  0  0  0  0  0  0  0  0  0  0
  -15.2199   18.3977    0.0000 C   0  0  0  0  0  0  0  0  0  0  0  0
  -14.0346   19.3170    0.0000 C   0  0  0  0  0  0  0  0  0  0  0  0
  -12.7940   20.1602    0.0000 C   0  0  0  0  0  0  0  0  0  0  0  0
  -11.5029   20.9237    0.0000 C   0  0  0  0  0  0  0  0  0  0  0  0
  -10.1664   21.6047    0.0000 C   0  0  0  0  0  0  0  0  0  0  0  0
   -8.7898   22.2004    0.0000 C   0  0  0  0  0  0  0  0  0  0  0  0
   -7.3785   22.7085    0.0000 C   0  0  0  0  0  0  0  0  0  0  0  0
   -5.9380   23.1270    0.0000 C   0  0  0  0  0  0  0  0  0  0  0  0
   -4.4741   23.4542    0.0000 C   0  0  0  0  0  0  0  0  0  0  0  0
   -2.9926   23.6889    0.0000 C   0  0  0  0  0  0  0  0  0  0  0  0
   -1.4993   23.8301    0.0000 C   0  0  0  0  0  0  0  0  0  0  0  0
   -0.0000   23.8772    0.0000 C   0  0  0  0  0  0  0  0  0  0  0  0
    1.4993   23.8301    0.0000 C   0  0  0  0  0  0  0  0  0  0  0  0
    2.9926   23.6889    0.0000 C   0  0  0  0  0  0  0  0  0  0  0  0
    4.4741   23.4542    0.0000 C   0  0  0  0  0  0  0  0  0  0  0  0
    5.9380   23.1270    0.0000 C   0  0  0  0  0  0  0  0  0  0  0  0
    7.3785   22.7085    0.0000 C   0  0  0  0  0  0  0  0  0  0  0  0
    8.7898   22.2004    0.0000 C   0  0  0  0  0  0  0  0  0  0  0  0
   10.1664   21.6047    0.0000 C   0  0  0  0  0  0  0  0  0  0  0  0
   11.5029   20.9237    0.0000 C   0  0  0  0  0  0  0  0  0  0  0  0
   12.7940   20.1602    0.0000 C   0  0  0  0  0  0  0  0  0  0  0  0
   14.0346   19.3170    0.0000 C   0  0  0  0  0  0  0  0  0  0  0  0
   15.2199   18.3977    0.0000 C   0  0  0  0  0  0  0  0  0  0  0  0
   16.3450   17.4057    0.0000 C   0  0  0  0  0  0  0  0  0  0  0  0
   17.4057   16.3450    0.0000 C   0  0  0  0  0  0  0  0  0  0  0  0
   18.3977   15.2199    0.0000 C   0  0  0  0  0  0  0  0  0  0  0  0
   19.3170   14.0346    0.0000 C   0  0  0  0  0  0  0  0  0  0  0  0
   20.1602   12.7940    0.0000 C   0  0  0  0  0  0  0  0  0  0  0  0
   20.9237   11.5029    0.0000 C   0  0  0  0  0  0  0  0  0  0  0  0
   21.6047   10.1664    0.0000 C   0  0  0  0  0  0  0  0  0  0  0  0
   22.2004    8.7898    0.0000 C   0  0  0  0  0  0  0  0  0  0  0  0
   22.7085    7.3785    0.0000 C   0  0  0  0  0  0  0  0  0  0  0  0
   23.1270    5.9380    0.0000 C   0  0  0  0  0  0  0  0  0  0  0  0
   23.4542    4.4741    0.0000 C   0  0  0  0  0  0  0  0  0  0  0  0
   23.6889    2.9926    0.0000 C   0  0  0  0  0  0  0  0  0  0  0  0
   23.8301    1.4993    0.0000 C   0  0  0  0  0  0  0  0  0  0  0  0
  1  2  1  0
  2  3  3  0
  3  4  1  0
  4  5  2  0
  5  6  1  0
  6  7  1  0
  7  8  1  0
  8  9  1  0
  9 10  1  0
 10 11  1  0
 11 12  1  0
 12 13  1  0
 13 14  1  0
 14 15  1  0
 15 16  1  0
 16 17  1  0
 17 18  1  0
 18 19  1  0
 19 20  1  0
 20 21  1  0
 21 22  1  0
 22 23  1  0
 23 24  1  0
 24 25  1  0
 25 26  1  0
 26 27  1  0
 27 28  1  0
 28 29  1  0
 29 30  1  0
 30 31  1  0
 31 32  1  0
 32 33  1  0
 33 34  1  0
 34 35  1  0
 35 36  1  0
 36 37  2  0
 37 38  1  0
 38 39  2  0
 39 40  1  0
 40 41  2  0
 41 42  1  0
 42 43  2  0
 43 44  1  0
 44 45  2  0
 45 46  1  0
 46 47  2  0
 47 48  1  0
 48 49  2  0
 49 50  1  0
 50 51  2  0
 51 52  1  0
 52 53  2  0
 53 54  1  0
 54 55  2  0
 55 56  1  0
 56 57  2  0
 57 58  1  0
 58 59  2  0
 59 60  1  0
 60 61  2  0
 61 62  1  0
 62 63  1  0
 63 64  1  0
 64 65  1  0
 65 66  1  0
 66 67  1  0
 67 68  1  0
 68 69  1  0
 69 70  1  0
 70 71  1  0
 71 72  1  0
 72 73  1  0
 73 74  1  0
 74 75  1  0
 75 76  1  0
 76 77  1  0
 77 78  1  0
 78 79  1  0
 79 80  1  0
 80 81  1  0
 81 82  1  0
 82 83  1  0
 83 84  1  0
 84 85  1  0
 85 86  1  0
 86 87  1  0
 87 88  1  0
 88 89  1  0
 89 90  1  0
 90 91  1  0
 91 92  1  0
 92 93  1  0
 93 94  1  0
 94 95  1  0
 95 96  1  0
 96 97  1  0
 97 98  1  0
 98 99  2  0
 99100  1  0
100101  2  0
101102  1  0
102103  2  0
103  4  1  0
M  END
>  <Title>  (1055) 
idABMUgen7

$$$$

     RDKit          2D

110110  0  0  0  0  0  0  0  0999 V2000
   27.5254    0.0000    0.0000 C   0  0  0  0  0  0  0  0  0  0  0  0
   26.0254    0.0000    0.0000 C   0  0  0  0  0  0  0  0  0  0  0  0
   25.9822    1.4994    0.0000 C   0  0  0  0  0  0  0  0  0  0  0  0
   25.8527    2.9938    0.0000 C   0  0  0  0  0  0  0  0  0  0  0  0
   25.6373    4.4782    0.0000 C   0  0  0  0  0  0  0  0  0  0  0  0
   25.3367    5.9478    0.0000 C   0  0  0  0  0  0  0  0  0  0  0  0
   24.9519    7.3976    0.0000 C   0  0  0  0  0  0  0  0  0  0  0  0
   24.4843    8.8229    0.0000 C   0  0  0  0  0  0  0  0  0  0  0  0
   23.9353   10.2188    0.0000 C   0  0  0  0  0  0  0  0  0  0  0  0
   23.3068   11.5808    0.0000 C   0  0  0  0  0  0  0  0  0  0  0  0
   22.6009   12.9043    0.0000 C   0  0  0  0  0  0  0  0  0  0  0  0
   21.8200   14.1850    0.0000 C   0  0  0  0  0  0  0  0  0  0  0  0
   20.9665   15.4185    0.0000 C   0  0  0  0  0  0  0  0  0  0  0  0
   20.0434   16.6008    0.0000 C   0  0  0  0  0  0  0  0  0  0  0  0
   19.0537   17.7280    0.0000 C   0  0  0  0  0  0  0  0  0  0  0  0
   18.0007   18.7962    0.0000 C   0  0  0  0  0  0  0  0  0  0  0  0
   16.8879   19.8021    0.0000 C   0  0  0  0  0  0  0  0  0  0  0  0
   15.7190   20.7421    0.0000 C   0  0  0  0  0  0  0  0  0  0  0  0
   14.4979   21.6133    0.0000 C   0  0  0  0  0  0  0  0  0  0  0  0
   13.2287   22.4126    0.0000 C   0  0  0  0  0  0  0  0  0  0  0  0
   11.9154   23.1375    0.0000 C   0  0  0  0  0  0  0  0  0  0  0  0
   10.5627   23.7856    0.0000 C   0  0  0  0  0  0  0  0  0  0  0  0
    9.1748   24.3546    0.0000 C   0  0  0  0  0  0  0  0  0  0  0  0
    7.7564   24.8427    0.0000 C   0  0  0  0  0  0  0  0  0  0  0  0
    6.3123   25.2483    0.0000 C   0  0  0  0  0  0  0  0  0  0  0  0
    4.8472   25.5701    0.0000 C   0  0  0  0  0  0  0  0  0  0  0  0
    3.3660   25.8068    0.0000 C   0  0  0  0  0  0  0  0  0  0  0  0
    1.8736   25.9579    0.0000 C   0  0  0  0  0  0  0  0  0  0  0  0
    0.3750   26.0227    0.0000 C   0  0  0  0  0  0  0  0  0  0  0  0
   -1.1248   26.0011    0.0000 C   0  0  0  0  0  0  0  0  0  0  0  0
   -2.6209   25.8931    0.0000 C   0  0  0  0  0  0  0  0  0  0  0  0
   -4.1083   25.6991    0.0000 C   0  0  0  0  0  0  0  0  0  0  0  0
   -5.5821   25.4198    0.0000 C   0  0  0  0  0  0  0  0  0  0  0  0
   -7.0373   25.0559    0.0000 C   0  0  0  0  0  0  0  0  0  0  0  0
   -8.4691   24.6089    0.0000 C   0  0  0  0  0  0  0  0  0  0  0  0
   -9.8728   24.0801    0.0000 C   0  0  0  0  0  0  0  0  0  0  0  0
  -11.2437   23.4713    0.0000 C   0  0  0  0  0  0  0  0  0  0  0  0
  -12.5773   22.7845    0.0000 C   0  0  0  0  0  0  0  0  0  0  0  0
  -13.8690   22.0221    0.0000 C   0  0  0  0  0  0  0  0  0  0  0  0
  -15.1147   21.1865    0.0000 C   0  0  0  0  0  0  0  0  0  0  0  0
  -16.3102   20.2805    0.0000 C   0  0  0  0  0  0  0  0  0  0  0  0
  -17.4515   19.3072    0.0000 C   0  0  0  0  0  0  0  0  0  0  0  0
  -18.5349   18.2697    0.0000 C   0  0  0  0  0  0  0  0  0  0  0  0
  -19.5567   17.1715    0.0000 C   0  0  0  0  0  0  0  0  0  0  0  0
  -20.5135   16.0163    0.0000 C   0  0  0  0  0  0  0  0  0  0  0  0
  -21.4021   14.8079    0.0000 C   0  0  0  0  0  0  0  0  0  0  0  0
  -22.2197   13.5503    0.0000 C   0  0  0  0  0  0  0  0  0  0  0  0
  -22.9634   12.2476    0.0000 C   0  0  0  0  0  0  0  0  0  0  0  0
  -23.6309   10.9043    0.0000 C   0  0  0  0  0  0  0  0  0  0  0  0
  -24.2199    9.5248    0.0000 C   0  0  0  0  0  0  0  0  0  0  0  0
  -24.7284    8.1136    0.0000 C   0  0  0  0  0  0  0  0  0  0  0  0
  -25.1547    6.6755    0.0000 C   0  0  0  0  0  0  0  0  0  0  0  0
  -25.4976    5.2152    0.0000 C   0  0  0  0  0  0  0  0  0  0  0  0
  -25.7557    3.7376    0.0000 C   0  0  0  0  0  0  0  0  0  0  0  0
  -25.9282    2.2475    0.0000 C   0  0  0  0  0  0  0  0  0  0  0  0
  -26.0146    0.7500    0.0000 C   0  0  0  0  0  0  0  0  0  0  0  0
  -26.0146   -0.7500    0.0000 C   0  0  0  0  0  0  0  0  0  0  0  0
  -25.9282   -2.2475    0.0000 C   0  0  0  0  0  0  0  0  0  0  0  0
  -25.7557   -3.7376    0.0000 C   0  0  0  0  0  0  0  0  0  0  0  0
  -25.4976   -5.2152    0.0000 C   0  0  0  0  0  0  0  0  0  0  0  0
  -25.1547   -6.6755    0.0000 C   0  0  0  0  0  0  0  0  0  0  0  0
  -24.7284   -8.1136    0.0000 C   0  0  0  0  0  0  0  0  0  0  0  0
  -24.2199   -9.5248    0.0000 C   0  0  0  0  0  0  0  0  0  0  0  0
  -23.6309  -10.9043    0.0000 C   0  0  0  0  0  0  0  0  0  0  0  0
  -22.9634  -12.2476    0.0000 C   0  0  0  0  0  0  0  0  0  0  0  0
  -22.2197  -13.5503    0.0000 C   0  0  0  0  0  0  0  0  0  0  0  0
  -21.4021  -14.8079    0.0000 C   0  0  0  0  0  0  0  0  0  0  0  0
  -20.5135  -16.0163    0.0000 C   0  0  0  0  0  0  0  0  0  0  0  0
  -19.5567  -17.1715    0.0000 C   0  0  0  0  0  0  0  0  0  0  0  0
  -18.5349  -18.2697    0.0000 C   0  0  0  0  0  0  0  0  0  0  0  0
  -17.4515  -19.3072    0.0000 C   0  0  0  0  0  0  0  0  0  0  0  0
  -16.3102  -20.2805    0.0000 C   0  0  0  0  0  0  0  0  0  0  0  0
  -15.1147  -21.1865    0.0000 C   0  0  0  0  0  0  0  0  0  0  0  0
  -13.8690  -22.0221    0.0000 C   0  0  0  0  0  0  0  0  0  0  0  0
  -12.5773  -22.7845    0.0000 C   0  0  0  0  0  0  0  0  0  0  0  0
  -11.2437  -23.4713    0.0000 C   0  0  0  0  0  0  0  0  0  0  0  0
   -9.8728  -24.0801    0.0000 C   0  0  0  0  0  0  0  0  0  0  0  0
   -8.4691  -24.6089    0.0000 C   0  0  0  0  0  0  0  0  0  0  0  0
   -7.0373  -25.0559    0.0000 C   0  0  0  0  0  0  0  0  0  0  0  0
   -5.5821  -25.4198    0.0000 C   0  0  0  0  0  0  0  0  0  0  0  0
   -4.1083  -25.6991    0.0000 C   0  0  0  0  0  0  0  0  0  0  0  0
   -2.6209  -25.8931    0.0000 C   0  0  0  0  0  0  0  0  0  0  0  0
   -1.1248  -26.0011    0.0000 C   0  0  0  0  0  0  0  0  0  0  0  0
    0.3750  -26.0227    0.0000 C   0  0  0  0  0  0  0  0  0  0  0  0
    1.8736  -25.9579    0.0000 C   0  0  0  0  0  0  0  0  0  0  0  0
    3.3660  -25.8068    0.0000 C   0  0  0  0  0  0  0  0  0  0  0  0
    4.8472  -25.5701    0.0000 C   0  0  0  0  0  0  0  0  0  0  0  0
    6.3123  -25.2483    0.0000 C   0  0  0  0  0  0  0  0  0  0  0  0
    7.7564  -24.8427    0.0000 C   0  0  0  0  0  0  0  0  0  0  0  0
    9.1748  -24.3546    0.0000 C   0  0  0  0  0  0  0  0  0  0  0  0
   10.5627  -23.7856    0.0000 C   0  0  0  0  0  0  0  0  0  0  0  0
   11.9154  -23.1375    0.0000 C   0  0  0  0  0  0  0  0  0  0  0  0
   13.2287  -22.4126    0.0000 C   0  0  0  0  0  0  0  0  0  0  0  0
   14.4979  -21.6133    0.0000 C   0  0  0  0  0  0  0  0  0  0  0  0
   15.7190  -20.7421    0.0000 C   0  0  0  0  0  0  0  0  0  0  0  0
   16.8879  -19.8021    0.0000 C   0  0  0  0  0  0  0  0  0  0  0  0
   18.0007  -18.7962    0.0000 C   0  0  0  0  0  0  0  0  0  0  0  0
   19.0537  -17.7280    0.0000 C   0  0  0  0  0  0  0  0  0  0  0  0
   20.0434  -16.6008    0.0000 C   0  0  0  0  0  0  0  0  0  0  0  0
   20.9665  -15.4185    0.0000 C   0  0  0  0  0  0  0  0  0  0  0  0
   21.8200  -14.1850    0.0000 C   0  0  0  0  0  0  0  0  0  0  0  0
   22.6009  -12.9043    0.0000 C   0  0  0  0  0  0  0  0  0  0  0  0
   23.3068  -11.5808    0.0000 C   0  0  0  0  0  0  0  0  0  0  0  0
   23.9353  -10.2188    0.0000 C   0  0  0  0  0  0  0  0  0  0  0  0
   24.4843   -8.8229    0.0000 C   0  0  0  0  0  0  0  0  0  0  0  0
   24.9519   -7.3976    0.0000 C   0  0  0  0  0  0  0  0  0  0  0  0
   25.3367   -5.9478    0.0000 C   0  0  0  0  0  0  0  0  0  0  0  0
   25.6373   -4.4782    0.0000 C   0  0  0  0  0  0  0  0  0  0  0  0
   25.8527   -2.9938    0.0000 C   0  0  0  0  0  0  0  0  0  0  0  0
   25.9822   -1.4994    0.0000 C   0  0  0  0  0  0  0  0  0  0  0  0
  1  2  1  0
  2  3  1  0
  3  4  2  0
  4  5  1  0
  5  6  2  0
  6  7  1  0
  7  8  2  0
  8  9  1  0
  9 10  1  0
 10 11  1  0
 11 12  1  0
 12 13  1  0
 13 14  1  0
 14 15  1  0
 15 16  1  0
 16 17  1  0
 17 18  1  0
 18 19  1  0
 19 20  1  0
 20 21  1  0
 21 22  1  0
 22 23  1  0
 23 24  1  0
 24 25  1  0
 25 26  1  0
 26 27  1  0
 27 28  1  0
 28 29  1  0
 29 30  1  0
 30 31  1  0
 31 32  1  0
 32 33  1  0
 33 34  1  0
 34 35  1  0
 35 36  1  0
 36 37  1  0
 37 38  1  0
 38 39  1  0
 39 40  1  0
 40 41  1  0
 41 42  1  0
 42 43  1  0
 43 44  1  0
 44 45  1  0
 45 46  1  0
 46 47  1  0
 47 48  1  0
 48 49  1  0
 49 50  1  0
 50 51  1  0
 51 52  1  0
 52 53  1  0
 53 54  1  0
 54 55  1  0
 55 56  1  0
 56 57  1  0
 57 58  1  0
 58 59  1  0
 59 60  1  0
 60 61  1  0
 61 62  1  0
 62 63  1  0
 63 64  1  0
 64 65  1  0
 65 66  1  0
 66 67  1  0
 67 68  1  0
 68 69  1  0
 69 70  1  0
 70 71  1  0
 71 72  1  0
 72 73  1  0
 73 74  1  0
 74 75  1  0
 75 76  1  0
 76 77  1  0
 77 78  1  0
 78 79  1  0
 79 80  1  0
 80 81  1  0
 81 82  1  0
 82 83  1  0
 83 84  1  0
 84 85  1  0
 85 86  1  0
 86 87  1  0
 87 88  1  0
 88 89  1  0
 89 90  1  0
 90 91  1  0
 91 92  1  0
 92 93  1  0
 93 94  1  0
 94 95  1  0
 95 96  1  0
 96 97  1  0
 97 98  1  0
 98 99  1  0
 99100  1  0
100101  1  0
101102  1  0
102103  1  0
103104  1  0
104105  1  0
105106  1  0
106107  1  0
107108  1  0
108109  1  0
109110  1  0
110  2  1  0
M  END
>  <Title>  (1056) 
idABMVgen7

$$$$

     RDKit          2D

 91 91  0  0  0  0  0  0  0  0999 V2000
   22.9903   -0.0000    0.0000 C   0  0  0  0  0  0  0  0  0  0  0  0
   21.4903    0.0000    0.0000 C   0  0  0  0  0  0  0  0  0  0  0  0
   21.4379   -1.4991    0.0000 C   0  0  0  0  0  0  0  0  0  0  0  0
   21.2811   -2.9909    0.0000 C   0  0  0  0  0  0  0  0  0  0  0  0
   21.0207   -4.4681    0.0000 C   0  0  0  0  0  0  0  0  0  0  0  0
   20.6578   -5.9235    0.0000 C   0  0  0  0  0  0  0  0  0  0  0  0
   20.1943   -7.3501    0.0000 C   0  0  0  0  0  0  0  0  0  0  0  0
   19.6323   -8.7409    0.0000 C   0  0  0  0  0  0  0  0  0  0  0  0
   18.9748  -10.0891    0.0000 C   0  0  0  0  0  0  0  0  0  0  0  0
   18.2248  -11.3881    0.0000 C   0  0  0  0  0  0  0  0  0  0  0  0
   17.3860  -12.6317    0.0000 C   0  0  0  0  0  0  0  0  0  0  0  0
   16.4625  -13.8137    0.0000 C   0  0  0  0  0  0  0  0  0  0  0  0
   15.4588  -14.9284    0.0000 C   0  0  0  0  0  0  0  0  0  0  0  0
   14.3798  -15.9704    0.0000 C   0  0  0  0  0  0  0  0  0  0  0  0
   13.2307  -16.9346    0.0000 C   0  0  0  0  0  0  0  0  0  0  0  0
   12.0172  -17.8163    0.0000 C   0  0  0  0  0  0  0  0  0  0  0  0
   10.7451  -18.6111    0.0000 C   0  0  0  0  0  0  0  0  0  0  0  0
    9.4207  -19.3153    0.0000 C   0  0  0  0  0  0  0  0  0  0  0  0
    8.0504  -19.9254    0.0000 C   0  0  0  0  0  0  0  0  0  0  0  0
    6.6409  -20.4385    0.0000 C   0  0  0  0  0  0  0  0  0  0  0  0
    5.1990  -20.8519    0.0000 C   0  0  0  0  0  0  0  0  0  0  0  0
    3.7317  -21.1638    0.0000 C   0  0  0  0  0  0  0  0  0  0  0  0
    2.2463  -21.3726    0.0000 C   0  0  0  0  0  0  0  0  0  0  0  0
    0.7500  -21.4772    0.0000 C   0  0  0  0  0  0  0  0  0  0  0  0
   -0.7500  -21.4772    0.0000 C   0  0  0  0  0  0  0  0  0  0  0  0
   -2.2463  -21.3726    0.0000 C   0  0  0  0  0  0  0  0  0  0  0  0
   -3.7317  -21.1638    0.0000 C   0  0  0  0  0  0  0  0  0  0  0  0
   -5.1990  -20.8519    0.0000 C   0  0  0  0  0  0  0  0  0  0  0  0
   -6.6409  -20.4385    0.0000 C   0  0  0  0  0  0  0  0  0  0  0  0
   -8.0504  -19.9254    0.0000 C   0  0  0  0  0  0  0  0  0  0  0  0
   -9.4207  -19.3153    0.0000 C   0  0  0  0  0  0  0  0  0  0  0  0
  -10.7451  -18.6111    0.0000 C   0  0  0  0  0  0  0  0  0  0  0  0
  -12.0172  -17.8163    0.0000 C   0  0  0  0  0  0  0  0  0  0  0  0
  -13.2307  -16.9346    0.0000 C   0  0  0  0  0  0  0  0  0  0  0  0
  -14.3798  -15.9704    0.0000 C   0  0  0  0  0  0  0  0  0  0  0  0
  -15.4588  -14.9284    0.0000 C   0  0  0  0  0  0  0  0  0  0  0  0
  -16.4625  -13.8137    0.0000 C   0  0  0  0  0  0  0  0  0  0  0  0
  -17.3860  -12.6317    0.0000 C   0  0  0  0  0  0  0  0  0  0  0  0
  -18.2248  -11.3881    0.0000 C   0  0  0  0  0  0  0  0  0  0  0  0
  -18.9748  -10.0891    0.0000 C   0  0  0  0  0  0  0  0  0  0  0  0
  -19.6323   -8.7409    0.0000 C   0  0  0  0  0  0  0  0  0  0  0  0
  -20.1943   -7.3501    0.0000 C   0  0  0  0  0  0  0  0  0  0  0  0
  -20.6578   -5.9235    0.0000 C   0  0  0  0  0  0  0  0  0  0  0  0
  -21.0207   -4.4681    0.0000 C   0  0  0  0  0  0  0  0  0  0  0  0
  -21.2811   -2.9909    0.0000 C   0  0  0  0  0  0  0  0  0  0  0  0
  -21.4379   -1.4991    0.0000 C   0  0  0  0  0  0  0  0  0  0  0  0
  -21.4903    0.0000    0.0000 C   0  0  0  0  0  0  0  0  0  0  0  0
  -21.4379    1.4991    0.0000 C   0  0  0  0  0  0  0  0  0  0  0  0
  -21.2811    2.9909    0.0000 C   0  0  0  0  0  0  0  0  0  0  0  0
  -21.0207    4.4681    0.0000 C   0  0  0  0  0  0  0  0  0  0  0  0
  -20.6578    5.9235    0.0000 C   0  0  0  0  0  0  0  0  0  0  0  0
  -20.1943    7.3501    0.0000 C   0  0  0  0  0  0  0  0  0  0  0  0
  -19.6323    8.7409    0.0000 C   0  0  0  0  0  0  0  0  0  0  0  0
  -18.9748   10.0891    0.0000 C   0  0  0  0  0  0  0  0  0  0  0  0
  -18.2248   11.3881    0.0000 C   0  0  0  0  0  0  0  0  0  0  0  0
  -17.3860   12.6317    0.0000 C   0  0  0  0  0  0  0  0  0  0  0  0
  -16.4625   13.8137    0.0000 C   0  0  0  0  0  0  0  0  0  0  0  0
  -15.4588   14.9284    0.0000 C   0  0  0  0  0  0  0  0  0  0  0  0
  -14.3798   15.9704    0.0000 C   0  0  0  0  0  0  0  0  0  0  0  0
  -13.2307   16.9346    0.0000 C   0  0  0  0  0  0  0  0  0  0  0  0
  -12.0172   17.8163    0.0000 C   0  0  0  0  0  0  0  0  0  0  0  0
  -10.7451   18.6111    0.0000 C   0  0  0  0  0  0  0  0  0  0  0  0
   -9.4207   19.3153    0.0000 C   0  0  0  0  0  0  0  0  0  0  0  0
   -8.0504   19.9254    0.0000 C   0  0  0  0  0  0  0  0  0  0  0  0
   -6.6409   20.4385    0.0000 C   0  0  0  0  0  0  0  0  0  0  0  0
   -5.1990   20.8519    0.0000 C   0  0  0  0  0  0  0  0  0  0  0  0
   -3.7317   21.1638    0.0000 C   0  0  0  0  0  0  0  0  0  0  0  0
   -2.2463   21.3726    0.0000 C   0  0  0  0  0  0  0  0  0  0  0  0
   -0.7500   21.4772    0.0000 C   0  0  0  0  0  0  0  0  0  0  0  0
    0.7500   21.4772    0.0000 C   0  0  0  0  0  0  0  0  0  0  0  0
    2.2463   21.3726    0.0000 C   0  0  0  0  0  0  0  0  0  0  0  0
    3.7317   21.1638    0.0000 C   0  0  0  0  0  0  0  0  0  0  0  0
    5.1990   20.8519    0.0000 C   0  0  0  0  0  0  0  0  0  0  0  0
    6.6409   20.4385    0.0000 C   0  0  0  0  0  0  0  0  0  0  0  0
    8.0504   19.9254    0.0000 C   0  0  0  0  0  0  0  0  0  0  0  0
    9.4207   19.3153    0.0000 C   0  0  0  0  0  0  0  0  0  0  0  0
   10.7451   18.6111    0.0000 C   0  0  0  0  0  0  0  0  0  0  0  0
   12.0172   17.8163    0.0000 C   0  0  0  0  0  0  0  0  0  0  0  0
   13.2307   16.9346    0.0000 C   0  0  0  0  0  0  0  0  0  0  0  0
   14.3798   15.9704    0.0000 C   0  0  0  0  0  0  0  0  0  0  0  0
   15.4588   14.9284    0.0000 C   0  0  0  0  0  0  0  0  0  0  0  0
   16.4625   13.8137    0.0000 C   0  0  0  0  0  0  0  0  0  0  0  0
   17.3860   12.6317    0.0000 C   0  0  0  0  0  0  0  0  0  0  0  0
   18.2248   11.3881    0.0000 C   0  0  0  0  0  0  0  0  0  0  0  0
   18.9748   10.0891    0.0000 C   0  0  0  0  0  0  0  0  0  0  0  0
   19.6323    8.7409    0.0000 C   0  0  0  0  0  0  0  0  0  0  0  0
   20.1943    7.3501    0.0000 C   0  0  0  0  0  0  0  0  0  0  0  0
   20.6578    5.9235    0.0000 C   0  0  0  0  0  0  0  0  0  0  0  0
   21.0207    4.4681    0.0000 C   0  0  0  0  0  0  0  0  0  0  0  0
   21.2811    2.9909    0.0000 C   0  0  0  0  0  0  0  0  0  0  0  0
   21.4379    1.4991    0.0000 C   0  0  0  0  0  0  0  0  0  0  0  0
  1  2  1  0
  2  3  1  0
  3  4  1  0
  4  5  1  0
  5  6  1  0
  6  7  1  0
  7  8  1  0
  8  9  1  0
  9 10  1  0
 10 11  1  0
 11 12  1  0
 12 13  1  0
 13 14  1  0
 14 15  1  0
 15 16  1  0
 16 17  1  0
 17 18  1  0
 18 19  1  0
 19 20  1  0
 20 21  1  0
 21 22  1  0
 22 23  1  0
 23 24  1  0
 24 25  1  0
 25 26  1  0
 26 27  1  0
 27 28  1  0
 28 29  1  0
 29 30  1  0
 30 31  1  0
 31 32  1  0
 32 33  1  0
 33 34  1  0
 34 35  1  0
 35 36  1  0
 36 37  1  0
 37 38  1  0
 38 39  1  0
 39 40  1  0
 40 41  1  0
 41 42  1  0
 42 43  1  0
 43 44  1  0
 44 45  1  0
 45 46  1  0
 46 47  1  0
 47 48  1  0
 48 49  1  0
 49 50  1  0
 50 51  1  0
 51 52  1  0
 52 53  1  0
 53 54  1  0
 54 55  1  0
 55 56  1  0
 56 57  1  0
 57 58  1  0
 58 59  1  0
 59 60  1  0
 60 61  1  0
 61 62  1  0
 62 63  1  0
 63 64  1  0
 64 65  1  0
 65 66  1  0
 66 67  1  0
 67 68  1  0
 68 69  1  0
 69 70  1  0
 70 71  1  0
 71 72  1  0
 72 73  1  0
 73 74  1  0
 74 75  1  0
 75 76  1  0
 76 77  1  0
 77 78  1  0
 78 79  1  0
 79 80  1  0
 80 81  1  0
 81 82  1  0
 82 83  1  0
 83 84  1  0
 84 85  1  0
 85 86  1  0
 86 87  1  0
 87 88  1  0
 88 89  1  0
 89 90  1  0
 90 91  1  0
 91  2  1  0
M  END
>  <Title>  (1057) 
idABMWgen7

$$$$

     RDKit          2D

 73 73  0  0  0  0  0  0  0  0999 V2000
   18.6942    0.0000    0.0000 C   0  0  0  0  0  0  0  0  0  0  0  0
   17.1942    0.0000    0.0000 C   0  0  0  0  0  0  0  0  0  0  0  0
   17.1288   -1.4986    0.0000 C   0  0  0  0  0  0  0  0  0  0  0  0
   16.9330   -2.9857    0.0000 C   0  0  0  0  0  0  0  0  0  0  0  0
   16.6083   -4.4502    0.0000 C   0  0  0  0  0  0  0  0  0  0  0  0
   16.1573   -5.8808    0.0000 C   0  0  0  0  0  0  0  0  0  0  0  0
   15.5832   -7.2666    0.0000 C   0  0  0  0  0  0  0  0  0  0  0  0
   14.8906   -8.5971    0.0000 C   0  0  0  0  0  0  0  0  0  0  0  0
   14.0847   -9.8622    0.0000 C   0  0  0  0  0  0  0  0  0  0  0  0
   13.1715  -11.0522    0.0000 C   0  0  0  0  0  0  0  0  0  0  0  0
   12.1581  -12.1581    0.0000 C   0  0  0  0  0  0  0  0  0  0  0  0
   11.0522  -13.1715    0.0000 C   0  0  0  0  0  0  0  0  0  0  0  0
    9.8622  -14.0847    0.0000 C   0  0  0  0  0  0  0  0  0  0  0  0
    8.5971  -14.8906    0.0000 C   0  0  0  0  0  0  0  0  0  0  0  0
    7.2666  -15.5832    0.0000 C   0  0  0  0  0  0  0  0  0  0  0  0
    5.8808  -16.1573    0.0000 C   0  0  0  0  0  0  0  0  0  0  0  0
    4.4502  -16.6083    0.0000 C   0  0  0  0  0  0  0  0  0  0  0  0
    2.9857  -16.9330    0.0000 C   0  0  0  0  0  0  0  0  0  0  0  0
    1.4986  -17.1288    0.0000 C   0  0  0  0  0  0  0  0  0  0  0  0
   -0.0000  -17.1942    0.0000 C   0  0  0  0  0  0  0  0  0  0  0  0
   -1.4986  -17.1288    0.0000 C   0  0  0  0  0  0  0  0  0  0  0  0
   -2.9857  -16.9330    0.0000 C   0  0  0  0  0  0  0  0  0  0  0  0
   -4.4502  -16.6083    0.0000 C   0  0  0  0  0  0  0  0  0  0  0  0
   -5.8808  -16.1573    0.0000 C   0  0  0  0  0  0  0  0  0  0  0  0
   -7.2666  -15.5832    0.0000 C   0  0  0  0  0  0  0  0  0  0  0  0
   -8.5971  -14.8906    0.0000 C   0  0  0  0  0  0  0  0  0  0  0  0
   -9.8622  -14.0847    0.0000 C   0  0  0  0  0  0  0  0  0  0  0  0
  -11.0522  -13.1715    0.0000 C   0  0  0  0  0  0  0  0  0  0  0  0
  -12.1581  -12.1581    0.0000 C   0  0  0  0  0  0  0  0  0  0  0  0
  -13.1715  -11.0522    0.0000 C   0  0  0  0  0  0  0  0  0  0  0  0
  -14.0847   -9.8622    0.0000 C   0  0  0  0  0  0  0  0  0  0  0  0
  -14.8906   -8.5971    0.0000 C   0  0  0  0  0  0  0  0  0  0  0  0
  -15.5832   -7.2666    0.0000 C   0  0  0  0  0  0  0  0  0  0  0  0
  -16.1573   -5.8808    0.0000 C   0  0  0  0  0  0  0  0  0  0  0  0
  -16.6083   -4.4502    0.0000 C   0  0  0  0  0  0  0  0  0  0  0  0
  -16.9330   -2.9857    0.0000 C   0  0  0  0  0  0  0  0  0  0  0  0
  -17.1288   -1.4986    0.0000 C   0  0  0  0  0  0  0  0  0  0  0  0
  -17.1942    0.0000    0.0000 C   0  0  0  0  0  0  0  0  0  0  0  0
  -17.1288    1.4986    0.0000 C   0  0  0  0  0  0  0  0  0  0  0  0
  -16.9330    2.9857    0.0000 C   0  0  0  0  0  0  0  0  0  0  0  0
  -16.6083    4.4502    0.0000 C   0  0  0  0  0  0  0  0  0  0  0  0
  -16.1573    5.8808    0.0000 C   0  0  0  0  0  0  0  0  0  0  0  0
  -15.5832    7.2666    0.0000 C   0  0  0  0  0  0  0  0  0  0  0  0
  -14.8906    8.5971    0.0000 C   0  0  0  0  0  0  0  0  0  0  0  0
  -14.0847    9.8622    0.0000 C   0  0  0  0  0  0  0  0  0  0  0  0
  -13.1715   11.0522    0.0000 C   0  0  0  0  0  0  0  0  0  0  0  0
  -12.1581   12.1581    0.0000 C   0  0  0  0  0  0  0  0  0  0  0  0
  -11.0522   13.1715    0.0000 C   0  0  0  0  0  0  0  0  0  0  0  0
   -9.8622   14.0847    0.0000 C   0  0  0  0  0  0  0  0  0  0  0  0
   -8.5971   14.8906    0.0000 C   0  0  0  0  0  0  0  0  0  0  0  0
   -7.2666   15.5832    0.0000 C   0  0  0  0  0  0  0  0  0  0  0  0
   -5.8808   16.1573    0.0000 C   0  0  0  0  0  0  0  0  0  0  0  0
   -4.4502   16.6083    0.0000 C   0  0  0  0  0  0  0  0  0  0  0  0
   -2.9857   16.9330    0.0000 C   0  0  0  0  0  0  0  0  0  0  0  0
   -1.4986   17.1288    0.0000 C   0  0  0  0  0  0  0  0  0  0  0  0
    0.0000   17.1942    0.0000 C   0  0  0  0  0  0  0  0  0  0  0  0
    1.4986   17.1288    0.0000 C   0  0  0  0  0  0  0  0  0  0  0  0
    2.9857   16.9330    0.0000 C   0  0  0  0  0  0  0  0  0  0  0  0
    4.4502   16.6083    0.0000 C   0  0  0  0  0  0  0  0  0  0  0  0
    5.8808   16.1573    0.0000 C   0  0  0  0  0  0  0  0  0  0  0  0
    7.2666   15.5832    0.0000 C   0  0  0  0  0  0  0  0  0  0  0  0
    8.5971   14.8906    0.0000 C   0  0  0  0  0  0  0  0  0  0  0  0
    9.8622   14.0847    0.0000 C   0  0  0  0  0  0  0  0  0  0  0  0
   11.0522   13.1715    0.0000 C   0  0  0  0  0  0  0  0  0  0  0  0
   12.1581   12.1581    0.0000 C   0  0  0  0  0  0  0  0  0  0  0  0
   13.1715   11.0522    0.0000 C   0  0  0  0  0  0  0  0  0  0  0  0
   14.0847    9.8622    0.0000 C   0  0  0  0  0  0  0  0  0  0  0  0
   14.8906    8.5971    0.0000 C   0  0  0  0  0  0  0  0  0  0  0  0
   15.5832    7.2666    0.0000 C   0  0  0  0  0  0  0  0  0  0  0  0
   16.1573    5.8808    0.0000 C   0  0  0  0  0  0  0  0  0  0  0  0
   16.6083    4.4502    0.0000 C   0  0  0  0  0  0  0  0  0  0  0  0
   16.9330    2.9857    0.0000 C   0  0  0  0  0  0  0  0  0  0  0  0
   17.1288    1.4986    0.0000 C   0  0  0  0  0  0  0  0  0  0  0  0
  1  2  1  0
  2  3  1  0
  3  4  1  0
  4  5  1  0
  5  6  1  0
  6  7  1  0
  7  8  1  0
  8  9  1  0
  9 10  1  0
 10 11  1  0
 11 12  1  0
 12 13  1  0
 13 14  1  0
 14 15  1  0
 15 16  1  0
 16 17  1  0
 17 18  1  0
 18 19  1  0
 19 20  1  0
 20 21  1  0
 21 22  1  0
 22 23  1  0
 23 24  1  0
 24 25  1  0
 25 26  1  0
 26 27  1  0
 27 28  1  0
 28 29  1  0
 29 30  1  0
 30 31  1  0
 31 32  1  0
 32 33  1  0
 33 34  1  0
 34 35  1  0
 35 36  1  0
 36 37  1  0
 37 38  1  0
 38 39  1  0
 39 40  1  0
 40 41  1  0
 41 42  1  0
 42 43  1  0
 43 44  1  0
 44 45  1  0
 45 46  1  0
 46 47  1  0
 47 48  1  0
 48 49  1  0
 49 50  1  0
 50 51  1  0
 51 52  1  0
 52 53  1  0
 53 54  1  0
 54 55  1  0
 55 56  1  0
 56 57  1  0
 57 58  1  0
 58 59  1  0
 59 60  1  0
 60 61  1  0
 61 62  1  0
 62 63  1  0
 63 64  1  0
 64 65  1  0
 65 66  1  0
 66 67  1  0
 67 68  1  0
 68 69  1  0
 69 70  1  0
 70 71  1  0
 71 72  1  0
 72 73  1  0
 73  2  1  0
M  END
>  <Title>  (1058) 
idABMXgen7

$$$$

     RDKit          2D

  8  8  0  0  0  0  0  0  0  0999 V2000
    3.0000    0.0000    0.0000 C   0  0  0  0  0  0  0  0  0  0  0  0
    1.5000    0.0000    0.0000 C   0  0  0  0  0  0  0  0  0  0  0  0
    0.7500   -1.2990    0.0000 C   0  0  0  0  0  0  0  0  0  0  0  0
   -0.7500   -1.2990    0.0000 C   0  0  0  0  0  0  0  0  0  0  0  0
   -1.5000    0.0000    0.0000 C   0  0  0  0  0  0  0  0  0  0  0  0
   -3.0000    0.0000    0.0000 O   0  0  0  0  0  0  0  0  0  0  0  0
   -0.7500    1.2990    0.0000 C   0  0  0  0  0  0  0  0  0  0  0  0
    0.7500    1.2990    0.0000 C   0  0  0  0  0  0  0  0  0  0  0  0
  1  2  1  0
  2  3  2  0
  3  4  1  0
  4  5  2  0
  5  6  1  0
  5  7  1  0
  7  8  2  0
  8  2  1  0
M  END
>  <Title>  (1059) 
idABMYgen7

$$$$

     RDKit          2D

 15 15  0  0  0  0  0  0  0  0999 V2000
    7.2760    2.5981    0.0000 C   0  0  0  0  0  0  0  0  0  0  0  0
    5.7760    2.5981    0.0000 C   0  0  0  0  0  0  0  0  0  0  0  0
    5.0260    1.2990    0.0000 C   0  0  0  0  0  0  0  0  0  0  0  0
    3.5260    1.2990    0.0000 C   0  0  0  0  0  0  0  0  0  0  0  0
    2.7760    0.0000    0.0000 C   0  0  0  0  0  0  0  0  0  0  0  0
    3.5260   -1.2990    0.0000 O   0  0  0  0  0  0  0  0  0  0  0  0
    1.2760    0.0000    0.0000 N   0  0  0  0  0  0  0  0  0  0  0  0
    0.3943    1.2135    0.0000 C   0  0  0  0  0  0  0  0  0  0  0  0
   -1.0323    0.7500    0.0000 C   0  0  0  0  0  0  0  0  0  0  0  0
   -1.0323   -0.7500    0.0000 C   0  0  0  0  0  0  0  0  0  0  0  0
   -2.2458   -1.6317    0.0000 C   0  0  0  0  0  0  0  0  0  0  0  0
   -2.0890   -3.1235    0.0000 O   0  0  0  0  0  0  0  0  0  0  0  0
   -3.6161   -1.0216    0.0000 O   0  0  0  0  0  0  0  0  0  0  0  0
    0.3943   -1.2135    0.0000 C   0  0  0  0  0  0  0  0  0  0  0  0
    0.8578   -2.6401    0.0000 O   0  0  0  0  0  0  0  0  0  0  0  0
  1  2  1  0
  2  3  2  3
  3  4  1  0
  4  5  1  0
  5  6  2  0
  5  7  1  0
  7  8  1  0
  8  9  1  0
  9 10  1  0
 10 11  1  0
 11 12  2  0
 11 13  1  0
 10 14  1  0
 14 15  2  0
 14  7  1  0
M  END
>  <Title>  (1060) 
idABMZgen7

$$$$

     RDKit          2D

 16 18  0  0  0  0  0  0  0  0999 V2000
   -0.0000   -6.0850    0.0000 C   0  0  0  0  0  0  0  0  0  0  0  0
   -0.0000   -4.5850    0.0000 C   0  0  0  0  0  0  0  0  0  0  0  0
    1.3515   -3.9342    0.0000 C   0  0  0  0  0  0  0  0  0  0  0  0
    1.6852   -2.4718    0.0000 C   0  0  0  0  0  0  0  0  0  0  0  0
    0.7500   -1.2990    0.0000 C   0  0  0  0  0  0  0  0  0  0  0  0
    1.5000    0.0000    0.0000 C   0  0  0  0  0  0  0  0  0  0  0  0
    0.7500    1.2990    0.0000 C   0  0  0  0  0  0  0  0  0  0  0  0
   -0.7500    1.2990    0.0000 C   0  0  0  0  0  0  0  0  0  0  0  0
   -1.5000    0.0000    0.0000 C   0  0  0  0  0  0  0  0  0  0  0  0
   -0.7500   -1.2990    0.0000 C   0  0  0  0  0  0  0  0  0  0  0  0
   -1.6852   -2.4718    0.0000 C   0  0  0  0  0  0  0  0  0  0  0  0
   -3.1186   -2.0297    0.0000 C   0  0  0  0  0  0  0  0  0  0  0  0
   -4.2182   -3.0499    0.0000 C   0  0  0  0  0  0  0  0  0  0  0  0
   -3.8844   -4.5123    0.0000 C   0  0  0  0  0  0  0  0  0  0  0  0
   -2.4510   -4.9544    0.0000 C   0  0  0  0  0  0  0  0  0  0  0  0
   -1.3515   -3.9342    0.0000 C   0  0  0  0  0  0  0  0  0  0  0  0
  1  2  1  0
  2  3  2  0
  3  4  1  0
  4  5  2  0
  5  6  1  0
  6  7  1  0
  7  8  2  0
  8  9  1  0
  9 10  2  0
 10 11  1  0
 11 12  2  0
 12 13  1  0
 13 14  2  0
 14 15  1  0
 15 16  2  0
 16  2  1  0
 10  5  1  0
 16 11  1  0
M  END
>  <Title>  (1061) 
idABNAgen7

$$$$

     RDKit          2D

 25 25  0  0  0  0  0  0  0  0999 V2000
    6.5321   -2.5981    0.0000 O   0  0  0  0  0  0  0  0  0  0  0  0
    7.2821   -1.2990    0.0000 C   0  0  0  0  0  0  0  0  0  0  0  0
    8.7821   -1.2990    0.0000 O   0  0  0  0  0  0  0  0  0  0  0  0
    6.5321    0.0000    0.0000 O   0  0  0  0  0  0  0  0  0  0  0  0
    5.0321    0.0000    0.0000 C   0  0  0  0  0  0  0  0  0  0  0  0
    4.8086    1.4832    0.0000 C   0  0  0  0  0  0  0  0  0  0  0  0
    4.1577    2.8347    0.0000 C   0  0  0  0  0  0  0  0  0  0  0  0
    3.1375    3.9343    0.0000 C   0  0  0  0  0  0  0  0  0  0  0  0
    1.8384    4.6843    0.0000 C   0  0  0  0  0  0  0  0  0  0  0  0
    0.3761    5.0181    0.0000 C   0  0  0  0  0  0  0  0  0  0  0  0
   -1.1198    4.9060    0.0000 C   0  0  0  0  0  0  0  0  0  0  0  0
   -2.5161    4.3580    0.0000 C   0  0  0  0  0  0  0  0  0  0  0  0
   -3.6888    3.4227    0.0000 C   0  0  0  0  0  0  0  0  0  0  0  0
   -4.5338    2.1834    0.0000 C   0  0  0  0  0  0  0  0  0  0  0  0
   -4.9759    0.7500    0.0000 C   0  0  0  0  0  0  0  0  0  0  0  0
   -4.9759   -0.7500    0.0000 C   0  0  0  0  0  0  0  0  0  0  0  0
   -4.5338   -2.1834    0.0000 C   0  0  0  0  0  0  0  0  0  0  0  0
   -3.6888   -3.4227    0.0000 C   0  0  0  0  0  0  0  0  0  0  0  0
   -2.5161   -4.3580    0.0000 C   0  0  0  0  0  0  0  0  0  0  0  0
   -1.1198   -4.9060    0.0000 C   0  0  0  0  0  0  0  0  0  0  0  0
    0.3761   -5.0181    0.0000 C   0  0  0  0  0  0  0  0  0  0  0  0
    1.8384   -4.6843    0.0000 C   0  0  0  0  0  0  0  0  0  0  0  0
    3.1375   -3.9343    0.0000 C   0  0  0  0  0  0  0  0  0  0  0  0
    4.1577   -2.8347    0.0000 C   0  0  0  0  0  0  0  0  0  0  0  0
    4.8086   -1.4832    0.0000 C   0  0  0  0  0  0  0  0  0  0  0  0
  1  2  2  0
  2  3  1  0
  2  4  1  0
  4  5  1  0
  5  6  1  0
  6  7  1  0
  7  8  1  0
  8  9  1  0
  9 10  1  0
 10 11  1  0
 11 12  1  0
 12 13  1  0
 13 14  1  0
 14 15  1  0
 15 16  1  0
 16 17  1  0
 17 18  1  0
 18 19  1  0
 19 20  1  0
 20 21  1  0
 21 22  1  0
 22 23  1  0
 23 24  1  0
 24 25  1  0
 25  5  1  0
M  END
>  <Title>  (1062) 
idABNBgen7

$$$$

     RDKit          2D

 19 20  0  0  0  0  0  0  0  0999 V2000
    3.5260    1.2990    0.0000 O   0  0  0  0  0  0  0  0  0  0  0  0
    2.7760    0.0000    0.0000 C   0  0  0  0  0  0  0  0  0  0  0  0
    3.5260   -1.2990    0.0000 O   0  0  0  0  0  0  0  0  0  0  0  0
    1.2760    0.0000    0.0000 C   0  0  0  0  0  0  0  0  0  0  0  0
    0.3943    1.2135    0.0000 C   0  0  0  0  0  0  0  0  0  0  0  0
   -1.0323    0.7500    0.0000 C   0  0  0  0  0  0  0  0  0  0  0  0
   -1.0323   -0.7500    0.0000 N   0  0  0  0  0  0  0  0  0  0  0  0
   -2.2458   -1.6317    0.0000 C   0  0  0  0  0  0  0  0  0  0  0  0
   -2.0890   -3.1235    0.0000 O   0  0  0  0  0  0  0  0  0  0  0  0
   -3.6161   -1.0216    0.0000 C   0  0  0  0  0  0  0  0  0  0  0  0
   -3.7729    0.4702    0.0000 O   0  0  0  0  0  0  0  0  0  0  0  0
   -4.8297   -1.9033    0.0000 N   0  0  0  0  0  0  0  0  0  0  0  0
   -4.8297   -3.4033    0.0000 C   0  0  0  0  0  0  0  0  0  0  0  0
   -6.2562   -3.8668    0.0000 C   0  0  0  0  0  0  0  0  0  0  0  0
   -7.1379   -2.6533    0.0000 O   0  0  0  0  0  0  0  0  0  0  0  0
   -6.2562   -1.4397    0.0000 C   0  0  0  0  0  0  0  0  0  0  0  0
   -6.7198   -0.0131    0.0000 O   0  0  0  0  0  0  0  0  0  0  0  0
    0.3943   -1.2135    0.0000 C   0  0  0  0  0  0  0  0  0  0  0  0
    0.8578   -2.6401    0.0000 O   0  0  0  0  0  0  0  0  0  0  0  0
  1  2  2  0
  2  3  1  0
  2  4  1  0
  4  5  1  0
  5  6  1  0
  6  7  1  0
  7  8  1  0
  8  9  2  0
  8 10  1  0
 10 11  2  0
 10 12  1  0
 12 13  1  0
 13 14  1  0
 14 15  1  0
 15 16  1  0
 16 17  2  0
  7 18  1  0
 18 19  2  0
 18  4  1  0
 16 12  1  0
M  END
>  <Title>  (1063) 
idABNCgen7

$$$$

     RDKit          2D

 29 32  0  0  0  0  0  0  0  0999 V2000
    9.6478    0.2453    0.0000 C   0  0  0  0  0  0  0  0  0  0  0  0
    8.6441   -0.8694    0.0000 C   0  0  0  0  0  0  0  0  0  0  0  0
    7.1523   -0.7126    0.0000 C   0  0  0  0  0  0  0  0  0  0  0  0
    6.5422   -2.0829    0.0000 C   0  0  0  0  0  0  0  0  0  0  0  0
    7.6569   -3.0866    0.0000 C   0  0  0  0  0  0  0  0  0  0  0  0
    7.5001   -4.5784    0.0000 C   0  0  0  0  0  0  0  0  0  0  0  0
    8.7136   -5.4601    0.0000 O   0  0  0  0  0  0  0  0  0  0  0  0
    6.1298   -5.1885    0.0000 N   0  0  0  0  0  0  0  0  0  0  0  0
    5.9730   -6.6803    0.0000 C   0  0  0  0  0  0  0  0  0  0  0  0
    7.0877   -7.6840    0.0000 N   0  0  0  0  0  0  0  0  0  0  0  0
    6.4776   -9.0543    0.0000 N   0  0  0  0  0  0  0  0  0  0  0  0
    4.9858   -8.8975    0.0000 N   0  0  0  0  0  0  0  0  0  0  0  0
    4.6740   -7.4303    0.0000 N   0  0  0  0  0  0  0  0  0  0  0  0
    3.3037   -6.8202    0.0000 N   0  0  0  0  0  0  0  0  0  0  0  0
    2.0046   -7.5702    0.0000 C   0  0  0  0  0  0  0  0  0  0  0  0
    0.8899   -6.5665    0.0000 C   0  0  0  0  0  0  0  0  0  0  0  0
    1.5000   -5.1962    0.0000 C   0  0  0  0  0  0  0  0  0  0  0  0
    0.7500   -3.8971    0.0000 C   0  0  0  0  0  0  0  0  0  0  0  0
   -0.7500   -3.8971    0.0000 O   0  0  0  0  0  0  0  0  0  0  0  0
    1.5000   -2.5981    0.0000 N   0  0  0  0  0  0  0  0  0  0  0  0
    0.7500   -1.2990    0.0000 C   0  0  0  0  0  0  0  0  0  0  0  0
    1.5000    0.0000    0.0000 N   0  0  0  0  0  0  0  0  0  0  0  0
    0.7500    1.2990    0.0000 N   0  0  0  0  0  0  0  0  0  0  0  0
   -0.7500    1.2990    0.0000 N   0  0  0  0  0  0  0  0  0  0  0  0
   -1.5000    0.0000    0.0000 N   0  0  0  0  0  0  0  0  0  0  0  0
   -0.7500   -1.2990    0.0000 N   0  0  0  0  0  0  0  0  0  0  0  0
    2.9918   -5.3529    0.0000 C   0  0  0  0  0  0  0  0  0  0  0  0
    8.9559   -2.3366    0.0000 C   0  0  0  0  0  0  0  0  0  0  0  0
   10.3263   -2.9467    0.0000 O   0  0  0  0  0  0  0  0  0  0  0  0
  1  2  1  0
  2  3  1  0
  3  4  1  0
  4  5  1  0
  5  6  1  0
  6  7  2  0
  6  8  1  0
  8  9  1  0
  9 10  2  0
 10 11  1  0
 11 12  2  0
 12 13  1  0
 13 14  1  0
 14 15  1  0
 15 16  1  0
 16 17  1  0
 17 18  1  0
 18 19  2  0
 18 20  1  0
 20 21  1  0
 21 22  2  0
 22 23  1  0
 23 24  2  0
 24 25  1  0
 25 26  2  0
 17 27  1  0
  5 28  1  0
 28 29  2  0
 28  2  1  0
 13  9  1  0
 27 14  1  0
 26 21  1  0
M  END
>  <Title>  (1064) 
idABNDgen7

$$$$

     RDKit          2D

 14 14  0  0  0  0  0  0  0  0999 V2000
    5.0260    1.2990    0.0000 C   0  0  0  0  0  0  0  0  0  0  0  0
    3.5260    1.2990    0.0000 C   0  0  0  0  0  0  0  0  0  0  0  0
    2.7760    2.5981    0.0000 O   0  0  0  0  0  0  0  0  0  0  0  0
    2.7760    0.0000    0.0000 C   0  0  0  0  0  0  0  0  0  0  0  0
    3.5260   -1.2990    0.0000 O   0  0  0  0  0  0  0  0  0  0  0  0
    1.2760    0.0000    0.0000 N   0  0  0  0  0  0  0  0  0  0  0  0
    0.3943    1.2135    0.0000 C   0  0  0  0  0  0  0  0  0  0  0  0
   -1.0323    0.7500    0.0000 C   0  0  0  0  0  0  0  0  0  0  0  0
   -1.0323   -0.7500    0.0000 C   0  0  0  0  0  0  0  0  0  0  0  0
   -2.2458   -1.6317    0.0000 C   0  0  0  0  0  0  0  0  0  0  0  0
   -2.0890   -3.1235    0.0000 O   0  0  0  0  0  0  0  0  0  0  0  0
   -3.6161   -1.0216    0.0000 O   0  0  0  0  0  0  0  0  0  0  0  0
    0.3943   -1.2135    0.0000 C   0  0  0  0  0  0  0  0  0  0  0  0
    0.8578   -2.6401    0.0000 O   0  0  0  0  0  0  0  0  0  0  0  0
  1  2  1  0
  2  3  2  0
  2  4  1  0
  4  5  2  0
  4  6  1  0
  6  7  1  0
  7  8  1  0
  8  9  1  0
  9 10  1  0
 10 11  2  0
 10 12  1  0
  9 13  1  0
 13 14  2  0
 13  6  1  0
M  END
>  <Title>  (1065) 
idABNEgen7

$$$$

     RDKit          2D

 18 19  0  0  0  0  0  0  0  0999 V2000
    3.4598   -0.0000    0.0000 C   0  0  0  0  0  0  0  0  0  0  0  0
    1.9598    0.0000    0.0000 C   0  0  0  0  0  0  0  0  0  0  0  0
    1.3858   -1.3858    0.0000 C   0  0  0  0  0  0  0  0  0  0  0  0
   -0.0000   -1.9598    0.0000 C   0  0  0  0  0  0  0  0  0  0  0  0
   -1.3858   -1.3858    0.0000 C   0  0  0  0  0  0  0  0  0  0  0  0
   -1.9598    0.0000    0.0000 C   0  0  0  0  0  0  0  0  0  0  0  0
   -1.3858    1.3858    0.0000 C   0  0  0  0  0  0  0  0  0  0  0  0
    0.0000    1.9598    0.0000 C   0  0  0  0  0  0  0  0  0  0  0  0
    0.0000    3.4598    0.0000 C   0  0  0  0  0  0  0  0  0  0  0  0
   -1.2990    4.2098    0.0000 O   0  0  0  0  0  0  0  0  0  0  0  0
    1.2990    4.2098    0.0000 C   0  0  0  0  0  0  0  0  0  0  0  0
    1.2990    5.7098    0.0000 C   0  0  0  0  0  0  0  0  0  0  0  0
    2.5981    6.4598    0.0000 N   0  0  0  0  0  0  0  0  0  0  0  0
    2.5981    7.9598    0.0000 N   0  0  0  0  0  0  0  0  0  0  0  0
    1.2990    8.7098    0.0000 N   0  0  0  0  0  0  0  0  0  0  0  0
   -0.0000    7.9598    0.0000 N   0  0  0  0  0  0  0  0  0  0  0  0
   -0.0000    6.4598    0.0000 N   0  0  0  0  0  0  0  0  0  0  0  0
    1.3858    1.3858    0.0000 C   0  0  0  0  0  0  0  0  0  0  0  0
  1  2  1  0
  2  3  1  0
  3  4  1  0
  4  5  1  0
  5  6  1  0
  6  7  1  0
  7  8  1  0
  8  9  1  0
  9 10  2  0
  9 11  1  0
 11 12  1  0
 12 13  2  0
 13 14  1  0
 14 15  2  0
 15 16  1  0
 16 17  2  0
  8 18  1  0
 18  2  1  0
 17 12  1  0
M  END
>  <Title>  (1066) 
idABNFgen7

$$$$

     RDKit          2D

 44 46  0  0  0  0  0  0  0  0999 V2000
    1.5000    0.0000    0.0000 C   0  0  0  0  0  0  0  0  0  0  0  0
    0.7500   -1.2990    0.0000 C   0  0  0  0  0  0  0  0  0  0  0  0
   -0.7500   -1.2990    0.0000 C   0  0  0  0  0  0  0  0  0  0  0  0
   -1.5000    0.0000    0.0000 C   0  0  0  0  0  0  0  0  0  0  0  0
   -0.7500    1.2990    0.0000 C   0  0  0  0  0  0  0  0  0  0  0  0
    0.7500    1.2990    0.0000 C   0  0  0  0  0  0  0  0  0  0  0  0
   -0.2370    2.7086    0.0000 C   0  0  0  0  0  0  0  0  0  0  0  0
    0.0235    4.1858    0.0000 C   0  0  0  0  0  0  0  0  0  0  0  0
    0.0235    5.6858    0.0000 C   0  0  0  0  0  0  0  0  0  0  0  0
   -0.2370    7.1630    0.0000 C   0  0  0  0  0  0  0  0  0  0  0  0
   -0.7500    8.5725    0.0000 C   0  0  0  0  0  0  0  0  0  0  0  0
   -1.5000    9.8716    0.0000 C   0  0  0  0  0  0  0  0  0  0  0  0
   -2.4642   11.0206    0.0000 C   0  0  0  0  0  0  0  0  0  0  0  0
   -3.6132   11.9848    0.0000 C   0  0  0  0  0  0  0  0  0  0  0  0
   -4.9123   12.7348    0.0000 C   0  0  0  0  0  0  0  0  0  0  0  0
   -6.3218   13.2479    0.0000 C   0  0  0  0  0  0  0  0  0  0  0  0
   -7.7990   13.5083    0.0000 C   0  0  0  0  0  0  0  0  0  0  0  0
   -9.2990   13.5083    0.0000 C   0  0  0  0  0  0  0  0  0  0  0  0
  -10.7762   13.2479    0.0000 C   0  0  0  0  0  0  0  0  0  0  0  0
  -12.1858   12.7348    0.0000 C   0  0  0  0  0  0  0  0  0  0  0  0
  -13.4848   11.9848    0.0000 C   0  0  0  0  0  0  0  0  0  0  0  0
  -14.6339   11.0206    0.0000 C   0  0  0  0  0  0  0  0  0  0  0  0
  -15.5981    9.8716    0.0000 C   0  0  0  0  0  0  0  0  0  0  0  0
  -16.3481    8.5725    0.0000 C   0  0  0  0  0  0  0  0  0  0  0  0
  -16.8611    7.1630    0.0000 C   0  0  0  0  0  0  0  0  0  0  0  0
  -17.1216    5.6858    0.0000 C   0  0  0  0  0  0  0  0  0  0  0  0
  -17.1216    4.1858    0.0000 C   0  0  0  0  0  0  0  0  0  0  0  0
  -16.8611    2.7086    0.0000 C   0  0  0  0  0  0  0  0  0  0  0  0
  -16.3481    1.2990    0.0000 C   0  0  0  0  0  0  0  0  0  0  0  0
  -15.5981    0.0000    0.0000 C   0  0  0  0  0  0  0  0  0  0  0  0
  -14.6339   -1.1491    0.0000 C   0  0  0  0  0  0  0  0  0  0  0  0
  -13.4848   -2.1132    0.0000 C   0  0  0  0  0  0  0  0  0  0  0  0
  -12.1858   -2.8632    0.0000 C   0  0  0  0  0  0  0  0  0  0  0  0
  -10.7762   -3.3763    0.0000 C   0  0  0  0  0  0  0  0  0  0  0  0
   -9.2990   -3.6368    0.0000 C   0  0  0  0  0  0  0  0  0  0  0  0
   -7.7990   -3.6368    0.0000 C   0  0  0  0  0  0  0  0  0  0  0  0
   -6.3218   -3.3763    0.0000 C   0  0  0  0  0  0  0  0  0  0  0  0
   -4.9123   -2.8632    0.0000 C   0  0  0  0  0  0  0  0  0  0  0  0
   -3.6132   -2.1132    0.0000 C   0  0  0  0  0  0  0  0  0  0  0  0
   -2.8165   -3.1405    0.0000 C   0  0  0  0  0  0  0  0  0  0  0  0
   -2.0648   -3.4141    0.0000 C   0  0  0  0  0  0  0  0  0  0  0  0
   -1.4520   -2.8999    0.0000 C   0  0  0  0  0  0  0  0  0  0  0  0
   -1.5909   -2.1120    0.0000 C   0  0  0  0  0  0  0  0  0  0  0  0
   -2.4642   -1.1491    0.0000 C   0  0  0  0  0  0  0  0  0  0  0  0
  1  2  2  0
  2  3  1  0
  3  4  2  0
  4  5  1  0
  5  6  2  0
  5  7  1  0
  7  8  1  0
  8  9  1  0
  9 10  1  0
 10 11  1  0
 11 12  1  0
 12 13  1  0
 13 14  1  0
 14 15  1  0
 15 16  1  0
 16 17  1  0
 17 18  1  0
 18 19  1  0
 19 20  1  0
 20 21  1  0
 21 22  1  0
 22 23  1  0
 23 24  1  0
 24 25  1  0
 25 26  1  0
 26 27  1  0
 27 28  1  0
 28 29  1  0
 29 30  1  0
 30 31  1  0
 31 32  1  0
 32 33  1  0
 33 34  1  0
 34 35  1  0
 35 36  1  0
 36 37  1  0
 37 38  1  0
 38 39  1  0
 39 40  2  0
 40 41  1  0
 41 42  2  0
 42 43  1  0
 43 44  2  0
  6  1  1  0
 44 39  1  0
 44  4  1  0
M  END
>  <Title>  (1067) 
idABNGgen7

$$$$

     RDKit          2D

  9  9  0  0  0  0  0  0  0  0999 V2000
    3.5260   -1.2990    0.0000 C   0  0  0  0  0  0  0  0  0  0  0  0
    2.7760    0.0000    0.0000 C   0  0  0  0  0  0  0  0  0  0  0  0
    3.5260    1.2990    0.0000 O   0  0  0  0  0  0  0  0  0  0  0  0
    1.2760    0.0000    0.0000 C   0  0  0  0  0  0  0  0  0  0  0  0
    0.3943    1.2135    0.0000 C   0  0  0  0  0  0  0  0  0  0  0  0
   -1.0323    0.7500    0.0000 C   0  0  0  0  0  0  0  0  0  0  0  0
   -1.0323   -0.7500    0.0000 C   0  0  0  0  0  0  0  0  0  0  0  0
   -2.2458   -1.6317    0.0000 C   0  0  0  0  0  0  0  0  0  0  0  0
    0.3943   -1.2135    0.0000 C   0  0  0  0  0  0  0  0  0  0  0  0
  1  2  1  0
  2  3  2  0
  2  4  1  0
  4  5  1  0
  5  6  1  0
  6  7  1  0
  7  8  1  0
  7  9  1  0
  9  4  1  0
M  END
>  <Title>  (1068) 
idABNHgen7

$$$$

     RDKit          2D

 25 25  0  0  0  0  0  0  0  0999 V2000
    7.2460    0.0000    0.0000 C   0  0  0  0  0  0  0  0  0  0  0  0
    5.7460    0.0000    0.0000 C   0  0  0  0  0  0  0  0  0  0  0  0
    5.5502   -1.4872    0.0000 C   0  0  0  0  0  0  0  0  0  0  0  0
    4.9762   -2.8730    0.0000 C   0  0  0  0  0  0  0  0  0  0  0  0
    4.0630   -4.0630    0.0000 C   0  0  0  0  0  0  0  0  0  0  0  0
    2.8730   -4.9762    0.0000 C   0  0  0  0  0  0  0  0  0  0  0  0
    1.4872   -5.5502    0.0000 C   0  0  0  0  0  0  0  0  0  0  0  0
   -0.0000   -5.7460    0.0000 C   0  0  0  0  0  0  0  0  0  0  0  0
   -1.4872   -5.5502    0.0000 C   0  0  0  0  0  0  0  0  0  0  0  0
   -2.8730   -4.9762    0.0000 C   0  0  0  0  0  0  0  0  0  0  0  0
   -4.0630   -4.0630    0.0000 C   0  0  0  0  0  0  0  0  0  0  0  0
   -4.9762   -2.8730    0.0000 C   0  0  0  0  0  0  0  0  0  0  0  0
   -5.5502   -1.4872    0.0000 C   0  0  0  0  0  0  0  0  0  0  0  0
   -5.7460    0.0000    0.0000 C   0  0  0  0  0  0  0  0  0  0  0  0
   -5.5502    1.4872    0.0000 C   0  0  0  0  0  0  0  0  0  0  0  0
   -4.9762    2.8730    0.0000 C   0  0  0  0  0  0  0  0  0  0  0  0
   -4.0630    4.0630    0.0000 C   0  0  0  0  0  0  0  0  0  0  0  0
   -2.8730    4.9762    0.0000 C   0  0  0  0  0  0  0  0  0  0  0  0
   -1.4872    5.5502    0.0000 C   0  0  0  0  0  0  0  0  0  0  0  0
    0.0000    5.7460    0.0000 C   0  0  0  0  0  0  0  0  0  0  0  0
    1.4872    5.5502    0.0000 C   0  0  0  0  0  0  0  0  0  0  0  0
    2.8730    4.9762    0.0000 C   0  0  0  0  0  0  0  0  0  0  0  0
    4.0630    4.0630    0.0000 C   0  0  0  0  0  0  0  0  0  0  0  0
    4.9762    2.8730    0.0000 C   0  0  0  0  0  0  0  0  0  0  0  0
    5.5502    1.4872    0.0000 C   0  0  0  0  0  0  0  0  0  0  0  0
  1  2  1  0
  2  3  1  0
  3  4  1  0
  4  5  1  0
  5  6  1  0
  6  7  1  0
  7  8  2  0
  8  9  1  0
  9 10  1  0
 10 11  1  0
 11 12  1  0
 12 13  1  0
 13 14  1  0
 14 15  1  0
 15 16  1  0
 16 17  1  0
 17 18  1  0
 18 19  1  0
 19 20  1  0
 20 21  1  0
 21 22  1  0
 22 23  1  0
 23 24  1  0
 24 25  1  0
 25  2  1  0
M  END
>  <Title>  (1069) 
idABNIgen7

$$$$

     RDKit          2D

 18 19  0  0  0  0  0  0  0  0999 V2000
    4.7286   -0.0000    0.0000 N   0  0  0  0  0  0  0  0  0  0  0  0
    3.2286   -0.0000    0.0000 C   0  0  0  0  0  0  0  0  0  0  0  0
    1.7286    0.0000    0.0000 C   0  0  0  0  0  0  0  0  0  0  0  0
    1.0777    1.3515    0.0000 C   0  0  0  0  0  0  0  0  0  0  0  0
   -0.3846    1.6852    0.0000 C   0  0  0  0  0  0  0  0  0  0  0  0
   -1.5574    0.7500    0.0000 C   0  0  0  0  0  0  0  0  0  0  0  0
   -1.5574   -0.7500    0.0000 C   0  0  0  0  0  0  0  0  0  0  0  0
   -0.3846   -1.6852    0.0000 C   0  0  0  0  0  0  0  0  0  0  0  0
   -0.7184   -3.1476    0.0000 C   0  0  0  0  0  0  0  0  0  0  0  0
    0.3812   -4.1679    0.0000 O   0  0  0  0  0  0  0  0  0  0  0  0
   -2.1518   -3.5898    0.0000 N   0  0  0  0  0  0  0  0  0  0  0  0
   -2.4856   -5.0522    0.0000 C   0  0  0  0  0  0  0  0  0  0  0  0
   -3.9189   -5.4943    0.0000 N   0  0  0  0  0  0  0  0  0  0  0  0
   -4.2527   -6.9567    0.0000 N   0  0  0  0  0  0  0  0  0  0  0  0
   -3.1531   -7.9769    0.0000 N   0  0  0  0  0  0  0  0  0  0  0  0
   -1.7198   -7.5348    0.0000 N   0  0  0  0  0  0  0  0  0  0  0  0
   -1.3860   -6.0724    0.0000 N   0  0  0  0  0  0  0  0  0  0  0  0
    1.0777   -1.3515    0.0000 C   0  0  0  0  0  0  0  0  0  0  0  0
  1  2  3  0
  2  3  1  0
  3  4  1  0
  4  5  1  0
  5  6  1  0
  6  7  1  0
  7  8  1  0
  8  9  1  0
  9 10  2  0
  9 11  1  0
 11 12  1  0
 12 13  2  0
 13 14  1  0
 14 15  2  0
 15 16  1  0
 16 17  2  0
  8 18  1  0
 18  3  1  0
 17 12  1  0
M  END
>  <Title>  (1070) 
idABNJgen7

$$$$

     RDKit          2D

 43 46  0  0  0  0  0  0  0  0999 V2000
   -5.7666   -2.4654    0.0000 C   0  0  0  0  0  0  0  0  0  0  0  0
   -4.6108   -3.4215    0.0000 C   0  0  0  0  0  0  0  0  0  0  0  0
   -5.4145   -4.6880    0.0000 C   0  0  0  0  0  0  0  0  0  0  0  0
   -5.8781   -6.1146    0.0000 C   0  0  0  0  0  0  0  0  0  0  0  0
   -5.9722   -7.6116    0.0000 C   0  0  0  0  0  0  0  0  0  0  0  0
   -5.6912   -9.0851    0.0000 C   0  0  0  0  0  0  0  0  0  0  0  0
   -5.0525  -10.4423    0.0000 C   0  0  0  0  0  0  0  0  0  0  0  0
   -4.0964  -11.5981    0.0000 C   0  0  0  0  0  0  0  0  0  0  0  0
   -2.8828  -12.4798    0.0000 C   0  0  0  0  0  0  0  0  0  0  0  0
   -1.4882  -13.0319    0.0000 C   0  0  0  0  0  0  0  0  0  0  0  0
   -0.0000  -13.2199    0.0000 C   0  0  0  0  0  0  0  0  0  0  0  0
    1.4882  -13.0319    0.0000 C   0  0  0  0  0  0  0  0  0  0  0  0
    2.8828  -12.4798    0.0000 C   0  0  0  0  0  0  0  0  0  0  0  0
    4.0964  -11.5981    0.0000 C   0  0  0  0  0  0  0  0  0  0  0  0
    5.0525  -10.4423    0.0000 C   0  0  0  0  0  0  0  0  0  0  0  0
    5.6912   -9.0851    0.0000 C   0  0  0  0  0  0  0  0  0  0  0  0
    5.9722   -7.6116    0.0000 C   0  0  0  0  0  0  0  0  0  0  0  0
    5.8781   -6.1146    0.0000 C   0  0  0  0  0  0  0  0  0  0  0  0
    5.4145   -4.6880    0.0000 C   0  0  0  0  0  0  0  0  0  0  0  0
    4.6108   -3.4215    0.0000 C   0  0  0  0  0  0  0  0  0  0  0  0
    3.5173   -2.3947    0.0000 C   0  0  0  0  0  0  0  0  0  0  0  0
    2.2029   -1.6721    0.0000 C   0  0  0  0  0  0  0  0  0  0  0  0
    2.7551   -0.2774    0.0000 C   0  0  0  0  0  0  0  0  0  0  0  0
    1.8233    0.8981    0.0000 O   0  0  0  0  0  0  0  0  0  0  0  0
    4.2390   -0.0583    0.0000 N   0  0  0  0  0  0  0  0  0  0  0  0
    4.7912    1.3364    0.0000 C   0  0  0  0  0  0  0  0  0  0  0  0
    6.2751    1.5555    0.0000 N   0  0  0  0  0  0  0  0  0  0  0  0
    6.8273    2.9502    0.0000 N   0  0  0  0  0  0  0  0  0  0  0  0
    5.8955    4.1257    0.0000 N   0  0  0  0  0  0  0  0  0  0  0  0
    4.4116    3.9066    0.0000 N   0  0  0  0  0  0  0  0  0  0  0  0
    3.8594    2.5119    0.0000 N   0  0  0  0  0  0  0  0  0  0  0  0
    0.7500   -1.2990    0.0000 C   0  0  0  0  0  0  0  0  0  0  0  0
    1.5000    0.0000    0.0000 C   0  0  0  0  0  0  0  0  0  0  0  0
    0.7500    1.2990    0.0000 C   0  0  0  0  0  0  0  0  0  0  0  0
   -0.7500    1.2990    0.0000 C   0  0  0  0  0  0  0  0  0  0  0  0
   -1.5000    0.0000    0.0000 C   0  0  0  0  0  0  0  0  0  0  0  0
   -0.7500   -1.2990    0.0000 C   0  0  0  0  0  0  0  0  0  0  0  0
   -2.2029   -1.6721    0.0000 C   0  0  0  0  0  0  0  0  0  0  0  0
   -2.7849   -0.5096    0.0000 C   0  0  0  0  0  0  0  0  0  0  0  0
   -3.4692   -0.0952    0.0000 C   0  0  0  0  0  0  0  0  0  0  0  0
   -4.1702   -0.4806    0.0000 C   0  0  0  0  0  0  0  0  0  0  0  0
   -4.1870   -1.2804    0.0000 C   0  0  0  0  0  0  0  0  0  0  0  0
   -3.5173   -2.3947    0.0000 C   0  0  0  0  0  0  0  0  0  0  0  0
  1  2  1  0
  2  3  1  0
  3  4  1  0
  4  5  1  0
  5  6  1  0
  6  7  1  0
  7  8  1  0
  8  9  1  0
  9 10  1  0
 10 11  1  0
 11 12  1  0
 12 13  1  0
 13 14  1  0
 14 15  1  0
 15 16  1  0
 16 17  1  0
 17 18  1  0
 18 19  1  0
 19 20  1  0
 20 21  1  0
 21 22  1  0
 22 23  1  0
 23 24  2  0
 23 25  1  0
 25 26  1  0
 26 27  2  0
 27 28  1  0
 28 29  2  0
 29 30  1  0
 30 31  2  0
 22 32  1  0
 32 33  2  0
 33 34  1  0
 34 35  2  0
 35 36  1  0
 36 37  2  0
 37 38  1  0
 38 39  2  0
 39 40  1  0
 40 41  2  0
 41 42  1  0
 42 43  2  0
 43  2  1  0
 31 26  1  0
 37 32  1  0
 43 38  1  0
M  END
>  <Title>  (1071) 
idABNKgen7

$$$$

     RDKit          2D

 74 74  0  0  0  0  0  0  0  0999 V2000
   18.9328    0.0000    0.0000 C   0  0  0  0  0  0  0  0  0  0  0  0
   17.4328    0.0000    0.0000 C   0  0  0  0  0  0  0  0  0  0  0  0
   17.3683    1.4986    0.0000 C   0  0  0  0  0  0  0  0  0  0  0  0
   17.1752    2.9861    0.0000 C   0  0  0  0  0  0  0  0  0  0  0  0
   16.8549    4.4515    0.0000 C   0  0  0  0  0  0  0  0  0  0  0  0
   16.4098    5.8840    0.0000 C   0  0  0  0  0  0  0  0  0  0  0  0
   15.8433    7.2729    0.0000 C   0  0  0  0  0  0  0  0  0  0  0  0
   15.1594    8.6079    0.0000 C   0  0  0  0  0  0  0  0  0  0  0  0
   14.3633    9.8792    0.0000 C   0  0  0  0  0  0  0  0  0  0  0  0
   13.4609   11.0774    0.0000 C   0  0  0  0  0  0  0  0  0  0  0  0
   12.4588   12.1935    0.0000 C   0  0  0  0  0  0  0  0  0  0  0  0
   11.3645   13.2194    0.0000 C   0  0  0  0  0  0  0  0  0  0  0  0
   10.1860   14.1474    0.0000 C   0  0  0  0  0  0  0  0  0  0  0  0
    8.9321   14.9707    0.0000 C   0  0  0  0  0  0  0  0  0  0  0  0
    7.6121   15.6831    0.0000 C   0  0  0  0  0  0  0  0  0  0  0  0
    6.2357   16.2794    0.0000 C   0  0  0  0  0  0  0  0  0  0  0  0
    4.8132   16.7552    0.0000 C   0  0  0  0  0  0  0  0  0  0  0  0
    3.3550   17.1070    0.0000 C   0  0  0  0  0  0  0  0  0  0  0  0
    1.8720   17.3320    0.0000 C   0  0  0  0  0  0  0  0  0  0  0  0
    0.3751   17.4288    0.0000 C   0  0  0  0  0  0  0  0  0  0  0  0
   -1.1246   17.3965    0.0000 C   0  0  0  0  0  0  0  0  0  0  0  0
   -2.6159   17.2355    0.0000 C   0  0  0  0  0  0  0  0  0  0  0  0
   -4.0879   16.9468    0.0000 C   0  0  0  0  0  0  0  0  0  0  0  0
   -5.5295   16.5326    0.0000 C   0  0  0  0  0  0  0  0  0  0  0  0
   -6.9303   15.9961    0.0000 C   0  0  0  0  0  0  0  0  0  0  0  0
   -8.2797   15.3411    0.0000 C   0  0  0  0  0  0  0  0  0  0  0  0
   -9.5679   14.5726    0.0000 C   0  0  0  0  0  0  0  0  0  0  0  0
  -10.7852   13.6961    0.0000 C   0  0  0  0  0  0  0  0  0  0  0  0
  -11.9227   12.7183    0.0000 C   0  0  0  0  0  0  0  0  0  0  0  0
  -12.9719   11.6463    0.0000 C   0  0  0  0  0  0  0  0  0  0  0  0
  -13.9250   10.4880    0.0000 C   0  0  0  0  0  0  0  0  0  0  0  0
  -14.7751    9.2521    0.0000 C   0  0  0  0  0  0  0  0  0  0  0  0
  -15.5157    7.9478    0.0000 C   0  0  0  0  0  0  0  0  0  0  0  0
  -16.1415    6.5845    0.0000 C   0  0  0  0  0  0  0  0  0  0  0  0
  -16.6478    5.1725    0.0000 C   0  0  0  0  0  0  0  0  0  0  0  0
  -17.0308    3.7223    0.0000 C   0  0  0  0  0  0  0  0  0  0  0  0
  -17.2878    2.2444    0.0000 C   0  0  0  0  0  0  0  0  0  0  0  0
  -17.4167    0.7500    0.0000 C   0  0  0  0  0  0  0  0  0  0  0  0
  -17.4167   -0.7500    0.0000 C   0  0  0  0  0  0  0  0  0  0  0  0
  -17.2878   -2.2444    0.0000 C   0  0  0  0  0  0  0  0  0  0  0  0
  -17.0308   -3.7223    0.0000 C   0  0  0  0  0  0  0  0  0  0  0  0
  -16.6478   -5.1725    0.0000 C   0  0  0  0  0  0  0  0  0  0  0  0
  -16.1415   -6.5845    0.0000 C   0  0  0  0  0  0  0  0  0  0  0  0
  -15.5157   -7.9478    0.0000 C   0  0  0  0  0  0  0  0  0  0  0  0
  -14.7751   -9.2521    0.0000 C   0  0  0  0  0  0  0  0  0  0  0  0
  -13.9250  -10.4880    0.0000 C   0  0  0  0  0  0  0  0  0  0  0  0
  -12.9719  -11.6463    0.0000 C   0  0  0  0  0  0  0  0  0  0  0  0
  -11.9227  -12.7183    0.0000 C   0  0  0  0  0  0  0  0  0  0  0  0
  -10.7852  -13.6961    0.0000 C   0  0  0  0  0  0  0  0  0  0  0  0
   -9.5679  -14.5726    0.0000 C   0  0  0  0  0  0  0  0  0  0  0  0
   -8.2797  -15.3411    0.0000 C   0  0  0  0  0  0  0  0  0  0  0  0
   -6.9303  -15.9961    0.0000 C   0  0  0  0  0  0  0  0  0  0  0  0
   -5.5295  -16.5326    0.0000 C   0  0  0  0  0  0  0  0  0  0  0  0
   -4.0879  -16.9468    0.0000 C   0  0  0  0  0  0  0  0  0  0  0  0
   -2.6159  -17.2355    0.0000 C   0  0  0  0  0  0  0  0  0  0  0  0
   -1.1246  -17.3965    0.0000 C   0  0  0  0  0  0  0  0  0  0  0  0
    0.3751  -17.4288    0.0000 C   0  0  0  0  0  0  0  0  0  0  0  0
    1.8720  -17.3320    0.0000 C   0  0  0  0  0  0  0  0  0  0  0  0
    3.3550  -17.1070    0.0000 C   0  0  0  0  0  0  0  0  0  0  0  0
    4.8132  -16.7552    0.0000 C   0  0  0  0  0  0  0  0  0  0  0  0
    6.2357  -16.2794    0.0000 C   0  0  0  0  0  0  0  0  0  0  0  0
    7.6121  -15.6831    0.0000 C   0  0  0  0  0  0  0  0  0  0  0  0
    8.9321  -14.9707    0.0000 C   0  0  0  0  0  0  0  0  0  0  0  0
   10.1860  -14.1474    0.0000 C   0  0  0  0  0  0  0  0  0  0  0  0
   11.3645  -13.2194    0.0000 C   0  0  0  0  0  0  0  0  0  0  0  0
   12.4588  -12.1935    0.0000 C   0  0  0  0  0  0  0  0  0  0  0  0
   13.4609  -11.0774    0.0000 C   0  0  0  0  0  0  0  0  0  0  0  0
   14.3633   -9.8792    0.0000 C   0  0  0  0  0  0  0  0  0  0  0  0
   15.1594   -8.6079    0.0000 C   0  0  0  0  0  0  0  0  0  0  0  0
   15.8433   -7.2729    0.0000 C   0  0  0  0  0  0  0  0  0  0  0  0
   16.4098   -5.8840    0.0000 C   0  0  0  0  0  0  0  0  0  0  0  0
   16.8549   -4.4515    0.0000 C   0  0  0  0  0  0  0  0  0  0  0  0
   17.1752   -2.9861    0.0000 C   0  0  0  0  0  0  0  0  0  0  0  0
   17.3683   -1.4986    0.0000 C   0  0  0  0  0  0  0  0  0  0  0  0
  1  2  1  0
  2  3  1  0
  3  4  1  0
  4  5  2  0
  5  6  1  0
  6  7  1  0
  7  8  1  0
  8  9  1  0
  9 10  1  0
 10 11  1  0
 11 12  1  0
 12 13  1  0
 13 14  1  0
 14 15  1  0
 15 16  1  0
 16 17  1  0
 17 18  1  0
 18 19  1  0
 19 20  1  0
 20 21  1  0
 21 22  1  0
 22 23  1  0
 23 24  1  0
 24 25  1  0
 25 26  1  0
 26 27  1  0
 27 28  1  0
 28 29  1  0
 29 30  1  0
 30 31  1  0
 31 32  1  0
 32 33  1  0
 33 34  1  0
 34 35  1  0
 35 36  1  0
 36 37  1  0
 37 38  1  0
 38 39  1  0
 39 40  1  0
 40 41  1  0
 41 42  1  0
 42 43  1  0
 43 44  1  0
 44 45  1  0
 45 46  1  0
 46 47  1  0
 47 48  1  0
 48 49  1  0
 49 50  1  0
 50 51  1  0
 51 52  1  0
 52 53  1  0
 53 54  1  0
 54 55  1  0
 55 56  1  0
 56 57  1  0
 57 58  1  0
 58 59  1  0
 59 60  1  0
 60 61  1  0
 61 62  1  0
 62 63  1  0
 63 64  1  0
 64 65  1  0
 65 66  1  0
 66 67  1  0
 67 68  1  0
 68 69  1  0
 69 70  1  0
 70 71  1  0
 71 72  1  0
 72 73  1  0
 73 74  1  0
 74  2  1  0
M  END
>  <Title>  (1072) 
idABNLgen7

$$$$

     RDKit          2D

 26 29  0  0  0  0  0  0  0  0999 V2000
   -4.6001   -4.9005    0.0000 C   0  0  0  0  0  0  0  0  0  0  0  0
   -3.1111   -4.7197    0.0000 C   0  0  0  0  0  0  0  0  0  0  0  0
   -2.5792   -6.1222    0.0000 C   0  0  0  0  0  0  0  0  0  0  0  0
   -1.4564   -7.1169    0.0000 C   0  0  0  0  0  0  0  0  0  0  0  0
   -0.0000   -7.4758    0.0000 C   0  0  0  0  0  0  0  0  0  0  0  0
    1.4564   -7.1169    0.0000 C   0  0  0  0  0  0  0  0  0  0  0  0
    2.5792   -6.1222    0.0000 C   0  0  0  0  0  0  0  0  0  0  0  0
    3.8137   -6.9743    0.0000 O   0  0  0  0  0  0  0  0  0  0  0  0
    3.1111   -4.7197    0.0000 N   0  0  0  0  0  0  0  0  0  0  0  0
    2.9303   -3.2306    0.0000 C   0  0  0  0  0  0  0  0  0  0  0  0
    4.3676   -2.8017    0.0000 N   0  0  0  0  0  0  0  0  0  0  0  0
    4.4039   -1.3021    0.0000 N   0  0  0  0  0  0  0  0  0  0  0  0
    2.9889   -0.8043    0.0000 N   0  0  0  0  0  0  0  0  0  0  0  0
    2.0782   -1.9961    0.0000 N   0  0  0  0  0  0  0  0  0  0  0  0
    0.7500   -1.2990    0.0000 C   0  0  0  0  0  0  0  0  0  0  0  0
    1.5000    0.0000    0.0000 C   0  0  0  0  0  0  0  0  0  0  0  0
    0.7500    1.2990    0.0000 C   0  0  0  0  0  0  0  0  0  0  0  0
   -0.7500    1.2990    0.0000 C   0  0  0  0  0  0  0  0  0  0  0  0
   -1.5000    0.0000    0.0000 C   0  0  0  0  0  0  0  0  0  0  0  0
   -0.7500   -1.2990    0.0000 C   0  0  0  0  0  0  0  0  0  0  0  0
   -2.0782   -1.9961    0.0000 C   0  0  0  0  0  0  0  0  0  0  0  0
   -2.7212   -0.6409    0.0000 C   0  0  0  0  0  0  0  0  0  0  0  0
   -4.2164   -0.5202    0.0000 C   0  0  0  0  0  0  0  0  0  0  0  0
   -5.0685   -1.7547    0.0000 C   0  0  0  0  0  0  0  0  0  0  0  0
   -4.4254   -3.1099    0.0000 C   0  0  0  0  0  0  0  0  0  0  0  0
   -2.9303   -3.2306    0.0000 C   0  0  0  0  0  0  0  0  0  0  0  0
  1  2  1  0
  2  3  1  0
  3  4  2  0
  4  5  1  0
  5  6  1  0
  6  7  1  0
  7  8  2  0
  7  9  1  0
  9 10  1  0
 10 11  2  0
 11 12  1  0
 12 13  2  0
 13 14  1  0
 14 15  1  0
 15 16  2  0
 16 17  1  0
 17 18  2  0
 18 19  1  0
 19 20  2  0
 20 21  1  0
 21 22  2  0
 22 23  1  0
 23 24  2  0
 24 25  1  0
 25 26  2  0
 26  2  1  0
 14 10  1  0
 20 15  1  0
 26 21  1  0
M  END
>  <Title>  (1073) 
idABNMgen7

$$$$

     RDKit          2D

 15 16  0  0  0  0  0  0  0  0999 V2000
    3.5260    1.2990    0.0000 O   0  0  0  0  0  0  0  0  0  0  0  0
    2.7760    0.0000    0.0000 C   0  0  0  0  0  0  0  0  0  0  0  0
    3.5260   -1.2990    0.0000 O   0  0  0  0  0  0  0  0  0  0  0  0
    1.2760    0.0000    0.0000 C   0  0  0  0  0  0  0  0  0  0  0  0
    0.3943    1.2135    0.0000 C   0  0  0  0  0  0  0  0  0  0  0  0
   -1.0323    0.7500    0.0000 C   0  0  0  0  0  0  0  0  0  0  0  0
   -1.0323   -0.7500    0.0000 N   0  0  0  0  0  0  0  0  0  0  0  0
   -2.2458   -1.6317    0.0000 C   0  0  0  0  0  0  0  0  0  0  0  0
   -2.0890   -3.1235    0.0000 O   0  0  0  0  0  0  0  0  0  0  0  0
   -3.6161   -1.0216    0.0000 C   0  0  0  0  0  0  0  0  0  0  0  0
   -4.9152   -1.7716    0.0000 C   0  0  0  0  0  0  0  0  0  0  0  0
   -6.0299   -0.7679    0.0000 C   0  0  0  0  0  0  0  0  0  0  0  0
   -5.4198    0.6024    0.0000 C   0  0  0  0  0  0  0  0  0  0  0  0
   -3.9280    0.4456    0.0000 C   0  0  0  0  0  0  0  0  0  0  0  0
    0.3943   -1.2135    0.0000 C   0  0  0  0  0  0  0  0  0  0  0  0
  1  2  2  0
  2  3  1  0
  2  4  1  0
  4  5  1  0
  5  6  1  0
  6  7  1  0
  7  8  1  0
  8  9  2  0
  8 10  1  0
 10 11  2  0
 11 12  1  0
 12 13  1  0
 13 14  1  0
  7 15  1  0
 15  4  1  0
 14 10  1  0
M  END
>  <Title>  (1074) 
idABNNgen7

$$$$

     RDKit          2D

 10 10  0  0  0  0  0  0  0  0999 V2000
    5.0260    1.2990    0.0000 C   0  0  0  0  0  0  0  0  0  0  0  0
    3.5260    1.2990    0.0000 C   0  0  0  0  0  0  0  0  0  0  0  0
    2.7760    2.5981    0.0000 O   0  0  0  0  0  0  0  0  0  0  0  0
    2.7760    0.0000    0.0000 C   0  0  0  0  0  0  0  0  0  0  0  0
    3.5260   -1.2990    0.0000 C   0  0  0  0  0  0  0  0  0  0  0  0
    1.2760    0.0000    0.0000 C   0  0  0  0  0  0  0  0  0  0  0  0
    0.3943    1.2135    0.0000 C   0  0  0  0  0  0  0  0  0  0  0  0
   -1.0323    0.7500    0.0000 C   0  0  0  0  0  0  0  0  0  0  0  0
   -1.0323   -0.7500    0.0000 C   0  0  0  0  0  0  0  0  0  0  0  0
    0.3943   -1.2135    0.0000 C   0  0  0  0  0  0  0  0  0  0  0  0
  1  2  1  0
  2  3  2  0
  2  4  1  0
  4  5  1  0
  4  6  1  0
  6  7  2  0
  7  8  1  0
  8  9  2  0
  9 10  1  0
 10  6  1  0
M  END
>  <Title>  (1075) 
idABNOgen7

$$$$

     RDKit          2D

  8  8  0  0  0  0  0  0  0  0999 V2000
    3.2286   -0.0000    0.0000 C   0  0  0  0  0  0  0  0  0  0  0  0
    1.7286    0.0000    0.0000 C   0  0  0  0  0  0  0  0  0  0  0  0
    1.0777    1.3515    0.0000 C   0  0  0  0  0  0  0  0  0  0  0  0
   -0.3846    1.6852    0.0000 C   0  0  0  0  0  0  0  0  0  0  0  0
   -1.5574    0.7500    0.0000 C   0  0  0  0  0  0  0  0  0  0  0  0
   -1.5574   -0.7500    0.0000 C   0  0  0  0  0  0  0  0  0  0  0  0
   -0.3846   -1.6852    0.0000 C   0  0  0  0  0  0  0  0  0  0  0  0
    1.0777   -1.3515    0.0000 C   0  0  0  0  0  0  0  0  0  0  0  0
  1  2  1  0
  2  3  2  0
  3  4  1  0
  4  5  1  0
  5  6  2  0
  6  7  1  0
  7  8  2  0
  8  2  1  0
M  END
>  <Title>  (1076) 
idABNPgen7

$$$$

     RDKit          2D

107107  0  0  0  0  0  0  0  0999 V2000
   26.8093    0.0000    0.0000 C   0  0  0  0  0  0  0  0  0  0  0  0
   25.3093    0.0000    0.0000 C   0  0  0  0  0  0  0  0  0  0  0  0
   25.2649   -1.4993    0.0000 C   0  0  0  0  0  0  0  0  0  0  0  0
   25.1317   -2.9934    0.0000 C   0  0  0  0  0  0  0  0  0  0  0  0
   24.9102   -4.4770    0.0000 C   0  0  0  0  0  0  0  0  0  0  0  0
   24.6013   -5.9448    0.0000 C   0  0  0  0  0  0  0  0  0  0  0  0
   24.2059   -7.3918    0.0000 C   0  0  0  0  0  0  0  0  0  0  0  0
   23.7255   -8.8128    0.0000 C   0  0  0  0  0  0  0  0  0  0  0  0
   23.1617  -10.2028    0.0000 C   0  0  0  0  0  0  0  0  0  0  0  0
   22.5166  -11.5570    0.0000 C   0  0  0  0  0  0  0  0  0  0  0  0
   21.7924  -12.8706    0.0000 C   0  0  0  0  0  0  0  0  0  0  0  0
   20.9917  -14.1390    0.0000 C   0  0  0  0  0  0  0  0  0  0  0  0
   20.1172  -15.3577    0.0000 C   0  0  0  0  0  0  0  0  0  0  0  0
   19.1721  -16.5225    0.0000 C   0  0  0  0  0  0  0  0  0  0  0  0
   18.1596  -17.6292    0.0000 C   0  0  0  0  0  0  0  0  0  0  0  0
   17.0834  -18.6741    0.0000 C   0  0  0  0  0  0  0  0  0  0  0  0
   15.9471  -19.6533    0.0000 C   0  0  0  0  0  0  0  0  0  0  0  0
   14.7548  -20.5635    0.0000 C   0  0  0  0  0  0  0  0  0  0  0  0
   13.5107  -21.4015    0.0000 C   0  0  0  0  0  0  0  0  0  0  0  0
   12.2192  -22.1643    0.0000 C   0  0  0  0  0  0  0  0  0  0  0  0
   10.8847  -22.8492    0.0000 C   0  0  0  0  0  0  0  0  0  0  0  0
    9.5119  -23.4539    0.0000 C   0  0  0  0  0  0  0  0  0  0  0  0
    8.1058  -23.9762    0.0000 C   0  0  0  0  0  0  0  0  0  0  0  0
    6.6712  -24.4143    0.0000 C   0  0  0  0  0  0  0  0  0  0  0  0
    5.2132  -24.7666    0.0000 C   0  0  0  0  0  0  0  0  0  0  0  0
    3.7368  -25.0320    0.0000 C   0  0  0  0  0  0  0  0  0  0  0  0
    2.2474  -25.2094    0.0000 C   0  0  0  0  0  0  0  0  0  0  0  0
    0.7500  -25.2982    0.0000 C   0  0  0  0  0  0  0  0  0  0  0  0
   -0.7500  -25.2982    0.0000 C   0  0  0  0  0  0  0  0  0  0  0  0
   -2.2474  -25.2094    0.0000 C   0  0  0  0  0  0  0  0  0  0  0  0
   -3.7368  -25.0320    0.0000 C   0  0  0  0  0  0  0  0  0  0  0  0
   -5.2132  -24.7666    0.0000 C   0  0  0  0  0  0  0  0  0  0  0  0
   -6.6712  -24.4143    0.0000 C   0  0  0  0  0  0  0  0  0  0  0  0
   -8.1058  -23.9762    0.0000 C   0  0  0  0  0  0  0  0  0  0  0  0
   -9.5119  -23.4539    0.0000 C   0  0  0  0  0  0  0  0  0  0  0  0
  -10.8847  -22.8492    0.0000 C   0  0  0  0  0  0  0  0  0  0  0  0
  -12.2192  -22.1643    0.0000 C   0  0  0  0  0  0  0  0  0  0  0  0
  -13.5107  -21.4015    0.0000 C   0  0  0  0  0  0  0  0  0  0  0  0
  -14.7548  -20.5635    0.0000 C   0  0  0  0  0  0  0  0  0  0  0  0
  -15.9471  -19.6533    0.0000 C   0  0  0  0  0  0  0  0  0  0  0  0
  -17.0834  -18.6741    0.0000 C   0  0  0  0  0  0  0  0  0  0  0  0
  -18.1596  -17.6292    0.0000 C   0  0  0  0  0  0  0  0  0  0  0  0
  -19.1721  -16.5225    0.0000 C   0  0  0  0  0  0  0  0  0  0  0  0
  -20.1172  -15.3577    0.0000 C   0  0  0  0  0  0  0  0  0  0  0  0
  -20.9917  -14.1390    0.0000 C   0  0  0  0  0  0  0  0  0  0  0  0
  -21.7924  -12.8706    0.0000 C   0  0  0  0  0  0  0  0  0  0  0  0
  -22.5166  -11.5570    0.0000 C   0  0  0  0  0  0  0  0  0  0  0  0
  -23.1617  -10.2028    0.0000 C   0  0  0  0  0  0  0  0  0  0  0  0
  -23.7255   -8.8128    0.0000 C   0  0  0  0  0  0  0  0  0  0  0  0
  -24.2059   -7.3918    0.0000 C   0  0  0  0  0  0  0  0  0  0  0  0
  -24.6013   -5.9448    0.0000 C   0  0  0  0  0  0  0  0  0  0  0  0
  -24.9102   -4.4770    0.0000 C   0  0  0  0  0  0  0  0  0  0  0  0
  -25.1317   -2.9934    0.0000 C   0  0  0  0  0  0  0  0  0  0  0  0
  -25.2649   -1.4993    0.0000 C   0  0  0  0  0  0  0  0  0  0  0  0
  -25.3093    0.0000    0.0000 C   0  0  0  0  0  0  0  0  0  0  0  0
  -25.2649    1.4993    0.0000 C   0  0  0  0  0  0  0  0  0  0  0  0
  -25.1317    2.9934    0.0000 C   0  0  0  0  0  0  0  0  0  0  0  0
  -24.9102    4.4770    0.0000 C   0  0  0  0  0  0  0  0  0  0  0  0
  -24.6013    5.9448    0.0000 C   0  0  0  0  0  0  0  0  0  0  0  0
  -24.2059    7.3918    0.0000 C   0  0  0  0  0  0  0  0  0  0  0  0
  -23.7255    8.8128    0.0000 C   0  0  0  0  0  0  0  0  0  0  0  0
  -23.1617   10.2028    0.0000 C   0  0  0  0  0  0  0  0  0  0  0  0
  -22.5166   11.5570    0.0000 C   0  0  0  0  0  0  0  0  0  0  0  0
  -21.7924   12.8706    0.0000 C   0  0  0  0  0  0  0  0  0  0  0  0
  -20.9917   14.1390    0.0000 C   0  0  0  0  0  0  0  0  0  0  0  0
  -20.1172   15.3577    0.0000 C   0  0  0  0  0  0  0  0  0  0  0  0
  -19.1721   16.5225    0.0000 C   0  0  0  0  0  0  0  0  0  0  0  0
  -18.1596   17.6292    0.0000 C   0  0  0  0  0  0  0  0  0  0  0  0
  -17.0834   18.6741    0.0000 C   0  0  0  0  0  0  0  0  0  0  0  0
  -15.9471   19.6533    0.0000 C   0  0  0  0  0  0  0  0  0  0  0  0
  -14.7548   20.5635    0.0000 C   0  0  0  0  0  0  0  0  0  0  0  0
  -13.5107   21.4015    0.0000 C   0  0  0  0  0  0  0  0  0  0  0  0
  -12.2192   22.1643    0.0000 C   0  0  0  0  0  0  0  0  0  0  0  0
  -10.8847   22.8492    0.0000 C   0  0  0  0  0  0  0  0  0  0  0  0
   -9.5119   23.4539    0.0000 C   0  0  0  0  0  0  0  0  0  0  0  0
   -8.1058   23.9762    0.0000 C   0  0  0  0  0  0  0  0  0  0  0  0
   -6.6712   24.4143    0.0000 C   0  0  0  0  0  0  0  0  0  0  0  0
   -5.2132   24.7666    0.0000 C   0  0  0  0  0  0  0  0  0  0  0  0
   -3.7368   25.0320    0.0000 C   0  0  0  0  0  0  0  0  0  0  0  0
   -2.2474   25.2094    0.0000 C   0  0  0  0  0  0  0  0  0  0  0  0
   -0.7500   25.2982    0.0000 C   0  0  0  0  0  0  0  0  0  0  0  0
    0.7500   25.2982    0.0000 C   0  0  0  0  0  0  0  0  0  0  0  0
    2.2474   25.2094    0.0000 C   0  0  0  0  0  0  0  0  0  0  0  0
    3.7368   25.0320    0.0000 C   0  0  0  0  0  0  0  0  0  0  0  0
    5.2132   24.7666    0.0000 C   0  0  0  0  0  0  0  0  0  0  0  0
    6.6712   24.4143    0.0000 C   0  0  0  0  0  0  0  0  0  0  0  0
    8.1058   23.9762    0.0000 C   0  0  0  0  0  0  0  0  0  0  0  0
    9.5119   23.4539    0.0000 C   0  0  0  0  0  0  0  0  0  0  0  0
   10.8847   22.8492    0.0000 C   0  0  0  0  0  0  0  0  0  0  0  0
   12.2192   22.1643    0.0000 C   0  0  0  0  0  0  0  0  0  0  0  0
   13.5107   21.4015    0.0000 C   0  0  0  0  0  0  0  0  0  0  0  0
   14.7548   20.5635    0.0000 C   0  0  0  0  0  0  0  0  0  0  0  0
   15.9471   19.6533    0.0000 C   0  0  0  0  0  0  0  0  0  0  0  0
   17.0834   18.6741    0.0000 C   0  0  0  0  0  0  0  0  0  0  0  0
   18.1596   17.6292    0.0000 C   0  0  0  0  0  0  0  0  0  0  0  0
   19.1721   16.5225    0.0000 C   0  0  0  0  0  0  0  0  0  0  0  0
   20.1172   15.3577    0.0000 C   0  0  0  0  0  0  0  0  0  0  0  0
   20.9917   14.1390    0.0000 C   0  0  0  0  0  0  0  0  0  0  0  0
   21.7924   12.8706    0.0000 C   0  0  0  0  0  0  0  0  0  0  0  0
   22.5166   11.5570    0.0000 C   0  0  0  0  0  0  0  0  0  0  0  0
   23.1617   10.2028    0.0000 C   0  0  0  0  0  0  0  0  0  0  0  0
   23.7255    8.8128    0.0000 C   0  0  0  0  0  0  0  0  0  0  0  0
   24.2059    7.3918    0.0000 C   0  0  0  0  0  0  0  0  0  0  0  0
   24.6013    5.9448    0.0000 C   0  0  0  0  0  0  0  0  0  0  0  0
   24.9102    4.4770    0.0000 C   0  0  0  0  0  0  0  0  0  0  0  0
   25.1317    2.9934    0.0000 C   0  0  0  0  0  0  0  0  0  0  0  0
   25.2649    1.4993    0.0000 C   0  0  0  0  0  0  0  0  0  0  0  0
  1  2  1  0
  2  3  1  0
  3  4  2  0
  4  5  1  0
  5  6  2  0
  6  7  1  0
  7  8  2  0
  8  9  1  0
  9 10  2  0
 10 11  1  0
 11 12  2  0
 12 13  1  0
 13 14  2  0
 14 15  1  0
 15 16  2  0
 16 17  1  0
 17 18  2  0
 18 19  1  0
 19 20  1  0
 20 21  1  0
 21 22  1  0
 22 23  1  0
 23 24  1  0
 24 25  1  0
 25 26  1  0
 26 27  1  0
 27 28  1  0
 28 29  1  0
 29 30  1  0
 30 31  1  0
 31 32  1  0
 32 33  1  0
 33 34  1  0
 34 35  1  0
 35 36  1  0
 36 37  1  0
 37 38  1  0
 38 39  1  0
 39 40  1  0
 40 41  1  0
 41 42  1  0
 42 43  1  0
 43 44  1  0
 44 45  1  0
 45 46  1  0
 46 47  1  0
 47 48  1  0
 48 49  1  0
 49 50  1  0
 50 51  1  0
 51 52  1  0
 52 53  1  0
 53 54  1  0
 54 55  1  0
 55 56  1  0
 56 57  1  0
 57 58  1  0
 58 59  1  0
 59 60  1  0
 60 61  1  0
 61 62  1  0
 62 63  1  0
 63 64  1  0
 64 65  1  0
 65 66  1  0
 66 67  1  0
 67 68  1  0
 68 69  1  0
 69 70  1  0
 70 71  1  0
 71 72  1  0
 72 73  1  0
 73 74  1  0
 74 75  1  0
 75 76  1  0
 76 77  1  0
 77 78  1  0
 78 79  1  0
 79 80  1  0
 80 81  1  0
 81 82  1  0
 82 83  1  0
 83 84  1  0
 84 85  1  0
 85 86  1  0
 86 87  1  0
 87 88  1  0
 88 89  1  0
 89 90  1  0
 90 91  1  0
 91 92  1  0
 92 93  1  0
 93 94  1  0
 94 95  1  0
 95 96  1  0
 96 97  1  0
 97 98  1  0
 98 99  1  0
 99100  1  0
100101  1  0
101102  1  0
102103  1  0
103104  1  0
104105  1  0
105106  1  0
106107  1  0
107  2  1  0
M  END
>  <Title>  (1077) 
idABNQgen7

$$$$

     RDKit          2D

 59 67  0  0  0  0  0  0  0  0999 V2000
    5.1070  -10.3477    0.0000 C   0  0  0  0  0  0  0  0  0  0  0  0
    3.9343   -9.4124    0.0000 C   0  0  0  0  0  0  0  0  0  0  0  0
    4.6843   -8.1134    0.0000 C   0  0  0  0  0  0  0  0  0  0  0  0
    5.0181   -6.6510    0.0000 C   0  0  0  0  0  0  0  0  0  0  0  0
    4.9060   -5.1552    0.0000 C   0  0  0  0  0  0  0  0  0  0  0  0
    4.3580   -3.7589    0.0000 C   0  0  0  0  0  0  0  0  0  0  0  0
    3.4227   -2.5862    0.0000 C   0  0  0  0  0  0  0  0  0  0  0  0
    2.1834   -1.7412    0.0000 C   0  0  0  0  0  0  0  0  0  0  0  0
    2.8342   -0.3897    0.0000 C   0  0  0  0  0  0  0  0  0  0  0  0
    1.9892    0.8496    0.0000 O   0  0  0  0  0  0  0  0  0  0  0  0
    4.3300   -0.2776    0.0000 N   0  0  0  0  0  0  0  0  0  0  0  0
    4.9808    1.0738    0.0000 C   0  0  0  0  0  0  0  0  0  0  0  0
    6.4766    1.1859    0.0000 N   0  0  0  0  0  0  0  0  0  0  0  0
    7.1274    2.5374    0.0000 N   0  0  0  0  0  0  0  0  0  0  0  0
    6.2825    3.7767    0.0000 N   0  0  0  0  0  0  0  0  0  0  0  0
    4.7867    3.6646    0.0000 N   0  0  0  0  0  0  0  0  0  0  0  0
    4.1358    2.3132    0.0000 N   0  0  0  0  0  0  0  0  0  0  0  0
    0.7500   -1.2990    0.0000 C   0  0  0  0  0  0  0  0  0  0  0  0
    1.5000    0.0000    0.0000 C   0  0  0  0  0  0  0  0  0  0  0  0
    0.7500    1.2990    0.0000 C   0  0  0  0  0  0  0  0  0  0  0  0
   -0.7500    1.2990    0.0000 C   0  0  0  0  0  0  0  0  0  0  0  0
   -1.5000    0.0000    0.0000 C   0  0  0  0  0  0  0  0  0  0  0  0
   -0.7500   -1.2990    0.0000 C   0  0  0  0  0  0  0  0  0  0  0  0
   -2.1834   -1.7412    0.0000 C   0  0  0  0  0  0  0  0  0  0  0  0
   -2.2955   -0.2454    0.0000 C   0  0  0  0  0  0  0  0  0  0  0  0
   -3.6469    0.4055    0.0000 C   0  0  0  0  0  0  0  0  0  0  0  0
   -4.8863   -0.4395    0.0000 C   0  0  0  0  0  0  0  0  0  0  0  0
   -4.7742   -1.9353    0.0000 C   0  0  0  0  0  0  0  0  0  0  0  0
   -3.4227   -2.5862    0.0000 C   0  0  0  0  0  0  0  0  0  0  0  0
   -4.3580   -3.7589    0.0000 C   0  0  0  0  0  0  0  0  0  0  0  0
   -5.2932   -2.5862    0.0000 C   0  0  0  0  0  0  0  0  0  0  0  0
   -6.7764   -2.8097    0.0000 C   0  0  0  0  0  0  0  0  0  0  0  0
   -7.3244   -4.2060    0.0000 C   0  0  0  0  0  0  0  0  0  0  0  0
   -6.3892   -5.3788    0.0000 C   0  0  0  0  0  0  0  0  0  0  0  0
   -4.9060   -5.1552    0.0000 C   0  0  0  0  0  0  0  0  0  0  0  0
   -5.0181   -6.6510    0.0000 C   0  0  0  0  0  0  0  0  0  0  0  0
   -6.4514   -6.2089    0.0000 C   0  0  0  0  0  0  0  0  0  0  0  0
   -7.5510   -7.2291    0.0000 C   0  0  0  0  0  0  0  0  0  0  0  0
   -7.2172   -8.6915    0.0000 C   0  0  0  0  0  0  0  0  0  0  0  0
   -5.7839   -9.1337    0.0000 C   0  0  0  0  0  0  0  0  0  0  0  0
   -4.6843   -8.1134    0.0000 C   0  0  0  0  0  0  0  0  0  0  0  0
   -3.9343   -9.4124    0.0000 C   0  0  0  0  0  0  0  0  0  0  0  0
   -5.3676   -9.8546    0.0000 C   0  0  0  0  0  0  0  0  0  0  0  0
   -5.7014  -11.3170    0.0000 C   0  0  0  0  0  0  0  0  0  0  0  0
   -4.6018  -12.3372    0.0000 C   0  0  0  0  0  0  0  0  0  0  0  0
   -3.1685  -11.8951    0.0000 C   0  0  0  0  0  0  0  0  0  0  0  0
   -2.8347  -10.4327    0.0000 C   0  0  0  0  0  0  0  0  0  0  0  0
   -1.4832  -11.0835    0.0000 C   0  0  0  0  0  0  0  0  0  0  0  0
   -2.4185  -12.2563    0.0000 C   0  0  0  0  0  0  0  0  0  0  0  0
   -1.8705  -13.6526    0.0000 C   0  0  0  0  0  0  0  0  0  0  0  0
   -0.3872  -13.8762    0.0000 C   0  0  0  0  0  0  0  0  0  0  0  0
    0.5480  -12.7034    0.0000 C   0  0  0  0  0  0  0  0  0  0  0  0
   -0.0000  -11.3071    0.0000 C   0  0  0  0  0  0  0  0  0  0  0  0
    1.4832  -11.0835    0.0000 C   0  0  0  0  0  0  0  0  0  0  0  0
    1.3712  -12.5793    0.0000 C   0  0  0  0  0  0  0  0  0  0  0  0
    2.6105  -13.4243    0.0000 C   0  0  0  0  0  0  0  0  0  0  0  0
    3.9620  -12.7735    0.0000 C   0  0  0  0  0  0  0  0  0  0  0  0
    4.0741  -11.2777    0.0000 C   0  0  0  0  0  0  0  0  0  0  0  0
    2.8347  -10.4327    0.0000 C   0  0  0  0  0  0  0  0  0  0  0  0
  1  2  1  0
  2  3  1  0
  3  4  1  0
  4  5  1  0
  5  6  1  0
  6  7  1  0
  7  8  1  0
  8  9  1  0
  9 10  2  0
  9 11  1  0
 11 12  1  0
 12 13  2  0
 13 14  1  0
 14 15  2  0
 15 16  1  0
 16 17  2  0
  8 18  1  0
 18 19  2  0
 19 20  1  0
 20 21  2  0
 21 22  1  0
 22 23  2  0
 23 24  1  0
 24 25  2  0
 25 26  1  0
 26 27  2  0
 27 28  1  0
 28 29  2  0
 29 30  1  0
 30 31  2  0
 31 32  1  0
 32 33  2  0
 33 34  1  0
 34 35  2  0
 35 36  1  0
 36 37  2  0
 37 38  1  0
 38 39  2  0
 39 40  1  0
 40 41  2  0
 41 42  1  0
 42 43  2  0
 43 44  1  0
 44 45  2  0
 45 46  1  0
 46 47  2  0
 47 48  1  0
 48 49  2  0
 49 50  1  0
 50 51  2  0
 51 52  1  0
 52 53  2  0
 53 54  1  0
 54 55  2  0
 55 56  1  0
 56 57  2  0
 57 58  1  0
 58 59  2  0
 59  2  1  0
 17 12  1  0
 23 18  1  0
 29 24  1  0
 35 30  1  0
 41 36  1  0
 47 42  1  0
 53 48  1  0
 59 54  1  0
M  END
>  <Title>  (1078) 
idABNRgen7

$$$$

     RDKit          2D

 34 34  0  0  0  0  0  0  0  0999 V2000
    9.3901    0.0000    0.0000 C   0  0  0  0  0  0  0  0  0  0  0  0
    7.8901    0.0000    0.0000 C   0  0  0  0  0  0  0  0  0  0  0  0
    7.7475    1.4932    0.0000 C   0  0  0  0  0  0  0  0  0  0  0  0
    7.3249    2.9324    0.0000 C   0  0  0  0  0  0  0  0  0  0  0  0
    6.6376    4.2657    0.0000 C   0  0  0  0  0  0  0  0  0  0  0  0
    5.7103    5.4448    0.0000 C   0  0  0  0  0  0  0  0  0  0  0  0
    4.5767    6.4271    0.0000 C   0  0  0  0  0  0  0  0  0  0  0  0
    3.2777    7.1771    0.0000 C   0  0  0  0  0  0  0  0  0  0  0  0
    1.8602    7.6677    0.0000 C   0  0  0  0  0  0  0  0  0  0  0  0
    0.3754    7.8811    0.0000 C   0  0  0  0  0  0  0  0  0  0  0  0
   -1.1229    7.8098    0.0000 C   0  0  0  0  0  0  0  0  0  0  0  0
   -2.5806    7.4561    0.0000 C   0  0  0  0  0  0  0  0  0  0  0  0
   -3.9450    6.8330    0.0000 C   0  0  0  0  0  0  0  0  0  0  0  0
   -5.1669    5.9629    0.0000 C   0  0  0  0  0  0  0  0  0  0  0  0
   -6.2020    4.8773    0.0000 C   0  0  0  0  0  0  0  0  0  0  0  0
   -7.0130    3.6154    0.0000 C   0  0  0  0  0  0  0  0  0  0  0  0
   -7.5705    2.2229    0.0000 C   0  0  0  0  0  0  0  0  0  0  0  0
   -7.8544    0.7500    0.0000 C   0  0  0  0  0  0  0  0  0  0  0  0
   -7.8544   -0.7500    0.0000 C   0  0  0  0  0  0  0  0  0  0  0  0
   -7.5705   -2.2229    0.0000 C   0  0  0  0  0  0  0  0  0  0  0  0
   -7.0130   -3.6154    0.0000 C   0  0  0  0  0  0  0  0  0  0  0  0
   -6.2020   -4.8773    0.0000 C   0  0  0  0  0  0  0  0  0  0  0  0
   -5.1669   -5.9629    0.0000 C   0  0  0  0  0  0  0  0  0  0  0  0
   -3.9450   -6.8330    0.0000 C   0  0  0  0  0  0  0  0  0  0  0  0
   -2.5806   -7.4561    0.0000 C   0  0  0  0  0  0  0  0  0  0  0  0
   -1.1229   -7.8098    0.0000 C   0  0  0  0  0  0  0  0  0  0  0  0
    0.3754   -7.8811    0.0000 C   0  0  0  0  0  0  0  0  0  0  0  0
    1.8602   -7.6677    0.0000 C   0  0  0  0  0  0  0  0  0  0  0  0
    3.2777   -7.1771    0.0000 C   0  0  0  0  0  0  0  0  0  0  0  0
    4.5767   -6.4271    0.0000 C   0  0  0  0  0  0  0  0  0  0  0  0
    5.7103   -5.4448    0.0000 C   0  0  0  0  0  0  0  0  0  0  0  0
    6.6376   -4.2657    0.0000 C   0  0  0  0  0  0  0  0  0  0  0  0
    7.3249   -2.9324    0.0000 C   0  0  0  0  0  0  0  0  0  0  0  0
    7.7475   -1.4932    0.0000 C   0  0  0  0  0  0  0  0  0  0  0  0
  1  2  1  0
  2  3  1  0
  3  4  1  0
  4  5  2  0
  5  6  1  0
  6  7  2  0
  7  8  1  0
  8  9  2  0
  9 10  1  0
 10 11  2  0
 11 12  1  0
 12 13  2  0
 13 14  1  0
 14 15  2  0
 15 16  1  0
 16 17  2  0
 17 18  1  0
 18 19  2  0
 19 20  1  0
 20 21  2  0
 21 22  1  0
 22 23  1  0
 23 24  1  0
 24 25  1  0
 25 26  1  0
 26 27  1  0
 27 28  1  0
 28 29  1  0
 29 30  1  0
 30 31  1  0
 31 32  1  0
 32 33  1  0
 33 34  1  0
 34  2  1  0
M  END
>  <Title>  (1079) 
idABNSgen7

$$$$

     RDKit          2D

 10 10  0  0  0  0  0  0  0  0999 V2000
    3.0000    0.0000    0.0000 C   0  0  0  0  0  0  0  0  0  0  0  0
    1.5000    0.0000    0.0000 C   0  0  0  0  0  0  0  0  0  0  0  0
    0.7500   -1.2990    0.0000 C   0  0  0  0  0  0  0  0  0  0  0  0
   -0.7500   -1.2990    0.0000 C   0  0  0  0  0  0  0  0  0  0  0  0
   -1.5000    0.0000    0.0000 C   0  0  0  0  0  0  0  0  0  0  0  0
   -3.0000    0.0000    0.0000 O   0  0  0  0  0  0  0  0  0  0  0  0
   -0.7500    1.2990    0.0000 C   0  0  0  0  0  0  0  0  0  0  0  0
    0.7500    1.2990    0.0000 C   0  0  0  0  0  0  0  0  0  0  0  0
    0.4895    2.7762    0.0000 C   0  0  0  0  0  0  0  0  0  0  0  0
    2.1595    1.8121    0.0000 C   0  0  0  0  0  0  0  0  0  0  0  0
  1  2  1  0
  2  3  1  0
  3  4  1  0
  4  5  1  0
  5  6  1  0
  5  7  1  0
  7  8  1  0
  8  9  1  0
  8 10  1  0
  8  2  1  0
M  END
>  <Title>  (1080) 
idABNTgen7

$$$$

     RDKit          2D

111112  0  0  0  0  0  0  0  0999 V2000
   25.1385    0.0000    0.0000 C   0  0  0  0  0  0  0  0  0  0  0  0
   23.6385    0.0000    0.0000 C   0  0  0  0  0  0  0  0  0  0  0  0
   23.5909    1.4992    0.0000 C   0  0  0  0  0  0  0  0  0  0  0  0
   23.4483    2.9925    0.0000 C   0  0  0  0  0  0  0  0  0  0  0  0
   23.2113    4.4736    0.0000 C   0  0  0  0  0  0  0  0  0  0  0  0
   22.8808    5.9368    0.0000 C   0  0  0  0  0  0  0  0  0  0  0  0
   22.4582    7.3760    0.0000 C   0  0  0  0  0  0  0  0  0  0  0  0
   21.9452    8.7855    0.0000 C   0  0  0  0  0  0  0  0  0  0  0  0
   21.3438   10.1597    0.0000 C   0  0  0  0  0  0  0  0  0  0  0  0
   20.6565   11.4929    0.0000 C   0  0  0  0  0  0  0  0  0  0  0  0
   19.8860   12.7799    0.0000 C   0  0  0  0  0  0  0  0  0  0  0  0
   19.0354   14.0154    0.0000 C   0  0  0  0  0  0  0  0  0  0  0  0
   18.1081   15.1945    0.0000 C   0  0  0  0  0  0  0  0  0  0  0  0
   17.1080   16.3124    0.0000 C   0  0  0  0  0  0  0  0  0  0  0  0
   16.0389   17.3646    0.0000 C   0  0  0  0  0  0  0  0  0  0  0  0
   14.9053   18.3469    0.0000 C   0  0  0  0  0  0  0  0  0  0  0  0
   13.7117   19.2553    0.0000 C   0  0  0  0  0  0  0  0  0  0  0  0
   12.4628   20.0862    0.0000 C   0  0  0  0  0  0  0  0  0  0  0  0
   11.1638   20.8362    0.0000 C   0  0  0  0  0  0  0  0  0  0  0  0
    9.8198   21.5023    0.0000 C   0  0  0  0  0  0  0  0  0  0  0  0
    8.4362   22.0818    0.0000 C   0  0  0  0  0  0  0  0  0  0  0  0
    7.0187   22.5724    0.0000 C   0  0  0  0  0  0  0  0  0  0  0  0
    5.5730   22.9721    0.0000 C   0  0  0  0  0  0  0  0  0  0  0  0
    4.1048   23.2794    0.0000 C   0  0  0  0  0  0  0  0  0  0  0  0
    2.6200   23.4928    0.0000 C   0  0  0  0  0  0  0  0  0  0  0  0
    1.1248   23.6117    0.0000 C   0  0  0  0  0  0  0  0  0  0  0  0
   -0.3750   23.6355    0.0000 C   0  0  0  0  0  0  0  0  0  0  0  0
   -1.8733   23.5641    0.0000 C   0  0  0  0  0  0  0  0  0  0  0  0
   -3.3641   23.3979    0.0000 C   0  0  0  0  0  0  0  0  0  0  0  0
   -4.8413   23.1374    0.0000 C   0  0  0  0  0  0  0  0  0  0  0  0
   -6.2990   22.7838    0.0000 C   0  0  0  0  0  0  0  0  0  0  0  0
   -7.7314   22.3384    0.0000 C   0  0  0  0  0  0  0  0  0  0  0  0
   -9.1326   21.8031    0.0000 C   0  0  0  0  0  0  0  0  0  0  0  0
  -10.4971   21.1799    0.0000 C   0  0  0  0  0  0  0  0  0  0  0  0
  -11.8192   20.4715    0.0000 C   0  0  0  0  0  0  0  0  0  0  0  0
  -13.0938   19.6807    0.0000 C   0  0  0  0  0  0  0  0  0  0  0  0
  -14.3157   18.8106    0.0000 C   0  0  0  0  0  0  0  0  0  0  0  0
  -15.4799   17.8648    0.0000 C   0  0  0  0  0  0  0  0  0  0  0  0
  -16.5818   16.8470    0.0000 C   0  0  0  0  0  0  0  0  0  0  0  0
  -17.6169   15.7614    0.0000 C   0  0  0  0  0  0  0  0  0  0  0  0
  -18.5811   14.6123    0.0000 C   0  0  0  0  0  0  0  0  0  0  0  0
  -19.4705   13.4044    0.0000 C   0  0  0  0  0  0  0  0  0  0  0  0
  -20.2814   12.1426    0.0000 C   0  0  0  0  0  0  0  0  0  0  0  0
  -21.0107   10.8318    0.0000 C   0  0  0  0  0  0  0  0  0  0  0  0
  -21.6554    9.4774    0.0000 C   0  0  0  0  0  0  0  0  0  0  0  0
  -22.2129    8.0848    0.0000 C   0  0  0  0  0  0  0  0  0  0  0  0
  -22.6810    6.6597    0.0000 C   0  0  0  0  0  0  0  0  0  0  0  0
  -23.0577    5.2078    0.0000 C   0  0  0  0  0  0  0  0  0  0  0  0
  -23.3416    3.7349    0.0000 C   0  0  0  0  0  0  0  0  0  0  0  0
  -23.5314    2.2470    0.0000 C   0  0  0  0  0  0  0  0  0  0  0  0
  -23.6266    0.7500    0.0000 C   0  0  0  0  0  0  0  0  0  0  0  0
  -23.6266   -0.7500    0.0000 C   0  0  0  0  0  0  0  0  0  0  0  0
  -23.5314   -2.2470    0.0000 C   0  0  0  0  0  0  0  0  0  0  0  0
  -23.3416   -3.7349    0.0000 C   0  0  0  0  0  0  0  0  0  0  0  0
  -23.0577   -5.2078    0.0000 C   0  0  0  0  0  0  0  0  0  0  0  0
  -22.6810   -6.6597    0.0000 C   0  0  0  0  0  0  0  0  0  0  0  0
  -22.2129   -8.0848    0.0000 C   0  0  0  0  0  0  0  0  0  0  0  0
  -21.6554   -9.4774    0.0000 C   0  0  0  0  0  0  0  0  0  0  0  0
  -21.0107  -10.8318    0.0000 C   0  0  0  0  0  0  0  0  0  0  0  0
  -20.2814  -12.1426    0.0000 C   0  0  0  0  0  0  0  0  0  0  0  0
  -19.4705  -13.4044    0.0000 C   0  0  0  0  0  0  0  0  0  0  0  0
  -18.5811  -14.6123    0.0000 C   0  0  0  0  0  0  0  0  0  0  0  0
  -17.6169  -15.7614    0.0000 C   0  0  0  0  0  0  0  0  0  0  0  0
  -16.5818  -16.8470    0.0000 C   0  0  0  0  0  0  0  0  0  0  0  0
  -15.4799  -17.8648    0.0000 C   0  0  0  0  0  0  0  0  0  0  0  0
  -14.3157  -18.8106    0.0000 C   0  0  0  0  0  0  0  0  0  0  0  0
  -13.0938  -19.6807    0.0000 C   0  0  0  0  0  0  0  0  0  0  0  0
  -11.8192  -20.4715    0.0000 C   0  0  0  0  0  0  0  0  0  0  0  0
  -10.4971  -21.1799    0.0000 C   0  0  0  0  0  0  0  0  0  0  0  0
   -9.1326  -21.8031    0.0000 C   0  0  0  0  0  0  0  0  0  0  0  0
   -7.7314  -22.3384    0.0000 C   0  0  0  0  0  0  0  0  0  0  0  0
   -6.2990  -22.7838    0.0000 C   0  0  0  0  0  0  0  0  0  0  0  0
   -4.8413  -23.1374    0.0000 C   0  0  0  0  0  0  0  0  0  0  0  0
   -3.3641  -23.3979    0.0000 C   0  0  0  0  0  0  0  0  0  0  0  0
   -1.8733  -23.5641    0.0000 C   0  0  0  0  0  0  0  0  0  0  0  0
   -0.3750  -23.6355    0.0000 C   0  0  0  0  0  0  0  0  0  0  0  0
    1.1248  -23.6117    0.0000 C   0  0  0  0  0  0  0  0  0  0  0  0
    2.6200  -23.4928    0.0000 C   0  0  0  0  0  0  0  0  0  0  0  0
    4.1048  -23.2794    0.0000 C   0  0  0  0  0  0  0  0  0  0  0  0
    5.5730  -22.9721    0.0000 C   0  0  0  0  0  0  0  0  0  0  0  0
    7.0187  -22.5724    0.0000 C   0  0  0  0  0  0  0  0  0  0  0  0
    8.4362  -22.0818    0.0000 C   0  0  0  0  0  0  0  0  0  0  0  0
    9.8198  -21.5023    0.0000 C   0  0  0  0  0  0  0  0  0  0  0  0
   11.1638  -20.8362    0.0000 C   0  0  0  0  0  0  0  0  0  0  0  0
   12.4628  -20.0862    0.0000 C   0  0  0  0  0  0  0  0  0  0  0  0
   13.7117  -19.2553    0.0000 C   0  0  0  0  0  0  0  0  0  0  0  0
   14.9053  -18.3469    0.0000 C   0  0  0  0  0  0  0  0  0  0  0  0
   16.0389  -17.3646    0.0000 C   0  0  0  0  0  0  0  0  0  0  0  0
   17.1080  -16.3124    0.0000 C   0  0  0  0  0  0  0  0  0  0  0  0
   18.1081  -15.1945    0.0000 C   0  0  0  0  0  0  0  0  0  0  0  0
   19.0354  -14.0154    0.0000 C   0  0  0  0  0  0  0  0  0  0  0  0
   19.8860  -12.7799    0.0000 C   0  0  0  0  0  0  0  0  0  0  0  0
   20.6565  -11.4929    0.0000 C   0  0  0  0  0  0  0  0  0  0  0  0
   21.3438  -10.1597    0.0000 C   0  0  0  0  0  0  0  0  0  0  0  0
   21.9452   -8.7855    0.0000 C   0  0  0  0  0  0  0  0  0  0  0  0
   22.4582   -7.3760    0.0000 C   0  0  0  0  0  0  0  0  0  0  0  0
   22.8808   -5.9368    0.0000 C   0  0  0  0  0  0  0  0  0  0  0  0
   24.3328   -6.3135    0.0000 C   0  0  0  0  0  0  0  0  0  0  0  0
   25.5074   -5.3807    0.0000 O   0  0  0  0  0  0  0  0  0  0  0  0
   24.7325   -7.7592    0.0000 N   0  0  0  0  0  0  0  0  0  0  0  0
   26.1844   -8.1360    0.0000 C   0  0  0  0  0  0  0  0  0  0  0  0
   26.5841   -9.5817    0.0000 N   0  0  0  0  0  0  0  0  0  0  0  0
   28.0360   -9.9584    0.0000 N   0  0  0  0  0  0  0  0  0  0  0  0
   29.0882   -8.8894    0.0000 N   0  0  0  0  0  0  0  0  0  0  0  0
   28.6885   -7.4436    0.0000 N   0  0  0  0  0  0  0  0  0  0  0  0
   27.2366   -7.0669    0.0000 N   0  0  0  0  0  0  0  0  0  0  0  0
   23.2113   -4.4736    0.0000 C   0  0  0  0  0  0  0  0  0  0  0  0
   24.7078   -4.5758    0.0000 O   0  0  0  0  0  0  0  0  0  0  0  0
   23.4483   -2.9925    0.0000 C   0  0  0  0  0  0  0  0  0  0  0  0
   24.9362   -3.1823    0.0000 C   0  0  0  0  0  0  0  0  0  0  0  0
   23.5909   -1.4992    0.0000 C   0  0  0  0  0  0  0  0  0  0  0  0
  1  2  1  0
  2  3  1  0
  3  4  1  0
  4  5  1  0
  5  6  1  0
  6  7  1  0
  7  8  1  0
  8  9  1  0
  9 10  1  0
 10 11  1  0
 11 12  1  0
 12 13  1  0
 13 14  1  0
 14 15  1  0
 15 16  1  0
 16 17  1  0
 17 18  1  0
 18 19  1  0
 19 20  1  0
 20 21  1  0
 21 22  1  0
 22 23  1  0
 23 24  1  0
 24 25  1  0
 25 26  1  0
 26 27  1  0
 27 28  1  0
 28 29  1  0
 29 30  1  0
 30 31  1  0
 31 32  1  0
 32 33  1  0
 33 34  1  0
 34 35  1  0
 35 36  1  0
 36 37  1  0
 37 38  1  0
 38 39  1  0
 39 40  1  0
 40 41  1  0
 41 42  1  0
 42 43  1  0
 43 44  1  0
 44 45  1  0
 45 46  1  0
 46 47  1  0
 47 48  1  0
 48 49  1  0
 49 50  1  0
 50 51  1  0
 51 52  1  0
 52 53  1  0
 53 54  1  0
 54 55  1  0
 55 56  1  0
 56 57  1  0
 57 58  1  0
 58 59  1  0
 59 60  1  0
 60 61  1  0
 61 62  1  0
 62 63  1  0
 63 64  1  0
 64 65  1  0
 65 66  1  0
 66 67  1  0
 67 68  1  0
 68 69  1  0
 69 70  1  0
 70 71  1  0
 71 72  1  0
 72 73  1  0
 73 74  1  0
 74 75  1  0
 75 76  1  0
 76 77  1  0
 77 78  1  0
 78 79  1  0
 79 80  1  0
 80 81  1  0
 81 82  1  0
 82 83  1  0
 83 84  1  0
 84 85  1  0
 85 86  1  0
 86 87  1  0
 87 88  1  0
 88 89  1  0
 89 90  1  0
 90 91  1  0
 91 92  1  0
 92 93  1  0
 93 94  1  0
 94 95  1  0
 95 96  1  0
 96 97  1  0
 97 98  1  0
 98 99  2  0
 98100  1  0
100101  1  0
101102  2  0
102103  1  0
103104  2  0
104105  1  0
105106  2  0
 97107  1  0
107108  2  0
107109  1  0
109110  1  0
109111  1  0
111  2  1  0
106101  1  0
M  END
>  <Title>  (1081) 
idABNUgen7

$$$$

     RDKit          2D

  3  2  0  0  0  0  0  0  0  0999 V2000
    0.0000    0.0000    0.0000 C   0  0  0  0  0  0  0  0  0  0  0  0
    1.2990    0.7500    0.0000 O   0  0  0  0  0  0  0  0  0  0  0  0
    2.5981   -0.0000    0.0000 C   0  0  0  0  0  0  0  0  0  0  0  0
  1  2  1  0
  2  3  1  0
M  END
>  <Title>  (1082) 
idABNVgen7

$$$$

     RDKit          2D

 29 32  0  0  0  0  0  0  0  0999 V2000
   -3.1771   -5.9156    0.0000 C   0  0  0  0  0  0  0  0  0  0  0  0
   -1.9635   -5.0339    0.0000 C   0  0  0  0  0  0  0  0  0  0  0  0
   -0.7500   -5.9156    0.0000 C   0  0  0  0  0  0  0  0  0  0  0  0
    0.7500   -5.9156    0.0000 C   0  0  0  0  0  0  0  0  0  0  0  0
    1.9635   -5.0339    0.0000 C   0  0  0  0  0  0  0  0  0  0  0  0
    3.1771   -5.9156    0.0000 C   0  0  0  0  0  0  0  0  0  0  0  0
    4.5474   -5.3055    0.0000 O   0  0  0  0  0  0  0  0  0  0  0  0
    3.0203   -7.4073    0.0000 N   0  0  0  0  0  0  0  0  0  0  0  0
    4.2338   -8.2890    0.0000 C   0  0  0  0  0  0  0  0  0  0  0  0
    4.0770   -9.7808    0.0000 N   0  0  0  0  0  0  0  0  0  0  0  0
    5.2905  -10.6625    0.0000 N   0  0  0  0  0  0  0  0  0  0  0  0
    6.6608  -10.0524    0.0000 N   0  0  0  0  0  0  0  0  0  0  0  0
    6.8176   -8.5606    0.0000 N   0  0  0  0  0  0  0  0  0  0  0  0
    5.6041   -7.6789    0.0000 N   0  0  0  0  0  0  0  0  0  0  0  0
    2.4271   -3.6073    0.0000 C   0  0  0  0  0  0  0  0  0  0  0  0
    3.9271   -3.6073    0.0000 O   0  0  0  0  0  0  0  0  0  0  0  0
    1.9635   -2.1807    0.0000 O   0  0  0  0  0  0  0  0  0  0  0  0
    0.7500   -1.2990    0.0000 C   0  0  0  0  0  0  0  0  0  0  0  0
    1.5000    0.0000    0.0000 C   0  0  0  0  0  0  0  0  0  0  0  0
    0.7500    1.2990    0.0000 C   0  0  0  0  0  0  0  0  0  0  0  0
   -0.7500    1.2990    0.0000 C   0  0  0  0  0  0  0  0  0  0  0  0
   -1.5000    0.0000    0.0000 C   0  0  0  0  0  0  0  0  0  0  0  0
   -0.7500   -1.2990    0.0000 C   0  0  0  0  0  0  0  0  0  0  0  0
   -1.9635   -2.1807    0.0000 C   0  0  0  0  0  0  0  0  0  0  0  0
   -2.9672   -1.0660    0.0000 C   0  0  0  0  0  0  0  0  0  0  0  0
   -4.4344   -1.3779    0.0000 C   0  0  0  0  0  0  0  0  0  0  0  0
   -4.8980   -2.8045    0.0000 C   0  0  0  0  0  0  0  0  0  0  0  0
   -3.8943   -3.9192    0.0000 C   0  0  0  0  0  0  0  0  0  0  0  0
   -2.4271   -3.6073    0.0000 C   0  0  0  0  0  0  0  0  0  0  0  0
  1  2  1  0
  2  3  2  0
  3  4  1  0
  4  5  2  0
  5  6  1  0
  6  7  2  0
  6  8  1  0
  8  9  1  0
  9 10  2  0
 10 11  1  0
 11 12  2  0
 12 13  1  0
 13 14  2  0
  5 15  1  0
 15 16  2  0
 15 17  1  0
 17 18  1  0
 18 19  2  0
 19 20  1  0
 20 21  2  0
 21 22  1  0
 22 23  2  0
 23 24  1  0
 24 25  2  0
 25 26  1  0
 26 27  2  0
 27 28  1  0
 28 29  2  0
 29  2  1  0
 14  9  1  0
 23 18  1  0
 29 24  1  0
M  END
>  <Title>  (1083) 
idABNWgen7

$$$$

     RDKit          2D

 16 17  0  0  0  0  0  0  0  0999 V2000
    3.0000    0.0000    0.0000 C   0  0  0  0  0  0  0  0  0  0  0  0
    1.5000    0.0000    0.0000 C   0  0  0  0  0  0  0  0  0  0  0  0
    0.7500   -1.2990    0.0000 C   0  0  0  0  0  0  0  0  0  0  0  0
   -0.7500   -1.2990    0.0000 C   0  0  0  0  0  0  0  0  0  0  0  0
   -1.5000    0.0000    0.0000 C   0  0  0  0  0  0  0  0  0  0  0  0
   -0.7500    1.2990    0.0000 C   0  0  0  0  0  0  0  0  0  0  0  0
   -1.5000    2.5981    0.0000 C   0  0  0  0  0  0  0  0  0  0  0  0
   -3.0000    2.5981    0.0000 O   0  0  0  0  0  0  0  0  0  0  0  0
   -0.7500    3.8971    0.0000 N   0  0  0  0  0  0  0  0  0  0  0  0
   -1.5000    5.1962    0.0000 C   0  0  0  0  0  0  0  0  0  0  0  0
   -0.7500    6.4952    0.0000 N   0  0  0  0  0  0  0  0  0  0  0  0
   -1.5000    7.7942    0.0000 N   0  0  0  0  0  0  0  0  0  0  0  0
   -3.0000    7.7942    0.0000 N   0  0  0  0  0  0  0  0  0  0  0  0
   -3.7500    6.4952    0.0000 N   0  0  0  0  0  0  0  0  0  0  0  0
   -3.0000    5.1962    0.0000 N   0  0  0  0  0  0  0  0  0  0  0  0
    0.7500    1.2990    0.0000 C   0  0  0  0  0  0  0  0  0  0  0  0
  1  2  1  0
  2  3  1  0
  3  4  1  0
  4  5  1  0
  5  6  2  0
  6  7  1  0
  7  8  2  0
  7  9  1  0
  9 10  1  0
 10 11  2  0
 11 12  1  0
 12 13  2  0
 13 14  1  0
 14 15  2  0
  6 16  1  0
 16  2  1  0
 15 10  1  0
M  END
>  <Title>  (1084) 
idABNXgen7

$$$$

     RDKit          2D

 10 10  0  0  0  0  0  0  0  0999 V2000
    3.0000    0.0000    0.0000 C   0  0  0  0  0  0  0  0  0  0  0  0
    1.5000    0.0000    0.0000 C   0  0  0  0  0  0  0  0  0  0  0  0
    0.7500   -1.2990    0.0000 C   0  0  0  0  0  0  0  0  0  0  0  0
   -0.7500   -1.2990    0.0000 C   0  0  0  0  0  0  0  0  0  0  0  0
   -1.5000    0.0000    0.0000 C   0  0  0  0  0  0  0  0  0  0  0  0
   -0.7500    1.2990    0.0000 C   0  0  0  0  0  0  0  0  0  0  0  0
   -1.5000    2.5981    0.0000 C   0  0  0  0  0  0  0  0  0  0  0  0
   -0.7500    3.8971    0.0000 N   0  0  0  0  0  0  0  0  0  0  0  0
   -3.0000    2.5981    0.0000 O   0  0  0  0  0  0  0  0  0  0  0  0
    0.7500    1.2990    0.0000 C   0  0  0  0  0  0  0  0  0  0  0  0
  1  2  1  0
  2  3  2  0
  3  4  1  0
  4  5  1  0
  5  6  1  0
  6  7  1  0
  7  8  1  0
  7  9  2  0
  6 10  2  0
 10  2  1  0
M  END
>  <Title>  (1085) 
idABNYgen7

$$$$

     RDKit          2D

 10 10  0  0  0  0  0  0  0  0999 V2000
    4.5000    0.0000    0.0000 N   0  0  0  0  0  0  0  0  0  0  0  0
    3.0000    0.0000    0.0000 C   0  0  0  0  0  0  0  0  0  0  0  0
    1.5000    0.0000    0.0000 C   0  0  0  0  0  0  0  0  0  0  0  0
    0.7500   -1.2990    0.0000 C   0  0  0  0  0  0  0  0  0  0  0  0
   -0.7500   -1.2990    0.0000 C   0  0  0  0  0  0  0  0  0  0  0  0
   -1.5000    0.0000    0.0000 C   0  0  0  0  0  0  0  0  0  0  0  0
   -0.7500    1.2990    0.0000 C   0  0  0  0  0  0  0  0  0  0  0  0
   -1.5000    2.5981    0.0000 C   0  0  0  0  0  0  0  0  0  0  0  0
   -2.2500    3.8971    0.0000 N   0  0  0  0  0  0  0  0  0  0  0  0
    0.7500    1.2990    0.0000 C   0  0  0  0  0  0  0  0  0  0  0  0
  1  2  3  0
  2  3  1  0
  3  4  2  0
  4  5  1  0
  5  6  1  0
  6  7  1  0
  7  8  1  0
  8  9  3  0
  7 10  2  0
 10  3  1  0
M  END
>  <Title>  (1086) 
idABNZgen7

$$$$

     RDKit          2D

  6  6  0  0  0  0  0  0  0  0999 V2000
    2.7760    0.0000    0.0000 O   0  0  0  0  0  0  0  0  0  0  0  0
    1.2760    0.0000    0.0000 C   0  0  0  0  0  0  0  0  0  0  0  0
    0.3943    1.2135    0.0000 C   0  0  0  0  0  0  0  0  0  0  0  0
   -1.0323    0.7500    0.0000 C   0  0  0  0  0  0  0  0  0  0  0  0
   -1.0323   -0.7500    0.0000 C   0  0  0  0  0  0  0  0  0  0  0  0
    0.3943   -1.2135    0.0000 C   0  0  0  0  0  0  0  0  0  0  0  0
  1  2  1  0
  2  3  1  0
  3  4  1  0
  4  5  2  0
  5  6  1  0
  6  2  1  0
M  END
>  <Title>  (1087) 
idABOAgen7

$$$$

     RDKit          2D

 31 31  0  0  0  0  0  0  0  0999 V2000
    8.6751   -0.0000    0.0000 C   0  0  0  0  0  0  0  0  0  0  0  0
    7.1751    0.0000    0.0000 C   0  0  0  0  0  0  0  0  0  0  0  0
    7.0183   -1.4918    0.0000 C   0  0  0  0  0  0  0  0  0  0  0  0
    6.5548   -2.9184    0.0000 C   0  0  0  0  0  0  0  0  0  0  0  0
    5.8048   -4.2174    0.0000 C   0  0  0  0  0  0  0  0  0  0  0  0
    4.8011   -5.3321    0.0000 C   0  0  0  0  0  0  0  0  0  0  0  0
    3.5875   -6.2138    0.0000 C   0  0  0  0  0  0  0  0  0  0  0  0
    2.2172   -6.8239    0.0000 C   0  0  0  0  0  0  0  0  0  0  0  0
    0.7500   -7.1358    0.0000 C   0  0  0  0  0  0  0  0  0  0  0  0
   -0.7500   -7.1358    0.0000 C   0  0  0  0  0  0  0  0  0  0  0  0
   -2.2172   -6.8239    0.0000 C   0  0  0  0  0  0  0  0  0  0  0  0
   -3.5875   -6.2138    0.0000 C   0  0  0  0  0  0  0  0  0  0  0  0
   -4.8011   -5.3321    0.0000 C   0  0  0  0  0  0  0  0  0  0  0  0
   -5.8048   -4.2174    0.0000 C   0  0  0  0  0  0  0  0  0  0  0  0
   -6.5548   -2.9184    0.0000 C   0  0  0  0  0  0  0  0  0  0  0  0
   -7.0183   -1.4918    0.0000 C   0  0  0  0  0  0  0  0  0  0  0  0
   -7.1751    0.0000    0.0000 C   0  0  0  0  0  0  0  0  0  0  0  0
   -7.0183    1.4918    0.0000 C   0  0  0  0  0  0  0  0  0  0  0  0
   -6.5548    2.9184    0.0000 C   0  0  0  0  0  0  0  0  0  0  0  0
   -5.8048    4.2174    0.0000 C   0  0  0  0  0  0  0  0  0  0  0  0
   -4.8011    5.3321    0.0000 C   0  0  0  0  0  0  0  0  0  0  0  0
   -3.5875    6.2138    0.0000 C   0  0  0  0  0  0  0  0  0  0  0  0
   -2.2172    6.8239    0.0000 C   0  0  0  0  0  0  0  0  0  0  0  0
   -0.7500    7.1358    0.0000 C   0  0  0  0  0  0  0  0  0  0  0  0
    0.7500    7.1358    0.0000 C   0  0  0  0  0  0  0  0  0  0  0  0
    2.2172    6.8239    0.0000 C   0  0  0  0  0  0  0  0  0  0  0  0
    3.5875    6.2138    0.0000 C   0  0  0  0  0  0  0  0  0  0  0  0
    4.8011    5.3321    0.0000 C   0  0  0  0  0  0  0  0  0  0  0  0
    5.8048    4.2174    0.0000 C   0  0  0  0  0  0  0  0  0  0  0  0
    6.5548    2.9184    0.0000 C   0  0  0  0  0  0  0  0  0  0  0  0
    7.0183    1.4918    0.0000 C   0  0  0  0  0  0  0  0  0  0  0  0
  1  2  1  0
  2  3  1  0
  3  4  1  0
  4  5  1  0
  5  6  1  0
  6  7  1  0
  7  8  1  0
  8  9  1  0
  9 10  1  0
 10 11  1  0
 11 12  1  0
 12 13  1  0
 13 14  1  0
 14 15  1  0
 15 16  1  0
 16 17  1  0
 17 18  1  0
 18 19  1  0
 19 20  1  0
 20 21  1  0
 21 22  1  0
 22 23  1  0
 23 24  1  0
 24 25  1  0
 25 26  1  0
 26 27  1  0
 27 28  1  0
 28 29  1  0
 29 30  1  0
 30 31  1  0
 31  2  1  0
M  END
>  <Title>  (1088) 
idABOBgen7

$$$$

     RDKit          2D

 11 11  0  0  0  0  0  0  0  0999 V2000
    5.0260   -1.2990    0.0000 C   0  0  0  0  0  0  0  0  0  0  0  0
    3.5260   -1.2990    0.0000 C   0  0  0  0  0  0  0  0  0  0  0  0
    2.7760   -2.5981    0.0000 O   0  0  0  0  0  0  0  0  0  0  0  0
    2.7760    0.0000    0.0000 C   0  0  0  0  0  0  0  0  0  0  0  0
    3.5260    1.2990    0.0000 O   0  0  0  0  0  0  0  0  0  0  0  0
    1.2760    0.0000    0.0000 N   0  0  0  0  0  0  0  0  0  0  0  0
    0.3943    1.2135    0.0000 C   0  0  0  0  0  0  0  0  0  0  0  0
   -1.0323    0.7500    0.0000 C   0  0  0  0  0  0  0  0  0  0  0  0
   -1.0323   -0.7500    0.0000 C   0  0  0  0  0  0  0  0  0  0  0  0
   -2.2458   -1.6317    0.0000 C   0  0  0  0  0  0  0  0  0  0  0  0
    0.3943   -1.2135    0.0000 C   0  0  0  0  0  0  0  0  0  0  0  0
  1  2  1  0
  2  3  2  0
  2  4  1  0
  4  5  2  0
  4  6  1  0
  6  7  1  0
  7  8  1  0
  8  9  1  0
  9 10  1  0
  9 11  1  0
 11  6  1  0
M  END
>  <Title>  (1089) 
idABOCgen7

$$$$

     RDKit          2D

 85 85  0  0  0  0  0  0  0  0999 V2000
   21.5582    0.0000    0.0000 C   0  0  0  0  0  0  0  0  0  0  0  0
   20.0582    0.0000    0.0000 C   0  0  0  0  0  0  0  0  0  0  0  0
   20.0021   -1.4990    0.0000 C   0  0  0  0  0  0  0  0  0  0  0  0
   19.8342   -2.9895    0.0000 C   0  0  0  0  0  0  0  0  0  0  0  0
   19.5553   -4.4634    0.0000 C   0  0  0  0  0  0  0  0  0  0  0  0
   19.1671   -5.9123    0.0000 C   0  0  0  0  0  0  0  0  0  0  0  0
   18.6717   -7.3281    0.0000 C   0  0  0  0  0  0  0  0  0  0  0  0
   18.0718   -8.7029    0.0000 C   0  0  0  0  0  0  0  0  0  0  0  0
   17.3709  -10.0291    0.0000 C   0  0  0  0  0  0  0  0  0  0  0  0
   16.5729  -11.2992    0.0000 C   0  0  0  0  0  0  0  0  0  0  0  0
   15.6821  -12.5061    0.0000 C   0  0  0  0  0  0  0  0  0  0  0  0
   14.7037  -13.6430    0.0000 C   0  0  0  0  0  0  0  0  0  0  0  0
   13.6430  -14.7037    0.0000 C   0  0  0  0  0  0  0  0  0  0  0  0
   12.5061  -15.6821    0.0000 C   0  0  0  0  0  0  0  0  0  0  0  0
   11.2992  -16.5729    0.0000 C   0  0  0  0  0  0  0  0  0  0  0  0
   10.0291  -17.3709    0.0000 C   0  0  0  0  0  0  0  0  0  0  0  0
    8.7029  -18.0718    0.0000 C   0  0  0  0  0  0  0  0  0  0  0  0
    7.3281  -18.6717    0.0000 C   0  0  0  0  0  0  0  0  0  0  0  0
    5.9123  -19.1671    0.0000 C   0  0  0  0  0  0  0  0  0  0  0  0
    4.4634  -19.5553    0.0000 C   0  0  0  0  0  0  0  0  0  0  0  0
    2.9895  -19.8342    0.0000 C   0  0  0  0  0  0  0  0  0  0  0  0
    1.4990  -20.0021    0.0000 C   0  0  0  0  0  0  0  0  0  0  0  0
   -0.0000  -20.0582    0.0000 C   0  0  0  0  0  0  0  0  0  0  0  0
   -1.4990  -20.0021    0.0000 C   0  0  0  0  0  0  0  0  0  0  0  0
   -2.9895  -19.8342    0.0000 C   0  0  0  0  0  0  0  0  0  0  0  0
   -4.4634  -19.5553    0.0000 C   0  0  0  0  0  0  0  0  0  0  0  0
   -5.9123  -19.1671    0.0000 C   0  0  0  0  0  0  0  0  0  0  0  0
   -7.3281  -18.6717    0.0000 C   0  0  0  0  0  0  0  0  0  0  0  0
   -8.7029  -18.0718    0.0000 C   0  0  0  0  0  0  0  0  0  0  0  0
  -10.0291  -17.3709    0.0000 C   0  0  0  0  0  0  0  0  0  0  0  0
  -11.2992  -16.5729    0.0000 C   0  0  0  0  0  0  0  0  0  0  0  0
  -12.5061  -15.6821    0.0000 C   0  0  0  0  0  0  0  0  0  0  0  0
  -13.6430  -14.7037    0.0000 C   0  0  0  0  0  0  0  0  0  0  0  0
  -14.7037  -13.6430    0.0000 C   0  0  0  0  0  0  0  0  0  0  0  0
  -15.6821  -12.5061    0.0000 C   0  0  0  0  0  0  0  0  0  0  0  0
  -16.5729  -11.2992    0.0000 C   0  0  0  0  0  0  0  0  0  0  0  0
  -17.3709  -10.0291    0.0000 C   0  0  0  0  0  0  0  0  0  0  0  0
  -18.0718   -8.7029    0.0000 C   0  0  0  0  0  0  0  0  0  0  0  0
  -18.6717   -7.3281    0.0000 C   0  0  0  0  0  0  0  0  0  0  0  0
  -19.1671   -5.9123    0.0000 C   0  0  0  0  0  0  0  0  0  0  0  0
  -19.5553   -4.4634    0.0000 C   0  0  0  0  0  0  0  0  0  0  0  0
  -19.8342   -2.9895    0.0000 C   0  0  0  0  0  0  0  0  0  0  0  0
  -20.0021   -1.4990    0.0000 C   0  0  0  0  0  0  0  0  0  0  0  0
  -20.0582    0.0000    0.0000 C   0  0  0  0  0  0  0  0  0  0  0  0
  -20.0021    1.4990    0.0000 C   0  0  0  0  0  0  0  0  0  0  0  0
  -19.8342    2.9895    0.0000 C   0  0  0  0  0  0  0  0  0  0  0  0
  -19.5553    4.4634    0.0000 C   0  0  0  0  0  0  0  0  0  0  0  0
  -19.1671    5.9123    0.0000 C   0  0  0  0  0  0  0  0  0  0  0  0
  -18.6717    7.3281    0.0000 C   0  0  0  0  0  0  0  0  0  0  0  0
  -18.0718    8.7029    0.0000 C   0  0  0  0  0  0  0  0  0  0  0  0
  -17.3709   10.0291    0.0000 C   0  0  0  0  0  0  0  0  0  0  0  0
  -16.5729   11.2992    0.0000 C   0  0  0  0  0  0  0  0  0  0  0  0
  -15.6821   12.5061    0.0000 C   0  0  0  0  0  0  0  0  0  0  0  0
  -14.7037   13.6430    0.0000 C   0  0  0  0  0  0  0  0  0  0  0  0
  -13.6430   14.7037    0.0000 C   0  0  0  0  0  0  0  0  0  0  0  0
  -12.5061   15.6821    0.0000 C   0  0  0  0  0  0  0  0  0  0  0  0
  -11.2992   16.5729    0.0000 C   0  0  0  0  0  0  0  0  0  0  0  0
  -10.0291   17.3709    0.0000 C   0  0  0  0  0  0  0  0  0  0  0  0
   -8.7029   18.0718    0.0000 C   0  0  0  0  0  0  0  0  0  0  0  0
   -7.3281   18.6717    0.0000 C   0  0  0  0  0  0  0  0  0  0  0  0
   -5.9123   19.1671    0.0000 C   0  0  0  0  0  0  0  0  0  0  0  0
   -4.4634   19.5553    0.0000 C   0  0  0  0  0  0  0  0  0  0  0  0
   -2.9895   19.8342    0.0000 C   0  0  0  0  0  0  0  0  0  0  0  0
   -1.4990   20.0021    0.0000 C   0  0  0  0  0  0  0  0  0  0  0  0
    0.0000   20.0582    0.0000 C   0  0  0  0  0  0  0  0  0  0  0  0
    1.4990   20.0021    0.0000 C   0  0  0  0  0  0  0  0  0  0  0  0
    2.9895   19.8342    0.0000 C   0  0  0  0  0  0  0  0  0  0  0  0
    4.4634   19.5553    0.0000 C   0  0  0  0  0  0  0  0  0  0  0  0
    5.9123   19.1671    0.0000 C   0  0  0  0  0  0  0  0  0  0  0  0
    7.3281   18.6717    0.0000 C   0  0  0  0  0  0  0  0  0  0  0  0
    8.7029   18.0718    0.0000 C   0  0  0  0  0  0  0  0  0  0  0  0
   10.0291   17.3709    0.0000 C   0  0  0  0  0  0  0  0  0  0  0  0
   11.2992   16.5729    0.0000 C   0  0  0  0  0  0  0  0  0  0  0  0
   12.5061   15.6821    0.0000 C   0  0  0  0  0  0  0  0  0  0  0  0
   13.6430   14.7037    0.0000 C   0  0  0  0  0  0  0  0  0  0  0  0
   14.7037   13.6430    0.0000 C   0  0  0  0  0  0  0  0  0  0  0  0
   15.6821   12.5061    0.0000 C   0  0  0  0  0  0  0  0  0  0  0  0
   16.5729   11.2992    0.0000 C   0  0  0  0  0  0  0  0  0  0  0  0
   17.3709   10.0291    0.0000 C   0  0  0  0  0  0  0  0  0  0  0  0
   18.0718    8.7029    0.0000 C   0  0  0  0  0  0  0  0  0  0  0  0
   18.6717    7.3281    0.0000 C   0  0  0  0  0  0  0  0  0  0  0  0
   19.1671    5.9123    0.0000 C   0  0  0  0  0  0  0  0  0  0  0  0
   19.5553    4.4634    0.0000 C   0  0  0  0  0  0  0  0  0  0  0  0
   19.8342    2.9895    0.0000 C   0  0  0  0  0  0  0  0  0  0  0  0
   20.0021    1.4990    0.0000 C   0  0  0  0  0  0  0  0  0  0  0  0
  1  2  1  0
  2  3  1  0
  3  4  1  0
  4  5  1  0
  5  6  1  0
  6  7  1  0
  7  8  1  0
  8  9  1  0
  9 10  1  0
 10 11  1  0
 11 12  1  0
 12 13  1  0
 13 14  1  0
 14 15  1  0
 15 16  1  0
 16 17  1  0
 17 18  1  0
 18 19  1  0
 19 20  1  0
 20 21  1  0
 21 22  1  0
 22 23  1  0
 23 24  1  0
 24 25  1  0
 25 26  1  0
 26 27  1  0
 27 28  1  0
 28 29  1  0
 29 30  1  0
 30 31  1  0
 31 32  1  0
 32 33  1  0
 33 34  1  0
 34 35  1  0
 35 36  1  0
 36 37  1  0
 37 38  1  0
 38 39  1  0
 39 40  1  0
 40 41  1  0
 41 42  1  0
 42 43  1  0
 43 44  1  0
 44 45  1  0
 45 46  1  0
 46 47  1  0
 47 48  1  0
 48 49  1  0
 49 50  1  0
 50 51  1  0
 51 52  1  0
 52 53  1  0
 53 54  1  0
 54 55  1  0
 55 56  1  0
 56 57  1  0
 57 58  1  0
 58 59  1  0
 59 60  1  0
 60 61  1  0
 61 62  1  0
 62 63  1  0
 63 64  1  0
 64 65  1  0
 65 66  1  0
 66 67  1  0
 67 68  1  0
 68 69  1  0
 69 70  1  0
 70 71  1  0
 71 72  1  0
 72 73  1  0
 73 74  1  0
 74 75  1  0
 75 76  1  0
 76 77  1  0
 77 78  1  0
 78 79  1  0
 79 80  1  0
 80 81  1  0
 81 82  1  0
 82 83  1  0
 83 84  1  0
 84 85  1  0
 85  2  1  0
M  END
>  <Title>  (1090) 
idABODgen7

$$$$

     RDKit          2D

 29 31  0  0  0  0  0  0  0  0999 V2000
   -3.0020   -0.6956    0.0000 C   0  0  0  0  0  0  0  0  0  0  0  0
   -2.1203   -1.9091    0.0000 C   0  0  0  0  0  0  0  0  0  0  0  0
   -3.1240   -3.0239    0.0000 C   0  0  0  0  0  0  0  0  0  0  0  0
   -3.5875   -4.4504    0.0000 C   0  0  0  0  0  0  0  0  0  0  0  0
   -3.4307   -5.9422    0.0000 C   0  0  0  0  0  0  0  0  0  0  0  0
   -2.6807   -7.2413    0.0000 C   0  0  0  0  0  0  0  0  0  0  0  0
   -1.4672   -8.1229    0.0000 C   0  0  0  0  0  0  0  0  0  0  0  0
   -0.0000   -8.4348    0.0000 C   0  0  0  0  0  0  0  0  0  0  0  0
    1.4672   -8.1229    0.0000 C   0  0  0  0  0  0  0  0  0  0  0  0
    2.6807   -7.2413    0.0000 C   0  0  0  0  0  0  0  0  0  0  0  0
    3.4307   -5.9422    0.0000 C   0  0  0  0  0  0  0  0  0  0  0  0
    3.5875   -4.4504    0.0000 C   0  0  0  0  0  0  0  0  0  0  0  0
    3.1240   -3.0239    0.0000 C   0  0  0  0  0  0  0  0  0  0  0  0
    2.1203   -1.9091    0.0000 C   0  0  0  0  0  0  0  0  0  0  0  0
    3.0020   -0.6956    0.0000 C   0  0  0  0  0  0  0  0  0  0  0  0
    2.3919    0.6747    0.0000 O   0  0  0  0  0  0  0  0  0  0  0  0
    4.4938   -0.8524    0.0000 N   0  0  0  0  0  0  0  0  0  0  0  0
    5.3755    0.3611    0.0000 C   0  0  0  0  0  0  0  0  0  0  0  0
    6.8672    0.2043    0.0000 N   0  0  0  0  0  0  0  0  0  0  0  0
    7.7489    1.4178    0.0000 N   0  0  0  0  0  0  0  0  0  0  0  0
    7.1388    2.7882    0.0000 N   0  0  0  0  0  0  0  0  0  0  0  0
    5.6470    2.9450    0.0000 N   0  0  0  0  0  0  0  0  0  0  0  0
    4.7654    1.7314    0.0000 N   0  0  0  0  0  0  0  0  0  0  0  0
    0.7500   -1.2990    0.0000 C   0  0  0  0  0  0  0  0  0  0  0  0
    1.5000    0.0000    0.0000 C   0  0  0  0  0  0  0  0  0  0  0  0
    0.7500    1.2990    0.0000 C   0  0  0  0  0  0  0  0  0  0  0  0
   -0.7500    1.2990    0.0000 C   0  0  0  0  0  0  0  0  0  0  0  0
   -1.5000    0.0000    0.0000 C   0  0  0  0  0  0  0  0  0  0  0  0
   -0.7500   -1.2990    0.0000 C   0  0  0  0  0  0  0  0  0  0  0  0
  1  2  1  0
  2  3  2  0
  3  4  1  0
  4  5  1  0
  5  6  1  0
  6  7  1  0
  7  8  1  0
  8  9  1  0
  9 10  1  0
 10 11  1  0
 11 12  1  0
 12 13  1  0
 13 14  1  0
 14 15  1  0
 15 16  2  0
 15 17  1  0
 17 18  1  0
 18 19  2  0
 19 20  1  0
 20 21  2  0
 21 22  1  0
 22 23  2  0
 14 24  1  0
 24 25  2  0
 25 26  1  0
 26 27  2  0
 27 28  1  0
 28 29  2  0
 29  2  1  0
 23 18  1  0
 29 24  1  0
M  END
>  <Title>  (1091) 
idABOEgen7

$$$$

     RDKit          2D

 82 82  0  0  0  0  0  0  0  0999 V2000
   20.8422    0.0000    0.0000 C   0  0  0  0  0  0  0  0  0  0  0  0
   19.3422    0.0000    0.0000 C   0  0  0  0  0  0  0  0  0  0  0  0
   19.2840    1.4989    0.0000 C   0  0  0  0  0  0  0  0  0  0  0  0
   19.1099    2.9887    0.0000 C   0  0  0  0  0  0  0  0  0  0  0  0
   18.8208    4.4606    0.0000 C   0  0  0  0  0  0  0  0  0  0  0  0
   18.4185    5.9057    0.0000 C   0  0  0  0  0  0  0  0  0  0  0  0
   17.9055    7.3152    0.0000 C   0  0  0  0  0  0  0  0  0  0  0  0
   17.2848    8.6808    0.0000 C   0  0  0  0  0  0  0  0  0  0  0  0
   16.5601    9.9941    0.0000 C   0  0  0  0  0  0  0  0  0  0  0  0
   15.7359   11.2473    0.0000 C   0  0  0  0  0  0  0  0  0  0  0  0
   14.8170   12.4329    0.0000 C   0  0  0  0  0  0  0  0  0  0  0  0
   13.8090   13.5437    0.0000 C   0  0  0  0  0  0  0  0  0  0  0  0
   12.7179   14.5731    0.0000 C   0  0  0  0  0  0  0  0  0  0  0  0
   11.5503   15.5148    0.0000 C   0  0  0  0  0  0  0  0  0  0  0  0
   10.3133   16.3632    0.0000 C   0  0  0  0  0  0  0  0  0  0  0  0
    9.0143   17.1132    0.0000 C   0  0  0  0  0  0  0  0  0  0  0  0
    7.6610   17.7603    0.0000 C   0  0  0  0  0  0  0  0  0  0  0  0
    6.2617   18.3006    0.0000 C   0  0  0  0  0  0  0  0  0  0  0  0
    4.8247   18.7308    0.0000 C   0  0  0  0  0  0  0  0  0  0  0  0
    3.3587   19.0483    0.0000 C   0  0  0  0  0  0  0  0  0  0  0  0
    1.8725   19.2513    0.0000 C   0  0  0  0  0  0  0  0  0  0  0  0
    0.3751   19.3385    0.0000 C   0  0  0  0  0  0  0  0  0  0  0  0
   -1.1246   19.3095    0.0000 C   0  0  0  0  0  0  0  0  0  0  0  0
   -2.6176   19.1642    0.0000 C   0  0  0  0  0  0  0  0  0  0  0  0
   -4.0948   18.9038    0.0000 C   0  0  0  0  0  0  0  0  0  0  0  0
   -5.5474   18.5296    0.0000 C   0  0  0  0  0  0  0  0  0  0  0  0
   -6.9666   18.0440    0.0000 C   0  0  0  0  0  0  0  0  0  0  0  0
   -8.3439   17.4499    0.0000 C   0  0  0  0  0  0  0  0  0  0  0  0
   -9.6711   16.7508    0.0000 C   0  0  0  0  0  0  0  0  0  0  0  0
  -10.9401   15.9510    0.0000 C   0  0  0  0  0  0  0  0  0  0  0  0
  -12.1433   15.0553    0.0000 C   0  0  0  0  0  0  0  0  0  0  0  0
  -13.2734   14.0690    0.0000 C   0  0  0  0  0  0  0  0  0  0  0  0
  -14.3237   12.9981    0.0000 C   0  0  0  0  0  0  0  0  0  0  0  0
  -15.2879   11.8490    0.0000 C   0  0  0  0  0  0  0  0  0  0  0  0
  -16.1602   10.6287    0.0000 C   0  0  0  0  0  0  0  0  0  0  0  0
  -16.9352    9.3444    0.0000 C   0  0  0  0  0  0  0  0  0  0  0  0
  -17.6084    8.0040    0.0000 C   0  0  0  0  0  0  0  0  0  0  0  0
  -18.1757    6.6154    0.0000 C   0  0  0  0  0  0  0  0  0  0  0  0
  -18.6337    5.1870    0.0000 C   0  0  0  0  0  0  0  0  0  0  0  0
  -18.9796    3.7275    0.0000 C   0  0  0  0  0  0  0  0  0  0  0  0
  -19.2114    2.2455    0.0000 C   0  0  0  0  0  0  0  0  0  0  0  0
  -19.3276    0.7500    0.0000 C   0  0  0  0  0  0  0  0  0  0  0  0
  -19.3276   -0.7500    0.0000 C   0  0  0  0  0  0  0  0  0  0  0  0
  -19.2114   -2.2455    0.0000 C   0  0  0  0  0  0  0  0  0  0  0  0
  -18.9796   -3.7275    0.0000 C   0  0  0  0  0  0  0  0  0  0  0  0
  -18.6337   -5.1870    0.0000 C   0  0  0  0  0  0  0  0  0  0  0  0
  -18.1757   -6.6154    0.0000 C   0  0  0  0  0  0  0  0  0  0  0  0
  -17.6084   -8.0040    0.0000 C   0  0  0  0  0  0  0  0  0  0  0  0
  -16.9352   -9.3444    0.0000 C   0  0  0  0  0  0  0  0  0  0  0  0
  -16.1602  -10.6287    0.0000 C   0  0  0  0  0  0  0  0  0  0  0  0
  -15.2879  -11.8490    0.0000 C   0  0  0  0  0  0  0  0  0  0  0  0
  -14.3237  -12.9981    0.0000 C   0  0  0  0  0  0  0  0  0  0  0  0
  -13.2734  -14.0690    0.0000 C   0  0  0  0  0  0  0  0  0  0  0  0
  -12.1433  -15.0553    0.0000 C   0  0  0  0  0  0  0  0  0  0  0  0
  -10.9401  -15.9510    0.0000 C   0  0  0  0  0  0  0  0  0  0  0  0
   -9.6711  -16.7508    0.0000 C   0  0  0  0  0  0  0  0  0  0  0  0
   -8.3439  -17.4499    0.0000 C   0  0  0  0  0  0  0  0  0  0  0  0
   -6.9666  -18.0440    0.0000 C   0  0  0  0  0  0  0  0  0  0  0  0
   -5.5474  -18.5296    0.0000 C   0  0  0  0  0  0  0  0  0  0  0  0
   -4.0948  -18.9038    0.0000 C   0  0  0  0  0  0  0  0  0  0  0  0
   -2.6176  -19.1642    0.0000 C   0  0  0  0  0  0  0  0  0  0  0  0
   -1.1246  -19.3095    0.0000 C   0  0  0  0  0  0  0  0  0  0  0  0
    0.3751  -19.3385    0.0000 C   0  0  0  0  0  0  0  0  0  0  0  0
    1.8725  -19.2513    0.0000 C   0  0  0  0  0  0  0  0  0  0  0  0
    3.3587  -19.0483    0.0000 C   0  0  0  0  0  0  0  0  0  0  0  0
    4.8247  -18.7308    0.0000 C   0  0  0  0  0  0  0  0  0  0  0  0
    6.2617  -18.3006    0.0000 C   0  0  0  0  0  0  0  0  0  0  0  0
    7.6610  -17.7603    0.0000 C   0  0  0  0  0  0  0  0  0  0  0  0
    9.0143  -17.1132    0.0000 C   0  0  0  0  0  0  0  0  0  0  0  0
   10.3133  -16.3632    0.0000 C   0  0  0  0  0  0  0  0  0  0  0  0
   11.5503  -15.5148    0.0000 C   0  0  0  0  0  0  0  0  0  0  0  0
   12.7179  -14.5731    0.0000 C   0  0  0  0  0  0  0  0  0  0  0  0
   13.8090  -13.5437    0.0000 C   0  0  0  0  0  0  0  0  0  0  0  0
   14.8170  -12.4329    0.0000 C   0  0  0  0  0  0  0  0  0  0  0  0
   15.7359  -11.2473    0.0000 C   0  0  0  0  0  0  0  0  0  0  0  0
   16.5601   -9.9941    0.0000 C   0  0  0  0  0  0  0  0  0  0  0  0
   17.2848   -8.6808    0.0000 C   0  0  0  0  0  0  0  0  0  0  0  0
   17.9055   -7.3152    0.0000 C   0  0  0  0  0  0  0  0  0  0  0  0
   18.4185   -5.9057    0.0000 C   0  0  0  0  0  0  0  0  0  0  0  0
   18.8208   -4.4606    0.0000 C   0  0  0  0  0  0  0  0  0  0  0  0
   19.1099   -2.9887    0.0000 C   0  0  0  0  0  0  0  0  0  0  0  0
   19.2840   -1.4989    0.0000 C   0  0  0  0  0  0  0  0  0  0  0  0
  1  2  1  0
  2  3  1  0
  3  4  2  0
  4  5  1  0
  5  6  1  0
  6  7  1  0
  7  8  1  0
  8  9  1  0
  9 10  1  0
 10 11  1  0
 11 12  1  0
 12 13  1  0
 13 14  1  0
 14 15  1  0
 15 16  1  0
 16 17  1  0
 17 18  1  0
 18 19  1  0
 19 20  1  0
 20 21  1  0
 21 22  1  0
 22 23  1  0
 23 24  1  0
 24 25  1  0
 25 26  1  0
 26 27  1  0
 27 28  1  0
 28 29  1  0
 29 30  1  0
 30 31  1  0
 31 32  1  0
 32 33  1  0
 33 34  1  0
 34 35  1  0
 35 36  1  0
 36 37  1  0
 37 38  1  0
 38 39  1  0
 39 40  1  0
 40 41  1  0
 41 42  1  0
 42 43  1  0
 43 44  1  0
 44 45  1  0
 45 46  1  0
 46 47  1  0
 47 48  1  0
 48 49  1  0
 49 50  1  0
 50 51  1  0
 51 52  1  0
 52 53  1  0
 53 54  1  0
 54 55  1  0
 55 56  1  0
 56 57  1  0
 57 58  1  0
 58 59  1  0
 59 60  1  0
 60 61  1  0
 61 62  1  0
 62 63  1  0
 63 64  1  0
 64 65  1  0
 65 66  1  0
 66 67  1  0
 67 68  1  0
 68 69  1  0
 69 70  1  0
 70 71  1  0
 71 72  1  0
 72 73  1  0
 73 74  1  0
 74 75  1  0
 75 76  1  0
 76 77  1  0
 77 78  1  0
 78 79  1  0
 79 80  1  0
 80 81  1  0
 81 82  1  0
 82  2  1  0
M  END
>  <Title>  (1092) 
idABOFgen7

$$$$

     RDKit          2D

 57 59  0  0  0  0  0  0  0  0999 V2000
   -2.5742   -0.0675    0.0000 C   0  0  0  0  0  0  0  0  0  0  0  0
   -2.2324   -1.5280    0.0000 C   0  0  0  0  0  0  0  0  0  0  0  0
   -3.6625   -1.9806    0.0000 C   0  0  0  0  0  0  0  0  0  0  0  0
   -5.0068   -2.6462    0.0000 C   0  0  0  0  0  0  0  0  0  0  0  0
   -6.2337   -3.5092    0.0000 C   0  0  0  0  0  0  0  0  0  0  0  0
   -7.3144   -4.5493    0.0000 C   0  0  0  0  0  0  0  0  0  0  0  0
   -8.2238   -5.7422    0.0000 C   0  0  0  0  0  0  0  0  0  0  0  0
   -8.9404   -7.0600    0.0000 C   0  0  0  0  0  0  0  0  0  0  0  0
   -9.4474   -8.4717    0.0000 C   0  0  0  0  0  0  0  0  0  0  0  0
   -9.7330   -9.9443    0.0000 C   0  0  0  0  0  0  0  0  0  0  0  0
   -9.7904  -11.4432    0.0000 C   0  0  0  0  0  0  0  0  0  0  0  0
   -9.6184  -12.9333    0.0000 C   0  0  0  0  0  0  0  0  0  0  0  0
   -9.2209  -14.3797    0.0000 C   0  0  0  0  0  0  0  0  0  0  0  0
   -8.6073  -15.7484    0.0000 C   0  0  0  0  0  0  0  0  0  0  0  0
   -7.7920  -17.0075    0.0000 C   0  0  0  0  0  0  0  0  0  0  0  0
   -6.7940  -18.1273    0.0000 C   0  0  0  0  0  0  0  0  0  0  0  0
   -5.6367  -19.0817    0.0000 C   0  0  0  0  0  0  0  0  0  0  0  0
   -4.3474  -19.8482    0.0000 C   0  0  0  0  0  0  0  0  0  0  0  0
   -2.9561  -20.4089    0.0000 C   0  0  0  0  0  0  0  0  0  0  0  0
   -1.4956  -20.7507    0.0000 C   0  0  0  0  0  0  0  0  0  0  0  0
   -0.0000  -20.8655    0.0000 C   0  0  0  0  0  0  0  0  0  0  0  0
    1.4956  -20.7507    0.0000 C   0  0  0  0  0  0  0  0  0  0  0  0
    2.9561  -20.4089    0.0000 C   0  0  0  0  0  0  0  0  0  0  0  0
    4.3474  -19.8482    0.0000 C   0  0  0  0  0  0  0  0  0  0  0  0
    5.6367  -19.0817    0.0000 C   0  0  0  0  0  0  0  0  0  0  0  0
    6.7940  -18.1273    0.0000 C   0  0  0  0  0  0  0  0  0  0  0  0
    7.7920  -17.0075    0.0000 C   0  0  0  0  0  0  0  0  0  0  0  0
    8.6073  -15.7484    0.0000 C   0  0  0  0  0  0  0  0  0  0  0  0
    9.2209  -14.3797    0.0000 C   0  0  0  0  0  0  0  0  0  0  0  0
    9.6184  -12.9333    0.0000 C   0  0  0  0  0  0  0  0  0  0  0  0
    9.7904  -11.4432    0.0000 C   0  0  0  0  0  0  0  0  0  0  0  0
    9.7330   -9.9443    0.0000 C   0  0  0  0  0  0  0  0  0  0  0  0
    9.4474   -8.4717    0.0000 C   0  0  0  0  0  0  0  0  0  0  0  0
    8.9404   -7.0600    0.0000 C   0  0  0  0  0  0  0  0  0  0  0  0
    8.2238   -5.7422    0.0000 C   0  0  0  0  0  0  0  0  0  0  0  0
    7.3144   -4.5493    0.0000 C   0  0  0  0  0  0  0  0  0  0  0  0
    6.2337   -3.5092    0.0000 C   0  0  0  0  0  0  0  0  0  0  0  0
    5.0068   -2.6462    0.0000 C   0  0  0  0  0  0  0  0  0  0  0  0
    3.6625   -1.9806    0.0000 C   0  0  0  0  0  0  0  0  0  0  0  0
    2.2324   -1.5280    0.0000 C   0  0  0  0  0  0  0  0  0  0  0  0
    2.5742   -0.0675    0.0000 C   0  0  0  0  0  0  0  0  0  0  0  0
    4.0100    0.3668    0.0000 C   0  0  0  0  0  0  0  0  0  0  0  0
    4.3517    1.8274    0.0000 C   0  0  0  0  0  0  0  0  0  0  0  0
    3.2578    2.8536    0.0000 O   0  0  0  0  0  0  0  0  0  0  0  0
    5.7875    2.2616    0.0000 N   0  0  0  0  0  0  0  0  0  0  0  0
    6.1293    3.7222    0.0000 C   0  0  0  0  0  0  0  0  0  0  0  0
    7.5650    4.1565    0.0000 N   0  0  0  0  0  0  0  0  0  0  0  0
    7.9068    5.6170    0.0000 N   0  0  0  0  0  0  0  0  0  0  0  0
    6.8128    6.6433    0.0000 N   0  0  0  0  0  0  0  0  0  0  0  0
    5.3771    6.2090    0.0000 N   0  0  0  0  0  0  0  0  0  0  0  0
    5.0353    4.7484    0.0000 N   0  0  0  0  0  0  0  0  0  0  0  0
    0.7500   -1.2990    0.0000 C   0  0  0  0  0  0  0  0  0  0  0  0
    1.5000    0.0000    0.0000 C   0  0  0  0  0  0  0  0  0  0  0  0
    0.7500    1.2990    0.0000 C   0  0  0  0  0  0  0  0  0  0  0  0
   -0.7500    1.2990    0.0000 C   0  0  0  0  0  0  0  0  0  0  0  0
   -1.5000    0.0000    0.0000 C   0  0  0  0  0  0  0  0  0  0  0  0
   -0.7500   -1.2990    0.0000 C   0  0  0  0  0  0  0  0  0  0  0  0
  1  2  1  0
  2  3  1  0
  3  4  1  0
  4  5  1  0
  5  6  1  0
  6  7  1  0
  7  8  1  0
  8  9  1  0
  9 10  1  0
 10 11  1  0
 11 12  1  0
 12 13  1  0
 13 14  1  0
 14 15  1  0
 15 16  1  0
 16 17  1  0
 17 18  1  0
 18 19  1  0
 19 20  1  0
 20 21  1  0
 21 22  1  0
 22 23  1  0
 23 24  1  0
 24 25  1  0
 25 26  1  0
 26 27  1  0
 27 28  1  0
 28 29  1  0
 29 30  1  0
 30 31  1  0
 31 32  1  0
 32 33  1  0
 33 34  1  0
 34 35  1  0
 35 36  1  0
 36 37  1  0
 37 38  1  0
 38 39  1  0
 39 40  1  0
 40 41  1  0
 41 42  1  0
 42 43  1  0
 43 44  2  0
 43 45  1  0
 45 46  1  0
 46 47  2  0
 47 48  1  0
 48 49  2  0
 49 50  1  0
 50 51  2  0
 40 52  1  0
 52 53  2  0
 53 54  1  0
 54 55  2  0
 55 56  1  0
 56 57  2  0
 57  2  1  0
 51 46  1  0
 57 52  1  0
M  END
>  <Title>  (1093) 
idABOGgen7

$$$$

     RDKit          2D

 21 21  0  0  0  0  0  0  0  0999 V2000
    6.2943    0.0000    0.0000 C   0  0  0  0  0  0  0  0  0  0  0  0
    4.7943    0.0000    0.0000 C   0  0  0  0  0  0  0  0  0  0  0  0
    4.5597   -1.4815    0.0000 C   0  0  0  0  0  0  0  0  0  0  0  0
    3.8787   -2.8180    0.0000 C   0  0  0  0  0  0  0  0  0  0  0  0
    2.8180   -3.8787    0.0000 C   0  0  0  0  0  0  0  0  0  0  0  0
    1.4815   -4.5597    0.0000 C   0  0  0  0  0  0  0  0  0  0  0  0
   -0.0000   -4.7943    0.0000 C   0  0  0  0  0  0  0  0  0  0  0  0
   -1.4815   -4.5597    0.0000 C   0  0  0  0  0  0  0  0  0  0  0  0
   -2.8180   -3.8787    0.0000 C   0  0  0  0  0  0  0  0  0  0  0  0
   -3.8787   -2.8180    0.0000 C   0  0  0  0  0  0  0  0  0  0  0  0
   -4.5597   -1.4815    0.0000 C   0  0  0  0  0  0  0  0  0  0  0  0
   -4.7943    0.0000    0.0000 C   0  0  0  0  0  0  0  0  0  0  0  0
   -4.5597    1.4815    0.0000 C   0  0  0  0  0  0  0  0  0  0  0  0
   -3.8787    2.8180    0.0000 C   0  0  0  0  0  0  0  0  0  0  0  0
   -2.8180    3.8787    0.0000 C   0  0  0  0  0  0  0  0  0  0  0  0
   -1.4815    4.5597    0.0000 C   0  0  0  0  0  0  0  0  0  0  0  0
    0.0000    4.7943    0.0000 C   0  0  0  0  0  0  0  0  0  0  0  0
    1.4815    4.5597    0.0000 C   0  0  0  0  0  0  0  0  0  0  0  0
    2.8180    3.8787    0.0000 C   0  0  0  0  0  0  0  0  0  0  0  0
    3.8787    2.8180    0.0000 C   0  0  0  0  0  0  0  0  0  0  0  0
    4.5597    1.4815    0.0000 C   0  0  0  0  0  0  0  0  0  0  0  0
  1  2  1  0
  2  3  1  0
  3  4  1  0
  4  5  1  0
  5  6  1  0
  6  7  1  0
  7  8  2  0
  8  9  1  0
  9 10  1  0
 10 11  1  0
 11 12  1  0
 12 13  1  0
 13 14  1  0
 14 15  1  0
 15 16  1  0
 16 17  1  0
 17 18  1  0
 18 19  1  0
 19 20  1  0
 20 21  1  0
 21  2  1  0
M  END
>  <Title>  (1094) 
idABOHgen7

$$$$

     RDKit          2D

 33 33  0  0  0  0  0  0  0  0999 V2000
    9.1517    0.0000    0.0000 C   0  0  0  0  0  0  0  0  0  0  0  0
    7.6517    0.0000    0.0000 C   0  0  0  0  0  0  0  0  0  0  0  0
    7.5047   -1.4928    0.0000 C   0  0  0  0  0  0  0  0  0  0  0  0
    7.0693   -2.9282    0.0000 C   0  0  0  0  0  0  0  0  0  0  0  0
    6.3622   -4.2511    0.0000 C   0  0  0  0  0  0  0  0  0  0  0  0
    5.4106   -5.4106    0.0000 C   0  0  0  0  0  0  0  0  0  0  0  0
    4.2511   -6.3622    0.0000 C   0  0  0  0  0  0  0  0  0  0  0  0
    2.9282   -7.0693    0.0000 C   0  0  0  0  0  0  0  0  0  0  0  0
    1.4928   -7.5047    0.0000 C   0  0  0  0  0  0  0  0  0  0  0  0
   -0.0000   -7.6517    0.0000 C   0  0  0  0  0  0  0  0  0  0  0  0
   -1.4928   -7.5047    0.0000 C   0  0  0  0  0  0  0  0  0  0  0  0
   -2.9282   -7.0693    0.0000 C   0  0  0  0  0  0  0  0  0  0  0  0
   -4.2511   -6.3622    0.0000 C   0  0  0  0  0  0  0  0  0  0  0  0
   -5.4106   -5.4106    0.0000 C   0  0  0  0  0  0  0  0  0  0  0  0
   -6.3622   -4.2511    0.0000 C   0  0  0  0  0  0  0  0  0  0  0  0
   -7.0693   -2.9282    0.0000 C   0  0  0  0  0  0  0  0  0  0  0  0
   -7.5047   -1.4928    0.0000 C   0  0  0  0  0  0  0  0  0  0  0  0
   -7.6517    0.0000    0.0000 C   0  0  0  0  0  0  0  0  0  0  0  0
   -7.5047    1.4928    0.0000 C   0  0  0  0  0  0  0  0  0  0  0  0
   -7.0693    2.9282    0.0000 C   0  0  0  0  0  0  0  0  0  0  0  0
   -6.3622    4.2511    0.0000 C   0  0  0  0  0  0  0  0  0  0  0  0
   -5.4106    5.4106    0.0000 C   0  0  0  0  0  0  0  0  0  0  0  0
   -4.2511    6.3622    0.0000 C   0  0  0  0  0  0  0  0  0  0  0  0
   -2.9282    7.0693    0.0000 C   0  0  0  0  0  0  0  0  0  0  0  0
   -1.4928    7.5047    0.0000 C   0  0  0  0  0  0  0  0  0  0  0  0
    0.0000    7.6517    0.0000 C   0  0  0  0  0  0  0  0  0  0  0  0
    1.4928    7.5047    0.0000 C   0  0  0  0  0  0  0  0  0  0  0  0
    2.9282    7.0693    0.0000 C   0  0  0  0  0  0  0  0  0  0  0  0
    4.2511    6.3622    0.0000 C   0  0  0  0  0  0  0  0  0  0  0  0
    5.4106    5.4106    0.0000 C   0  0  0  0  0  0  0  0  0  0  0  0
    6.3622    4.2511    0.0000 C   0  0  0  0  0  0  0  0  0  0  0  0
    7.0693    2.9282    0.0000 C   0  0  0  0  0  0  0  0  0  0  0  0
    7.5047    1.4928    0.0000 C   0  0  0  0  0  0  0  0  0  0  0  0
  1  2  1  0
  2  3  1  0
  3  4  1  0
  4  5  1  0
  5  6  1  0
  6  7  1  0
  7  8  1  0
  8  9  1  0
  9 10  1  0
 10 11  1  0
 11 12  1  0
 12 13  1  0
 13 14  1  0
 14 15  1  0
 15 16  1  0
 16 17  1  0
 17 18  1  0
 18 19  1  0
 19 20  1  0
 20 21  1  0
 21 22  1  0
 22 23  1  0
 23 24  1  0
 24 25  1  0
 25 26  1  0
 26 27  1  0
 27 28  1  0
 28 29  1  0
 29 30  1  0
 30 31  1  0
 31 32  1  0
 32 33  1  0
 33  2  1  0
M  END
>  <Title>  (1095) 
idABOIgen7

$$$$

     RDKit          2D

 33 37  0  0  0  0  0  0  0  0999 V2000
   -0.0000   -8.0154    0.0000 C   0  0  0  0  0  0  0  0  0  0  0  0
   -0.0000   -6.5154    0.0000 C   0  0  0  0  0  0  0  0  0  0  0  0
    1.4392   -6.0928    0.0000 C   0  0  0  0  0  0  0  0  0  0  0  0
    2.4215   -4.9592    0.0000 C   0  0  0  0  0  0  0  0  0  0  0  0
    2.6350   -3.4744    0.0000 C   0  0  0  0  0  0  0  0  0  0  0  0
    2.0119   -2.1100    0.0000 C   0  0  0  0  0  0  0  0  0  0  0  0
    3.1455   -1.1277    0.0000 C   0  0  0  0  0  0  0  0  0  0  0  0
    2.8616    0.3452    0.0000 O   0  0  0  0  0  0  0  0  0  0  0  0
    4.5630   -1.6183    0.0000 O   0  0  0  0  0  0  0  0  0  0  0  0
    5.6966   -0.6360    0.0000 C   0  0  0  0  0  0  0  0  0  0  0  0
    7.1141   -1.1266    0.0000 N   0  0  0  0  0  0  0  0  0  0  0  0
    8.2478   -0.1443    0.0000 N   0  0  0  0  0  0  0  0  0  0  0  0
    7.9639    1.3286    0.0000 N   0  0  0  0  0  0  0  0  0  0  0  0
    6.5464    1.8192    0.0000 N   0  0  0  0  0  0  0  0  0  0  0  0
    5.4128    0.8369    0.0000 N   0  0  0  0  0  0  0  0  0  0  0  0
    0.7500   -1.2990    0.0000 C   0  0  0  0  0  0  0  0  0  0  0  0
    1.5000    0.0000    0.0000 C   0  0  0  0  0  0  0  0  0  0  0  0
    0.7500    1.2990    0.0000 C   0  0  0  0  0  0  0  0  0  0  0  0
   -0.7500    1.2990    0.0000 C   0  0  0  0  0  0  0  0  0  0  0  0
   -1.5000    0.0000    0.0000 C   0  0  0  0  0  0  0  0  0  0  0  0
   -0.7500   -1.2990    0.0000 C   0  0  0  0  0  0  0  0  0  0  0  0
   -2.0119   -2.1100    0.0000 C   0  0  0  0  0  0  0  0  0  0  0  0
   -2.8820   -0.8881    0.0000 C   0  0  0  0  0  0  0  0  0  0  0  0
   -4.3752   -1.0307    0.0000 C   0  0  0  0  0  0  0  0  0  0  0  0
   -4.9983   -2.3952    0.0000 C   0  0  0  0  0  0  0  0  0  0  0  0
   -4.1282   -3.6170    0.0000 C   0  0  0  0  0  0  0  0  0  0  0  0
   -2.6350   -3.4744    0.0000 C   0  0  0  0  0  0  0  0  0  0  0  0
   -2.4215   -4.9592    0.0000 C   0  0  0  0  0  0  0  0  0  0  0  0
   -3.8944   -5.2431    0.0000 C   0  0  0  0  0  0  0  0  0  0  0  0
   -4.3850   -6.6606    0.0000 C   0  0  0  0  0  0  0  0  0  0  0  0
   -3.4027   -7.7942    0.0000 C   0  0  0  0  0  0  0  0  0  0  0  0
   -1.9298   -7.5103    0.0000 C   0  0  0  0  0  0  0  0  0  0  0  0
   -1.4392   -6.0928    0.0000 C   0  0  0  0  0  0  0  0  0  0  0  0
  1  2  1  0
  2  3  2  0
  3  4  1  0
  4  5  1  0
  5  6  1  0
  6  7  1  0
  7  8  2  0
  7  9  1  0
  9 10  1  0
 10 11  2  0
 11 12  1  0
 12 13  2  0
 13 14  1  0
 14 15  2  0
  6 16  1  0
 16 17  2  0
 17 18  1  0
 18 19  2  0
 19 20  1  0
 20 21  2  0
 21 22  1  0
 22 23  2  0
 23 24  1  0
 24 25  2  0
 25 26  1  0
 26 27  2  0
 27 28  1  0
 28 29  2  0
 29 30  1  0
 30 31  2  0
 31 32  1  0
 32 33  2  0
 33  2  1  0
 15 10  1  0
 21 16  1  0
 27 22  1  0
 33 28  1  0
M  END
>  <Title>  (1096) 
idABOJgen7

$$$$

     RDKit          2D

 66 66  0  0  0  0  0  0  0  0999 V2000
   15.7623    0.0000    0.0000 C   0  0  0  0  0  0  0  0  0  0  0  0
   15.6909   -1.4983    0.0000 C   0  0  0  0  0  0  0  0  0  0  0  0
   15.4774   -2.9830    0.0000 C   0  0  0  0  0  0  0  0  0  0  0  0
   15.1238   -4.4408    0.0000 C   0  0  0  0  0  0  0  0  0  0  0  0
   14.6332   -5.8583    0.0000 C   0  0  0  0  0  0  0  0  0  0  0  0
   14.0101   -7.2227    0.0000 C   0  0  0  0  0  0  0  0  0  0  0  0
   13.2601   -8.5217    0.0000 C   0  0  0  0  0  0  0  0  0  0  0  0
   12.3900   -9.7436    0.0000 C   0  0  0  0  0  0  0  0  0  0  0  0
   11.4077  -10.8772    0.0000 C   0  0  0  0  0  0  0  0  0  0  0  0
   10.3221  -11.9123    0.0000 C   0  0  0  0  0  0  0  0  0  0  0  0
    9.1430  -12.8396    0.0000 C   0  0  0  0  0  0  0  0  0  0  0  0
    7.8811  -13.6505    0.0000 C   0  0  0  0  0  0  0  0  0  0  0  0
    6.5479  -14.3379    0.0000 C   0  0  0  0  0  0  0  0  0  0  0  0
    5.1553  -14.8954    0.0000 C   0  0  0  0  0  0  0  0  0  0  0  0
    3.7161  -15.3180    0.0000 C   0  0  0  0  0  0  0  0  0  0  0  0
    2.2432  -15.6019    0.0000 C   0  0  0  0  0  0  0  0  0  0  0  0
    0.7500  -15.7444    0.0000 C   0  0  0  0  0  0  0  0  0  0  0  0
   -0.7500  -15.7444    0.0000 C   0  0  0  0  0  0  0  0  0  0  0  0
   -2.2432  -15.6019    0.0000 C   0  0  0  0  0  0  0  0  0  0  0  0
   -3.7161  -15.3180    0.0000 C   0  0  0  0  0  0  0  0  0  0  0  0
   -5.1553  -14.8954    0.0000 C   0  0  0  0  0  0  0  0  0  0  0  0
   -6.5479  -14.3379    0.0000 C   0  0  0  0  0  0  0  0  0  0  0  0
   -7.8811  -13.6505    0.0000 C   0  0  0  0  0  0  0  0  0  0  0  0
   -9.1430  -12.8396    0.0000 C   0  0  0  0  0  0  0  0  0  0  0  0
  -10.3221  -11.9123    0.0000 C   0  0  0  0  0  0  0  0  0  0  0  0
  -11.4077  -10.8772    0.0000 C   0  0  0  0  0  0  0  0  0  0  0  0
  -12.3900   -9.7436    0.0000 C   0  0  0  0  0  0  0  0  0  0  0  0
  -13.2601   -8.5217    0.0000 C   0  0  0  0  0  0  0  0  0  0  0  0
  -14.0101   -7.2227    0.0000 C   0  0  0  0  0  0  0  0  0  0  0  0
  -14.6332   -5.8583    0.0000 C   0  0  0  0  0  0  0  0  0  0  0  0
  -15.1238   -4.4408    0.0000 C   0  0  0  0  0  0  0  0  0  0  0  0
  -15.4774   -2.9830    0.0000 C   0  0  0  0  0  0  0  0  0  0  0  0
  -15.6909   -1.4983    0.0000 C   0  0  0  0  0  0  0  0  0  0  0  0
  -15.7623    0.0000    0.0000 C   0  0  0  0  0  0  0  0  0  0  0  0
  -15.6909    1.4983    0.0000 C   0  0  0  0  0  0  0  0  0  0  0  0
  -15.4774    2.9830    0.0000 C   0  0  0  0  0  0  0  0  0  0  0  0
  -15.1238    4.4408    0.0000 C   0  0  0  0  0  0  0  0  0  0  0  0
  -14.6332    5.8583    0.0000 C   0  0  0  0  0  0  0  0  0  0  0  0
  -14.0101    7.2227    0.0000 C   0  0  0  0  0  0  0  0  0  0  0  0
  -13.2601    8.5217    0.0000 C   0  0  0  0  0  0  0  0  0  0  0  0
  -12.3900    9.7436    0.0000 C   0  0  0  0  0  0  0  0  0  0  0  0
  -11.4077   10.8772    0.0000 C   0  0  0  0  0  0  0  0  0  0  0  0
  -10.3221   11.9123    0.0000 C   0  0  0  0  0  0  0  0  0  0  0  0
   -9.1430   12.8396    0.0000 C   0  0  0  0  0  0  0  0  0  0  0  0
   -7.8811   13.6505    0.0000 C   0  0  0  0  0  0  0  0  0  0  0  0
   -6.5479   14.3379    0.0000 C   0  0  0  0  0  0  0  0  0  0  0  0
   -5.1553   14.8954    0.0000 C   0  0  0  0  0  0  0  0  0  0  0  0
   -3.7161   15.3180    0.0000 C   0  0  0  0  0  0  0  0  0  0  0  0
   -2.2432   15.6019    0.0000 C   0  0  0  0  0  0  0  0  0  0  0  0
   -0.7500   15.7444    0.0000 C   0  0  0  0  0  0  0  0  0  0  0  0
    0.7500   15.7444    0.0000 C   0  0  0  0  0  0  0  0  0  0  0  0
    2.2432   15.6019    0.0000 C   0  0  0  0  0  0  0  0  0  0  0  0
    3.7161   15.3180    0.0000 C   0  0  0  0  0  0  0  0  0  0  0  0
    5.1553   14.8954    0.0000 C   0  0  0  0  0  0  0  0  0  0  0  0
    6.5479   14.3379    0.0000 C   0  0  0  0  0  0  0  0  0  0  0  0
    7.8811   13.6505    0.0000 C   0  0  0  0  0  0  0  0  0  0  0  0
    9.1430   12.8396    0.0000 C   0  0  0  0  0  0  0  0  0  0  0  0
   10.3221   11.9123    0.0000 C   0  0  0  0  0  0  0  0  0  0  0  0
   11.4077   10.8772    0.0000 C   0  0  0  0  0  0  0  0  0  0  0  0
   12.3900    9.7436    0.0000 C   0  0  0  0  0  0  0  0  0  0  0  0
   13.2601    8.5217    0.0000 C   0  0  0  0  0  0  0  0  0  0  0  0
   14.0101    7.2227    0.0000 C   0  0  0  0  0  0  0  0  0  0  0  0
   14.6332    5.8583    0.0000 C   0  0  0  0  0  0  0  0  0  0  0  0
   15.1238    4.4408    0.0000 C   0  0  0  0  0  0  0  0  0  0  0  0
   15.4774    2.9830    0.0000 C   0  0  0  0  0  0  0  0  0  0  0  0
   15.6909    1.4983    0.0000 C   0  0  0  0  0  0  0  0  0  0  0  0
  1  2  2  0
  2  3  1  0
  3  4  1  0
  4  5  1  0
  5  6  1  0
  6  7  1  0
  7  8  1  0
  8  9  1  0
  9 10  1  0
 10 11  1  0
 11 12  1  0
 12 13  1  0
 13 14  1  0
 14 15  1  0
 15 16  1  0
 16 17  1  0
 17 18  1  0
 18 19  1  0
 19 20  1  0
 20 21  1  0
 21 22  1  0
 22 23  1  0
 23 24  1  0
 24 25  1  0
 25 26  1  0
 26 27  1  0
 27 28  1  0
 28 29  1  0
 29 30  1  0
 30 31  1  0
 31 32  1  0
 32 33  1  0
 33 34  1  0
 34 35  1  0
 35 36  1  0
 36 37  1  0
 37 38  1  0
 38 39  1  0
 39 40  1  0
 40 41  1  0
 41 42  1  0
 42 43  1  0
 43 44  1  0
 44 45  1  0
 45 46  1  0
 46 47  1  0
 47 48  1  0
 48 49  1  0
 49 50  1  0
 50 51  1  0
 51 52  1  0
 52 53  1  0
 53 54  1  0
 54 55  1  0
 55 56  1  0
 56 57  1  0
 57 58  1  0
 58 59  1  0
 59 60  1  0
 60 61  1  0
 61 62  1  0
 62 63  1  0
 63 64  1  0
 64 65  1  0
 65 66  1  0
 66  1  1  0
M  END
>  <Title>  (1097) 
idABOKgen7

$$$$

     RDKit          2D

123123  0  0  0  0  0  0  0  0999 V2000
   30.6286    0.0000    0.0000 C   0  0  0  0  0  0  0  0  0  0  0  0
   29.1286    0.0000    0.0000 C   0  0  0  0  0  0  0  0  0  0  0  0
   29.0900   -1.4995    0.0000 C   0  0  0  0  0  0  0  0  0  0  0  0
   28.9742   -2.9950    0.0000 C   0  0  0  0  0  0  0  0  0  0  0  0
   28.7816   -4.4826    0.0000 C   0  0  0  0  0  0  0  0  0  0  0  0
   28.5127   -5.9583    0.0000 C   0  0  0  0  0  0  0  0  0  0  0  0
   28.1681   -7.4182    0.0000 C   0  0  0  0  0  0  0  0  0  0  0  0
   27.7489   -8.8584    0.0000 C   0  0  0  0  0  0  0  0  0  0  0  0
   27.2561  -10.2752    0.0000 C   0  0  0  0  0  0  0  0  0  0  0  0
   26.6910  -11.6647    0.0000 C   0  0  0  0  0  0  0  0  0  0  0  0
   26.0551  -13.0232    0.0000 C   0  0  0  0  0  0  0  0  0  0  0  0
   25.3502  -14.3472    0.0000 C   0  0  0  0  0  0  0  0  0  0  0  0
   24.5780  -15.6332    0.0000 C   0  0  0  0  0  0  0  0  0  0  0  0
   23.7406  -16.8777    0.0000 C   0  0  0  0  0  0  0  0  0  0  0  0
   22.8403  -18.0775    0.0000 C   0  0  0  0  0  0  0  0  0  0  0  0
   21.8794  -19.2293    0.0000 C   0  0  0  0  0  0  0  0  0  0  0  0
   20.8605  -20.3301    0.0000 C   0  0  0  0  0  0  0  0  0  0  0  0
   19.7863  -21.3770    0.0000 C   0  0  0  0  0  0  0  0  0  0  0  0
   18.6596  -22.3673    0.0000 C   0  0  0  0  0  0  0  0  0  0  0  0
   17.4834  -23.2982    0.0000 C   0  0  0  0  0  0  0  0  0  0  0  0
   16.2608  -24.1673    0.0000 C   0  0  0  0  0  0  0  0  0  0  0  0
   14.9952  -24.9724    0.0000 C   0  0  0  0  0  0  0  0  0  0  0  0
   13.6898  -25.7112    0.0000 C   0  0  0  0  0  0  0  0  0  0  0  0
   12.3480  -26.3818    0.0000 C   0  0  0  0  0  0  0  0  0  0  0  0
   10.9735  -26.9825    0.0000 C   0  0  0  0  0  0  0  0  0  0  0  0
    9.5700  -27.5116    0.0000 C   0  0  0  0  0  0  0  0  0  0  0  0
    8.1410  -27.9678    0.0000 C   0  0  0  0  0  0  0  0  0  0  0  0
    6.6905  -28.3498    0.0000 C   0  0  0  0  0  0  0  0  0  0  0  0
    5.2222  -28.6566    0.0000 C   0  0  0  0  0  0  0  0  0  0  0  0
    3.7401  -28.8875    0.0000 C   0  0  0  0  0  0  0  0  0  0  0  0
    2.2480  -29.0417    0.0000 C   0  0  0  0  0  0  0  0  0  0  0  0
    0.7500  -29.1189    0.0000 C   0  0  0  0  0  0  0  0  0  0  0  0
   -0.7500  -29.1189    0.0000 C   0  0  0  0  0  0  0  0  0  0  0  0
   -2.2480  -29.0417    0.0000 C   0  0  0  0  0  0  0  0  0  0  0  0
   -3.7401  -28.8875    0.0000 C   0  0  0  0  0  0  0  0  0  0  0  0
   -5.2222  -28.6566    0.0000 C   0  0  0  0  0  0  0  0  0  0  0  0
   -6.6905  -28.3498    0.0000 C   0  0  0  0  0  0  0  0  0  0  0  0
   -8.1410  -27.9678    0.0000 C   0  0  0  0  0  0  0  0  0  0  0  0
   -9.5700  -27.5116    0.0000 C   0  0  0  0  0  0  0  0  0  0  0  0
  -10.9735  -26.9825    0.0000 C   0  0  0  0  0  0  0  0  0  0  0  0
  -12.3480  -26.3818    0.0000 C   0  0  0  0  0  0  0  0  0  0  0  0
  -13.6898  -25.7112    0.0000 C   0  0  0  0  0  0  0  0  0  0  0  0
  -14.9952  -24.9724    0.0000 C   0  0  0  0  0  0  0  0  0  0  0  0
  -16.2608  -24.1673    0.0000 C   0  0  0  0  0  0  0  0  0  0  0  0
  -17.4834  -23.2982    0.0000 C   0  0  0  0  0  0  0  0  0  0  0  0
  -18.6596  -22.3673    0.0000 C   0  0  0  0  0  0  0  0  0  0  0  0
  -19.7863  -21.3770    0.0000 C   0  0  0  0  0  0  0  0  0  0  0  0
  -20.8605  -20.3301    0.0000 C   0  0  0  0  0  0  0  0  0  0  0  0
  -21.8794  -19.2293    0.0000 C   0  0  0  0  0  0  0  0  0  0  0  0
  -22.8403  -18.0775    0.0000 C   0  0  0  0  0  0  0  0  0  0  0  0
  -23.7406  -16.8777    0.0000 C   0  0  0  0  0  0  0  0  0  0  0  0
  -24.5780  -15.6332    0.0000 C   0  0  0  0  0  0  0  0  0  0  0  0
  -25.3502  -14.3472    0.0000 C   0  0  0  0  0  0  0  0  0  0  0  0
  -26.0551  -13.0232    0.0000 C   0  0  0  0  0  0  0  0  0  0  0  0
  -26.6910  -11.6647    0.0000 C   0  0  0  0  0  0  0  0  0  0  0  0
  -27.2561  -10.2752    0.0000 C   0  0  0  0  0  0  0  0  0  0  0  0
  -27.7489   -8.8584    0.0000 C   0  0  0  0  0  0  0  0  0  0  0  0
  -28.1681   -7.4182    0.0000 C   0  0  0  0  0  0  0  0  0  0  0  0
  -28.5127   -5.9583    0.0000 C   0  0  0  0  0  0  0  0  0  0  0  0
  -28.7816   -4.4826    0.0000 C   0  0  0  0  0  0  0  0  0  0  0  0
  -28.9742   -2.9950    0.0000 C   0  0  0  0  0  0  0  0  0  0  0  0
  -29.0900   -1.4995    0.0000 C   0  0  0  0  0  0  0  0  0  0  0  0
  -29.1286    0.0000    0.0000 C   0  0  0  0  0  0  0  0  0  0  0  0
  -29.0900    1.4995    0.0000 C   0  0  0  0  0  0  0  0  0  0  0  0
  -28.9742    2.9950    0.0000 C   0  0  0  0  0  0  0  0  0  0  0  0
  -28.7816    4.4826    0.0000 C   0  0  0  0  0  0  0  0  0  0  0  0
  -28.5127    5.9583    0.0000 C   0  0  0  0  0  0  0  0  0  0  0  0
  -28.1681    7.4182    0.0000 C   0  0  0  0  0  0  0  0  0  0  0  0
  -27.7489    8.8584    0.0000 C   0  0  0  0  0  0  0  0  0  0  0  0
  -27.2561   10.2752    0.0000 C   0  0  0  0  0  0  0  0  0  0  0  0
  -26.6910   11.6647    0.0000 C   0  0  0  0  0  0  0  0  0  0  0  0
  -26.0551   13.0232    0.0000 C   0  0  0  0  0  0  0  0  0  0  0  0
  -25.3502   14.3472    0.0000 C   0  0  0  0  0  0  0  0  0  0  0  0
  -24.5780   15.6332    0.0000 C   0  0  0  0  0  0  0  0  0  0  0  0
  -23.7406   16.8777    0.0000 C   0  0  0  0  0  0  0  0  0  0  0  0
  -22.8403   18.0775    0.0000 C   0  0  0  0  0  0  0  0  0  0  0  0
  -21.8794   19.2293    0.0000 C   0  0  0  0  0  0  0  0  0  0  0  0
  -20.8605   20.3301    0.0000 C   0  0  0  0  0  0  0  0  0  0  0  0
  -19.7863   21.3770    0.0000 C   0  0  0  0  0  0  0  0  0  0  0  0
  -18.6596   22.3673    0.0000 C   0  0  0  0  0  0  0  0  0  0  0  0
  -17.4834   23.2982    0.0000 C   0  0  0  0  0  0  0  0  0  0  0  0
  -16.2608   24.1673    0.0000 C   0  0  0  0  0  0  0  0  0  0  0  0
  -14.9952   24.9724    0.0000 C   0  0  0  0  0  0  0  0  0  0  0  0
  -13.6898   25.7112    0.0000 C   0  0  0  0  0  0  0  0  0  0  0  0
  -12.3480   26.3818    0.0000 C   0  0  0  0  0  0  0  0  0  0  0  0
  -10.9735   26.9825    0.0000 C   0  0  0  0  0  0  0  0  0  0  0  0
   -9.5700   27.5116    0.0000 C   0  0  0  0  0  0  0  0  0  0  0  0
   -8.1410   27.9678    0.0000 C   0  0  0  0  0  0  0  0  0  0  0  0
   -6.6905   28.3498    0.0000 C   0  0  0  0  0  0  0  0  0  0  0  0
   -5.2222   28.6566    0.0000 C   0  0  0  0  0  0  0  0  0  0  0  0
   -3.7401   28.8875    0.0000 C   0  0  0  0  0  0  0  0  0  0  0  0
   -2.2480   29.0417    0.0000 C   0  0  0  0  0  0  0  0  0  0  0  0
   -0.7500   29.1189    0.0000 C   0  0  0  0  0  0  0  0  0  0  0  0
    0.7500   29.1189    0.0000 C   0  0  0  0  0  0  0  0  0  0  0  0
    2.2480   29.0417    0.0000 C   0  0  0  0  0  0  0  0  0  0  0  0
    3.7401   28.8875    0.0000 C   0  0  0  0  0  0  0  0  0  0  0  0
    5.2222   28.6566    0.0000 C   0  0  0  0  0  0  0  0  0  0  0  0
    6.6905   28.3498    0.0000 C   0  0  0  0  0  0  0  0  0  0  0  0
    8.1410   27.9678    0.0000 C   0  0  0  0  0  0  0  0  0  0  0  0
    9.5700   27.5116    0.0000 C   0  0  0  0  0  0  0  0  0  0  0  0
   10.9735   26.9825    0.0000 C   0  0  0  0  0  0  0  0  0  0  0  0
   12.3480   26.3818    0.0000 C   0  0  0  0  0  0  0  0  0  0  0  0
   13.6898   25.7112    0.0000 C   0  0  0  0  0  0  0  0  0  0  0  0
   14.9952   24.9724    0.0000 C   0  0  0  0  0  0  0  0  0  0  0  0
   16.2608   24.1673    0.0000 C   0  0  0  0  0  0  0  0  0  0  0  0
   17.4834   23.2982    0.0000 C   0  0  0  0  0  0  0  0  0  0  0  0
   18.6596   22.3673    0.0000 C   0  0  0  0  0  0  0  0  0  0  0  0
   19.7863   21.3770    0.0000 C   0  0  0  0  0  0  0  0  0  0  0  0
   20.8605   20.3301    0.0000 C   0  0  0  0  0  0  0  0  0  0  0  0
   21.8794   19.2293    0.0000 C   0  0  0  0  0  0  0  0  0  0  0  0
   22.8403   18.0775    0.0000 C   0  0  0  0  0  0  0  0  0  0  0  0
   23.7406   16.8777    0.0000 C   0  0  0  0  0  0  0  0  0  0  0  0
   24.5780   15.6332    0.0000 C   0  0  0  0  0  0  0  0  0  0  0  0
   25.3502   14.3472    0.0000 C   0  0  0  0  0  0  0  0  0  0  0  0
   26.0551   13.0232    0.0000 C   0  0  0  0  0  0  0  0  0  0  0  0
   26.6910   11.6647    0.0000 C   0  0  0  0  0  0  0  0  0  0  0  0
   27.2561   10.2752    0.0000 C   0  0  0  0  0  0  0  0  0  0  0  0
   27.7489    8.8584    0.0000 C   0  0  0  0  0  0  0  0  0  0  0  0
   28.1681    7.4182    0.0000 C   0  0  0  0  0  0  0  0  0  0  0  0
   28.5127    5.9583    0.0000 C   0  0  0  0  0  0  0  0  0  0  0  0
   28.7816    4.4826    0.0000 C   0  0  0  0  0  0  0  0  0  0  0  0
   28.9742    2.9950    0.0000 C   0  0  0  0  0  0  0  0  0  0  0  0
   29.0900    1.4995    0.0000 C   0  0  0  0  0  0  0  0  0  0  0  0
  1  2  1  0
  2  3  1  0
  3  4  1  0
  4  5  1  0
  5  6  1  0
  6  7  1  0
  7  8  1  0
  8  9  1  0
  9 10  1  0
 10 11  1  0
 11 12  1  0
 12 13  1  0
 13 14  1  0
 14 15  1  0
 15 16  1  0
 16 17  1  0
 17 18  1  0
 18 19  1  0
 19 20  1  0
 20 21  1  0
 21 22  1  0
 22 23  1  0
 23 24  1  0
 24 25  1  0
 25 26  1  0
 26 27  1  0
 27 28  1  0
 28 29  1  0
 29 30  1  0
 30 31  1  0
 31 32  1  0
 32 33  1  0
 33 34  1  0
 34 35  1  0
 35 36  1  0
 36 37  1  0
 37 38  1  0
 38 39  1  0
 39 40  1  0
 40 41  1  0
 41 42  1  0
 42 43  1  0
 43 44  1  0
 44 45  1  0
 45 46  1  0
 46 47  1  0
 47 48  1  0
 48 49  1  0
 49 50  1  0
 50 51  1  0
 51 52  1  0
 52 53  1  0
 53 54  1  0
 54 55  1  0
 55 56  1  0
 56 57  1  0
 57 58  1  0
 58 59  1  0
 59 60  1  0
 60 61  1  0
 61 62  1  0
 62 63  1  0
 63 64  1  0
 64 65  1  0
 65 66  1  0
 66 67  1  0
 67 68  1  0
 68 69  1  0
 69 70  1  0
 70 71  1  0
 71 72  1  0
 72 73  1  0
 73 74  1  0
 74 75  1  0
 75 76  1  0
 76 77  1  0
 77 78  1  0
 78 79  1  0
 79 80  1  0
 80 81  1  0
 81 82  1  0
 82 83  1  0
 83 84  1  0
 84 85  1  0
 85 86  1  0
 86 87  1  0
 87 88  1  0
 88 89  1  0
 89 90  1  0
 90 91  1  0
 91 92  1  0
 92 93  1  0
 93 94  1  0
 94 95  1  0
 95 96  1  0
 96 97  1  0
 97 98  1  0
 98 99  1  0
 99100  1  0
100101  1  0
101102  1  0
102103  1  0
103104  1  0
104105  1  0
105106  1  0
106107  1  0
107108  1  0
108109  1  0
109110  1  0
110111  1  0
111112  1  0
112113  1  0
113114  1  0
114115  1  0
115116  1  0
116117  1  0
117118  1  0
118119  1  0
119120  1  0
120121  1  0
121122  1  0
122123  1  0
123  2  1  0
M  END
>  <Title>  (1098) 
idABOLgen7

$$$$

     RDKit          2D

 51 57  0  0  0  0  0  0  0  0999 V2000
   -0.0000   -9.9348    0.0000 C   0  0  0  0  0  0  0  0  0  0  0  0
   -0.0000   -8.4348    0.0000 C   0  0  0  0  0  0  0  0  0  0  0  0
    1.4672   -8.1229    0.0000 C   0  0  0  0  0  0  0  0  0  0  0  0
    2.6807   -7.2413    0.0000 C   0  0  0  0  0  0  0  0  0  0  0  0
    3.4307   -5.9422    0.0000 C   0  0  0  0  0  0  0  0  0  0  0  0
    4.8573   -6.4058    0.0000 C   0  0  0  0  0  0  0  0  0  0  0  0
    5.9720   -5.4021    0.0000 O   0  0  0  0  0  0  0  0  0  0  0  0
    5.1692   -7.8730    0.0000 N   0  0  0  0  0  0  0  0  0  0  0  0
    6.5958   -8.3365    0.0000 C   0  0  0  0  0  0  0  0  0  0  0  0
    6.9077   -9.8037    0.0000 N   0  0  0  0  0  0  0  0  0  0  0  0
    8.3342  -10.2672    0.0000 N   0  0  0  0  0  0  0  0  0  0  0  0
    9.4490   -9.2636    0.0000 C   0  0  0  0  0  0  0  0  0  0  0  0
   10.8755   -9.7271    0.0000 N   0  0  0  0  0  0  0  0  0  0  0  0
   11.1874  -11.1943    0.0000 C   0  0  0  0  0  0  0  0  0  0  0  0
   10.0727  -12.1980    0.0000 O   0  0  0  0  0  0  0  0  0  0  0  0
   12.6140  -11.6578    0.0000 C   0  0  0  0  0  0  0  0  0  0  0  0
   12.9259  -13.1250    0.0000 C   0  0  0  0  0  0  0  0  0  0  0  0
   14.3524  -13.5886    0.0000 C   0  0  0  0  0  0  0  0  0  0  0  0
   15.4672  -12.5849    0.0000 C   0  0  0  0  0  0  0  0  0  0  0  0
   15.1553  -11.1177    0.0000 C   0  0  0  0  0  0  0  0  0  0  0  0
   13.7287  -10.6541    0.0000 C   0  0  0  0  0  0  0  0  0  0  0  0
    9.1371   -7.7963    0.0000 C   0  0  0  0  0  0  0  0  0  0  0  0
    7.7105   -7.3328    0.0000 C   0  0  0  0  0  0  0  0  0  0  0  0
    3.5875   -4.4504    0.0000 C   0  0  0  0  0  0  0  0  0  0  0  0
    3.1240   -3.0239    0.0000 C   0  0  0  0  0  0  0  0  0  0  0  0
    2.1203   -1.9091    0.0000 C   0  0  0  0  0  0  0  0  0  0  0  0
    3.0020   -0.6956    0.0000 C   0  0  0  0  0  0  0  0  0  0  0  0
    0.7500   -1.2990    0.0000 C   0  0  0  0  0  0  0  0  0  0  0  0
    1.5000    0.0000    0.0000 C   0  0  0  0  0  0  0  0  0  0  0  0
    0.7500    1.2990    0.0000 C   0  0  0  0  0  0  0  0  0  0  0  0
   -0.7500    1.2990    0.0000 C   0  0  0  0  0  0  0  0  0  0  0  0
   -1.5000    0.0000    0.0000 C   0  0  0  0  0  0  0  0  0  0  0  0
   -0.7500   -1.2990    0.0000 C   0  0  0  0  0  0  0  0  0  0  0  0
   -2.1203   -1.9091    0.0000 C   0  0  0  0  0  0  0  0  0  0  0  0
   -2.5838   -0.4826    0.0000 C   0  0  0  0  0  0  0  0  0  0  0  0
   -4.0511   -0.1707    0.0000 C   0  0  0  0  0  0  0  0  0  0  0  0
   -5.0548   -1.2854    0.0000 C   0  0  0  0  0  0  0  0  0  0  0  0
   -4.5912   -2.7120    0.0000 C   0  0  0  0  0  0  0  0  0  0  0  0
   -3.1240   -3.0239    0.0000 C   0  0  0  0  0  0  0  0  0  0  0  0
   -3.5875   -4.4504    0.0000 C   0  0  0  0  0  0  0  0  0  0  0  0
   -4.9579   -3.8403    0.0000 C   0  0  0  0  0  0  0  0  0  0  0  0
   -6.1714   -4.7220    0.0000 C   0  0  0  0  0  0  0  0  0  0  0  0
   -6.0146   -6.2138    0.0000 C   0  0  0  0  0  0  0  0  0  0  0  0
   -4.6443   -6.8239    0.0000 C   0  0  0  0  0  0  0  0  0  0  0  0
   -3.4307   -5.9422    0.0000 C   0  0  0  0  0  0  0  0  0  0  0  0
   -2.6807   -7.2413    0.0000 C   0  0  0  0  0  0  0  0  0  0  0  0
   -4.0511   -7.8514    0.0000 C   0  0  0  0  0  0  0  0  0  0  0  0
   -4.2079   -9.3432    0.0000 C   0  0  0  0  0  0  0  0  0  0  0  0
   -2.9943  -10.2248    0.0000 C   0  0  0  0  0  0  0  0  0  0  0  0
   -1.6240   -9.6147    0.0000 C   0  0  0  0  0  0  0  0  0  0  0  0
   -1.4672   -8.1229    0.0000 C   0  0  0  0  0  0  0  0  0  0  0  0
  1  2  1  0
  2  3  1  0
  3  4  1  0
  4  5  1  0
  5  6  1  0
  6  7  2  0
  6  8  1  0
  8  9  1  0
  9 10  2  0
 10 11  1  0
 11 12  2  0
 12 13  1  0
 13 14  1  0
 14 15  2  0
 14 16  1  0
 16 17  2  0
 17 18  1  0
 18 19  2  0
 19 20  1  0
 20 21  2  0
 12 22  1  0
 22 23  1  0
  5 24  1  0
 24 25  1  0
 25 26  1  0
 26 27  1  0
 26 28  1  0
 28 29  2  0
 29 30  1  0
 30 31  2  0
 31 32  1  0
 32 33  2  0
 33 34  1  0
 34 35  2  0
 35 36  1  0
 36 37  2  0
 37 38  1  0
 38 39  2  0
 39 40  1  0
 40 41  2  0
 41 42  1  0
 42 43  2  0
 43 44  1  0
 44 45  2  0
 45 46  1  0
 46 47  2  0
 47 48  1  0
 48 49  2  0
 49 50  1  0
 50 51  2  0
 51  2  1  0
 23  9  1  0
 33 28  1  0
 39 34  1  0
 45 40  1  0
 51 46  1  0
 21 16  1  0
M  END
>  <Title>  (1099) 
idABOMgen7

$$$$

     RDKit          2D

 10 10  0  0  0  0  0  0  0  0999 V2000
    3.5260   -1.2990    0.0000 C   0  0  0  0  0  0  0  0  0  0  0  0
    2.7760    0.0000    0.0000 O   0  0  0  0  0  0  0  0  0  0  0  0
    1.2760    0.0000    0.0000 C   0  0  0  0  0  0  0  0  0  0  0  0
    0.3943    1.2135    0.0000 C   0  0  0  0  0  0  0  0  0  0  0  0
   -1.0323    0.7500    0.0000 C   0  0  0  0  0  0  0  0  0  0  0  0
   -1.0323   -0.7500    0.0000 C   0  0  0  0  0  0  0  0  0  0  0  0
   -2.2458   -1.6317    0.0000 C   0  0  0  0  0  0  0  0  0  0  0  0
   -3.6161   -1.0216    0.0000 C   0  0  0  0  0  0  0  0  0  0  0  0
   -2.0890   -3.1235    0.0000 O   0  0  0  0  0  0  0  0  0  0  0  0
    0.3943   -1.2135    0.0000 C   0  0  0  0  0  0  0  0  0  0  0  0
  1  2  1  0
  2  3  1  0
  3  4  2  0
  4  5  1  0
  5  6  2  0
  6  7  1  0
  7  8  1  0
  7  9  2  0
  6 10  1  0
 10  3  1  0
M  END
>  <Title>  (1100) 
idABONgen7

$$$$

     RDKit          2D

  9  9  0  0  0  0  0  0  0  0999 V2000
    4.2760   -2.5981    0.0000 N   0  0  0  0  0  0  0  0  0  0  0  0
    3.5260   -1.2990    0.0000 C   0  0  0  0  0  0  0  0  0  0  0  0
    2.7760    0.0000    0.0000 C   0  0  0  0  0  0  0  0  0  0  0  0
    3.5260    1.2990    0.0000 O   0  0  0  0  0  0  0  0  0  0  0  0
    1.2760    0.0000    0.0000 C   0  0  0  0  0  0  0  0  0  0  0  0
    0.3943    1.2135    0.0000 C   0  0  0  0  0  0  0  0  0  0  0  0
   -1.0323    0.7500    0.0000 C   0  0  0  0  0  0  0  0  0  0  0  0
   -1.0323   -0.7500    0.0000 C   0  0  0  0  0  0  0  0  0  0  0  0
    0.3943   -1.2135    0.0000 C   0  0  0  0  0  0  0  0  0  0  0  0
  1  2  3  0
  2  3  1  0
  3  4  1  0
  3  5  1  0
  5  6  2  0
  6  7  1  0
  7  8  2  0
  8  9  1  0
  9  5  1  0
M  END
>  <Title>  (1101) 
idABOOgen7

$$$$

     RDKit          2D

  8  8  0  0  0  0  0  0  0  0999 V2000
    3.5260   -1.2990    0.0000 C   0  0  0  0  0  0  0  0  0  0  0  0
    2.7760    0.0000    0.0000 C   0  0  0  0  0  0  0  0  0  0  0  0
    3.5260    1.2990    0.0000 O   0  0  0  0  0  0  0  0  0  0  0  0
    1.2760    0.0000    0.0000 C   0  0  0  0  0  0  0  0  0  0  0  0
    0.3943    1.2135    0.0000 C   0  0  0  0  0  0  0  0  0  0  0  0
   -1.0323    0.7500    0.0000 C   0  0  0  0  0  0  0  0  0  0  0  0
   -1.0323   -0.7500    0.0000 C   0  0  0  0  0  0  0  0  0  0  0  0
    0.3943   -1.2135    0.0000 C   0  0  0  0  0  0  0  0  0  0  0  0
  1  2  1  0
  2  3  2  0
  2  4  1  0
  4  5  2  0
  5  6  1  0
  6  7  1  0
  7  8  2  0
  8  4  1  0
M  END
>  <Title>  (1102) 
idABOPgen7

$$$$

     RDKit          2D

 12 12  0  0  0  0  0  0  0  0999 V2000
    3.6929    0.0000    0.0000 C   0  0  0  0  0  0  0  0  0  0  0  0
    2.1929    0.0000    0.0000 C   0  0  0  0  0  0  0  0  0  0  0  0
    1.6798    1.4095    0.0000 C   0  0  0  0  0  0  0  0  0  0  0  0
    0.3808    2.1595    0.0000 C   0  0  0  0  0  0  0  0  0  0  0  0
   -1.0964    1.8991    0.0000 C   0  0  0  0  0  0  0  0  0  0  0  0
   -2.0606    0.7500    0.0000 C   0  0  0  0  0  0  0  0  0  0  0  0
   -2.0606   -0.7500    0.0000 C   0  0  0  0  0  0  0  0  0  0  0  0
   -3.4701   -1.2630    0.0000 O   0  0  0  0  0  0  0  0  0  0  0  0
   -1.0964   -1.8991    0.0000 C   0  0  0  0  0  0  0  0  0  0  0  0
   -1.8464   -3.1981    0.0000 O   0  0  0  0  0  0  0  0  0  0  0  0
    0.3808   -2.1595    0.0000 C   0  0  0  0  0  0  0  0  0  0  0  0
    1.6798   -1.4095    0.0000 C   0  0  0  0  0  0  0  0  0  0  0  0
  1  2  1  0
  2  3  1  0
  3  4  1  0
  4  5  2  0
  5  6  1  0
  6  7  2  0
  7  8  1  0
  7  9  1  0
  9 10  1  0
  9 11  1  0
 11 12  1  0
 12  2  1  0
M  END
>  <Title>  (1103) 
idABOQgen7

$$$$

     RDKit          2D

 10 11  0  0  0  0  0  0  0  0999 V2000
    1.5000    0.0000    0.0000 C   0  0  0  0  0  0  0  0  0  0  0  0
    0.7500   -1.2990    0.0000 C   0  0  0  0  0  0  0  0  0  0  0  0
   -0.7500   -1.2990    0.0000 C   0  0  0  0  0  0  0  0  0  0  0  0
   -1.5000    0.0000    0.0000 C   0  0  0  0  0  0  0  0  0  0  0  0
   -3.0000    0.0000    0.0000 C   0  0  0  0  0  0  0  0  0  0  0  0
   -3.7500    1.2990    0.0000 C   0  0  0  0  0  0  0  0  0  0  0  0
   -3.0000    2.5981    0.0000 C   0  0  0  0  0  0  0  0  0  0  0  0
   -1.5000    2.5981    0.0000 C   0  0  0  0  0  0  0  0  0  0  0  0
   -0.7500    1.2990    0.0000 C   0  0  0  0  0  0  0  0  0  0  0  0
    0.7500    1.2990    0.0000 C   0  0  0  0  0  0  0  0  0  0  0  0
  1  2  2  0
  2  3  1  0
  3  4  2  0
  4  5  1  0
  5  6  1  0
  6  7  1  0
  7  8  1  0
  8  9  1  0
  9 10  2  0
 10  1  1  0
  9  4  1  0
M  END
>  <Title>  (1104) 
idABORgen7

$$$$

     RDKit          2D

 22 24  0  0  0  0  0  0  0  0999 V2000
    3.0000   -2.5981    0.0000 O   0  0  0  0  0  0  0  0  0  0  0  0
    1.5000   -2.5981    0.0000 C   0  0  0  0  0  0  0  0  0  0  0  0
    0.7500   -3.8971    0.0000 N   0  0  0  0  0  0  0  0  0  0  0  0
    1.5000   -5.1962    0.0000 C   0  0  0  0  0  0  0  0  0  0  0  0
    2.9918   -5.3529    0.0000 C   0  0  0  0  0  0  0  0  0  0  0  0
    3.3037   -6.8202    0.0000 C   0  0  0  0  0  0  0  0  0  0  0  0
    2.0046   -7.5702    0.0000 N   0  0  0  0  0  0  0  0  0  0  0  0
    1.8478   -9.0619    0.0000 C   0  0  0  0  0  0  0  0  0  0  0  0
    3.0613   -9.9436    0.0000 O   0  0  0  0  0  0  0  0  0  0  0  0
    0.4775   -9.6721    0.0000 C   0  0  0  0  0  0  0  0  0  0  0  0
    0.3207  -11.1638    0.0000 C   0  0  0  0  0  0  0  0  0  0  0  0
    1.4354  -12.1675    0.0000 C   0  0  0  0  0  0  0  0  0  0  0  0
    0.8253  -13.5379    0.0000 C   0  0  0  0  0  0  0  0  0  0  0  0
   -0.6665  -13.3811    0.0000 C   0  0  0  0  0  0  0  0  0  0  0  0
   -0.9783  -11.9138    0.0000 C   0  0  0  0  0  0  0  0  0  0  0  0
    0.8899   -6.5665    0.0000 C   0  0  0  0  0  0  0  0  0  0  0  0
    0.7500   -1.2990    0.0000 C   0  0  0  0  0  0  0  0  0  0  0  0
    1.5000    0.0000    0.0000 C   0  0  0  0  0  0  0  0  0  0  0  0
    0.7500    1.2990    0.0000 C   0  0  0  0  0  0  0  0  0  0  0  0
   -0.7500    1.2990    0.0000 C   0  0  0  0  0  0  0  0  0  0  0  0
   -1.5000    0.0000    0.0000 C   0  0  0  0  0  0  0  0  0  0  0  0
   -0.7500   -1.2990    0.0000 C   0  0  0  0  0  0  0  0  0  0  0  0
  1  2  2  0
  2  3  1  0
  3  4  1  0
  4  5  1  0
  5  6  1  0
  6  7  1  0
  7  8  1  0
  8  9  2  0
  8 10  1  0
 10 11  1  0
 11 12  2  0
 12 13  1  0
 13 14  1  0
 14 15  1  0
  7 16  1  0
  2 17  1  0
 17 18  2  0
 18 19  1  0
 19 20  2  0
 20 21  1  0
 21 22  2  0
 16  4  1  0
 22 17  1  0
 15 11  1  0
M  END
>  <Title>  (1105) 
idABOSgen7

$$$$

     RDKit          2D

 88 88  0  0  0  0  0  0  0  0999 V2000
   22.2742   -0.0000    0.0000 C   0  0  0  0  0  0  0  0  0  0  0  0
   20.7742    0.0000    0.0000 C   0  0  0  0  0  0  0  0  0  0  0  0
   20.7201    1.4990    0.0000 C   0  0  0  0  0  0  0  0  0  0  0  0
   20.5579    2.9902    0.0000 C   0  0  0  0  0  0  0  0  0  0  0  0
   20.2885    4.4658    0.0000 C   0  0  0  0  0  0  0  0  0  0  0  0
   19.9134    5.9182    0.0000 C   0  0  0  0  0  0  0  0  0  0  0  0
   19.4345    7.3397    0.0000 C   0  0  0  0  0  0  0  0  0  0  0  0
   18.8542    8.7229    0.0000 C   0  0  0  0  0  0  0  0  0  0  0  0
   18.1756   10.0606    0.0000 C   0  0  0  0  0  0  0  0  0  0  0  0
   17.4023   11.3459    0.0000 C   0  0  0  0  0  0  0  0  0  0  0  0
   16.5382   12.5720    0.0000 C   0  0  0  0  0  0  0  0  0  0  0  0
   15.5879   13.7326    0.0000 C   0  0  0  0  0  0  0  0  0  0  0  0
   14.5564   14.8216    0.0000 C   0  0  0  0  0  0  0  0  0  0  0  0
   13.4490   15.8333    0.0000 C   0  0  0  0  0  0  0  0  0  0  0  0
   12.2714   16.7625    0.0000 C   0  0  0  0  0  0  0  0  0  0  0  0
   11.0299   17.6043    0.0000 C   0  0  0  0  0  0  0  0  0  0  0  0
    9.7308   18.3543    0.0000 C   0  0  0  0  0  0  0  0  0  0  0  0
    8.3811   19.0086    0.0000 C   0  0  0  0  0  0  0  0  0  0  0  0
    6.9876   19.5638    0.0000 C   0  0  0  0  0  0  0  0  0  0  0  0
    5.5577   20.0170    0.0000 C   0  0  0  0  0  0  0  0  0  0  0  0
    4.0988   20.3659    0.0000 C   0  0  0  0  0  0  0  0  0  0  0  0
    2.6186   20.6085    0.0000 C   0  0  0  0  0  0  0  0  0  0  0  0
    1.1247   20.7438    0.0000 C   0  0  0  0  0  0  0  0  0  0  0  0
   -0.3751   20.7708    0.0000 C   0  0  0  0  0  0  0  0  0  0  0  0
   -1.8729   20.6896    0.0000 C   0  0  0  0  0  0  0  0  0  0  0  0
   -3.3609   20.5006    0.0000 C   0  0  0  0  0  0  0  0  0  0  0  0
   -4.8314   20.2046    0.0000 C   0  0  0  0  0  0  0  0  0  0  0  0
   -6.2767   19.8033    0.0000 C   0  0  0  0  0  0  0  0  0  0  0  0
   -7.6893   19.2988    0.0000 C   0  0  0  0  0  0  0  0  0  0  0  0
   -9.0618   18.6936    0.0000 C   0  0  0  0  0  0  0  0  0  0  0  0
  -10.3871   17.9910    0.0000 C   0  0  0  0  0  0  0  0  0  0  0  0
  -11.6582   17.1946    0.0000 C   0  0  0  0  0  0  0  0  0  0  0  0
  -12.8686   16.3086    0.0000 C   0  0  0  0  0  0  0  0  0  0  0  0
  -14.0118   15.3375    0.0000 C   0  0  0  0  0  0  0  0  0  0  0  0
  -15.0820   14.2864    0.0000 C   0  0  0  0  0  0  0  0  0  0  0  0
  -16.0736   13.1609    0.0000 C   0  0  0  0  0  0  0  0  0  0  0  0
  -16.9813   11.9668    0.0000 C   0  0  0  0  0  0  0  0  0  0  0  0
  -17.8006   10.7102    0.0000 C   0  0  0  0  0  0  0  0  0  0  0  0
  -18.5270    9.3979    0.0000 C   0  0  0  0  0  0  0  0  0  0  0  0
  -19.1568    8.0365    0.0000 C   0  0  0  0  0  0  0  0  0  0  0  0
  -19.6868    6.6332    0.0000 C   0  0  0  0  0  0  0  0  0  0  0  0
  -20.1141    5.1954    0.0000 C   0  0  0  0  0  0  0  0  0  0  0  0
  -20.4365    3.7305    0.0000 C   0  0  0  0  0  0  0  0  0  0  0  0
  -20.6525    2.2461    0.0000 C   0  0  0  0  0  0  0  0  0  0  0  0
  -20.7607    0.7500    0.0000 C   0  0  0  0  0  0  0  0  0  0  0  0
  -20.7607   -0.7500    0.0000 C   0  0  0  0  0  0  0  0  0  0  0  0
  -20.6525   -2.2461    0.0000 C   0  0  0  0  0  0  0  0  0  0  0  0
  -20.4365   -3.7305    0.0000 C   0  0  0  0  0  0  0  0  0  0  0  0
  -20.1141   -5.1954    0.0000 C   0  0  0  0  0  0  0  0  0  0  0  0
  -19.6868   -6.6332    0.0000 C   0  0  0  0  0  0  0  0  0  0  0  0
  -19.1568   -8.0365    0.0000 C   0  0  0  0  0  0  0  0  0  0  0  0
  -18.5270   -9.3979    0.0000 C   0  0  0  0  0  0  0  0  0  0  0  0
  -17.8006  -10.7102    0.0000 C   0  0  0  0  0  0  0  0  0  0  0  0
  -16.9813  -11.9668    0.0000 C   0  0  0  0  0  0  0  0  0  0  0  0
  -16.0736  -13.1609    0.0000 C   0  0  0  0  0  0  0  0  0  0  0  0
  -15.0820  -14.2864    0.0000 C   0  0  0  0  0  0  0  0  0  0  0  0
  -14.0118  -15.3375    0.0000 C   0  0  0  0  0  0  0  0  0  0  0  0
  -12.8686  -16.3086    0.0000 C   0  0  0  0  0  0  0  0  0  0  0  0
  -11.6582  -17.1946    0.0000 C   0  0  0  0  0  0  0  0  0  0  0  0
  -10.3871  -17.9910    0.0000 C   0  0  0  0  0  0  0  0  0  0  0  0
   -9.0618  -18.6936    0.0000 C   0  0  0  0  0  0  0  0  0  0  0  0
   -7.6893  -19.2988    0.0000 C   0  0  0  0  0  0  0  0  0  0  0  0
   -6.2767  -19.8033    0.0000 C   0  0  0  0  0  0  0  0  0  0  0  0
   -4.8314  -20.2046    0.0000 C   0  0  0  0  0  0  0  0  0  0  0  0
   -3.3609  -20.5006    0.0000 C   0  0  0  0  0  0  0  0  0  0  0  0
   -1.8729  -20.6896    0.0000 C   0  0  0  0  0  0  0  0  0  0  0  0
   -0.3751  -20.7708    0.0000 C   0  0  0  0  0  0  0  0  0  0  0  0
    1.1247  -20.7438    0.0000 C   0  0  0  0  0  0  0  0  0  0  0  0
    2.6186  -20.6085    0.0000 C   0  0  0  0  0  0  0  0  0  0  0  0
    4.0988  -20.3659    0.0000 C   0  0  0  0  0  0  0  0  0  0  0  0
    5.5577  -20.0170    0.0000 C   0  0  0  0  0  0  0  0  0  0  0  0
    6.9876  -19.5638    0.0000 C   0  0  0  0  0  0  0  0  0  0  0  0
    8.3811  -19.0086    0.0000 C   0  0  0  0  0  0  0  0  0  0  0  0
    9.7308  -18.3543    0.0000 C   0  0  0  0  0  0  0  0  0  0  0  0
   11.0299  -17.6043    0.0000 C   0  0  0  0  0  0  0  0  0  0  0  0
   12.2714  -16.7625    0.0000 C   0  0  0  0  0  0  0  0  0  0  0  0
   13.4490  -15.8333    0.0000 C   0  0  0  0  0  0  0  0  0  0  0  0
   14.5564  -14.8216    0.0000 C   0  0  0  0  0  0  0  0  0  0  0  0
   15.5879  -13.7326    0.0000 C   0  0  0  0  0  0  0  0  0  0  0  0
   16.5382  -12.5720    0.0000 C   0  0  0  0  0  0  0  0  0  0  0  0
   17.4023  -11.3459    0.0000 C   0  0  0  0  0  0  0  0  0  0  0  0
   18.1756  -10.0606    0.0000 C   0  0  0  0  0  0  0  0  0  0  0  0
   18.8542   -8.7229    0.0000 C   0  0  0  0  0  0  0  0  0  0  0  0
   19.4345   -7.3397    0.0000 C   0  0  0  0  0  0  0  0  0  0  0  0
   19.9134   -5.9182    0.0000 C   0  0  0  0  0  0  0  0  0  0  0  0
   20.2885   -4.4658    0.0000 C   0  0  0  0  0  0  0  0  0  0  0  0
   20.5579   -2.9902    0.0000 C   0  0  0  0  0  0  0  0  0  0  0  0
   20.7201   -1.4990    0.0000 C   0  0  0  0  0  0  0  0  0  0  0  0
  1  2  1  0
  2  3  1  0
  3  4  1  0
  4  5  1  0
  5  6  1  0
  6  7  1  0
  7  8  1  0
  8  9  1  0
  9 10  1  0
 10 11  1  0
 11 12  1  0
 12 13  1  0
 13 14  1  0
 14 15  1  0
 15 16  1  0
 16 17  1  0
 17 18  1  0
 18 19  1  0
 19 20  1  0
 20 21  1  0
 21 22  1  0
 22 23  1  0
 23 24  1  0
 24 25  1  0
 25 26  1  0
 26 27  1  0
 27 28  1  0
 28 29  1  0
 29 30  1  0
 30 31  1  0
 31 32  1  0
 32 33  1  0
 33 34  1  0
 34 35  1  0
 35 36  1  0
 36 37  1  0
 37 38  1  0
 38 39  1  0
 39 40  1  0
 40 41  1  0
 41 42  1  0
 42 43  1  0
 43 44  1  0
 44 45  1  0
 45 46  1  0
 46 47  1  0
 47 48  1  0
 48 49  1  0
 49 50  1  0
 50 51  1  0
 51 52  1  0
 52 53  1  0
 53 54  1  0
 54 55  1  0
 55 56  1  0
 56 57  1  0
 57 58  1  0
 58 59  1  0
 59 60  1  0
 60 61  1  0
 61 62  1  0
 62 63  1  0
 63 64  1  0
 64 65  1  0
 65 66  1  0
 66 67  1  0
 67 68  1  0
 68 69  1  0
 69 70  1  0
 70 71  1  0
 71 72  1  0
 72 73  1  0
 73 74  1  0
 74 75  1  0
 75 76  1  0
 76 77  1  0
 77 78  1  0
 78 79  1  0
 79 80  1  0
 80 81  1  0
 81 82  1  0
 82 83  1  0
 83 84  1  0
 84 85  1  0
 85 86  1  0
 86 87  1  0
 87 88  1  0
 88  2  1  0
M  END
>  <Title>  (1106) 
idABOTgen7

$$$$

     RDKit          2D

 11 11  0  0  0  0  0  0  0  0999 V2000
    3.4598   -0.0000    0.0000 C   0  0  0  0  0  0  0  0  0  0  0  0
    1.9598    0.0000    0.0000 C   0  0  0  0  0  0  0  0  0  0  0  0
    1.3858   -1.3858    0.0000 C   0  0  0  0  0  0  0  0  0  0  0  0
   -0.0000   -1.9598    0.0000 C   0  0  0  0  0  0  0  0  0  0  0  0
   -1.3858   -1.3858    0.0000 C   0  0  0  0  0  0  0  0  0  0  0  0
   -1.9598    0.0000    0.0000 C   0  0  0  0  0  0  0  0  0  0  0  0
   -1.3858    1.3858    0.0000 C   0  0  0  0  0  0  0  0  0  0  0  0
   -2.4465    2.4465    0.0000 C   0  0  0  0  0  0  0  0  0  0  0  0
   -3.5071    3.5071    0.0000 N   0  0  0  0  0  0  0  0  0  0  0  0
    0.0000    1.9598    0.0000 C   0  0  0  0  0  0  0  0  0  0  0  0
    1.3858    1.3858    0.0000 C   0  0  0  0  0  0  0  0  0  0  0  0
  1  2  1  0
  2  3  1  0
  3  4  1  0
  4  5  1  0
  5  6  1  0
  6  7  1  0
  7  8  1  0
  8  9  3  0
  7 10  1  0
 10 11  1  0
 11  2  1  0
M  END
>  <Title>  (1107) 
idABOUgen7

$$$$

     RDKit          2D

 57 57  0  0  0  0  0  0  0  0999 V2000
   13.6146    0.0000    0.0000 C   0  0  0  0  0  0  0  0  0  0  0  0
   13.5320    1.4977    0.0000 C   0  0  0  0  0  0  0  0  0  0  0  0
   13.2851    2.9773    0.0000 C   0  0  0  0  0  0  0  0  0  0  0  0
   12.8770    4.4207    0.0000 C   0  0  0  0  0  0  0  0  0  0  0  0
   12.3125    5.8104    0.0000 C   0  0  0  0  0  0  0  0  0  0  0  0
   11.5986    7.1296    0.0000 C   0  0  0  0  0  0  0  0  0  0  0  0
   10.7439    8.3623    0.0000 C   0  0  0  0  0  0  0  0  0  0  0  0
    9.7587    9.4934    0.0000 C   0  0  0  0  0  0  0  0  0  0  0  0
    8.6551   10.5094    0.0000 C   0  0  0  0  0  0  0  0  0  0  0  0
    7.4465   11.3977    0.0000 C   0  0  0  0  0  0  0  0  0  0  0  0
    6.1475   12.1477    0.0000 C   0  0  0  0  0  0  0  0  0  0  0  0
    4.7738   12.7503    0.0000 C   0  0  0  0  0  0  0  0  0  0  0  0
    3.3422   13.1980    0.0000 C   0  0  0  0  0  0  0  0  0  0  0  0
    1.8700   13.4856    0.0000 C   0  0  0  0  0  0  0  0  0  0  0  0
    0.3751   13.6095    0.0000 C   0  0  0  0  0  0  0  0  0  0  0  0
   -1.1243   13.5681    0.0000 C   0  0  0  0  0  0  0  0  0  0  0  0
   -2.6101   13.3621    0.0000 C   0  0  0  0  0  0  0  0  0  0  0  0
   -4.0642   12.9939    0.0000 C   0  0  0  0  0  0  0  0  0  0  0  0
   -5.4689   12.4679    0.0000 C   0  0  0  0  0  0  0  0  0  0  0  0
   -6.8073   11.7906    0.0000 C   0  0  0  0  0  0  0  0  0  0  0  0
   -8.0631   10.9702    0.0000 C   0  0  0  0  0  0  0  0  0  0  0  0
   -9.2209   10.0166    0.0000 C   0  0  0  0  0  0  0  0  0  0  0  0
  -10.2669    8.9414    0.0000 C   0  0  0  0  0  0  0  0  0  0  0  0
  -11.1882    7.7577    0.0000 C   0  0  0  0  0  0  0  0  0  0  0  0
  -11.9737    6.4799    0.0000 C   0  0  0  0  0  0  0  0  0  0  0  0
  -12.6139    5.1233    0.0000 C   0  0  0  0  0  0  0  0  0  0  0  0
  -13.1009    3.7046    0.0000 C   0  0  0  0  0  0  0  0  0  0  0  0
  -13.4290    2.2409    0.0000 C   0  0  0  0  0  0  0  0  0  0  0  0
  -13.5940    0.7500    0.0000 C   0  0  0  0  0  0  0  0  0  0  0  0
  -13.5940   -0.7500    0.0000 N   0  0  0  0  0  0  0  0  0  0  0  0
  -13.4290   -2.2409    0.0000 C   0  0  0  0  0  0  0  0  0  0  0  0
  -13.1009   -3.7046    0.0000 C   0  0  0  0  0  0  0  0  0  0  0  0
  -12.6139   -5.1233    0.0000 C   0  0  0  0  0  0  0  0  0  0  0  0
  -11.9737   -6.4799    0.0000 C   0  0  0  0  0  0  0  0  0  0  0  0
  -11.1882   -7.7577    0.0000 C   0  0  0  0  0  0  0  0  0  0  0  0
  -10.2669   -8.9414    0.0000 C   0  0  0  0  0  0  0  0  0  0  0  0
   -9.2209  -10.0166    0.0000 C   0  0  0  0  0  0  0  0  0  0  0  0
   -8.0631  -10.9702    0.0000 C   0  0  0  0  0  0  0  0  0  0  0  0
   -6.8073  -11.7906    0.0000 C   0  0  0  0  0  0  0  0  0  0  0  0
   -5.4689  -12.4679    0.0000 C   0  0  0  0  0  0  0  0  0  0  0  0
   -4.0642  -12.9939    0.0000 C   0  0  0  0  0  0  0  0  0  0  0  0
   -2.6101  -13.3621    0.0000 C   0  0  0  0  0  0  0  0  0  0  0  0
   -1.1243  -13.5681    0.0000 C   0  0  0  0  0  0  0  0  0  0  0  0
    0.3751  -13.6095    0.0000 C   0  0  0  0  0  0  0  0  0  0  0  0
    1.8700  -13.4856    0.0000 C   0  0  0  0  0  0  0  0  0  0  0  0
    3.3422  -13.1980    0.0000 C   0  0  0  0  0  0  0  0  0  0  0  0
    4.7738  -12.7503    0.0000 C   0  0  0  0  0  0  0  0  0  0  0  0
    6.1475  -12.1477    0.0000 C   0  0  0  0  0  0  0  0  0  0  0  0
    7.4465  -11.3977    0.0000 C   0  0  0  0  0  0  0  0  0  0  0  0
    8.6551  -10.5094    0.0000 C   0  0  0  0  0  0  0  0  0  0  0  0
    9.7587   -9.4934    0.0000 C   0  0  0  0  0  0  0  0  0  0  0  0
   10.7439   -8.3623    0.0000 C   0  0  0  0  0  0  0  0  0  0  0  0
   11.5986   -7.1296    0.0000 C   0  0  0  0  0  0  0  0  0  0  0  0
   12.3125   -5.8104    0.0000 C   0  0  0  0  0  0  0  0  0  0  0  0
   12.8770   -4.4207    0.0000 C   0  0  0  0  0  0  0  0  0  0  0  0
   13.2851   -2.9773    0.0000 C   0  0  0  0  0  0  0  0  0  0  0  0
   13.5320   -1.4977    0.0000 C   0  0  0  0  0  0  0  0  0  0  0  0
  1  2  1  0
  2  3  1  0
  3  4  1  0
  4  5  1  0
  5  6  1  0
  6  7  1  0
  7  8  1  0
  8  9  1  0
  9 10  1  0
 10 11  1  0
 11 12  1  0
 12 13  1  0
 13 14  1  0
 14 15  1  0
 15 16  1  0
 16 17  1  0
 17 18  1  0
 18 19  1  0
 19 20  1  0
 20 21  1  0
 21 22  1  0
 22 23  1  0
 23 24  1  0
 24 25  1  0
 25 26  1  0
 26 27  1  0
 27 28  1  0
 28 29  1  0
 29 30  1  0
 30 31  1  0
 31 32  1  0
 32 33  1  0
 33 34  1  0
 34 35  1  0
 35 36  1  0
 36 37  1  0
 37 38  1  0
 38 39  1  0
 39 40  1  0
 40 41  1  0
 41 42  1  0
 42 43  1  0
 43 44  1  0
 44 45  1  0
 45 46  1  0
 46 47  1  0
 47 48  1  0
 48 49  1  0
 49 50  1  0
 50 51  1  0
 51 52  1  0
 52 53  1  0
 53 54  1  0
 54 55  1  0
 55 56  1  0
 56 57  1  0
 57  1  1  0
M  END
>  <Title>  (1108) 
idABOVgen7

$$$$

     RDKit          2D

  6  6  0  0  0  0  0  0  0  0999 V2000
    2.7760    0.0000    0.0000 C   0  0  0  0  0  0  0  0  0  0  0  0
    1.2760    0.0000    0.0000 C   0  0  0  0  0  0  0  0  0  0  0  0
    0.3943    1.2135    0.0000 C   0  0  0  0  0  0  0  0  0  0  0  0
   -1.0323    0.7500    0.0000 C   0  0  0  0  0  0  0  0  0  0  0  0
   -1.0323   -0.7500    0.0000 C   0  0  0  0  0  0  0  0  0  0  0  0
    0.3943   -1.2135    0.0000 C   0  0  0  0  0  0  0  0  0  0  0  0
  1  2  1  0
  2  3  1  0
  3  4  1  0
  4  5  1  0
  5  6  1  0
  6  2  1  0
M  END
>  <Title>  (1109) 
idABOWgen7

$$$$

     RDKit          2D

  7  6  0  0  0  0  0  0  0  0999 V2000
    0.0000    0.0000    0.0000 C   0  0  0  0  0  0  0  0  0  0  0  0
    1.2990    0.7500    0.0000 C   0  0  0  0  0  0  0  0  0  0  0  0
    1.2990    2.2500    0.0000 O   0  0  0  0  0  0  0  0  0  0  0  0
    2.5981   -0.0000    0.0000 C   0  0  0  0  0  0  0  0  0  0  0  0
    3.3481    1.2990    0.0000 C   0  0  0  0  0  0  0  0  0  0  0  0
    1.8481   -1.2990    0.0000 C   0  0  0  0  0  0  0  0  0  0  0  0
    3.8971   -0.7500    0.0000 C   0  0  0  0  0  0  0  0  0  0  0  0
  1  2  1  0
  2  3  2  0
  2  4  1  0
  4  5  1  0
  4  6  1  0
  4  7  1  0
M  END
>  <Title>  (1110) 
idABOXgen7

$$$$

     RDKit          2D

 31 34  0  0  0  0  0  0  0  0999 V2000
   -3.0367   -0.7771    0.0000 C   0  0  0  0  0  0  0  0  0  0  0  0
   -2.1015   -1.9499    0.0000 C   0  0  0  0  0  0  0  0  0  0  0  0
   -3.0367   -3.1226    0.0000 C   0  0  0  0  0  0  0  0  0  0  0  0
   -3.3705   -4.5850    0.0000 C   0  0  0  0  0  0  0  0  0  0  0  0
   -3.0367   -6.0474    0.0000 C   0  0  0  0  0  0  0  0  0  0  0  0
   -4.3881   -6.6982    0.0000 C   0  0  0  0  0  0  0  0  0  0  0  0
   -4.5002   -8.1940    0.0000 O   0  0  0  0  0  0  0  0  0  0  0  0
   -5.6275   -5.8532    0.0000 N   0  0  0  0  0  0  0  0  0  0  0  0
   -6.9790   -6.5041    0.0000 C   0  0  0  0  0  0  0  0  0  0  0  0
   -8.2183   -5.6591    0.0000 N   0  0  0  0  0  0  0  0  0  0  0  0
   -9.5698   -6.3099    0.0000 N   0  0  0  0  0  0  0  0  0  0  0  0
   -9.6819   -7.8057    0.0000 N   0  0  0  0  0  0  0  0  0  0  0  0
   -8.4425   -8.6507    0.0000 N   0  0  0  0  0  0  0  0  0  0  0  0
   -7.0910   -7.9999    0.0000 N   0  0  0  0  0  0  0  0  0  0  0  0
   -2.1015   -7.2201    0.0000 C   0  0  0  0  0  0  0  0  0  0  0  0
   -0.7500   -7.8710    0.0000 C   0  0  0  0  0  0  0  0  0  0  0  0
    0.7500   -7.8710    0.0000 C   0  0  0  0  0  0  0  0  0  0  0  0
    2.1015   -7.2201    0.0000 C   0  0  0  0  0  0  0  0  0  0  0  0
    3.0367   -6.0474    0.0000 C   0  0  0  0  0  0  0  0  0  0  0  0
    3.3705   -4.5850    0.0000 C   0  0  0  0  0  0  0  0  0  0  0  0
    3.0367   -3.1226    0.0000 C   0  0  0  0  0  0  0  0  0  0  0  0
    4.4410   -2.5955    0.0000 C   0  0  0  0  0  0  0  0  0  0  0  0
    4.3737   -1.0971    0.0000 C   0  0  0  0  0  0  0  0  0  0  0  0
    2.9278   -0.6980    0.0000 C   0  0  0  0  0  0  0  0  0  0  0  0
    2.1015   -1.9499    0.0000 C   0  0  0  0  0  0  0  0  0  0  0  0
    0.7500   -1.2990    0.0000 C   0  0  0  0  0  0  0  0  0  0  0  0
    1.5000    0.0000    0.0000 C   0  0  0  0  0  0  0  0  0  0  0  0
    0.7500    1.2990    0.0000 C   0  0  0  0  0  0  0  0  0  0  0  0
   -0.7500    1.2990    0.0000 C   0  0  0  0  0  0  0  0  0  0  0  0
   -1.5000    0.0000    0.0000 C   0  0  0  0  0  0  0  0  0  0  0  0
   -0.7500   -1.2990    0.0000 C   0  0  0  0  0  0  0  0  0  0  0  0
  1  2  1  0
  2  3  1  0
  3  4  1  0
  4  5  1  0
  5  6  1  0
  6  7  2  0
  6  8  1  0
  8  9  1  0
  9 10  2  0
 10 11  1  0
 11 12  2  0
 12 13  1  0
 13 14  2  0
  5 15  1  0
 15 16  1  0
 16 17  2  0
 17 18  1  0
 18 19  2  0
 19 20  1  0
 20 21  2  0
 21 22  1  0
 22 23  2  0
 23 24  1  0
 24 25  2  0
 25 26  1  0
 26 27  2  0
 27 28  1  0
 28 29  2  0
 29 30  1  0
 30 31  2  0
 31  2  1  0
 14  9  1  0
 25 21  1  0
 31 26  1  0
M  END
>  <Title>  (1111) 
idABOYgen7

$$$$

     RDKit          2D

 66 67  0  0  0  0  0  0  0  0999 V2000
   -2.3626    0.7779    0.0000 O   0  0  0  0  0  0  0  0  0  0  0  0
   -1.8041    2.1700    0.0000 C   0  0  0  0  0  0  0  0  0  0  0  0
   -3.1652    2.8006    0.0000 C   0  0  0  0  0  0  0  0  0  0  0  0
   -4.4528    3.5699    0.0000 C   0  0  0  0  0  0  0  0  0  0  0  0
   -5.6530    4.4697    0.0000 C   0  0  0  0  0  0  0  0  0  0  0  0
   -6.7526    5.4899    0.0000 C   0  0  0  0  0  0  0  0  0  0  0  0
   -7.7395    6.6195    0.0000 C   0  0  0  0  0  0  0  0  0  0  0  0
   -8.6030    7.8461    0.0000 C   0  0  0  0  0  0  0  0  0  0  0  0
   -9.3334    9.1562    0.0000 C   0  0  0  0  0  0  0  0  0  0  0  0
   -9.9230   10.5355    0.0000 C   0  0  0  0  0  0  0  0  0  0  0  0
  -10.3651   11.9689    0.0000 C   0  0  0  0  0  0  0  0  0  0  0  0
  -10.6550   13.4406    0.0000 C   0  0  0  0  0  0  0  0  0  0  0  0
  -10.7895   14.9346    0.0000 C   0  0  0  0  0  0  0  0  0  0  0  0
  -10.7670   16.4344    0.0000 C   0  0  0  0  0  0  0  0  0  0  0  0
  -10.5879   17.9237    0.0000 C   0  0  0  0  0  0  0  0  0  0  0  0
  -10.2541   19.3861    0.0000 C   0  0  0  0  0  0  0  0  0  0  0  0
   -9.7693   20.8055    0.0000 C   0  0  0  0  0  0  0  0  0  0  0  0
   -9.1388   22.1666    0.0000 C   0  0  0  0  0  0  0  0  0  0  0  0
   -8.3694   23.4543    0.0000 C   0  0  0  0  0  0  0  0  0  0  0  0
   -7.4697   24.6545    0.0000 C   0  0  0  0  0  0  0  0  0  0  0  0
   -6.4495   25.7540    0.0000 C   0  0  0  0  0  0  0  0  0  0  0  0
   -5.3198   26.7409    0.0000 C   0  0  0  0  0  0  0  0  0  0  0  0
   -4.0933   27.6044    0.0000 C   0  0  0  0  0  0  0  0  0  0  0  0
   -2.7832   28.3349    0.0000 C   0  0  0  0  0  0  0  0  0  0  0  0
   -1.4039   28.9244    0.0000 C   0  0  0  0  0  0  0  0  0  0  0  0
    0.0295   29.3665    0.0000 C   0  0  0  0  0  0  0  0  0  0  0  0
    1.5012   29.6564    0.0000 C   0  0  0  0  0  0  0  0  0  0  0  0
    2.9952   29.7909    0.0000 C   0  0  0  0  0  0  0  0  0  0  0  0
    4.4950   29.7684    0.0000 C   0  0  0  0  0  0  0  0  0  0  0  0
    5.9843   29.5893    0.0000 C   0  0  0  0  0  0  0  0  0  0  0  0
    7.4467   29.2556    0.0000 C   0  0  0  0  0  0  0  0  0  0  0  0
    8.8662   28.7707    0.0000 C   0  0  0  0  0  0  0  0  0  0  0  0
   10.2272   28.1402    0.0000 C   0  0  0  0  0  0  0  0  0  0  0  0
   11.5149   27.3709    0.0000 C   0  0  0  0  0  0  0  0  0  0  0  0
   12.7151   26.4711    0.0000 C   0  0  0  0  0  0  0  0  0  0  0  0
   13.8147   25.4509    0.0000 C   0  0  0  0  0  0  0  0  0  0  0  0
   14.8016   24.3213    0.0000 C   0  0  0  0  0  0  0  0  0  0  0  0
   15.6650   23.0947    0.0000 C   0  0  0  0  0  0  0  0  0  0  0  0
   16.3955   21.7846    0.0000 C   0  0  0  0  0  0  0  0  0  0  0  0
   16.9850   20.4053    0.0000 C   0  0  0  0  0  0  0  0  0  0  0  0
   17.4271   18.9719    0.0000 C   0  0  0  0  0  0  0  0  0  0  0  0
   17.7170   17.5002    0.0000 C   0  0  0  0  0  0  0  0  0  0  0  0
   17.8515   16.0062    0.0000 C   0  0  0  0  0  0  0  0  0  0  0  0
   17.8290   14.5064    0.0000 C   0  0  0  0  0  0  0  0  0  0  0  0
   17.6500   13.0171    0.0000 C   0  0  0  0  0  0  0  0  0  0  0  0
   17.3162   11.5547    0.0000 C   0  0  0  0  0  0  0  0  0  0  0  0
   16.8314   10.1352    0.0000 C   0  0  0  0  0  0  0  0  0  0  0  0
   16.2008    8.7742    0.0000 C   0  0  0  0  0  0  0  0  0  0  0  0
   15.4315    7.4865    0.0000 C   0  0  0  0  0  0  0  0  0  0  0  0
   14.5317    6.2863    0.0000 C   0  0  0  0  0  0  0  0  0  0  0  0
   13.5115    5.1868    0.0000 C   0  0  0  0  0  0  0  0  0  0  0  0
   12.3819    4.1998    0.0000 C   0  0  0  0  0  0  0  0  0  0  0  0
   11.1553    3.3364    0.0000 C   0  0  0  0  0  0  0  0  0  0  0  0
    9.8452    2.6059    0.0000 C   0  0  0  0  0  0  0  0  0  0  0  0
    8.4659    2.0164    0.0000 C   0  0  0  0  0  0  0  0  0  0  0  0
    7.0325    1.5743    0.0000 C   0  0  0  0  0  0  0  0  0  0  0  0
    5.5608    1.2844    0.0000 C   0  0  0  0  0  0  0  0  0  0  0  0
    4.0669    1.1499    0.0000 N   0  0  0  0  0  0  0  0  0  0  0  0
    2.5670    1.1724    0.0000 N   0  0  0  0  0  0  0  0  0  0  0  0
    1.0777    1.3515    0.0000 C   0  0  0  0  0  0  0  0  0  0  0  0
    1.7286    0.0000    0.0000 C   0  0  0  0  0  0  0  0  0  0  0  0
    1.0777   -1.3515    0.0000 C   0  0  0  0  0  0  0  0  0  0  0  0
   -0.3846   -1.6852    0.0000 C   0  0  0  0  0  0  0  0  0  0  0  0
   -1.5574   -0.7500    0.0000 C   0  0  0  0  0  0  0  0  0  0  0  0
   -1.5574    0.7500    0.0000 C   0  0  0  0  0  0  0  0  0  0  0  0
   -0.3846    1.6852    0.0000 C   0  0  0  0  0  0  0  0  0  0  0  0
  1  2  1  0
  2  3  1  0
  3  4  1  0
  4  5  1  0
  5  6  1  0
  6  7  1  0
  7  8  1  0
  8  9  1  0
  9 10  1  0
 10 11  1  0
 11 12  1  0
 12 13  1  0
 13 14  1  0
 14 15  1  0
 15 16  1  0
 16 17  1  0
 17 18  1  0
 18 19  1  0
 19 20  1  0
 20 21  1  0
 21 22  1  0
 22 23  1  0
 23 24  1  0
 24 25  1  0
 25 26  1  0
 26 27  1  0
 27 28  1  0
 28 29  1  0
 29 30  1  0
 30 31  1  0
 31 32  1  0
 32 33  1  0
 33 34  1  0
 34 35  1  0
 35 36  1  0
 36 37  1  0
 37 38  1  0
 38 39  1  0
 39 40  1  0
 40 41  1  0
 41 42  1  0
 42 43  1  0
 43 44  1  0
 44 45  1  0
 45 46  1  0
 46 47  1  0
 47 48  1  0
 48 49  1  0
 49 50  1  0
 50 51  1  0
 51 52  1  0
 52 53  1  0
 53 54  1  0
 54 55  1  0
 55 56  1  0
 56 57  1  0
 57 58  2  0
 58 59  1  0
 59 60  2  0
 60 61  1  0
 61 62  2  0
 62 63  1  0
 63 64  2  0
 64 65  1  0
 65 66  2  0
 66  2  1  0
 66 60  1  0
M  END
>  <Title>  (1112) 
idABOZgen7

$$$$

     RDKit          2D

 33 33  0  0  0  0  0  0  0  0999 V2000
    9.1517    0.0000    0.0000 O   0  0  0  0  0  0  0  0  0  0  0  0
    7.6517    0.0000    0.0000 C   0  0  0  0  0  0  0  0  0  0  0  0
    7.5047   -1.4928    0.0000 C   0  0  0  0  0  0  0  0  0  0  0  0
    7.0693   -2.9282    0.0000 C   0  0  0  0  0  0  0  0  0  0  0  0
    6.3622   -4.2511    0.0000 C   0  0  0  0  0  0  0  0  0  0  0  0
    5.4106   -5.4106    0.0000 C   0  0  0  0  0  0  0  0  0  0  0  0
    4.2511   -6.3622    0.0000 C   0  0  0  0  0  0  0  0  0  0  0  0
    2.9282   -7.0693    0.0000 C   0  0  0  0  0  0  0  0  0  0  0  0
    1.4928   -7.5047    0.0000 C   0  0  0  0  0  0  0  0  0  0  0  0
   -0.0000   -7.6517    0.0000 C   0  0  0  0  0  0  0  0  0  0  0  0
   -1.4928   -7.5047    0.0000 C   0  0  0  0  0  0  0  0  0  0  0  0
   -2.9282   -7.0693    0.0000 C   0  0  0  0  0  0  0  0  0  0  0  0
   -4.2511   -6.3622    0.0000 C   0  0  0  0  0  0  0  0  0  0  0  0
   -5.4106   -5.4106    0.0000 C   0  0  0  0  0  0  0  0  0  0  0  0
   -6.3622   -4.2511    0.0000 C   0  0  0  0  0  0  0  0  0  0  0  0
   -7.0693   -2.9282    0.0000 C   0  0  0  0  0  0  0  0  0  0  0  0
   -7.5047   -1.4928    0.0000 C   0  0  0  0  0  0  0  0  0  0  0  0
   -7.6517    0.0000    0.0000 C   0  0  0  0  0  0  0  0  0  0  0  0
   -7.5047    1.4928    0.0000 C   0  0  0  0  0  0  0  0  0  0  0  0
   -7.0693    2.9282    0.0000 C   0  0  0  0  0  0  0  0  0  0  0  0
   -6.3622    4.2511    0.0000 C   0  0  0  0  0  0  0  0  0  0  0  0
   -5.4106    5.4106    0.0000 C   0  0  0  0  0  0  0  0  0  0  0  0
   -4.2511    6.3622    0.0000 C   0  0  0  0  0  0  0  0  0  0  0  0
   -2.9282    7.0693    0.0000 C   0  0  0  0  0  0  0  0  0  0  0  0
   -1.4928    7.5047    0.0000 C   0  0  0  0  0  0  0  0  0  0  0  0
    0.0000    7.6517    0.0000 C   0  0  0  0  0  0  0  0  0  0  0  0
    1.4928    7.5047    0.0000 C   0  0  0  0  0  0  0  0  0  0  0  0
    2.9282    7.0693    0.0000 C   0  0  0  0  0  0  0  0  0  0  0  0
    4.2511    6.3622    0.0000 C   0  0  0  0  0  0  0  0  0  0  0  0
    5.4106    5.4106    0.0000 C   0  0  0  0  0  0  0  0  0  0  0  0
    6.3622    4.2511    0.0000 C   0  0  0  0  0  0  0  0  0  0  0  0
    7.0693    2.9282    0.0000 C   0  0  0  0  0  0  0  0  0  0  0  0
    7.5047    1.4928    0.0000 C   0  0  0  0  0  0  0  0  0  0  0  0
  1  2  1  0
  2  3  1  0
  3  4  1  0
  4  5  1  0
  5  6  1  0
  6  7  1  0
  7  8  1  0
  8  9  1  0
  9 10  1  0
 10 11  1  0
 11 12  1  0
 12 13  1  0
 13 14  1  0
 14 15  1  0
 15 16  1  0
 16 17  1  0
 17 18  1  0
 18 19  1  0
 19 20  1  0
 20 21  1  0
 21 22  1  0
 22 23  1  0
 23 24  1  0
 24 25  1  0
 25 26  1  0
 26 27  1  0
 27 28  1  0
 28 29  1  0
 29 30  1  0
 30 31  1  0
 31 32  1  0
 32 33  1  0
 33  2  1  0
M  END
>  <Title>  (1113) 
idABPAgen7

$$$$

     RDKit          2D

  9  9  0  0  0  0  0  0  0  0999 V2000
    2.1929    0.0000    0.0000 C   0  0  0  0  0  0  0  0  0  0  0  0
    1.6798    1.4095    0.0000 C   0  0  0  0  0  0  0  0  0  0  0  0
    0.3808    2.1595    0.0000 C   0  0  0  0  0  0  0  0  0  0  0  0
   -1.0964    1.8991    0.0000 C   0  0  0  0  0  0  0  0  0  0  0  0
   -2.0606    0.7500    0.0000 C   0  0  0  0  0  0  0  0  0  0  0  0
   -2.0606   -0.7500    0.0000 C   0  0  0  0  0  0  0  0  0  0  0  0
   -1.0964   -1.8991    0.0000 C   0  0  0  0  0  0  0  0  0  0  0  0
    0.3808   -2.1595    0.0000 C   0  0  0  0  0  0  0  0  0  0  0  0
    1.6798   -1.4095    0.0000 C   0  0  0  0  0  0  0  0  0  0  0  0
  1  2  1  0
  2  3  1  0
  3  4  1  0
  4  5  1  0
  5  6  1  0
  6  7  1  0
  7  8  1  0
  8  9  1  0
  9  1  1  0
M  END
>  <Title>  (1114) 
idABPBgen7

$$$$

     RDKit          2D

 59 59  0  0  0  0  0  0  0  0999 V2000
   15.1146    0.0000    0.0000 C   0  0  0  0  0  0  0  0  0  0  0  0
   13.6146    0.0000    0.0000 C   0  0  0  0  0  0  0  0  0  0  0  0
   13.5320    1.4977    0.0000 C   0  0  0  0  0  0  0  0  0  0  0  0
   13.2851    2.9773    0.0000 C   0  0  0  0  0  0  0  0  0  0  0  0
   12.8770    4.4207    0.0000 C   0  0  0  0  0  0  0  0  0  0  0  0
   12.3125    5.8104    0.0000 C   0  0  0  0  0  0  0  0  0  0  0  0
   11.5986    7.1296    0.0000 C   0  0  0  0  0  0  0  0  0  0  0  0
   10.7439    8.3623    0.0000 C   0  0  0  0  0  0  0  0  0  0  0  0
    9.7587    9.4934    0.0000 C   0  0  0  0  0  0  0  0  0  0  0  0
    8.6551   10.5094    0.0000 C   0  0  0  0  0  0  0  0  0  0  0  0
    7.4465   11.3977    0.0000 C   0  0  0  0  0  0  0  0  0  0  0  0
    6.1475   12.1477    0.0000 C   0  0  0  0  0  0  0  0  0  0  0  0
    4.7738   12.7503    0.0000 C   0  0  0  0  0  0  0  0  0  0  0  0
    3.3422   13.1980    0.0000 C   0  0  0  0  0  0  0  0  0  0  0  0
    1.8700   13.4856    0.0000 C   0  0  0  0  0  0  0  0  0  0  0  0
    0.3751   13.6095    0.0000 C   0  0  0  0  0  0  0  0  0  0  0  0
   -1.1243   13.5681    0.0000 C   0  0  0  0  0  0  0  0  0  0  0  0
   -2.6101   13.3621    0.0000 C   0  0  0  0  0  0  0  0  0  0  0  0
   -4.0642   12.9939    0.0000 C   0  0  0  0  0  0  0  0  0  0  0  0
   -5.4689   12.4679    0.0000 C   0  0  0  0  0  0  0  0  0  0  0  0
   -6.8073   11.7906    0.0000 C   0  0  0  0  0  0  0  0  0  0  0  0
   -8.0631   10.9702    0.0000 C   0  0  0  0  0  0  0  0  0  0  0  0
   -9.2209   10.0166    0.0000 C   0  0  0  0  0  0  0  0  0  0  0  0
  -10.2669    8.9414    0.0000 C   0  0  0  0  0  0  0  0  0  0  0  0
  -11.1882    7.7577    0.0000 C   0  0  0  0  0  0  0  0  0  0  0  0
  -11.9737    6.4799    0.0000 C   0  0  0  0  0  0  0  0  0  0  0  0
  -12.6139    5.1233    0.0000 C   0  0  0  0  0  0  0  0  0  0  0  0
  -13.1009    3.7046    0.0000 C   0  0  0  0  0  0  0  0  0  0  0  0
  -13.4290    2.2409    0.0000 C   0  0  0  0  0  0  0  0  0  0  0  0
  -13.5940    0.7500    0.0000 C   0  0  0  0  0  0  0  0  0  0  0  0
  -13.5940   -0.7500    0.0000 C   0  0  0  0  0  0  0  0  0  0  0  0
  -13.4290   -2.2409    0.0000 C   0  0  0  0  0  0  0  0  0  0  0  0
  -13.1009   -3.7046    0.0000 C   0  0  0  0  0  0  0  0  0  0  0  0
  -12.6139   -5.1233    0.0000 C   0  0  0  0  0  0  0  0  0  0  0  0
  -11.9737   -6.4799    0.0000 C   0  0  0  0  0  0  0  0  0  0  0  0
  -11.1882   -7.7577    0.0000 C   0  0  0  0  0  0  0  0  0  0  0  0
  -10.2669   -8.9414    0.0000 C   0  0  0  0  0  0  0  0  0  0  0  0
   -9.2209  -10.0166    0.0000 C   0  0  0  0  0  0  0  0  0  0  0  0
   -8.0631  -10.9702    0.0000 C   0  0  0  0  0  0  0  0  0  0  0  0
   -6.8073  -11.7906    0.0000 C   0  0  0  0  0  0  0  0  0  0  0  0
   -5.4689  -12.4679    0.0000 C   0  0  0  0  0  0  0  0  0  0  0  0
   -4.0642  -12.9939    0.0000 C   0  0  0  0  0  0  0  0  0  0  0  0
   -2.6101  -13.3621    0.0000 C   0  0  0  0  0  0  0  0  0  0  0  0
   -1.1243  -13.5681    0.0000 C   0  0  0  0  0  0  0  0  0  0  0  0
    0.3751  -13.6095    0.0000 C   0  0  0  0  0  0  0  0  0  0  0  0
    1.8700  -13.4856    0.0000 C   0  0  0  0  0  0  0  0  0  0  0  0
    3.3422  -13.1980    0.0000 C   0  0  0  0  0  0  0  0  0  0  0  0
    4.7738  -12.7503    0.0000 C   0  0  0  0  0  0  0  0  0  0  0  0
    6.1475  -12.1477    0.0000 C   0  0  0  0  0  0  0  0  0  0  0  0
    7.4465  -11.3977    0.0000 C   0  0  0  0  0  0  0  0  0  0  0  0
    8.6551  -10.5094    0.0000 C   0  0  0  0  0  0  0  0  0  0  0  0
    9.7587   -9.4934    0.0000 C   0  0  0  0  0  0  0  0  0  0  0  0
   10.7439   -8.3623    0.0000 C   0  0  0  0  0  0  0  0  0  0  0  0
   11.5986   -7.1296    0.0000 C   0  0  0  0  0  0  0  0  0  0  0  0
   12.3125   -5.8104    0.0000 C   0  0  0  0  0  0  0  0  0  0  0  0
   12.8770   -4.4207    0.0000 C   0  0  0  0  0  0  0  0  0  0  0  0
   13.2851   -2.9773    0.0000 C   0  0  0  0  0  0  0  0  0  0  0  0
   14.7488   -3.3053    0.0000 C   0  0  0  0  0  0  0  0  0  0  0  0
   13.5320   -1.4977    0.0000 N   0  0  0  0  0  0  0  0  0  0  0  0
  1  2  1  0
  2  3  1  0
  3  4  2  0
  4  5  1  0
  5  6  1  0
  6  7  1  0
  7  8  1  0
  8  9  1  0
  9 10  1  0
 10 11  1  0
 11 12  1  0
 12 13  1  0
 13 14  1  0
 14 15  1  0
 15 16  1  0
 16 17  1  0
 17 18  1  0
 18 19  1  0
 19 20  1  0
 20 21  1  0
 21 22  1  0
 22 23  1  0
 23 24  1  0
 24 25  1  0
 25 26  1  0
 26 27  1  0
 27 28  1  0
 28 29  1  0
 29 30  1  0
 30 31  1  0
 31 32  1  0
 32 33  1  0
 33 34  1  0
 34 35  1  0
 35 36  1  0
 36 37  1  0
 37 38  1  0
 38 39  1  0
 39 40  1  0
 40 41  1  0
 41 42  1  0
 42 43  1  0
 43 44  1  0
 44 45  1  0
 45 46  1  0
 46 47  1  0
 47 48  1  0
 48 49  1  0
 49 50  1  0
 50 51  1  0
 51 52  1  0
 52 53  1  0
 53 54  1  0
 54 55  1  0
 55 56  1  0
 56 57  1  0
 57 58  1  0
 57 59  1  0
 59  2  1  0
M  END
>  <Title>  (1115) 
idABPCgen7

$$$$

     RDKit          2D

 40 45  0  0  0  0  0  0  0  0999 V2000
   -1.1382   -8.3460    0.0000 C   0  0  0  0  0  0  0  0  0  0  0  0
   -0.7500   -6.8971    0.0000 C   0  0  0  0  0  0  0  0  0  0  0  0
    0.7500   -6.8971    0.0000 C   0  0  0  0  0  0  0  0  0  0  0  0
    2.0490   -6.1471    0.0000 C   0  0  0  0  0  0  0  0  0  0  0  0
    2.7990   -4.8481    0.0000 C   0  0  0  0  0  0  0  0  0  0  0  0
    4.2479   -5.2363    0.0000 C   0  0  0  0  0  0  0  0  0  0  0  0
    5.3086   -4.1756    0.0000 O   0  0  0  0  0  0  0  0  0  0  0  0
    4.6362   -6.6852    0.0000 N   0  0  0  0  0  0  0  0  0  0  0  0
    6.0850   -7.0734    0.0000 C   0  0  0  0  0  0  0  0  0  0  0  0
    6.4733   -8.5223    0.0000 N   0  0  0  0  0  0  0  0  0  0  0  0
    7.9222   -8.9105    0.0000 N   0  0  0  0  0  0  0  0  0  0  0  0
    8.9828   -7.8499    0.0000 N   0  0  0  0  0  0  0  0  0  0  0  0
    8.5946   -6.4010    0.0000 N   0  0  0  0  0  0  0  0  0  0  0  0
    7.1457   -6.0128    0.0000 N   0  0  0  0  0  0  0  0  0  0  0  0
    2.7990   -3.3481    0.0000 C   0  0  0  0  0  0  0  0  0  0  0  0
    4.2990   -3.3481    0.0000 C   0  0  0  0  0  0  0  0  0  0  0  0
    5.0490   -2.0490    0.0000 C   0  0  0  0  0  0  0  0  0  0  0  0
    4.2990   -0.7500    0.0000 C   0  0  0  0  0  0  0  0  0  0  0  0
    5.0490    0.5490    0.0000 C   0  0  0  0  0  0  0  0  0  0  0  0
    5.7990    1.8481    0.0000 N   0  0  0  0  0  0  0  0  0  0  0  0
    2.7990   -0.7500    0.0000 C   0  0  0  0  0  0  0  0  0  0  0  0
    2.0490   -2.0490    0.0000 C   0  0  0  0  0  0  0  0  0  0  0  0
    0.7500   -1.2990    0.0000 C   0  0  0  0  0  0  0  0  0  0  0  0
    1.5000    0.0000    0.0000 C   0  0  0  0  0  0  0  0  0  0  0  0
    0.7500    1.2990    0.0000 C   0  0  0  0  0  0  0  0  0  0  0  0
   -0.7500    1.2990    0.0000 C   0  0  0  0  0  0  0  0  0  0  0  0
   -1.5000    0.0000    0.0000 C   0  0  0  0  0  0  0  0  0  0  0  0
   -0.7500   -1.2990    0.0000 C   0  0  0  0  0  0  0  0  0  0  0  0
   -2.0490   -2.0490    0.0000 C   0  0  0  0  0  0  0  0  0  0  0  0
   -2.7990   -0.7500    0.0000 C   0  0  0  0  0  0  0  0  0  0  0  0
   -4.2990   -0.7500    0.0000 C   0  0  0  0  0  0  0  0  0  0  0  0
   -5.0490   -2.0490    0.0000 C   0  0  0  0  0  0  0  0  0  0  0  0
   -4.2990   -3.3481    0.0000 C   0  0  0  0  0  0  0  0  0  0  0  0
   -2.7990   -3.3481    0.0000 C   0  0  0  0  0  0  0  0  0  0  0  0
   -2.7990   -4.8481    0.0000 C   0  0  0  0  0  0  0  0  0  0  0  0
   -4.2990   -4.8481    0.0000 C   0  0  0  0  0  0  0  0  0  0  0  0
   -5.0490   -6.1471    0.0000 C   0  0  0  0  0  0  0  0  0  0  0  0
   -4.2990   -7.4462    0.0000 C   0  0  0  0  0  0  0  0  0  0  0  0
   -2.7990   -7.4462    0.0000 C   0  0  0  0  0  0  0  0  0  0  0  0
   -2.0490   -6.1471    0.0000 C   0  0  0  0  0  0  0  0  0  0  0  0
  1  2  1  0
  2  3  1  0
  3  4  1  0
  4  5  1  0
  5  6  1  0
  6  7  2  0
  6  8  1  0
  8  9  1  0
  9 10  2  0
 10 11  1  0
 11 12  2  0
 12 13  1  0
 13 14  2  0
  5 15  1  0
 15 16  2  0
 16 17  1  0
 17 18  2  0
 18 19  1  0
 19 20  3  0
 18 21  1  0
 21 22  2  0
 22 23  1  0
 23 24  2  0
 24 25  1  0
 25 26  2  0
 26 27  1  0
 27 28  2  0
 28 29  1  0
 29 30  2  0
 30 31  1  0
 31 32  2  0
 32 33  1  0
 33 34  2  0
 34 35  1  0
 35 36  2  0
 36 37  1  0
 37 38  2  0
 38 39  1  0
 39 40  2  0
 40  2  1  0
 14  9  1  0
 22 15  1  0
 28 23  1  0
 34 29  1  0
 40 35  1  0
M  END
>  <Title>  (1116) 
idABPDgen7

$$$$

     RDKit          2D

124124  0  0  0  0  0  0  0  0999 V2000
  133.2760   75.3442    0.0000 C   0  0  0  0  0  0  0  0  0  0  0  0
  131.7760   75.3442    0.0000 C   0  0  0  0  0  0  0  0  0  0  0  0
  131.0260   74.0452    0.0000 C   0  0  0  0  0  0  0  0  0  0  0  0
  129.5260   74.0452    0.0000 C   0  0  0  0  0  0  0  0  0  0  0  0
  128.7760   72.7461    0.0000 C   0  0  0  0  0  0  0  0  0  0  0  0
  127.2760   72.7461    0.0000 C   0  0  0  0  0  0  0  0  0  0  0  0
  126.5260   71.4471    0.0000 C   0  0  0  0  0  0  0  0  0  0  0  0
  125.0260   71.4471    0.0000 C   0  0  0  0  0  0  0  0  0  0  0  0
  124.2760   70.1481    0.0000 C   0  0  0  0  0  0  0  0  0  0  0  0
  122.7760   70.1481    0.0000 C   0  0  0  0  0  0  0  0  0  0  0  0
  122.0260   68.8490    0.0000 C   0  0  0  0  0  0  0  0  0  0  0  0
  120.5260   68.8490    0.0000 C   0  0  0  0  0  0  0  0  0  0  0  0
  119.7760   67.5500    0.0000 C   0  0  0  0  0  0  0  0  0  0  0  0
  118.2760   67.5500    0.0000 C   0  0  0  0  0  0  0  0  0  0  0  0
  117.5260   66.2509    0.0000 C   0  0  0  0  0  0  0  0  0  0  0  0
  116.0260   66.2509    0.0000 C   0  0  0  0  0  0  0  0  0  0  0  0
  115.2760   64.9519    0.0000 C   0  0  0  0  0  0  0  0  0  0  0  0
  113.7760   64.9519    0.0000 C   0  0  0  0  0  0  0  0  0  0  0  0
  113.0260   63.6529    0.0000 C   0  0  0  0  0  0  0  0  0  0  0  0
  111.5260   63.6529    0.0000 C   0  0  0  0  0  0  0  0  0  0  0  0
  110.7760   62.3538    0.0000 C   0  0  0  0  0  0  0  0  0  0  0  0
  109.2760   62.3538    0.0000 C   0  0  0  0  0  0  0  0  0  0  0  0
  108.5260   61.0548    0.0000 C   0  0  0  0  0  0  0  0  0  0  0  0
  107.0260   61.0548    0.0000 C   0  0  0  0  0  0  0  0  0  0  0  0
  106.2760   59.7558    0.0000 C   0  0  0  0  0  0  0  0  0  0  0  0
  104.7760   59.7558    0.0000 C   0  0  0  0  0  0  0  0  0  0  0  0
  104.0260   58.4567    0.0000 C   0  0  0  0  0  0  0  0  0  0  0  0
  102.5260   58.4567    0.0000 C   0  0  0  0  0  0  0  0  0  0  0  0
  101.7760   57.1577    0.0000 C   0  0  0  0  0  0  0  0  0  0  0  0
  100.2760   57.1577    0.0000 C   0  0  0  0  0  0  0  0  0  0  0  0
   99.5260   55.8586    0.0000 C   0  0  0  0  0  0  0  0  0  0  0  0
   98.0260   55.8586    0.0000 C   0  0  0  0  0  0  0  0  0  0  0  0
   97.2760   54.5596    0.0000 C   0  0  0  0  0  0  0  0  0  0  0  0
   95.7760   54.5596    0.0000 C   0  0  0  0  0  0  0  0  0  0  0  0
   95.0260   53.2606    0.0000 C   0  0  0  0  0  0  0  0  0  0  0  0
   93.5260   53.2606    0.0000 C   0  0  0  0  0  0  0  0  0  0  0  0
   92.7760   51.9615    0.0000 C   0  0  0  0  0  0  0  0  0  0  0  0
   91.2760   51.9615    0.0000 C   0  0  0  0  0  0  0  0  0  0  0  0
   90.5260   50.6625    0.0000 C   0  0  0  0  0  0  0  0  0  0  0  0
   89.0260   50.6625    0.0000 C   0  0  0  0  0  0  0  0  0  0  0  0
   88.2760   49.3634    0.0000 C   0  0  0  0  0  0  0  0  0  0  0  0
   86.7760   49.3634    0.0000 C   0  0  0  0  0  0  0  0  0  0  0  0
   86.0260   48.0644    0.0000 C   0  0  0  0  0  0  0  0  0  0  0  0
   84.5260   48.0644    0.0000 C   0  0  0  0  0  0  0  0  0  0  0  0
   83.7760   46.7654    0.0000 C   0  0  0  0  0  0  0  0  0  0  0  0
   82.2760   46.7654    0.0000 C   0  0  0  0  0  0  0  0  0  0  0  0
   81.5260   45.4663    0.0000 C   0  0  0  0  0  0  0  0  0  0  0  0
   80.0260   45.4663    0.0000 C   0  0  0  0  0  0  0  0  0  0  0  0
   79.2760   44.1673    0.0000 C   0  0  0  0  0  0  0  0  0  0  0  0
   77.7760   44.1673    0.0000 C   0  0  0  0  0  0  0  0  0  0  0  0
   77.0260   42.8683    0.0000 C   0  0  0  0  0  0  0  0  0  0  0  0
   75.5260   42.8683    0.0000 C   0  0  0  0  0  0  0  0  0  0  0  0
   74.7760   41.5692    0.0000 C   0  0  0  0  0  0  0  0  0  0  0  0
   73.2760   41.5692    0.0000 C   0  0  0  0  0  0  0  0  0  0  0  0
   72.5260   40.2702    0.0000 C   0  0  0  0  0  0  0  0  0  0  0  0
   71.0260   40.2702    0.0000 C   0  0  0  0  0  0  0  0  0  0  0  0
   70.2760   38.9711    0.0000 C   0  0  0  0  0  0  0  0  0  0  0  0
   68.7760   38.9711    0.0000 C   0  0  0  0  0  0  0  0  0  0  0  0
   68.0260   37.6721    0.0000 C   0  0  0  0  0  0  0  0  0  0  0  0
   66.5260   37.6721    0.0000 C   0  0  0  0  0  0  0  0  0  0  0  0
   65.7760   36.3731    0.0000 C   0  0  0  0  0  0  0  0  0  0  0  0
   64.2760   36.3731    0.0000 C   0  0  0  0  0  0  0  0  0  0  0  0
   63.5260   35.0740    0.0000 C   0  0  0  0  0  0  0  0  0  0  0  0
   62.0260   35.0740    0.0000 C   0  0  0  0  0  0  0  0  0  0  0  0
   61.2760   33.7750    0.0000 C   0  0  0  0  0  0  0  0  0  0  0  0
   59.7760   33.7750    0.0000 C   0  0  0  0  0  0  0  0  0  0  0  0
   59.0260   32.4760    0.0000 C   0  0  0  0  0  0  0  0  0  0  0  0
   57.5260   32.4760    0.0000 C   0  0  0  0  0  0  0  0  0  0  0  0
   56.7760   31.1769    0.0000 C   0  0  0  0  0  0  0  0  0  0  0  0
   55.2760   31.1769    0.0000 C   0  0  0  0  0  0  0  0  0  0  0  0
   54.5260   29.8779    0.0000 C   0  0  0  0  0  0  0  0  0  0  0  0
   53.0260   29.8779    0.0000 C   0  0  0  0  0  0  0  0  0  0  0  0
   52.2760   28.5788    0.0000 C   0  0  0  0  0  0  0  0  0  0  0  0
   50.7760   28.5788    0.0000 C   0  0  0  0  0  0  0  0  0  0  0  0
   50.0260   27.2798    0.0000 C   0  0  0  0  0  0  0  0  0  0  0  0
   48.5260   27.2798    0.0000 C   0  0  0  0  0  0  0  0  0  0  0  0
   47.7760   25.9808    0.0000 C   0  0  0  0  0  0  0  0  0  0  0  0
   46.2760   25.9808    0.0000 C   0  0  0  0  0  0  0  0  0  0  0  0
   45.5260   24.6817    0.0000 C   0  0  0  0  0  0  0  0  0  0  0  0
   44.0260   24.6817    0.0000 C   0  0  0  0  0  0  0  0  0  0  0  0
   43.2760   23.3827    0.0000 C   0  0  0  0  0  0  0  0  0  0  0  0
   41.7760   23.3827    0.0000 C   0  0  0  0  0  0  0  0  0  0  0  0
   41.0260   22.0836    0.0000 C   0  0  0  0  0  0  0  0  0  0  0  0
   39.5260   22.0836    0.0000 C   0  0  0  0  0  0  0  0  0  0  0  0
   38.7760   20.7846    0.0000 C   0  0  0  0  0  0  0  0  0  0  0  0
   37.2760   20.7846    0.0000 C   0  0  0  0  0  0  0  0  0  0  0  0
   36.5260   19.4856    0.0000 C   0  0  0  0  0  0  0  0  0  0  0  0
   35.0260   19.4856    0.0000 C   0  0  0  0  0  0  0  0  0  0  0  0
   34.2760   18.1865    0.0000 C   0  0  0  0  0  0  0  0  0  0  0  0
   32.7760   18.1865    0.0000 C   0  0  0  0  0  0  0  0  0  0  0  0
   32.0260   16.8875    0.0000 C   0  0  0  0  0  0  0  0  0  0  0  0
   30.5260   16.8875    0.0000 C   0  0  0  0  0  0  0  0  0  0  0  0
   29.7760   15.5885    0.0000 C   0  0  0  0  0  0  0  0  0  0  0  0
   28.2760   15.5885    0.0000 C   0  0  0  0  0  0  0  0  0  0  0  0
   27.5260   14.2894    0.0000 C   0  0  0  0  0  0  0  0  0  0  0  0
   26.0260   14.2894    0.0000 C   0  0  0  0  0  0  0  0  0  0  0  0
   25.2760   12.9904    0.0000 C   0  0  0  0  0  0  0  0  0  0  0  0
   23.7760   12.9904    0.0000 C   0  0  0  0  0  0  0  0  0  0  0  0
   23.0260   11.6913    0.0000 C   0  0  0  0  0  0  0  0  0  0  0  0
   21.5260   11.6913    0.0000 C   0  0  0  0  0  0  0  0  0  0  0  0
   20.7760   10.3923    0.0000 C   0  0  0  0  0  0  0  0  0  0  0  0
   19.2760   10.3923    0.0000 C   0  0  0  0  0  0  0  0  0  0  0  0
   18.5260    9.0933    0.0000 C   0  0  0  0  0  0  0  0  0  0  0  0
   17.0260    9.0933    0.0000 C   0  0  0  0  0  0  0  0  0  0  0  0
   16.2760    7.7942    0.0000 C   0  0  0  0  0  0  0  0  0  0  0  0
   14.7760    7.7942    0.0000 C   0  0  0  0  0  0  0  0  0  0  0  0
   14.0260    6.4952    0.0000 C   0  0  0  0  0  0  0  0  0  0  0  0
   12.5260    6.4952    0.0000 C   0  0  0  0  0  0  0  0  0  0  0  0
   11.7760    5.1962    0.0000 C   0  0  0  0  0  0  0  0  0  0  0  0
   10.2760    5.1962    0.0000 C   0  0  0  0  0  0  0  0  0  0  0  0
    9.5260    3.8971    0.0000 C   0  0  0  0  0  0  0  0  0  0  0  0
    8.0260    3.8971    0.0000 C   0  0  0  0  0  0  0  0  0  0  0  0
    7.2760    2.5981    0.0000 C   0  0  0  0  0  0  0  0  0  0  0  0
    5.7760    2.5981    0.0000 C   0  0  0  0  0  0  0  0  0  0  0  0
    5.0260    1.2990    0.0000 C   0  0  0  0  0  0  0  0  0  0  0  0
    3.5260    1.2990    0.0000 C   0  0  0  0  0  0  0  0  0  0  0  0
    2.7760    0.0000    0.0000 C   0  0  0  0  0  0  0  0  0  0  0  0
    1.2760    0.0000    0.0000 C   0  0  0  0  0  0  0  0  0  0  0  0
    0.3943    1.2135    0.0000 C   0  0  0  0  0  0  0  0  0  0  0  0
   -1.0323    0.7500    0.0000 C   0  0  0  0  0  0  0  0  0  0  0  0
   -2.2458    1.6317    0.0000 C   0  0  0  0  0  0  0  0  0  0  0  0
   -1.0323   -0.7500    0.0000 C   0  0  0  0  0  0  0  0  0  0  0  0
    0.3943   -1.2135    0.0000 C   0  0  0  0  0  0  0  0  0  0  0  0
    0.8578   -2.6401    0.0000 C   0  0  0  0  0  0  0  0  0  0  0  0
  1  2  1  0
  2  3  1  0
  3  4  1  0
  4  5  1  0
  5  6  1  0
  6  7  1  0
  7  8  1  0
  8  9  1  0
  9 10  1  0
 10 11  1  0
 11 12  1  0
 12 13  1  0
 13 14  1  0
 14 15  1  0
 15 16  1  0
 16 17  1  0
 17 18  1  0
 18 19  1  0
 19 20  1  0
 20 21  1  0
 21 22  1  0
 22 23  1  0
 23 24  1  0
 24 25  1  0
 25 26  1  0
 26 27  1  0
 27 28  1  0
 28 29  1  0
 29 30  1  0
 30 31  1  0
 31 32  1  0
 32 33  1  0
 33 34  1  0
 34 35  1  0
 35 36  1  0
 36 37  1  0
 37 38  1  0
 38 39  1  0
 39 40  1  0
 40 41  1  0
 41 42  1  0
 42 43  1  0
 43 44  1  0
 44 45  1  0
 45 46  1  0
 46 47  1  0
 47 48  1  0
 48 49  1  0
 49 50  1  0
 50 51  1  0
 51 52  1  0
 52 53  1  0
 53 54  1  0
 54 55  1  0
 55 56  1  0
 56 57  1  0
 57 58  1  0
 58 59  1  0
 59 60  1  0
 60 61  1  0
 61 62  1  0
 62 63  1  0
 63 64  1  0
 64 65  1  0
 65 66  1  0
 66 67  1  0
 67 68  1  0
 68 69  1  0
 69 70  1  0
 70 71  1  0
 71 72  1  0
 72 73  1  0
 73 74  1  0
 74 75  1  0
 75 76  1  0
 76 77  1  0
 77 78  1  0
 78 79  1  0
 79 80  1  0
 80 81  1  0
 81 82  1  0
 82 83  1  0
 83 84  1  0
 84 85  1  0
 85 86  1  0
 86 87  1  0
 87 88  1  0
 88 89  1  0
 89 90  1  0
 90 91  1  0
 91 92  1  0
 92 93  1  0
 93 94  1  0
 94 95  1  0
 95 96  1  0
 96 97  1  0
 97 98  1  0
 98 99  1  0
 99100  1  0
100101  1  0
101102  1  0
102103  1  0
103104  1  0
104105  1  0
105106  1  0
106107  1  0
107108  1  0
108109  1  0
109110  1  0
110111  1  0
111112  1  0
112113  1  0
113114  1  0
114115  1  0
115116  1  0
116117  1  0
117118  1  0
118119  1  0
119120  1  0
120121  1  0
120122  1  0
122123  1  0
123124  1  0
123118  1  0
M  END
>  <Title>  (1117) 
idABPEgen7

$$$$

     RDKit          2D

 99 99  0  0  0  0  0  0  0  0999 V2000
   23.6385    0.0000    0.0000 C   0  0  0  0  0  0  0  0  0  0  0  0
   23.5909    1.4992    0.0000 C   0  0  0  0  0  0  0  0  0  0  0  0
   23.4483    2.9925    0.0000 C   0  0  0  0  0  0  0  0  0  0  0  0
   23.2113    4.4736    0.0000 C   0  0  0  0  0  0  0  0  0  0  0  0
   22.8808    5.9368    0.0000 C   0  0  0  0  0  0  0  0  0  0  0  0
   22.4582    7.3760    0.0000 C   0  0  0  0  0  0  0  0  0  0  0  0
   21.9452    8.7855    0.0000 C   0  0  0  0  0  0  0  0  0  0  0  0
   21.3438   10.1597    0.0000 C   0  0  0  0  0  0  0  0  0  0  0  0
   20.6565   11.4929    0.0000 C   0  0  0  0  0  0  0  0  0  0  0  0
   19.8860   12.7799    0.0000 C   0  0  0  0  0  0  0  0  0  0  0  0
   19.0354   14.0154    0.0000 C   0  0  0  0  0  0  0  0  0  0  0  0
   18.1081   15.1945    0.0000 C   0  0  0  0  0  0  0  0  0  0  0  0
   17.1080   16.3124    0.0000 C   0  0  0  0  0  0  0  0  0  0  0  0
   16.0389   17.3646    0.0000 C   0  0  0  0  0  0  0  0  0  0  0  0
   14.9053   18.3469    0.0000 C   0  0  0  0  0  0  0  0  0  0  0  0
   13.7117   19.2553    0.0000 C   0  0  0  0  0  0  0  0  0  0  0  0
   12.4628   20.0862    0.0000 C   0  0  0  0  0  0  0  0  0  0  0  0
   11.1638   20.8362    0.0000 C   0  0  0  0  0  0  0  0  0  0  0  0
    9.8198   21.5023    0.0000 C   0  0  0  0  0  0  0  0  0  0  0  0
    8.4362   22.0818    0.0000 C   0  0  0  0  0  0  0  0  0  0  0  0
    7.0187   22.5724    0.0000 C   0  0  0  0  0  0  0  0  0  0  0  0
    5.5730   22.9721    0.0000 C   0  0  0  0  0  0  0  0  0  0  0  0
    4.1048   23.2794    0.0000 C   0  0  0  0  0  0  0  0  0  0  0  0
    2.6200   23.4928    0.0000 C   0  0  0  0  0  0  0  0  0  0  0  0
    1.1248   23.6117    0.0000 C   0  0  0  0  0  0  0  0  0  0  0  0
   -0.3750   23.6355    0.0000 C   0  0  0  0  0  0  0  0  0  0  0  0
   -1.8733   23.5641    0.0000 C   0  0  0  0  0  0  0  0  0  0  0  0
   -3.3641   23.3979    0.0000 C   0  0  0  0  0  0  0  0  0  0  0  0
   -4.8413   23.1374    0.0000 C   0  0  0  0  0  0  0  0  0  0  0  0
   -6.2990   22.7838    0.0000 C   0  0  0  0  0  0  0  0  0  0  0  0
   -7.7314   22.3384    0.0000 C   0  0  0  0  0  0  0  0  0  0  0  0
   -9.1326   21.8031    0.0000 C   0  0  0  0  0  0  0  0  0  0  0  0
  -10.4971   21.1799    0.0000 C   0  0  0  0  0  0  0  0  0  0  0  0
  -11.8192   20.4715    0.0000 C   0  0  0  0  0  0  0  0  0  0  0  0
  -13.0938   19.6807    0.0000 C   0  0  0  0  0  0  0  0  0  0  0  0
  -14.3157   18.8106    0.0000 C   0  0  0  0  0  0  0  0  0  0  0  0
  -15.4799   17.8648    0.0000 C   0  0  0  0  0  0  0  0  0  0  0  0
  -16.5818   16.8470    0.0000 C   0  0  0  0  0  0  0  0  0  0  0  0
  -17.6169   15.7614    0.0000 C   0  0  0  0  0  0  0  0  0  0  0  0
  -18.5811   14.6123    0.0000 C   0  0  0  0  0  0  0  0  0  0  0  0
  -19.4705   13.4044    0.0000 C   0  0  0  0  0  0  0  0  0  0  0  0
  -20.2814   12.1426    0.0000 C   0  0  0  0  0  0  0  0  0  0  0  0
  -21.0107   10.8318    0.0000 C   0  0  0  0  0  0  0  0  0  0  0  0
  -21.6554    9.4774    0.0000 C   0  0  0  0  0  0  0  0  0  0  0  0
  -22.2129    8.0848    0.0000 C   0  0  0  0  0  0  0  0  0  0  0  0
  -22.6810    6.6597    0.0000 C   0  0  0  0  0  0  0  0  0  0  0  0
  -23.0577    5.2078    0.0000 C   0  0  0  0  0  0  0  0  0  0  0  0
  -23.3416    3.7349    0.0000 C   0  0  0  0  0  0  0  0  0  0  0  0
  -23.5314    2.2470    0.0000 C   0  0  0  0  0  0  0  0  0  0  0  0
  -23.6266    0.7500    0.0000 C   0  0  0  0  0  0  0  0  0  0  0  0
  -23.6266   -0.7500    0.0000 C   0  0  0  0  0  0  0  0  0  0  0  0
  -23.5314   -2.2470    0.0000 C   0  0  0  0  0  0  0  0  0  0  0  0
  -23.3416   -3.7349    0.0000 C   0  0  0  0  0  0  0  0  0  0  0  0
  -23.0577   -5.2078    0.0000 C   0  0  0  0  0  0  0  0  0  0  0  0
  -22.6810   -6.6597    0.0000 C   0  0  0  0  0  0  0  0  0  0  0  0
  -22.2129   -8.0848    0.0000 C   0  0  0  0  0  0  0  0  0  0  0  0
  -21.6554   -9.4774    0.0000 C   0  0  0  0  0  0  0  0  0  0  0  0
  -21.0107  -10.8318    0.0000 C   0  0  0  0  0  0  0  0  0  0  0  0
  -20.2814  -12.1426    0.0000 C   0  0  0  0  0  0  0  0  0  0  0  0
  -19.4705  -13.4044    0.0000 C   0  0  0  0  0  0  0  0  0  0  0  0
  -18.5811  -14.6123    0.0000 C   0  0  0  0  0  0  0  0  0  0  0  0
  -17.6169  -15.7614    0.0000 C   0  0  0  0  0  0  0  0  0  0  0  0
  -16.5818  -16.8470    0.0000 C   0  0  0  0  0  0  0  0  0  0  0  0
  -15.4799  -17.8648    0.0000 C   0  0  0  0  0  0  0  0  0  0  0  0
  -14.3157  -18.8106    0.0000 C   0  0  0  0  0  0  0  0  0  0  0  0
  -13.0938  -19.6807    0.0000 C   0  0  0  0  0  0  0  0  0  0  0  0
  -11.8192  -20.4715    0.0000 C   0  0  0  0  0  0  0  0  0  0  0  0
  -10.4971  -21.1799    0.0000 C   0  0  0  0  0  0  0  0  0  0  0  0
   -9.1326  -21.8031    0.0000 C   0  0  0  0  0  0  0  0  0  0  0  0
   -7.7314  -22.3384    0.0000 C   0  0  0  0  0  0  0  0  0  0  0  0
   -6.2990  -22.7838    0.0000 C   0  0  0  0  0  0  0  0  0  0  0  0
   -4.8413  -23.1374    0.0000 C   0  0  0  0  0  0  0  0  0  0  0  0
   -3.3641  -23.3979    0.0000 C   0  0  0  0  0  0  0  0  0  0  0  0
   -1.8733  -23.5641    0.0000 C   0  0  0  0  0  0  0  0  0  0  0  0
   -0.3750  -23.6355    0.0000 C   0  0  0  0  0  0  0  0  0  0  0  0
    1.1248  -23.6117    0.0000 C   0  0  0  0  0  0  0  0  0  0  0  0
    2.6200  -23.4928    0.0000 C   0  0  0  0  0  0  0  0  0  0  0  0
    4.1048  -23.2794    0.0000 C   0  0  0  0  0  0  0  0  0  0  0  0
    5.5730  -22.9721    0.0000 C   0  0  0  0  0  0  0  0  0  0  0  0
    7.0187  -22.5724    0.0000 C   0  0  0  0  0  0  0  0  0  0  0  0
    8.4362  -22.0818    0.0000 C   0  0  0  0  0  0  0  0  0  0  0  0
    9.8198  -21.5023    0.0000 C   0  0  0  0  0  0  0  0  0  0  0  0
   11.1638  -20.8362    0.0000 C   0  0  0  0  0  0  0  0  0  0  0  0
   12.4628  -20.0862    0.0000 C   0  0  0  0  0  0  0  0  0  0  0  0
   13.7117  -19.2553    0.0000 C   0  0  0  0  0  0  0  0  0  0  0  0
   14.9053  -18.3469    0.0000 C   0  0  0  0  0  0  0  0  0  0  0  0
   16.0389  -17.3646    0.0000 C   0  0  0  0  0  0  0  0  0  0  0  0
   17.1080  -16.3124    0.0000 C   0  0  0  0  0  0  0  0  0  0  0  0
   18.1081  -15.1945    0.0000 C   0  0  0  0  0  0  0  0  0  0  0  0
   19.0354  -14.0154    0.0000 C   0  0  0  0  0  0  0  0  0  0  0  0
   19.8860  -12.7799    0.0000 C   0  0  0  0  0  0  0  0  0  0  0  0
   20.6565  -11.4929    0.0000 C   0  0  0  0  0  0  0  0  0  0  0  0
   21.3438  -10.1597    0.0000 C   0  0  0  0  0  0  0  0  0  0  0  0
   21.9452   -8.7855    0.0000 C   0  0  0  0  0  0  0  0  0  0  0  0
   22.4582   -7.3760    0.0000 C   0  0  0  0  0  0  0  0  0  0  0  0
   22.8808   -5.9368    0.0000 C   0  0  0  0  0  0  0  0  0  0  0  0
   23.2113   -4.4736    0.0000 C   0  0  0  0  0  0  0  0  0  0  0  0
   23.4483   -2.9925    0.0000 C   0  0  0  0  0  0  0  0  0  0  0  0
   23.5909   -1.4992    0.0000 C   0  0  0  0  0  0  0  0  0  0  0  0
  1  2  1  0
  2  3  1  0
  3  4  1  0
  4  5  1  0
  5  6  1  0
  6  7  1  0
  7  8  1  0
  8  9  1  0
  9 10  1  0
 10 11  1  0
 11 12  1  0
 12 13  1  0
 13 14  1  0
 14 15  1  0
 15 16  1  0
 16 17  1  0
 17 18  1  0
 18 19  1  0
 19 20  1  0
 20 21  1  0
 21 22  1  0
 22 23  1  0
 23 24  1  0
 24 25  1  0
 25 26  1  0
 26 27  1  0
 27 28  1  0
 28 29  1  0
 29 30  1  0
 30 31  1  0
 31 32  1  0
 32 33  1  0
 33 34  1  0
 34 35  1  0
 35 36  1  0
 36 37  1  0
 37 38  1  0
 38 39  1  0
 39 40  1  0
 40 41  1  0
 41 42  1  0
 42 43  1  0
 43 44  1  0
 44 45  1  0
 45 46  1  0
 46 47  1  0
 47 48  1  0
 48 49  1  0
 49 50  1  0
 50 51  1  0
 51 52  1  0
 52 53  1  0
 53 54  1  0
 54 55  1  0
 55 56  1  0
 56 57  1  0
 57 58  1  0
 58 59  1  0
 59 60  1  0
 60 61  1  0
 61 62  1  0
 62 63  1  0
 63 64  1  0
 64 65  1  0
 65 66  1  0
 66 67  1  0
 67 68  1  0
 68 69  1  0
 69 70  1  0
 70 71  1  0
 71 72  1  0
 72 73  1  0
 73 74  1  0
 74 75  1  0
 75 76  1  0
 76 77  1  0
 77 78  1  0
 78 79  1  0
 79 80  1  0
 80 81  1  0
 81 82  1  0
 82 83  1  0
 83 84  1  0
 84 85  1  0
 85 86  1  0
 86 87  1  0
 87 88  1  0
 88 89  1  0
 89 90  1  0
 90 91  1  0
 91 92  1  0
 92 93  1  0
 93 94  1  0
 94 95  1  0
 95 96  1  0
 96 97  1  0
 97 98  1  0
 98 99  1  0
 99  1  1  0
M  END
>  <Title>  (1118) 
idABPFgen7

$$$$

     RDKit          2D

 24 26  0  0  0  0  0  0  0  0999 V2000
    5.5093  -12.1141    0.0000 C   0  0  0  0  0  0  0  0  0  0  0  0
    6.5129  -10.9994    0.0000 C   0  0  0  0  0  0  0  0  0  0  0  0
    8.0047  -11.1562    0.0000 C   0  0  0  0  0  0  0  0  0  0  0  0
    8.6148   -9.7859    0.0000 C   0  0  0  0  0  0  0  0  0  0  0  0
    7.5001   -8.7822    0.0000 C   0  0  0  0  0  0  0  0  0  0  0  0
    7.6569   -7.2904    0.0000 C   0  0  0  0  0  0  0  0  0  0  0  0
    6.2011   -9.5322    0.0000 C   0  0  0  0  0  0  0  0  0  0  0  0
    4.8308   -8.9221    0.0000 C   0  0  0  0  0  0  0  0  0  0  0  0
    3.6172   -9.8037    0.0000 O   0  0  0  0  0  0  0  0  0  0  0  0
    4.6740   -7.4303    0.0000 N   0  0  0  0  0  0  0  0  0  0  0  0
    3.3037   -6.8202    0.0000 C   0  0  0  0  0  0  0  0  0  0  0  0
    2.0046   -7.5702    0.0000 C   0  0  0  0  0  0  0  0  0  0  0  0
    0.8899   -6.5665    0.0000 C   0  0  0  0  0  0  0  0  0  0  0  0
    1.5000   -5.1962    0.0000 C   0  0  0  0  0  0  0  0  0  0  0  0
    0.7500   -3.8971    0.0000 C   0  0  0  0  0  0  0  0  0  0  0  0
   -0.7500   -3.8971    0.0000 O   0  0  0  0  0  0  0  0  0  0  0  0
    1.5000   -2.5981    0.0000 N   0  0  0  0  0  0  0  0  0  0  0  0
    0.7500   -1.2990    0.0000 C   0  0  0  0  0  0  0  0  0  0  0  0
    1.5000    0.0000    0.0000 N   0  0  0  0  0  0  0  0  0  0  0  0
    0.7500    1.2990    0.0000 N   0  0  0  0  0  0  0  0  0  0  0  0
   -0.7500    1.2990    0.0000 N   0  0  0  0  0  0  0  0  0  0  0  0
   -1.5000    0.0000    0.0000 N   0  0  0  0  0  0  0  0  0  0  0  0
   -0.7500   -1.2990    0.0000 N   0  0  0  0  0  0  0  0  0  0  0  0
    2.9918   -5.3529    0.0000 C   0  0  0  0  0  0  0  0  0  0  0  0
  1  2  1  0
  2  3  1  0
  3  4  1  0
  4  5  1  0
  5  6  1  0
  5  7  1  0
  7  8  1  0
  8  9  2  0
  8 10  1  0
 10 11  1  0
 11 12  1  0
 12 13  1  0
 13 14  1  0
 14 15  1  0
 15 16  2  0
 15 17  1  0
 17 18  1  0
 18 19  2  0
 19 20  1  0
 20 21  2  0
 21 22  1  0
 22 23  2  0
 14 24  1  0
  7  2  1  0
 24 11  1  0
 23 18  1  0
M  END
>  <Title>  (1119) 
idABPGgen7

$$$$

     RDKit          2D

 40 45  0  0  0  0  0  0  0  0999 V2000
    3.8137   -6.9743    0.0000 C   0  0  0  0  0  0  0  0  0  0  0  0
    2.5792   -6.1222    0.0000 C   0  0  0  0  0  0  0  0  0  0  0  0
    3.1111   -4.7197    0.0000 C   0  0  0  0  0  0  0  0  0  0  0  0
    2.9303   -3.2306    0.0000 C   0  0  0  0  0  0  0  0  0  0  0  0
    2.0782   -1.9961    0.0000 C   0  0  0  0  0  0  0  0  0  0  0  0
    3.0729   -0.8734    0.0000 C   0  0  0  0  0  0  0  0  0  0  0  0
    2.5979    0.5494    0.0000 O   0  0  0  0  0  0  0  0  0  0  0  0
    4.5426   -1.1734    0.0000 N   0  0  0  0  0  0  0  0  0  0  0  0
    5.5372   -0.0506    0.0000 C   0  0  0  0  0  0  0  0  0  0  0  0
    7.0069   -0.3507    0.0000 N   0  0  0  0  0  0  0  0  0  0  0  0
    8.0016    0.7721    0.0000 N   0  0  0  0  0  0  0  0  0  0  0  0
    7.5266    2.1949    0.0000 N   0  0  0  0  0  0  0  0  0  0  0  0
    6.0569    2.4949    0.0000 N   0  0  0  0  0  0  0  0  0  0  0  0
    5.0622    1.3722    0.0000 N   0  0  0  0  0  0  0  0  0  0  0  0
    0.7500   -1.2990    0.0000 C   0  0  0  0  0  0  0  0  0  0  0  0
    1.5000    0.0000    0.0000 C   0  0  0  0  0  0  0  0  0  0  0  0
    0.7500    1.2990    0.0000 C   0  0  0  0  0  0  0  0  0  0  0  0
   -0.7500    1.2990    0.0000 C   0  0  0  0  0  0  0  0  0  0  0  0
   -1.5000    0.0000    0.0000 C   0  0  0  0  0  0  0  0  0  0  0  0
   -0.7500   -1.2990    0.0000 C   0  0  0  0  0  0  0  0  0  0  0  0
   -2.0782   -1.9961    0.0000 C   0  0  0  0  0  0  0  0  0  0  0  0
   -2.7212   -0.6409    0.0000 C   0  0  0  0  0  0  0  0  0  0  0  0
   -4.2164   -0.5202    0.0000 C   0  0  0  0  0  0  0  0  0  0  0  0
   -5.0685   -1.7547    0.0000 C   0  0  0  0  0  0  0  0  0  0  0  0
   -4.4254   -3.1099    0.0000 C   0  0  0  0  0  0  0  0  0  0  0  0
   -2.9303   -3.2306    0.0000 C   0  0  0  0  0  0  0  0  0  0  0  0
   -3.1111   -4.7197    0.0000 C   0  0  0  0  0  0  0  0  0  0  0  0
   -4.5917   -4.4790    0.0000 C   0  0  0  0  0  0  0  0  0  0  0  0
   -5.5403   -5.6410    0.0000 C   0  0  0  0  0  0  0  0  0  0  0  0
   -5.0084   -7.0435    0.0000 C   0  0  0  0  0  0  0  0  0  0  0  0
   -3.5278   -7.2841    0.0000 C   0  0  0  0  0  0  0  0  0  0  0  0
   -2.5792   -6.1222    0.0000 C   0  0  0  0  0  0  0  0  0  0  0  0
   -1.4564   -7.1169    0.0000 C   0  0  0  0  0  0  0  0  0  0  0  0
   -2.4955   -8.1987    0.0000 C   0  0  0  0  0  0  0  0  0  0  0  0
   -2.0782   -9.6395    0.0000 C   0  0  0  0  0  0  0  0  0  0  0  0
   -0.6218   -9.9984    0.0000 C   0  0  0  0  0  0  0  0  0  0  0  0
    0.4173   -8.9166    0.0000 C   0  0  0  0  0  0  0  0  0  0  0  0
   -0.0000   -7.4758    0.0000 C   0  0  0  0  0  0  0  0  0  0  0  0
    1.4564   -7.1169    0.0000 C   0  0  0  0  0  0  0  0  0  0  0  0
    2.1535   -8.4451    0.0000 O   0  0  0  0  0  0  0  0  0  0  0  0
  1  2  1  0
  2  3  1  0
  3  4  1  0
  4  5  1  0
  5  6  1  0
  6  7  2  0
  6  8  1  0
  8  9  1  0
  9 10  2  0
 10 11  1  0
 11 12  2  0
 12 13  1  0
 13 14  2  0
  5 15  1  0
 15 16  2  0
 16 17  1  0
 17 18  2  0
 18 19  1  0
 19 20  2  0
 20 21  1  0
 21 22  2  0
 22 23  1  0
 23 24  2  0
 24 25  1  0
 25 26  2  0
 26 27  1  0
 27 28  2  0
 28 29  1  0
 29 30  2  0
 30 31  1  0
 31 32  2  0
 32 33  1  0
 33 34  2  0
 34 35  1  0
 35 36  2  0
 36 37  1  0
 37 38  2  0
 38 39  1  0
 39 40  2  0
 39  2  1  0
 14  9  1  0
 20 15  1  0
 26 21  1  0
 32 27  1  0
 38 33  1  0
M  END
>  <Title>  (1120) 
idABPHgen7

$$$$

     RDKit          2D

 75 75  0  0  0  0  0  0  0  0999 V2000
   19.1715    0.0000    0.0000 O   0  0  0  0  0  0  0  0  0  0  0  0
   17.6715    0.0000    0.0000 C   0  0  0  0  0  0  0  0  0  0  0  0
   17.6078   -1.4986    0.0000 C   0  0  0  0  0  0  0  0  0  0  0  0
   17.4173   -2.9865    0.0000 C   0  0  0  0  0  0  0  0  0  0  0  0
   17.1013   -4.4528    0.0000 C   0  0  0  0  0  0  0  0  0  0  0  0
   16.6621   -5.8871    0.0000 C   0  0  0  0  0  0  0  0  0  0  0  0
   16.1028   -7.2789    0.0000 C   0  0  0  0  0  0  0  0  0  0  0  0
   15.4275   -8.6183    0.0000 C   0  0  0  0  0  0  0  0  0  0  0  0
   14.6410   -9.8956    0.0000 C   0  0  0  0  0  0  0  0  0  0  0  0
   13.7491  -11.1016    0.0000 C   0  0  0  0  0  0  0  0  0  0  0  0
   12.7581  -12.2276    0.0000 C   0  0  0  0  0  0  0  0  0  0  0  0
   11.6751  -13.2655    0.0000 C   0  0  0  0  0  0  0  0  0  0  0  0
   10.5081  -14.2078    0.0000 C   0  0  0  0  0  0  0  0  0  0  0  0
    9.2653  -15.0478    0.0000 C   0  0  0  0  0  0  0  0  0  0  0  0
    7.9558  -15.7793    0.0000 C   0  0  0  0  0  0  0  0  0  0  0  0
    6.5889  -16.3972    0.0000 C   0  0  0  0  0  0  0  0  0  0  0  0
    5.1746  -16.8969    0.0000 C   0  0  0  0  0  0  0  0  0  0  0  0
    3.7230  -17.2749    0.0000 C   0  0  0  0  0  0  0  0  0  0  0  0
    2.2446  -17.5284    0.0000 C   0  0  0  0  0  0  0  0  0  0  0  0
    0.7500  -17.6556    0.0000 C   0  0  0  0  0  0  0  0  0  0  0  0
   -0.7500  -17.6556    0.0000 C   0  0  0  0  0  0  0  0  0  0  0  0
   -2.2446  -17.5284    0.0000 C   0  0  0  0  0  0  0  0  0  0  0  0
   -3.7230  -17.2749    0.0000 C   0  0  0  0  0  0  0  0  0  0  0  0
   -5.1746  -16.8969    0.0000 C   0  0  0  0  0  0  0  0  0  0  0  0
   -6.5889  -16.3972    0.0000 C   0  0  0  0  0  0  0  0  0  0  0  0
   -7.9558  -15.7793    0.0000 C   0  0  0  0  0  0  0  0  0  0  0  0
   -9.2653  -15.0478    0.0000 C   0  0  0  0  0  0  0  0  0  0  0  0
  -10.5081  -14.2078    0.0000 C   0  0  0  0  0  0  0  0  0  0  0  0
  -11.6751  -13.2655    0.0000 C   0  0  0  0  0  0  0  0  0  0  0  0
  -12.7581  -12.2276    0.0000 C   0  0  0  0  0  0  0  0  0  0  0  0
  -13.7491  -11.1016    0.0000 C   0  0  0  0  0  0  0  0  0  0  0  0
  -14.6410   -9.8956    0.0000 C   0  0  0  0  0  0  0  0  0  0  0  0
  -15.4275   -8.6183    0.0000 C   0  0  0  0  0  0  0  0  0  0  0  0
  -16.1028   -7.2789    0.0000 C   0  0  0  0  0  0  0  0  0  0  0  0
  -16.6621   -5.8871    0.0000 C   0  0  0  0  0  0  0  0  0  0  0  0
  -17.1013   -4.4528    0.0000 C   0  0  0  0  0  0  0  0  0  0  0  0
  -17.4173   -2.9865    0.0000 C   0  0  0  0  0  0  0  0  0  0  0  0
  -17.6078   -1.4986    0.0000 C   0  0  0  0  0  0  0  0  0  0  0  0
  -17.6715    0.0000    0.0000 C   0  0  0  0  0  0  0  0  0  0  0  0
  -17.6078    1.4986    0.0000 C   0  0  0  0  0  0  0  0  0  0  0  0
  -17.4173    2.9865    0.0000 C   0  0  0  0  0  0  0  0  0  0  0  0
  -17.1013    4.4528    0.0000 C   0  0  0  0  0  0  0  0  0  0  0  0
  -16.6621    5.8871    0.0000 C   0  0  0  0  0  0  0  0  0  0  0  0
  -16.1028    7.2789    0.0000 C   0  0  0  0  0  0  0  0  0  0  0  0
  -15.4275    8.6183    0.0000 C   0  0  0  0  0  0  0  0  0  0  0  0
  -14.6410    9.8956    0.0000 C   0  0  0  0  0  0  0  0  0  0  0  0
  -13.7491   11.1016    0.0000 C   0  0  0  0  0  0  0  0  0  0  0  0
  -12.7581   12.2276    0.0000 C   0  0  0  0  0  0  0  0  0  0  0  0
  -11.6751   13.2655    0.0000 C   0  0  0  0  0  0  0  0  0  0  0  0
  -10.5081   14.2078    0.0000 C   0  0  0  0  0  0  0  0  0  0  0  0
   -9.2653   15.0478    0.0000 C   0  0  0  0  0  0  0  0  0  0  0  0
   -7.9558   15.7793    0.0000 C   0  0  0  0  0  0  0  0  0  0  0  0
   -6.5889   16.3972    0.0000 C   0  0  0  0  0  0  0  0  0  0  0  0
   -5.1746   16.8969    0.0000 C   0  0  0  0  0  0  0  0  0  0  0  0
   -3.7230   17.2749    0.0000 C   0  0  0  0  0  0  0  0  0  0  0  0
   -2.2446   17.5284    0.0000 C   0  0  0  0  0  0  0  0  0  0  0  0
   -0.7500   17.6556    0.0000 C   0  0  0  0  0  0  0  0  0  0  0  0
    0.7500   17.6556    0.0000 C   0  0  0  0  0  0  0  0  0  0  0  0
    2.2446   17.5284    0.0000 C   0  0  0  0  0  0  0  0  0  0  0  0
    3.7230   17.2749    0.0000 C   0  0  0  0  0  0  0  0  0  0  0  0
    5.1746   16.8969    0.0000 C   0  0  0  0  0  0  0  0  0  0  0  0
    6.5889   16.3972    0.0000 C   0  0  0  0  0  0  0  0  0  0  0  0
    7.9558   15.7793    0.0000 C   0  0  0  0  0  0  0  0  0  0  0  0
    9.2653   15.0478    0.0000 C   0  0  0  0  0  0  0  0  0  0  0  0
   10.5081   14.2078    0.0000 C   0  0  0  0  0  0  0  0  0  0  0  0
   11.6751   13.2655    0.0000 C   0  0  0  0  0  0  0  0  0  0  0  0
   12.7581   12.2276    0.0000 C   0  0  0  0  0  0  0  0  0  0  0  0
   13.7491   11.1016    0.0000 C   0  0  0  0  0  0  0  0  0  0  0  0
   14.6410    9.8956    0.0000 C   0  0  0  0  0  0  0  0  0  0  0  0
   15.4275    8.6183    0.0000 C   0  0  0  0  0  0  0  0  0  0  0  0
   16.1028    7.2789    0.0000 C   0  0  0  0  0  0  0  0  0  0  0  0
   16.6621    5.8871    0.0000 C   0  0  0  0  0  0  0  0  0  0  0  0
   17.1013    4.4528    0.0000 C   0  0  0  0  0  0  0  0  0  0  0  0
   17.4173    2.9865    0.0000 C   0  0  0  0  0  0  0  0  0  0  0  0
   17.6078    1.4986    0.0000 C   0  0  0  0  0  0  0  0  0  0  0  0
  1  2  1  0
  2  3  1  0
  3  4  1  0
  4  5  1  0
  5  6  1  0
  6  7  1  0
  7  8  1  0
  8  9  1  0
  9 10  1  0
 10 11  1  0
 11 12  1  0
 12 13  1  0
 13 14  1  0
 14 15  1  0
 15 16  1  0
 16 17  1  0
 17 18  1  0
 18 19  1  0
 19 20  1  0
 20 21  1  0
 21 22  1  0
 22 23  1  0
 23 24  1  0
 24 25  1  0
 25 26  1  0
 26 27  1  0
 27 28  1  0
 28 29  1  0
 29 30  1  0
 30 31  1  0
 31 32  1  0
 32 33  1  0
 33 34  1  0
 34 35  1  0
 35 36  1  0
 36 37  1  0
 37 38  1  0
 38 39  1  0
 39 40  1  0
 40 41  1  0
 41 42  1  0
 42 43  1  0
 43 44  1  0
 44 45  1  0
 45 46  1  0
 46 47  1  0
 47 48  1  0
 48 49  1  0
 49 50  1  0
 50 51  1  0
 51 52  1  0
 52 53  1  0
 53 54  1  0
 54 55  1  0
 55 56  1  0
 56 57  1  0
 57 58  1  0
 58 59  1  0
 59 60  1  0
 60 61  1  0
 61 62  1  0
 62 63  1  0
 63 64  1  0
 64 65  1  0
 65 66  1  0
 66 67  1  0
 67 68  1  0
 68 69  1  0
 69 70  1  0
 70 71  1  0
 71 72  1  0
 72 73  1  0
 73 74  1  0
 74 75  1  0
 75  2  1  0
M  END
>  <Title>  (1121) 
idABPIgen7

$$$$

     RDKit          2D

112112  0  0  0  0  0  0  0  0999 V2000
   26.7415    0.0000    0.0000 C   0  0  0  0  0  0  0  0  0  0  0  0
   26.6995   -1.4994    0.0000 C   0  0  0  0  0  0  0  0  0  0  0  0
   26.5734   -2.9941    0.0000 C   0  0  0  0  0  0  0  0  0  0  0  0
   26.3637   -4.4794    0.0000 C   0  0  0  0  0  0  0  0  0  0  0  0
   26.0711   -5.9506    0.0000 C   0  0  0  0  0  0  0  0  0  0  0  0
   25.6964   -7.4030    0.0000 C   0  0  0  0  0  0  0  0  0  0  0  0
   25.2409   -8.8322    0.0000 C   0  0  0  0  0  0  0  0  0  0  0  0
   24.7060  -10.2335    0.0000 C   0  0  0  0  0  0  0  0  0  0  0  0
   24.0933  -11.6027    0.0000 C   0  0  0  0  0  0  0  0  0  0  0  0
   23.4048  -12.9354    0.0000 C   0  0  0  0  0  0  0  0  0  0  0  0
   22.6427  -14.2274    0.0000 C   0  0  0  0  0  0  0  0  0  0  0  0
   21.8094  -15.4746    0.0000 C   0  0  0  0  0  0  0  0  0  0  0  0
   20.9074  -16.6731    0.0000 C   0  0  0  0  0  0  0  0  0  0  0  0
   19.9396  -17.8191    0.0000 C   0  0  0  0  0  0  0  0  0  0  0  0
   18.9091  -18.9091    0.0000 C   0  0  0  0  0  0  0  0  0  0  0  0
   17.8191  -19.9396    0.0000 C   0  0  0  0  0  0  0  0  0  0  0  0
   16.6731  -20.9074    0.0000 C   0  0  0  0  0  0  0  0  0  0  0  0
   15.4746  -21.8094    0.0000 C   0  0  0  0  0  0  0  0  0  0  0  0
   14.2274  -22.6427    0.0000 C   0  0  0  0  0  0  0  0  0  0  0  0
   12.9354  -23.4048    0.0000 C   0  0  0  0  0  0  0  0  0  0  0  0
   11.6027  -24.0933    0.0000 C   0  0  0  0  0  0  0  0  0  0  0  0
   10.2335  -24.7060    0.0000 C   0  0  0  0  0  0  0  0  0  0  0  0
    8.8322  -25.2409    0.0000 C   0  0  0  0  0  0  0  0  0  0  0  0
    7.4030  -25.6964    0.0000 C   0  0  0  0  0  0  0  0  0  0  0  0
    5.9506  -26.0711    0.0000 C   0  0  0  0  0  0  0  0  0  0  0  0
    4.4794  -26.3637    0.0000 C   0  0  0  0  0  0  0  0  0  0  0  0
    2.9941  -26.5734    0.0000 C   0  0  0  0  0  0  0  0  0  0  0  0
    1.4994  -26.6995    0.0000 C   0  0  0  0  0  0  0  0  0  0  0  0
   -0.0000  -26.7415    0.0000 C   0  0  0  0  0  0  0  0  0  0  0  0
   -1.4994  -26.6995    0.0000 C   0  0  0  0  0  0  0  0  0  0  0  0
   -2.9941  -26.5734    0.0000 C   0  0  0  0  0  0  0  0  0  0  0  0
   -4.4794  -26.3637    0.0000 C   0  0  0  0  0  0  0  0  0  0  0  0
   -5.9506  -26.0711    0.0000 C   0  0  0  0  0  0  0  0  0  0  0  0
   -7.4030  -25.6964    0.0000 C   0  0  0  0  0  0  0  0  0  0  0  0
   -8.8322  -25.2409    0.0000 C   0  0  0  0  0  0  0  0  0  0  0  0
  -10.2335  -24.7060    0.0000 C   0  0  0  0  0  0  0  0  0  0  0  0
  -11.6027  -24.0933    0.0000 C   0  0  0  0  0  0  0  0  0  0  0  0
  -12.9354  -23.4048    0.0000 C   0  0  0  0  0  0  0  0  0  0  0  0
  -14.2274  -22.6427    0.0000 C   0  0  0  0  0  0  0  0  0  0  0  0
  -15.4746  -21.8094    0.0000 C   0  0  0  0  0  0  0  0  0  0  0  0
  -16.6731  -20.9074    0.0000 C   0  0  0  0  0  0  0  0  0  0  0  0
  -17.8191  -19.9396    0.0000 C   0  0  0  0  0  0  0  0  0  0  0  0
  -18.9091  -18.9091    0.0000 C   0  0  0  0  0  0  0  0  0  0  0  0
  -19.9396  -17.8191    0.0000 C   0  0  0  0  0  0  0  0  0  0  0  0
  -20.9074  -16.6731    0.0000 C   0  0  0  0  0  0  0  0  0  0  0  0
  -21.8094  -15.4746    0.0000 C   0  0  0  0  0  0  0  0  0  0  0  0
  -22.6427  -14.2274    0.0000 C   0  0  0  0  0  0  0  0  0  0  0  0
  -23.4048  -12.9354    0.0000 C   0  0  0  0  0  0  0  0  0  0  0  0
  -24.0933  -11.6027    0.0000 C   0  0  0  0  0  0  0  0  0  0  0  0
  -24.7060  -10.2335    0.0000 C   0  0  0  0  0  0  0  0  0  0  0  0
  -25.2409   -8.8322    0.0000 C   0  0  0  0  0  0  0  0  0  0  0  0
  -25.6964   -7.4030    0.0000 C   0  0  0  0  0  0  0  0  0  0  0  0
  -26.0711   -5.9506    0.0000 C   0  0  0  0  0  0  0  0  0  0  0  0
  -26.3637   -4.4794    0.0000 C   0  0  0  0  0  0  0  0  0  0  0  0
  -26.5734   -2.9941    0.0000 C   0  0  0  0  0  0  0  0  0  0  0  0
  -26.6995   -1.4994    0.0000 C   0  0  0  0  0  0  0  0  0  0  0  0
  -26.7415    0.0000    0.0000 C   0  0  0  0  0  0  0  0  0  0  0  0
  -26.6995    1.4994    0.0000 C   0  0  0  0  0  0  0  0  0  0  0  0
  -26.5734    2.9941    0.0000 C   0  0  0  0  0  0  0  0  0  0  0  0
  -26.3637    4.4794    0.0000 C   0  0  0  0  0  0  0  0  0  0  0  0
  -26.0711    5.9506    0.0000 C   0  0  0  0  0  0  0  0  0  0  0  0
  -25.6964    7.4030    0.0000 C   0  0  0  0  0  0  0  0  0  0  0  0
  -25.2409    8.8322    0.0000 C   0  0  0  0  0  0  0  0  0  0  0  0
  -24.7060   10.2335    0.0000 C   0  0  0  0  0  0  0  0  0  0  0  0
  -24.0933   11.6027    0.0000 C   0  0  0  0  0  0  0  0  0  0  0  0
  -23.4048   12.9354    0.0000 C   0  0  0  0  0  0  0  0  0  0  0  0
  -22.6427   14.2274    0.0000 C   0  0  0  0  0  0  0  0  0  0  0  0
  -21.8094   15.4746    0.0000 C   0  0  0  0  0  0  0  0  0  0  0  0
  -20.9074   16.6731    0.0000 C   0  0  0  0  0  0  0  0  0  0  0  0
  -19.9396   17.8191    0.0000 C   0  0  0  0  0  0  0  0  0  0  0  0
  -18.9091   18.9091    0.0000 C   0  0  0  0  0  0  0  0  0  0  0  0
  -17.8191   19.9396    0.0000 C   0  0  0  0  0  0  0  0  0  0  0  0
  -16.6731   20.9074    0.0000 C   0  0  0  0  0  0  0  0  0  0  0  0
  -15.4746   21.8094    0.0000 C   0  0  0  0  0  0  0  0  0  0  0  0
  -14.2274   22.6427    0.0000 C   0  0  0  0  0  0  0  0  0  0  0  0
  -12.9354   23.4048    0.0000 C   0  0  0  0  0  0  0  0  0  0  0  0
  -11.6027   24.0933    0.0000 C   0  0  0  0  0  0  0  0  0  0  0  0
  -10.2335   24.7060    0.0000 C   0  0  0  0  0  0  0  0  0  0  0  0
   -8.8322   25.2409    0.0000 C   0  0  0  0  0  0  0  0  0  0  0  0
   -7.4030   25.6964    0.0000 C   0  0  0  0  0  0  0  0  0  0  0  0
   -5.9506   26.0711    0.0000 C   0  0  0  0  0  0  0  0  0  0  0  0
   -4.4794   26.3637    0.0000 C   0  0  0  0  0  0  0  0  0  0  0  0
   -2.9941   26.5734    0.0000 C   0  0  0  0  0  0  0  0  0  0  0  0
   -1.4994   26.6995    0.0000 C   0  0  0  0  0  0  0  0  0  0  0  0
    0.0000   26.7415    0.0000 C   0  0  0  0  0  0  0  0  0  0  0  0
    1.4994   26.6995    0.0000 C   0  0  0  0  0  0  0  0  0  0  0  0
    2.9941   26.5734    0.0000 C   0  0  0  0  0  0  0  0  0  0  0  0
    4.4794   26.3637    0.0000 C   0  0  0  0  0  0  0  0  0  0  0  0
    5.9506   26.0711    0.0000 C   0  0  0  0  0  0  0  0  0  0  0  0
    7.4030   25.6964    0.0000 C   0  0  0  0  0  0  0  0  0  0  0  0
    8.8322   25.2409    0.0000 C   0  0  0  0  0  0  0  0  0  0  0  0
   10.2335   24.7060    0.0000 C   0  0  0  0  0  0  0  0  0  0  0  0
   11.6027   24.0933    0.0000 C   0  0  0  0  0  0  0  0  0  0  0  0
   12.9354   23.4048    0.0000 C   0  0  0  0  0  0  0  0  0  0  0  0
   14.2274   22.6427    0.0000 C   0  0  0  0  0  0  0  0  0  0  0  0
   15.4746   21.8094    0.0000 C   0  0  0  0  0  0  0  0  0  0  0  0
   16.6731   20.9074    0.0000 C   0  0  0  0  0  0  0  0  0  0  0  0
   17.8191   19.9396    0.0000 C   0  0  0  0  0  0  0  0  0  0  0  0
   18.9091   18.9091    0.0000 C   0  0  0  0  0  0  0  0  0  0  0  0
   19.9396   17.8191    0.0000 C   0  0  0  0  0  0  0  0  0  0  0  0
   20.9074   16.6731    0.0000 C   0  0  0  0  0  0  0  0  0  0  0  0
   21.8094   15.4746    0.0000 C   0  0  0  0  0  0  0  0  0  0  0  0
   22.6427   14.2274    0.0000 C   0  0  0  0  0  0  0  0  0  0  0  0
   23.4048   12.9354    0.0000 C   0  0  0  0  0  0  0  0  0  0  0  0
   24.0933   11.6027    0.0000 C   0  0  0  0  0  0  0  0  0  0  0  0
   24.7060   10.2335    0.0000 C   0  0  0  0  0  0  0  0  0  0  0  0
   25.2409    8.8322    0.0000 C   0  0  0  0  0  0  0  0  0  0  0  0
   25.6964    7.4030    0.0000 C   0  0  0  0  0  0  0  0  0  0  0  0
   26.0711    5.9506    0.0000 C   0  0  0  0  0  0  0  0  0  0  0  0
   26.3637    4.4794    0.0000 C   0  0  0  0  0  0  0  0  0  0  0  0
   26.5734    2.9941    0.0000 C   0  0  0  0  0  0  0  0  0  0  0  0
   26.6995    1.4994    0.0000 C   0  0  0  0  0  0  0  0  0  0  0  0
  1  2  2  0
  2  3  1  0
  3  4  1  0
  4  5  1  0
  5  6  1  0
  6  7  1  0
  7  8  1  0
  8  9  1  0
  9 10  1  0
 10 11  1  0
 11 12  1  0
 12 13  1  0
 13 14  1  0
 14 15  1  0
 15 16  1  0
 16 17  1  0
 17 18  1  0
 18 19  1  0
 19 20  1  0
 20 21  1  0
 21 22  1  0
 22 23  1  0
 23 24  1  0
 24 25  1  0
 25 26  1  0
 26 27  1  0
 27 28  1  0
 28 29  1  0
 29 30  1  0
 30 31  1  0
 31 32  1  0
 32 33  1  0
 33 34  1  0
 34 35  1  0
 35 36  1  0
 36 37  1  0
 37 38  1  0
 38 39  1  0
 39 40  1  0
 40 41  1  0
 41 42  1  0
 42 43  1  0
 43 44  1  0
 44 45  1  0
 45 46  1  0
 46 47  1  0
 47 48  1  0
 48 49  1  0
 49 50  1  0
 50 51  1  0
 51 52  1  0
 52 53  1  0
 53 54  1  0
 54 55  1  0
 55 56  1  0
 56 57  1  0
 57 58  1  0
 58 59  1  0
 59 60  1  0
 60 61  1  0
 61 62  1  0
 62 63  1  0
 63 64  1  0
 64 65  1  0
 65 66  1  0
 66 67  1  0
 67 68  1  0
 68 69  1  0
 69 70  1  0
 70 71  1  0
 71 72  1  0
 72 73  1  0
 73 74  1  0
 74 75  1  0
 75 76  1  0
 76 77  1  0
 77 78  1  0
 78 79  1  0
 79 80  1  0
 80 81  1  0
 81 82  1  0
 82 83  1  0
 83 84  1  0
 84 85  1  0
 85 86  1  0
 86 87  1  0
 87 88  1  0
 88 89  1  0
 89 90  1  0
 90 91  1  0
 91 92  1  0
 92 93  1  0
 93 94  1  0
 94 95  1  0
 95 96  1  0
 96 97  1  0
 97 98  1  0
 98 99  1  0
 99100  1  0
100101  1  0
101102  1  0
102103  1  0
103104  1  0
104105  1  0
105106  1  0
106107  1  0
107108  1  0
108109  1  0
109110  1  0
110111  1  0
111112  2  0
112  1  1  0
M  END
>  <Title>  (1122) 
idABPJgen7

$$$$

     RDKit          2D

102102  0  0  0  0  0  0  0  0999 V2000
   24.3546    0.0000    0.0000 C   0  0  0  0  0  0  0  0  0  0  0  0
   24.3084   -1.4993    0.0000 C   0  0  0  0  0  0  0  0  0  0  0  0
   24.1700   -2.9929    0.0000 C   0  0  0  0  0  0  0  0  0  0  0  0
   23.9399   -4.4751    0.0000 C   0  0  0  0  0  0  0  0  0  0  0  0
   23.6190   -5.9404    0.0000 C   0  0  0  0  0  0  0  0  0  0  0  0
   23.2085   -7.3831    0.0000 C   0  0  0  0  0  0  0  0  0  0  0  0
   22.7099   -8.7979    0.0000 C   0  0  0  0  0  0  0  0  0  0  0  0
   22.1253  -10.1792    0.0000 C   0  0  0  0  0  0  0  0  0  0  0  0
   21.4567  -11.5220    0.0000 C   0  0  0  0  0  0  0  0  0  0  0  0
   20.7067  -12.8210    0.0000 C   0  0  0  0  0  0  0  0  0  0  0  0
   19.8781  -14.0714    0.0000 C   0  0  0  0  0  0  0  0  0  0  0  0
   18.9742  -15.2685    0.0000 C   0  0  0  0  0  0  0  0  0  0  0  0
   17.9982  -16.4076    0.0000 C   0  0  0  0  0  0  0  0  0  0  0  0
   16.9540  -17.4844    0.0000 C   0  0  0  0  0  0  0  0  0  0  0  0
   15.8455  -18.4950    0.0000 C   0  0  0  0  0  0  0  0  0  0  0  0
   14.6769  -19.4354    0.0000 C   0  0  0  0  0  0  0  0  0  0  0  0
   13.4526  -20.3020    0.0000 C   0  0  0  0  0  0  0  0  0  0  0  0
   12.1773  -21.0917    0.0000 C   0  0  0  0  0  0  0  0  0  0  0  0
   10.8558  -21.8013    0.0000 C   0  0  0  0  0  0  0  0  0  0  0  0
    9.4931  -22.4282    0.0000 C   0  0  0  0  0  0  0  0  0  0  0  0
    8.0944  -22.9701    0.0000 C   0  0  0  0  0  0  0  0  0  0  0  0
    6.6649  -23.4248    0.0000 C   0  0  0  0  0  0  0  0  0  0  0  0
    5.2102  -23.7907    0.0000 C   0  0  0  0  0  0  0  0  0  0  0  0
    3.7358  -24.0663    0.0000 C   0  0  0  0  0  0  0  0  0  0  0  0
    2.2472  -24.2507    0.0000 C   0  0  0  0  0  0  0  0  0  0  0  0
    0.7500  -24.3430    0.0000 C   0  0  0  0  0  0  0  0  0  0  0  0
   -0.7500  -24.3430    0.0000 C   0  0  0  0  0  0  0  0  0  0  0  0
   -2.2472  -24.2507    0.0000 C   0  0  0  0  0  0  0  0  0  0  0  0
   -3.7358  -24.0663    0.0000 C   0  0  0  0  0  0  0  0  0  0  0  0
   -5.2102  -23.7907    0.0000 C   0  0  0  0  0  0  0  0  0  0  0  0
   -6.6649  -23.4248    0.0000 C   0  0  0  0  0  0  0  0  0  0  0  0
   -8.0944  -22.9701    0.0000 C   0  0  0  0  0  0  0  0  0  0  0  0
   -9.4931  -22.4282    0.0000 C   0  0  0  0  0  0  0  0  0  0  0  0
  -10.8558  -21.8013    0.0000 C   0  0  0  0  0  0  0  0  0  0  0  0
  -12.1773  -21.0917    0.0000 C   0  0  0  0  0  0  0  0  0  0  0  0
  -13.4526  -20.3020    0.0000 C   0  0  0  0  0  0  0  0  0  0  0  0
  -14.6769  -19.4354    0.0000 C   0  0  0  0  0  0  0  0  0  0  0  0
  -15.8455  -18.4950    0.0000 C   0  0  0  0  0  0  0  0  0  0  0  0
  -16.9540  -17.4844    0.0000 C   0  0  0  0  0  0  0  0  0  0  0  0
  -17.9982  -16.4076    0.0000 C   0  0  0  0  0  0  0  0  0  0  0  0
  -18.9742  -15.2685    0.0000 C   0  0  0  0  0  0  0  0  0  0  0  0
  -19.8781  -14.0714    0.0000 C   0  0  0  0  0  0  0  0  0  0  0  0
  -20.7067  -12.8210    0.0000 C   0  0  0  0  0  0  0  0  0  0  0  0
  -21.4567  -11.5220    0.0000 C   0  0  0  0  0  0  0  0  0  0  0  0
  -22.1253  -10.1792    0.0000 C   0  0  0  0  0  0  0  0  0  0  0  0
  -22.7099   -8.7979    0.0000 C   0  0  0  0  0  0  0  0  0  0  0  0
  -23.2085   -7.3831    0.0000 C   0  0  0  0  0  0  0  0  0  0  0  0
  -23.6190   -5.9404    0.0000 C   0  0  0  0  0  0  0  0  0  0  0  0
  -23.9399   -4.4751    0.0000 C   0  0  0  0  0  0  0  0  0  0  0  0
  -24.1700   -2.9929    0.0000 C   0  0  0  0  0  0  0  0  0  0  0  0
  -24.3084   -1.4993    0.0000 C   0  0  0  0  0  0  0  0  0  0  0  0
  -24.3546    0.0000    0.0000 C   0  0  0  0  0  0  0  0  0  0  0  0
  -24.3084    1.4993    0.0000 C   0  0  0  0  0  0  0  0  0  0  0  0
  -24.1700    2.9929    0.0000 C   0  0  0  0  0  0  0  0  0  0  0  0
  -23.9399    4.4751    0.0000 C   0  0  0  0  0  0  0  0  0  0  0  0
  -23.6190    5.9404    0.0000 C   0  0  0  0  0  0  0  0  0  0  0  0
  -23.2085    7.3831    0.0000 C   0  0  0  0  0  0  0  0  0  0  0  0
  -22.7099    8.7979    0.0000 C   0  0  0  0  0  0  0  0  0  0  0  0
  -22.1253   10.1792    0.0000 C   0  0  0  0  0  0  0  0  0  0  0  0
  -21.4567   11.5220    0.0000 C   0  0  0  0  0  0  0  0  0  0  0  0
  -20.7067   12.8210    0.0000 C   0  0  0  0  0  0  0  0  0  0  0  0
  -19.8781   14.0714    0.0000 C   0  0  0  0  0  0  0  0  0  0  0  0
  -18.9742   15.2685    0.0000 C   0  0  0  0  0  0  0  0  0  0  0  0
  -17.9982   16.4076    0.0000 C   0  0  0  0  0  0  0  0  0  0  0  0
  -16.9540   17.4844    0.0000 C   0  0  0  0  0  0  0  0  0  0  0  0
  -15.8455   18.4950    0.0000 C   0  0  0  0  0  0  0  0  0  0  0  0
  -14.6769   19.4354    0.0000 C   0  0  0  0  0  0  0  0  0  0  0  0
  -13.4526   20.3020    0.0000 C   0  0  0  0  0  0  0  0  0  0  0  0
  -12.1773   21.0917    0.0000 C   0  0  0  0  0  0  0  0  0  0  0  0
  -10.8558   21.8013    0.0000 C   0  0  0  0  0  0  0  0  0  0  0  0
   -9.4931   22.4282    0.0000 C   0  0  0  0  0  0  0  0  0  0  0  0
   -8.0944   22.9701    0.0000 C   0  0  0  0  0  0  0  0  0  0  0  0
   -6.6649   23.4248    0.0000 C   0  0  0  0  0  0  0  0  0  0  0  0
   -5.2102   23.7907    0.0000 C   0  0  0  0  0  0  0  0  0  0  0  0
   -3.7358   24.0663    0.0000 C   0  0  0  0  0  0  0  0  0  0  0  0
   -2.2472   24.2507    0.0000 C   0  0  0  0  0  0  0  0  0  0  0  0
   -0.7500   24.3430    0.0000 C   0  0  0  0  0  0  0  0  0  0  0  0
    0.7500   24.3430    0.0000 C   0  0  0  0  0  0  0  0  0  0  0  0
    2.2472   24.2507    0.0000 C   0  0  0  0  0  0  0  0  0  0  0  0
    3.7358   24.0663    0.0000 C   0  0  0  0  0  0  0  0  0  0  0  0
    5.2102   23.7907    0.0000 C   0  0  0  0  0  0  0  0  0  0  0  0
    6.6649   23.4248    0.0000 C   0  0  0  0  0  0  0  0  0  0  0  0
    8.0944   22.9701    0.0000 C   0  0  0  0  0  0  0  0  0  0  0  0
    9.4931   22.4282    0.0000 C   0  0  0  0  0  0  0  0  0  0  0  0
   10.8558   21.8013    0.0000 C   0  0  0  0  0  0  0  0  0  0  0  0
   12.1773   21.0917    0.0000 C   0  0  0  0  0  0  0  0  0  0  0  0
   13.4526   20.3020    0.0000 C   0  0  0  0  0  0  0  0  0  0  0  0
   14.6769   19.4354    0.0000 C   0  0  0  0  0  0  0  0  0  0  0  0
   15.8455   18.4950    0.0000 C   0  0  0  0  0  0  0  0  0  0  0  0
   16.9540   17.4844    0.0000 C   0  0  0  0  0  0  0  0  0  0  0  0
   17.9982   16.4076    0.0000 C   0  0  0  0  0  0  0  0  0  0  0  0
   18.9742   15.2685    0.0000 C   0  0  0  0  0  0  0  0  0  0  0  0
   19.8781   14.0714    0.0000 C   0  0  0  0  0  0  0  0  0  0  0  0
   20.7067   12.8210    0.0000 C   0  0  0  0  0  0  0  0  0  0  0  0
   21.4567   11.5220    0.0000 C   0  0  0  0  0  0  0  0  0  0  0  0
   22.1253   10.1792    0.0000 C   0  0  0  0  0  0  0  0  0  0  0  0
   22.7099    8.7979    0.0000 C   0  0  0  0  0  0  0  0  0  0  0  0
   23.2085    7.3831    0.0000 C   0  0  0  0  0  0  0  0  0  0  0  0
   23.6190    5.9404    0.0000 C   0  0  0  0  0  0  0  0  0  0  0  0
   23.9399    4.4751    0.0000 C   0  0  0  0  0  0  0  0  0  0  0  0
   24.1700    2.9929    0.0000 C   0  0  0  0  0  0  0  0  0  0  0  0
   24.3084    1.4993    0.0000 C   0  0  0  0  0  0  0  0  0  0  0  0
  1  2  1  0
  2  3  1  0
  3  4  1  0
  4  5  1  0
  5  6  1  0
  6  7  1  0
  7  8  1  0
  8  9  1  0
  9 10  1  0
 10 11  1  0
 11 12  1  0
 12 13  1  0
 13 14  1  0
 14 15  1  0
 15 16  1  0
 16 17  1  0
 17 18  1  0
 18 19  1  0
 19 20  1  0
 20 21  1  0
 21 22  1  0
 22 23  1  0
 23 24  1  0
 24 25  1  0
 25 26  1  0
 26 27  1  0
 27 28  1  0
 28 29  1  0
 29 30  1  0
 30 31  1  0
 31 32  1  0
 32 33  1  0
 33 34  1  0
 34 35  1  0
 35 36  1  0
 36 37  1  0
 37 38  1  0
 38 39  1  0
 39 40  1  0
 40 41  1  0
 41 42  1  0
 42 43  1  0
 43 44  1  0
 44 45  1  0
 45 46  1  0
 46 47  1  0
 47 48  1  0
 48 49  1  0
 49 50  1  0
 50 51  1  0
 51 52  1  0
 52 53  1  0
 53 54  1  0
 54 55  1  0
 55 56  1  0
 56 57  1  0
 57 58  1  0
 58 59  1  0
 59 60  1  0
 60 61  1  0
 61 62  1  0
 62 63  1  0
 63 64  1  0
 64 65  1  0
 65 66  1  0
 66 67  1  0
 67 68  1  0
 68 69  1  0
 69 70  1  0
 70 71  1  0
 71 72  1  0
 72 73  1  0
 73 74  1  0
 74 75  1  0
 75 76  1  0
 76 77  1  0
 77 78  1  0
 78 79  1  0
 79 80  1  0
 80 81  1  0
 81 82  1  0
 82 83  1  0
 83 84  1  0
 84 85  1  0
 85 86  1  0
 86 87  1  0
 87 88  1  0
 88 89  1  0
 89 90  1  0
 90 91  1  0
 91 92  1  0
 92 93  1  0
 93 94  1  0
 94 95  1  0
 95 96  1  0
 96 97  1  0
 97 98  1  0
 98 99  1  0
 99100  1  0
100101  1  0
101102  1  0
102  1  1  0
M  END
>  <Title>  (1123) 
idABPKgen7

$$$$

     RDKit          2D

  9  9  0  0  0  0  0  0  0  0999 V2000
    3.2286   -0.0000    0.0000 C   0  0  0  0  0  0  0  0  0  0  0  0
    1.7286    0.0000    0.0000 C   0  0  0  0  0  0  0  0  0  0  0  0
    1.0777    1.3515    0.0000 C   0  0  0  0  0  0  0  0  0  0  0  0
   -0.3846    1.6852    0.0000 C   0  0  0  0  0  0  0  0  0  0  0  0
   -1.5574    0.7500    0.0000 C   0  0  0  0  0  0  0  0  0  0  0  0
   -1.5574   -0.7500    0.0000 C   0  0  0  0  0  0  0  0  0  0  0  0
   -2.9088   -1.4008    0.0000 O   0  0  0  0  0  0  0  0  0  0  0  0
   -0.3846   -1.6852    0.0000 C   0  0  0  0  0  0  0  0  0  0  0  0
    1.0777   -1.3515    0.0000 C   0  0  0  0  0  0  0  0  0  0  0  0
  1  2  1  0
  2  3  1  0
  3  4  1  0
  4  5  1  0
  5  6  1  0
  6  7  1  0
  6  8  1  0
  8  9  1  0
  9  2  1  0
M  END
>  <Title>  (1124) 
idABPLgen7

$$$$

     RDKit          2D

 20 21  0  0  0  0  0  0  0  0999 V2000
    5.2500   -1.2990    0.0000 C   0  0  0  0  0  0  0  0  0  0  0  0
    3.7500   -1.2990    0.0000 C   0  0  0  0  0  0  0  0  0  0  0  0
    3.0000   -2.5981    0.0000 O   0  0  0  0  0  0  0  0  0  0  0  0
    3.0000    0.0000    0.0000 C   0  0  0  0  0  0  0  0  0  0  0  0
    3.7500    1.2990    0.0000 O   0  0  0  0  0  0  0  0  0  0  0  0
    1.5000    0.0000    0.0000 N   0  0  0  0  0  0  0  0  0  0  0  0
    0.7500   -1.2990    0.0000 C   0  0  0  0  0  0  0  0  0  0  0  0
   -0.7500   -1.2990    0.0000 C   0  0  0  0  0  0  0  0  0  0  0  0
   -1.5000    0.0000    0.0000 C   0  0  0  0  0  0  0  0  0  0  0  0
   -3.0000    0.0000    0.0000 C   0  0  0  0  0  0  0  0  0  0  0  0
   -3.7500   -1.2990    0.0000 O   0  0  0  0  0  0  0  0  0  0  0  0
   -3.7500    1.2990    0.0000 N   0  0  0  0  0  0  0  0  0  0  0  0
   -5.2500    1.2990    0.0000 C   0  0  0  0  0  0  0  0  0  0  0  0
   -6.0000    2.5981    0.0000 N   0  0  0  0  0  0  0  0  0  0  0  0
   -7.5000    2.5981    0.0000 N   0  0  0  0  0  0  0  0  0  0  0  0
   -8.2500    1.2990    0.0000 N   0  0  0  0  0  0  0  0  0  0  0  0
   -7.5000    0.0000    0.0000 N   0  0  0  0  0  0  0  0  0  0  0  0
   -6.0000    0.0000    0.0000 N   0  0  0  0  0  0  0  0  0  0  0  0
   -0.7500    1.2990    0.0000 C   0  0  0  0  0  0  0  0  0  0  0  0
    0.7500    1.2990    0.0000 C   0  0  0  0  0  0  0  0  0  0  0  0
  1  2  1  0
  2  3  2  0
  2  4  1  0
  4  5  2  0
  4  6  1  0
  6  7  1  0
  7  8  1  0
  8  9  1  0
  9 10  1  0
 10 11  2  0
 10 12  1  0
 12 13  1  0
 13 14  2  0
 14 15  1  0
 15 16  2  0
 16 17  1  0
 17 18  2  0
  9 19  1  0
 19 20  1  0
 20  6  1  0
 18 13  1  0
M  END
>  <Title>  (1125) 
idABPMgen7

$$$$

     RDKit          2D

 27 30  0  0  0  0  0  0  0  0999 V2000
   -2.3737   -6.1885    0.0000 C   0  0  0  0  0  0  0  0  0  0  0  0
   -1.4095   -5.0395    0.0000 C   0  0  0  0  0  0  0  0  0  0  0  0
   -0.0000   -5.5525    0.0000 C   0  0  0  0  0  0  0  0  0  0  0  0
    1.4095   -5.0395    0.0000 C   0  0  0  0  0  0  0  0  0  0  0  0
    2.1595   -3.7404    0.0000 C   0  0  0  0  0  0  0  0  0  0  0  0
    1.8991   -2.2632    0.0000 C   0  0  0  0  0  0  0  0  0  0  0  0
    3.1981   -1.5132    0.0000 C   0  0  0  0  0  0  0  0  0  0  0  0
    3.1981   -0.0132    0.0000 O   0  0  0  0  0  0  0  0  0  0  0  0
    4.4971   -2.2632    0.0000 N   0  0  0  0  0  0  0  0  0  0  0  0
    5.7962   -1.5132    0.0000 C   0  0  0  0  0  0  0  0  0  0  0  0
    7.0952   -2.2632    0.0000 N   0  0  0  0  0  0  0  0  0  0  0  0
    8.3943   -1.5132    0.0000 N   0  0  0  0  0  0  0  0  0  0  0  0
    8.3943   -0.0132    0.0000 N   0  0  0  0  0  0  0  0  0  0  0  0
    7.0952    0.7368    0.0000 N   0  0  0  0  0  0  0  0  0  0  0  0
    5.7962   -0.0132    0.0000 N   0  0  0  0  0  0  0  0  0  0  0  0
    0.7500   -1.2990    0.0000 C   0  0  0  0  0  0  0  0  0  0  0  0
    1.5000    0.0000    0.0000 C   0  0  0  0  0  0  0  0  0  0  0  0
    0.7500    1.2990    0.0000 C   0  0  0  0  0  0  0  0  0  0  0  0
   -0.7500    1.2990    0.0000 C   0  0  0  0  0  0  0  0  0  0  0  0
   -1.5000    0.0000    0.0000 C   0  0  0  0  0  0  0  0  0  0  0  0
   -0.7500   -1.2990    0.0000 C   0  0  0  0  0  0  0  0  0  0  0  0
   -1.8991   -2.2632    0.0000 C   0  0  0  0  0  0  0  0  0  0  0  0
   -3.0481   -1.2990    0.0000 C   0  0  0  0  0  0  0  0  0  0  0  0
   -4.4577   -1.8121    0.0000 C   0  0  0  0  0  0  0  0  0  0  0  0
   -4.7181   -3.2893    0.0000 C   0  0  0  0  0  0  0  0  0  0  0  0
   -3.5691   -4.2535    0.0000 C   0  0  0  0  0  0  0  0  0  0  0  0
   -2.1595   -3.7404    0.0000 C   0  0  0  0  0  0  0  0  0  0  0  0
  1  2  1  0
  2  3  1  0
  3  4  1  0
  4  5  1  0
  5  6  1  0
  6  7  1  0
  7  8  2  0
  7  9  1  0
  9 10  1  0
 10 11  2  0
 11 12  1  0
 12 13  2  0
 13 14  1  0
 14 15  2  0
  6 16  1  0
 16 17  2  0
 17 18  1  0
 18 19  2  0
 19 20  1  0
 20 21  2  0
 21 22  1  0
 22 23  2  0
 23 24  1  0
 24 25  2  0
 25 26  1  0
 26 27  2  0
 27  2  1  0
 15 10  1  0
 21 16  1  0
 27 22  1  0
M  END
>  <Title>  (1126) 
idABPNgen7

$$$$

     RDKit          2D

 11 11  0  0  0  0  0  0  0  0999 V2000
    6.2286   -2.5981    0.0000 C   0  0  0  0  0  0  0  0  0  0  0  0
    5.4786   -1.2990    0.0000 C   0  0  0  0  0  0  0  0  0  0  0  0
    3.9786   -1.2990    0.0000 C   0  0  0  0  0  0  0  0  0  0  0  0
    3.2286   -0.0000    0.0000 C   0  0  0  0  0  0  0  0  0  0  0  0
    1.7286    0.0000    0.0000 C   0  0  0  0  0  0  0  0  0  0  0  0
    1.0777    1.3515    0.0000 C   0  0  0  0  0  0  0  0  0  0  0  0
   -0.3846    1.6852    0.0000 C   0  0  0  0  0  0  0  0  0  0  0  0
   -1.5574    0.7500    0.0000 C   0  0  0  0  0  0  0  0  0  0  0  0
   -1.5574   -0.7500    0.0000 C   0  0  0  0  0  0  0  0  0  0  0  0
   -0.3846   -1.6852    0.0000 C   0  0  0  0  0  0  0  0  0  0  0  0
    1.0777   -1.3515    0.0000 C   0  0  0  0  0  0  0  0  0  0  0  0
  1  2  2  0
  2  3  1  0
  3  4  2  3
  4  5  1  0
  5  6  1  0
  6  7  1  0
  7  8  2  0
  8  9  1  0
  9 10  2  0
 10 11  1  0
 11  5  1  0
M  END
>  <Title>  (1127) 
idABPOgen7

$$$$

     RDKit          2D

  6  6  0  0  0  0  0  0  0  0999 V2000
    2.7760    0.0000    0.0000 O   0  0  0  0  0  0  0  0  0  0  0  0
    1.2760    0.0000    0.0000 C   0  0  0  0  0  0  0  0  0  0  0  0
    0.3943    1.2135    0.0000 C   0  0  0  0  0  0  0  0  0  0  0  0
   -1.0323    0.7500    0.0000 C   0  0  0  0  0  0  0  0  0  0  0  0
   -1.0323   -0.7500    0.0000 C   0  0  0  0  0  0  0  0  0  0  0  0
    0.3943   -1.2135    0.0000 C   0  0  0  0  0  0  0  0  0  0  0  0
  1  2  1  0
  2  3  1  0
  3  4  1  0
  4  5  1  0
  5  6  1  0
  6  2  1  0
M  END
>  <Title>  (1128) 
idABPPgen7

$$$$

     RDKit          2D

 81 82  0  0  0  0  0  0  0  0999 V2000
   18.4555    0.0000    0.0000 C   0  0  0  0  0  0  0  0  0  0  0  0
   16.9555    0.0000    0.0000 C   0  0  0  0  0  0  0  0  0  0  0  0
   16.8892    1.4985    0.0000 C   0  0  0  0  0  0  0  0  0  0  0  0
   16.6907    2.9853    0.0000 C   0  0  0  0  0  0  0  0  0  0  0  0
   16.3615    4.4488    0.0000 C   0  0  0  0  0  0  0  0  0  0  0  0
   15.9043    5.8774    0.0000 C   0  0  0  0  0  0  0  0  0  0  0  0
   15.3226    7.2600    0.0000 C   0  0  0  0  0  0  0  0  0  0  0  0
   14.6210    8.5858    0.0000 C   0  0  0  0  0  0  0  0  0  0  0  0
   13.8050    9.8444    0.0000 C   0  0  0  0  0  0  0  0  0  0  0  0
   12.8809   11.0260    0.0000 C   0  0  0  0  0  0  0  0  0  0  0  0
   11.8560   12.1213    0.0000 C   0  0  0  0  0  0  0  0  0  0  0  0
   10.7383   13.1217    0.0000 C   0  0  0  0  0  0  0  0  0  0  0  0
    9.5366   14.0194    0.0000 C   0  0  0  0  0  0  0  0  0  0  0  0
    8.2603   14.8074    0.0000 C   0  0  0  0  0  0  0  0  0  0  0  0
    6.9193   15.4795    0.0000 C   0  0  0  0  0  0  0  0  0  0  0  0
    5.5241   16.0304    0.0000 C   0  0  0  0  0  0  0  0  0  0  0  0
    4.0857   16.4559    0.0000 C   0  0  0  0  0  0  0  0  0  0  0  0
    2.6154   16.7526    0.0000 C   0  0  0  0  0  0  0  0  0  0  0  0
    1.1245   16.9182    0.0000 C   0  0  0  0  0  0  0  0  0  0  0  0
   -0.3751   16.9514    0.0000 C   0  0  0  0  0  0  0  0  0  0  0  0
   -1.8718   16.8519    0.0000 C   0  0  0  0  0  0  0  0  0  0  0  0
   -3.3538   16.6205    0.0000 C   0  0  0  0  0  0  0  0  0  0  0  0
   -4.8096   16.2591    0.0000 C   0  0  0  0  0  0  0  0  0  0  0  0
   -6.2278   15.7704    0.0000 C   0  0  0  0  0  0  0  0  0  0  0  0
   -7.5972   15.1582    0.0000 C   0  0  0  0  0  0  0  0  0  0  0  0
   -8.9072   14.4275    0.0000 C   0  0  0  0  0  0  0  0  0  0  0  0
  -10.1474   13.5838    0.0000 C   0  0  0  0  0  0  0  0  0  0  0  0
  -11.3082   12.6338    0.0000 C   0  0  0  0  0  0  0  0  0  0  0  0
  -12.3806   11.5850    0.0000 C   0  0  0  0  0  0  0  0  0  0  0  0
  -13.3560   10.4454    0.0000 C   0  0  0  0  0  0  0  0  0  0  0  0
  -14.2269    9.2242    0.0000 C   0  0  0  0  0  0  0  0  0  0  0  0
  -14.9865    7.9307    0.0000 C   0  0  0  0  0  0  0  0  0  0  0  0
  -15.6287    6.5751    0.0000 C   0  0  0  0  0  0  0  0  0  0  0  0
  -16.1487    5.1681    0.0000 C   0  0  0  0  0  0  0  0  0  0  0  0
  -16.5423    3.7207    0.0000 C   0  0  0  0  0  0  0  0  0  0  0  0
  -16.8064    2.2441    0.0000 C   0  0  0  0  0  0  0  0  0  0  0  0
  -16.9389    0.7500    0.0000 C   0  0  0  0  0  0  0  0  0  0  0  0
  -16.9389   -0.7500    0.0000 C   0  0  0  0  0  0  0  0  0  0  0  0
  -16.8064   -2.2441    0.0000 C   0  0  0  0  0  0  0  0  0  0  0  0
  -16.5423   -3.7207    0.0000 C   0  0  0  0  0  0  0  0  0  0  0  0
  -16.1487   -5.1681    0.0000 C   0  0  0  0  0  0  0  0  0  0  0  0
  -15.6287   -6.5751    0.0000 C   0  0  0  0  0  0  0  0  0  0  0  0
  -14.9865   -7.9307    0.0000 C   0  0  0  0  0  0  0  0  0  0  0  0
  -14.2269   -9.2242    0.0000 C   0  0  0  0  0  0  0  0  0  0  0  0
  -13.3560  -10.4454    0.0000 C   0  0  0  0  0  0  0  0  0  0  0  0
  -12.3806  -11.5850    0.0000 C   0  0  0  0  0  0  0  0  0  0  0  0
  -11.3082  -12.6338    0.0000 C   0  0  0  0  0  0  0  0  0  0  0  0
  -10.1474  -13.5838    0.0000 C   0  0  0  0  0  0  0  0  0  0  0  0
   -8.9072  -14.4275    0.0000 C   0  0  0  0  0  0  0  0  0  0  0  0
   -7.5972  -15.1582    0.0000 C   0  0  0  0  0  0  0  0  0  0  0  0
   -6.2278  -15.7704    0.0000 C   0  0  0  0  0  0  0  0  0  0  0  0
   -4.8096  -16.2591    0.0000 C   0  0  0  0  0  0  0  0  0  0  0  0
   -3.3538  -16.6205    0.0000 C   0  0  0  0  0  0  0  0  0  0  0  0
   -1.8718  -16.8519    0.0000 C   0  0  0  0  0  0  0  0  0  0  0  0
   -0.3751  -16.9514    0.0000 C   0  0  0  0  0  0  0  0  0  0  0  0
    1.1245  -16.9182    0.0000 C   0  0  0  0  0  0  0  0  0  0  0  0
    2.6154  -16.7526    0.0000 C   0  0  0  0  0  0  0  0  0  0  0  0
    4.0857  -16.4559    0.0000 C   0  0  0  0  0  0  0  0  0  0  0  0
    5.5241  -16.0304    0.0000 C   0  0  0  0  0  0  0  0  0  0  0  0
    6.9193  -15.4795    0.0000 C   0  0  0  0  0  0  0  0  0  0  0  0
    8.2603  -14.8074    0.0000 C   0  0  0  0  0  0  0  0  0  0  0  0
    9.5366  -14.0194    0.0000 C   0  0  0  0  0  0  0  0  0  0  0  0
   10.7383  -13.1217    0.0000 C   0  0  0  0  0  0  0  0  0  0  0  0
   11.8560  -12.1213    0.0000 C   0  0  0  0  0  0  0  0  0  0  0  0
   12.8809  -11.0260    0.0000 C   0  0  0  0  0  0  0  0  0  0  0  0
   13.8050   -9.8444    0.0000 C   0  0  0  0  0  0  0  0  0  0  0  0
   14.6210   -8.5858    0.0000 C   0  0  0  0  0  0  0  0  0  0  0  0
   15.3226   -7.2600    0.0000 C   0  0  0  0  0  0  0  0  0  0  0  0
   15.9043   -5.8774    0.0000 C   0  0  0  0  0  0  0  0  0  0  0  0
   16.3615   -4.4488    0.0000 C   0  0  0  0  0  0  0  0  0  0  0  0
   16.6907   -2.9853    0.0000 C   0  0  0  0  0  0  0  0  0  0  0  0
   18.1672   -3.2494    0.0000 C   0  0  0  0  0  0  0  0  0  0  0  0
   19.1342   -2.1027    0.0000 O   0  0  0  0  0  0  0  0  0  0  0  0
   18.6768   -4.6602    0.0000 O   0  0  0  0  0  0  0  0  0  0  0  0
   20.1534   -4.9243    0.0000 C   0  0  0  0  0  0  0  0  0  0  0  0
   20.6629   -6.3351    0.0000 C   0  0  0  0  0  0  0  0  0  0  0  0
   22.1395   -6.5992    0.0000 C   0  0  0  0  0  0  0  0  0  0  0  0
   23.1065   -5.4525    0.0000 C   0  0  0  0  0  0  0  0  0  0  0  0
   22.5969   -4.0417    0.0000 C   0  0  0  0  0  0  0  0  0  0  0  0
   21.1204   -3.7776    0.0000 C   0  0  0  0  0  0  0  0  0  0  0  0
   16.8892   -1.4985    0.0000 C   0  0  0  0  0  0  0  0  0  0  0  0
  1  2  1  0
  2  3  1  0
  3  4  1  0
  4  5  1  0
  5  6  1  0
  6  7  1  0
  7  8  1  0
  8  9  1  0
  9 10  1  0
 10 11  1  0
 11 12  1  0
 12 13  1  0
 13 14  1  0
 14 15  1  0
 15 16  1  0
 16 17  1  0
 17 18  1  0
 18 19  1  0
 19 20  1  0
 20 21  1  0
 21 22  1  0
 22 23  1  0
 23 24  1  0
 24 25  1  0
 25 26  1  0
 26 27  1  0
 27 28  1  0
 28 29  1  0
 29 30  1  0
 30 31  1  0
 31 32  1  0
 32 33  1  0
 33 34  1  0
 34 35  1  0
 35 36  1  0
 36 37  1  0
 37 38  1  0
 38 39  1  0
 39 40  1  0
 40 41  1  0
 41 42  1  0
 42 43  1  0
 43 44  1  0
 44 45  1  0
 45 46  1  0
 46 47  1  0
 47 48  1  0
 48 49  1  0
 49 50  1  0
 50 51  1  0
 51 52  1  0
 52 53  1  0
 53 54  1  0
 54 55  1  0
 55 56  1  0
 56 57  1  0
 57 58  1  0
 58 59  1  0
 59 60  1  0
 60 61  1  0
 61 62  1  0
 62 63  1  0
 63 64  1  0
 64 65  1  0
 65 66  1  0
 66 67  1  0
 67 68  1  0
 68 69  1  0
 69 70  2  0
 70 71  1  0
 71 72  1  0
 72 73  2  0
 72 74  1  0
 74 75  1  0
 75 76  2  0
 76 77  1  0
 77 78  2  0
 78 79  1  0
 79 80  2  0
 71 81  1  0
 81  2  1  0
 80 75  1  0
M  END
>  <Title>  (1129) 
idABPQgen7

$$$$

     RDKit          2D

  9  9  0  0  0  0  0  0  0  0999 V2000
    3.0000    0.0000    0.0000 C   0  0  0  0  0  0  0  0  0  0  0  0
    1.5000    0.0000    0.0000 C   0  0  0  0  0  0  0  0  0  0  0  0
    0.7500   -1.2990    0.0000 C   0  0  0  0  0  0  0  0  0  0  0  0
   -0.7500   -1.2990    0.0000 C   0  0  0  0  0  0  0  0  0  0  0  0
   -1.5000    0.0000    0.0000 C   0  0  0  0  0  0  0  0  0  0  0  0
   -0.7500    1.2990    0.0000 C   0  0  0  0  0  0  0  0  0  0  0  0
   -1.5000    2.5981    0.0000 C   0  0  0  0  0  0  0  0  0  0  0  0
    0.7500    1.2990    0.0000 C   0  0  0  0  0  0  0  0  0  0  0  0
    1.5000    2.5981    0.0000 O   0  0  0  0  0  0  0  0  0  0  0  0
  1  2  1  0
  2  3  2  0
  3  4  1  0
  4  5  1  0
  5  6  1  0
  6  7  1  0
  6  8  1  0
  8  9  2  0
  8  2  1  0
M  END
>  <Title>  (1130) 
idABPRgen7

$$$$

     RDKit          2D

 17 17  0  0  0  0  0  0  0  0999 V2000
    5.3444    0.0000    0.0000 C   0  0  0  0  0  0  0  0  0  0  0  0
    3.8444    0.0000    0.0000 C   0  0  0  0  0  0  0  0  0  0  0  0
    3.5517   -1.4712    0.0000 C   0  0  0  0  0  0  0  0  0  0  0  0
    2.7184   -2.7184    0.0000 C   0  0  0  0  0  0  0  0  0  0  0  0
    1.4712   -3.5517    0.0000 C   0  0  0  0  0  0  0  0  0  0  0  0
   -0.0000   -3.8444    0.0000 C   0  0  0  0  0  0  0  0  0  0  0  0
   -1.4712   -3.5517    0.0000 C   0  0  0  0  0  0  0  0  0  0  0  0
   -2.7184   -2.7184    0.0000 C   0  0  0  0  0  0  0  0  0  0  0  0
   -3.5517   -1.4712    0.0000 C   0  0  0  0  0  0  0  0  0  0  0  0
   -3.8444    0.0000    0.0000 C   0  0  0  0  0  0  0  0  0  0  0  0
   -3.5517    1.4712    0.0000 C   0  0  0  0  0  0  0  0  0  0  0  0
   -2.7184    2.7184    0.0000 C   0  0  0  0  0  0  0  0  0  0  0  0
   -1.4712    3.5517    0.0000 C   0  0  0  0  0  0  0  0  0  0  0  0
    0.0000    3.8444    0.0000 C   0  0  0  0  0  0  0  0  0  0  0  0
    1.4712    3.5517    0.0000 C   0  0  0  0  0  0  0  0  0  0  0  0
    2.7184    2.7184    0.0000 C   0  0  0  0  0  0  0  0  0  0  0  0
    3.5517    1.4712    0.0000 C   0  0  0  0  0  0  0  0  0  0  0  0
  1  2  1  0
  2  3  1  0
  3  4  1  0
  4  5  2  0
  5  6  1  0
  6  7  2  0
  7  8  1  0
  8  9  1  0
  9 10  1  0
 10 11  1  0
 11 12  1  0
 12 13  1  0
 13 14  1  0
 14 15  1  0
 15 16  1  0
 16 17  1  0
 17  2  1  0
M  END
>  <Title>  (1131) 
idABPSgen7

$$$$

     RDKit          2D

113113  0  0  0  0  0  0  0  0999 V2000
   28.2415    0.0000    0.0000 O   0  0  0  0  0  0  0  0  0  0  0  0
   26.7415    0.0000    0.0000 C   0  0  0  0  0  0  0  0  0  0  0  0
   26.6995   -1.4994    0.0000 C   0  0  0  0  0  0  0  0  0  0  0  0
   26.5734   -2.9941    0.0000 C   0  0  0  0  0  0  0  0  0  0  0  0
   26.3637   -4.4794    0.0000 C   0  0  0  0  0  0  0  0  0  0  0  0
   26.0711   -5.9506    0.0000 C   0  0  0  0  0  0  0  0  0  0  0  0
   25.6964   -7.4030    0.0000 C   0  0  0  0  0  0  0  0  0  0  0  0
   25.2409   -8.8322    0.0000 C   0  0  0  0  0  0  0  0  0  0  0  0
   24.7060  -10.2335    0.0000 C   0  0  0  0  0  0  0  0  0  0  0  0
   24.0933  -11.6027    0.0000 C   0  0  0  0  0  0  0  0  0  0  0  0
   23.4048  -12.9354    0.0000 C   0  0  0  0  0  0  0  0  0  0  0  0
   22.6427  -14.2274    0.0000 C   0  0  0  0  0  0  0  0  0  0  0  0
   21.8094  -15.4746    0.0000 C   0  0  0  0  0  0  0  0  0  0  0  0
   20.9074  -16.6731    0.0000 C   0  0  0  0  0  0  0  0  0  0  0  0
   19.9396  -17.8191    0.0000 C   0  0  0  0  0  0  0  0  0  0  0  0
   18.9091  -18.9091    0.0000 C   0  0  0  0  0  0  0  0  0  0  0  0
   17.8191  -19.9396    0.0000 C   0  0  0  0  0  0  0  0  0  0  0  0
   16.6731  -20.9074    0.0000 C   0  0  0  0  0  0  0  0  0  0  0  0
   15.4746  -21.8094    0.0000 C   0  0  0  0  0  0  0  0  0  0  0  0
   14.2274  -22.6427    0.0000 C   0  0  0  0  0  0  0  0  0  0  0  0
   12.9354  -23.4048    0.0000 C   0  0  0  0  0  0  0  0  0  0  0  0
   11.6027  -24.0933    0.0000 C   0  0  0  0  0  0  0  0  0  0  0  0
   10.2335  -24.7060    0.0000 C   0  0  0  0  0  0  0  0  0  0  0  0
    8.8322  -25.2409    0.0000 C   0  0  0  0  0  0  0  0  0  0  0  0
    7.4030  -25.6964    0.0000 C   0  0  0  0  0  0  0  0  0  0  0  0
    5.9506  -26.0711    0.0000 C   0  0  0  0  0  0  0  0  0  0  0  0
    4.4794  -26.3637    0.0000 C   0  0  0  0  0  0  0  0  0  0  0  0
    2.9941  -26.5734    0.0000 C   0  0  0  0  0  0  0  0  0  0  0  0
    1.4994  -26.6995    0.0000 C   0  0  0  0  0  0  0  0  0  0  0  0
   -0.0000  -26.7415    0.0000 C   0  0  0  0  0  0  0  0  0  0  0  0
   -1.4994  -26.6995    0.0000 C   0  0  0  0  0  0  0  0  0  0  0  0
   -2.9941  -26.5734    0.0000 C   0  0  0  0  0  0  0  0  0  0  0  0
   -4.4794  -26.3637    0.0000 C   0  0  0  0  0  0  0  0  0  0  0  0
   -5.9506  -26.0711    0.0000 C   0  0  0  0  0  0  0  0  0  0  0  0
   -7.4030  -25.6964    0.0000 C   0  0  0  0  0  0  0  0  0  0  0  0
   -8.8322  -25.2409    0.0000 C   0  0  0  0  0  0  0  0  0  0  0  0
  -10.2335  -24.7060    0.0000 C   0  0  0  0  0  0  0  0  0  0  0  0
  -11.6027  -24.0933    0.0000 C   0  0  0  0  0  0  0  0  0  0  0  0
  -12.9354  -23.4048    0.0000 C   0  0  0  0  0  0  0  0  0  0  0  0
  -14.2274  -22.6427    0.0000 C   0  0  0  0  0  0  0  0  0  0  0  0
  -15.4746  -21.8094    0.0000 C   0  0  0  0  0  0  0  0  0  0  0  0
  -16.6731  -20.9074    0.0000 C   0  0  0  0  0  0  0  0  0  0  0  0
  -17.8191  -19.9396    0.0000 C   0  0  0  0  0  0  0  0  0  0  0  0
  -18.9091  -18.9091    0.0000 C   0  0  0  0  0  0  0  0  0  0  0  0
  -19.9396  -17.8191    0.0000 C   0  0  0  0  0  0  0  0  0  0  0  0
  -20.9074  -16.6731    0.0000 C   0  0  0  0  0  0  0  0  0  0  0  0
  -21.8094  -15.4746    0.0000 C   0  0  0  0  0  0  0  0  0  0  0  0
  -22.6427  -14.2274    0.0000 C   0  0  0  0  0  0  0  0  0  0  0  0
  -23.4048  -12.9354    0.0000 C   0  0  0  0  0  0  0  0  0  0  0  0
  -24.0933  -11.6027    0.0000 C   0  0  0  0  0  0  0  0  0  0  0  0
  -24.7060  -10.2335    0.0000 C   0  0  0  0  0  0  0  0  0  0  0  0
  -25.2409   -8.8322    0.0000 C   0  0  0  0  0  0  0  0  0  0  0  0
  -25.6964   -7.4030    0.0000 C   0  0  0  0  0  0  0  0  0  0  0  0
  -26.0711   -5.9506    0.0000 C   0  0  0  0  0  0  0  0  0  0  0  0
  -26.3637   -4.4794    0.0000 C   0  0  0  0  0  0  0  0  0  0  0  0
  -26.5734   -2.9941    0.0000 C   0  0  0  0  0  0  0  0  0  0  0  0
  -26.6995   -1.4994    0.0000 C   0  0  0  0  0  0  0  0  0  0  0  0
  -26.7415    0.0000    0.0000 C   0  0  0  0  0  0  0  0  0  0  0  0
  -26.6995    1.4994    0.0000 C   0  0  0  0  0  0  0  0  0  0  0  0
  -26.5734    2.9941    0.0000 C   0  0  0  0  0  0  0  0  0  0  0  0
  -26.3637    4.4794    0.0000 C   0  0  0  0  0  0  0  0  0  0  0  0
  -26.0711    5.9506    0.0000 C   0  0  0  0  0  0  0  0  0  0  0  0
  -25.6964    7.4030    0.0000 C   0  0  0  0  0  0  0  0  0  0  0  0
  -25.2409    8.8322    0.0000 C   0  0  0  0  0  0  0  0  0  0  0  0
  -24.7060   10.2335    0.0000 C   0  0  0  0  0  0  0  0  0  0  0  0
  -24.0933   11.6027    0.0000 C   0  0  0  0  0  0  0  0  0  0  0  0
  -23.4048   12.9354    0.0000 C   0  0  0  0  0  0  0  0  0  0  0  0
  -22.6427   14.2274    0.0000 C   0  0  0  0  0  0  0  0  0  0  0  0
  -21.8094   15.4746    0.0000 C   0  0  0  0  0  0  0  0  0  0  0  0
  -20.9074   16.6731    0.0000 C   0  0  0  0  0  0  0  0  0  0  0  0
  -19.9396   17.8191    0.0000 C   0  0  0  0  0  0  0  0  0  0  0  0
  -18.9091   18.9091    0.0000 C   0  0  0  0  0  0  0  0  0  0  0  0
  -17.8191   19.9396    0.0000 C   0  0  0  0  0  0  0  0  0  0  0  0
  -16.6731   20.9074    0.0000 C   0  0  0  0  0  0  0  0  0  0  0  0
  -15.4746   21.8094    0.0000 C   0  0  0  0  0  0  0  0  0  0  0  0
  -14.2274   22.6427    0.0000 C   0  0  0  0  0  0  0  0  0  0  0  0
  -12.9354   23.4048    0.0000 C   0  0  0  0  0  0  0  0  0  0  0  0
  -11.6027   24.0933    0.0000 C   0  0  0  0  0  0  0  0  0  0  0  0
  -10.2335   24.7060    0.0000 C   0  0  0  0  0  0  0  0  0  0  0  0
   -8.8322   25.2409    0.0000 C   0  0  0  0  0  0  0  0  0  0  0  0
   -7.4030   25.6964    0.0000 C   0  0  0  0  0  0  0  0  0  0  0  0
   -5.9506   26.0711    0.0000 C   0  0  0  0  0  0  0  0  0  0  0  0
   -4.4794   26.3637    0.0000 C   0  0  0  0  0  0  0  0  0  0  0  0
   -2.9941   26.5734    0.0000 C   0  0  0  0  0  0  0  0  0  0  0  0
   -1.4994   26.6995    0.0000 C   0  0  0  0  0  0  0  0  0  0  0  0
    0.0000   26.7415    0.0000 C   0  0  0  0  0  0  0  0  0  0  0  0
    1.4994   26.6995    0.0000 C   0  0  0  0  0  0  0  0  0  0  0  0
    2.9941   26.5734    0.0000 C   0  0  0  0  0  0  0  0  0  0  0  0
    4.4794   26.3637    0.0000 C   0  0  0  0  0  0  0  0  0  0  0  0
    5.9506   26.0711    0.0000 C   0  0  0  0  0  0  0  0  0  0  0  0
    7.4030   25.6964    0.0000 C   0  0  0  0  0  0  0  0  0  0  0  0
    8.8322   25.2409    0.0000 C   0  0  0  0  0  0  0  0  0  0  0  0
   10.2335   24.7060    0.0000 C   0  0  0  0  0  0  0  0  0  0  0  0
   11.6027   24.0933    0.0000 C   0  0  0  0  0  0  0  0  0  0  0  0
   12.9354   23.4048    0.0000 C   0  0  0  0  0  0  0  0  0  0  0  0
   14.2274   22.6427    0.0000 C   0  0  0  0  0  0  0  0  0  0  0  0
   15.4746   21.8094    0.0000 C   0  0  0  0  0  0  0  0  0  0  0  0
   16.6731   20.9074    0.0000 C   0  0  0  0  0  0  0  0  0  0  0  0
   17.8191   19.9396    0.0000 C   0  0  0  0  0  0  0  0  0  0  0  0
   18.9091   18.9091    0.0000 C   0  0  0  0  0  0  0  0  0  0  0  0
   19.9396   17.8191    0.0000 C   0  0  0  0  0  0  0  0  0  0  0  0
   20.9074   16.6731    0.0000 C   0  0  0  0  0  0  0  0  0  0  0  0
   21.8094   15.4746    0.0000 C   0  0  0  0  0  0  0  0  0  0  0  0
   22.6427   14.2274    0.0000 C   0  0  0  0  0  0  0  0  0  0  0  0
   23.4048   12.9354    0.0000 C   0  0  0  0  0  0  0  0  0  0  0  0
   24.0933   11.6027    0.0000 C   0  0  0  0  0  0  0  0  0  0  0  0
   24.7060   10.2335    0.0000 C   0  0  0  0  0  0  0  0  0  0  0  0
   25.2409    8.8322    0.0000 C   0  0  0  0  0  0  0  0  0  0  0  0
   25.6964    7.4030    0.0000 C   0  0  0  0  0  0  0  0  0  0  0  0
   26.0711    5.9506    0.0000 C   0  0  0  0  0  0  0  0  0  0  0  0
   26.3637    4.4794    0.0000 C   0  0  0  0  0  0  0  0  0  0  0  0
   26.5734    2.9941    0.0000 C   0  0  0  0  0  0  0  0  0  0  0  0
   26.6995    1.4994    0.0000 C   0  0  0  0  0  0  0  0  0  0  0  0
  1  2  1  0
  2  3  1  0
  3  4  1  0
  4  5  1  0
  5  6  1  0
  6  7  1  0
  7  8  1  0
  8  9  1  0
  9 10  1  0
 10 11  1  0
 11 12  1  0
 12 13  1  0
 13 14  1  0
 14 15  1  0
 15 16  1  0
 16 17  1  0
 17 18  1  0
 18 19  1  0
 19 20  1  0
 20 21  1  0
 21 22  1  0
 22 23  1  0
 23 24  1  0
 24 25  1  0
 25 26  1  0
 26 27  1  0
 27 28  1  0
 28 29  1  0
 29 30  1  0
 30 31  1  0
 31 32  1  0
 32 33  1  0
 33 34  1  0
 34 35  1  0
 35 36  1  0
 36 37  1  0
 37 38  1  0
 38 39  1  0
 39 40  1  0
 40 41  1  0
 41 42  1  0
 42 43  1  0
 43 44  1  0
 44 45  1  0
 45 46  1  0
 46 47  1  0
 47 48  1  0
 48 49  1  0
 49 50  1  0
 50 51  1  0
 51 52  1  0
 52 53  1  0
 53 54  1  0
 54 55  1  0
 55 56  1  0
 56 57  1  0
 57 58  1  0
 58 59  1  0
 59 60  1  0
 60 61  1  0
 61 62  1  0
 62 63  1  0
 63 64  1  0
 64 65  1  0
 65 66  1  0
 66 67  1  0
 67 68  1  0
 68 69  1  0
 69 70  1  0
 70 71  1  0
 71 72  1  0
 72 73  1  0
 73 74  1  0
 74 75  1  0
 75 76  1  0
 76 77  1  0
 77 78  1  0
 78 79  1  0
 79 80  1  0
 80 81  1  0
 81 82  1  0
 82 83  1  0
 83 84  1  0
 84 85  1  0
 85 86  1  0
 86 87  1  0
 87 88  1  0
 88 89  1  0
 89 90  1  0
 90 91  1  0
 91 92  1  0
 92 93  1  0
 93 94  1  0
 94 95  1  0
 95 96  1  0
 96 97  1  0
 97 98  1  0
 98 99  1  0
 99100  1  0
100101  1  0
101102  1  0
102103  1  0
103104  1  0
104105  1  0
105106  1  0
106107  1  0
107108  1  0
108109  1  0
109110  1  0
110111  1  0
111112  1  0
112113  1  0
113  2  1  0
M  END
>  <Title>  (1132) 
idABPTgen7

$$$$

     RDKit          2D

 12 13  0  0  0  0  0  0  0  0999 V2000
    3.0000    0.0000    0.0000 O   0  0  0  0  0  0  0  0  0  0  0  0
    1.5000    0.0000    0.0000 C   0  0  0  0  0  0  0  0  0  0  0  0
    0.7500   -1.2990    0.0000 C   0  0  0  0  0  0  0  0  0  0  0  0
   -0.7500   -1.2990    0.0000 C   0  0  0  0  0  0  0  0  0  0  0  0
   -1.5000    0.0000    0.0000 C   0  0  0  0  0  0  0  0  0  0  0  0
   -0.7500    1.2990    0.0000 C   0  0  0  0  0  0  0  0  0  0  0  0
    0.7500    1.2990    0.0000 C   0  0  0  0  0  0  0  0  0  0  0  0
    1.5000    2.5981    0.0000 C   0  0  0  0  0  0  0  0  0  0  0  0
    0.8899    3.9684    0.0000 C   0  0  0  0  0  0  0  0  0  0  0  0
    2.0046    4.9721    0.0000 C   0  0  0  0  0  0  0  0  0  0  0  0
    3.3037    4.2221    0.0000 C   0  0  0  0  0  0  0  0  0  0  0  0
    2.9918    2.7549    0.0000 C   0  0  0  0  0  0  0  0  0  0  0  0
  1  2  1  0
  2  3  2  0
  3  4  1  0
  4  5  2  0
  5  6  1  0
  6  7  2  0
  7  8  1  0
  8  9  2  0
  9 10  1  0
 10 11  1  0
 11 12  1  0
  7  2  1  0
 12  8  1  0
M  END
>  <Title>  (1133) 
idABPUgen7

$$$$

     RDKit          2D

 63 63  0  0  0  0  0  0  0  0999 V2000
   16.3077   -0.0000    0.0000 C   0  0  0  0  0  0  0  0  0  0  0  0
   14.8077    0.0000    0.0000 C   0  0  0  0  0  0  0  0  0  0  0  0
   14.7318   -1.4981    0.0000 C   0  0  0  0  0  0  0  0  0  0  0  0
   14.5046   -2.9808    0.0000 C   0  0  0  0  0  0  0  0  0  0  0  0
   14.1287   -4.4329    0.0000 C   0  0  0  0  0  0  0  0  0  0  0  0
   13.6077   -5.8395    0.0000 C   0  0  0  0  0  0  0  0  0  0  0  0
   12.9471   -7.1862    0.0000 C   0  0  0  0  0  0  0  0  0  0  0  0
   12.1537   -8.4592    0.0000 C   0  0  0  0  0  0  0  0  0  0  0  0
   11.2355   -9.6454    0.0000 C   0  0  0  0  0  0  0  0  0  0  0  0
   10.2020  -10.7325    0.0000 C   0  0  0  0  0  0  0  0  0  0  0  0
    9.0639  -11.7096    0.0000 C   0  0  0  0  0  0  0  0  0  0  0  0
    7.8328  -12.5665    0.0000 C   0  0  0  0  0  0  0  0  0  0  0  0
    6.5212  -13.2945    0.0000 C   0  0  0  0  0  0  0  0  0  0  0  0
    5.1428  -13.8860    0.0000 C   0  0  0  0  0  0  0  0  0  0  0  0
    3.7116  -14.3350    0.0000 C   0  0  0  0  0  0  0  0  0  0  0  0
    2.2423  -14.6370    0.0000 C   0  0  0  0  0  0  0  0  0  0  0  0
    0.7500  -14.7887    0.0000 C   0  0  0  0  0  0  0  0  0  0  0  0
   -0.7500  -14.7887    0.0000 C   0  0  0  0  0  0  0  0  0  0  0  0
   -2.2423  -14.6370    0.0000 C   0  0  0  0  0  0  0  0  0  0  0  0
   -3.7116  -14.3350    0.0000 C   0  0  0  0  0  0  0  0  0  0  0  0
   -5.1428  -13.8860    0.0000 C   0  0  0  0  0  0  0  0  0  0  0  0
   -6.5212  -13.2945    0.0000 C   0  0  0  0  0  0  0  0  0  0  0  0
   -7.8328  -12.5665    0.0000 C   0  0  0  0  0  0  0  0  0  0  0  0
   -9.0639  -11.7096    0.0000 C   0  0  0  0  0  0  0  0  0  0  0  0
  -10.2020  -10.7325    0.0000 C   0  0  0  0  0  0  0  0  0  0  0  0
  -11.2355   -9.6454    0.0000 C   0  0  0  0  0  0  0  0  0  0  0  0
  -12.1537   -8.4592    0.0000 C   0  0  0  0  0  0  0  0  0  0  0  0
  -12.9471   -7.1862    0.0000 C   0  0  0  0  0  0  0  0  0  0  0  0
  -13.6077   -5.8395    0.0000 C   0  0  0  0  0  0  0  0  0  0  0  0
  -14.1287   -4.4329    0.0000 C   0  0  0  0  0  0  0  0  0  0  0  0
  -14.5046   -2.9808    0.0000 C   0  0  0  0  0  0  0  0  0  0  0  0
  -14.7318   -1.4981    0.0000 C   0  0  0  0  0  0  0  0  0  0  0  0
  -14.8077    0.0000    0.0000 C   0  0  0  0  0  0  0  0  0  0  0  0
  -14.7318    1.4981    0.0000 C   0  0  0  0  0  0  0  0  0  0  0  0
  -14.5046    2.9808    0.0000 C   0  0  0  0  0  0  0  0  0  0  0  0
  -14.1287    4.4329    0.0000 C   0  0  0  0  0  0  0  0  0  0  0  0
  -13.6077    5.8395    0.0000 C   0  0  0  0  0  0  0  0  0  0  0  0
  -12.9471    7.1862    0.0000 C   0  0  0  0  0  0  0  0  0  0  0  0
  -12.1537    8.4592    0.0000 C   0  0  0  0  0  0  0  0  0  0  0  0
  -11.2355    9.6454    0.0000 C   0  0  0  0  0  0  0  0  0  0  0  0
  -10.2020   10.7325    0.0000 C   0  0  0  0  0  0  0  0  0  0  0  0
   -9.0639   11.7096    0.0000 C   0  0  0  0  0  0  0  0  0  0  0  0
   -7.8328   12.5665    0.0000 C   0  0  0  0  0  0  0  0  0  0  0  0
   -6.5212   13.2945    0.0000 C   0  0  0  0  0  0  0  0  0  0  0  0
   -5.1428   13.8860    0.0000 C   0  0  0  0  0  0  0  0  0  0  0  0
   -3.7116   14.3350    0.0000 C   0  0  0  0  0  0  0  0  0  0  0  0
   -2.2423   14.6370    0.0000 C   0  0  0  0  0  0  0  0  0  0  0  0
   -0.7500   14.7887    0.0000 C   0  0  0  0  0  0  0  0  0  0  0  0
    0.7500   14.7887    0.0000 C   0  0  0  0  0  0  0  0  0  0  0  0
    2.2423   14.6370    0.0000 C   0  0  0  0  0  0  0  0  0  0  0  0
    3.7116   14.3350    0.0000 C   0  0  0  0  0  0  0  0  0  0  0  0
    5.1428   13.8860    0.0000 C   0  0  0  0  0  0  0  0  0  0  0  0
    6.5212   13.2945    0.0000 C   0  0  0  0  0  0  0  0  0  0  0  0
    7.8328   12.5665    0.0000 C   0  0  0  0  0  0  0  0  0  0  0  0
    9.0639   11.7096    0.0000 C   0  0  0  0  0  0  0  0  0  0  0  0
   10.2020   10.7325    0.0000 C   0  0  0  0  0  0  0  0  0  0  0  0
   11.2355    9.6454    0.0000 C   0  0  0  0  0  0  0  0  0  0  0  0
   12.1537    8.4592    0.0000 C   0  0  0  0  0  0  0  0  0  0  0  0
   12.9471    7.1862    0.0000 C   0  0  0  0  0  0  0  0  0  0  0  0
   13.6077    5.8395    0.0000 C   0  0  0  0  0  0  0  0  0  0  0  0
   14.1287    4.4329    0.0000 C   0  0  0  0  0  0  0  0  0  0  0  0
   14.5046    2.9808    0.0000 C   0  0  0  0  0  0  0  0  0  0  0  0
   14.7318    1.4981    0.0000 C   0  0  0  0  0  0  0  0  0  0  0  0
  1  2  1  0
  2  3  1  0
  3  4  2  0
  4  5  1  0
  5  6  2  0
  6  7  1  0
  7  8  2  0
  8  9  1  0
  9 10  2  0
 10 11  1  0
 11 12  2  0
 12 13  1  0
 13 14  2  0
 14 15  1  0
 15 16  1  0
 16 17  1  0
 17 18  1  0
 18 19  1  0
 19 20  1  0
 20 21  1  0
 21 22  1  0
 22 23  1  0
 23 24  1  0
 24 25  1  0
 25 26  1  0
 26 27  1  0
 27 28  1  0
 28 29  1  0
 29 30  1  0
 30 31  1  0
 31 32  1  0
 32 33  1  0
 33 34  1  0
 34 35  1  0
 35 36  1  0
 36 37  1  0
 37 38  1  0
 38 39  1  0
 39 40  1  0
 40 41  1  0
 41 42  1  0
 42 43  1  0
 43 44  1  0
 44 45  1  0
 45 46  1  0
 46 47  1  0
 47 48  1  0
 48 49  1  0
 49 50  1  0
 50 51  1  0
 51 52  1  0
 52 53  1  0
 53 54  1  0
 54 55  1  0
 55 56  1  0
 56 57  1  0
 57 58  1  0
 58 59  1  0
 59 60  1  0
 60 61  1  0
 61 62  1  0
 62 63  1  0
 63  2  1  0
M  END
>  <Title>  (1134) 
idABPVgen7

$$$$

     RDKit          2D

101104  0  0  0  0  0  0  0  0999 V2000
   -5.5647   -0.4768    0.0000 C   0  0  0  0  0  0  0  0  0  0  0  0
   -5.1978   -1.9313    0.0000 C   0  0  0  0  0  0  0  0  0  0  0  0
   -6.6384   -2.3492    0.0000 C   0  0  0  0  0  0  0  0  0  0  0  0
   -8.0459   -2.8678    0.0000 C   0  0  0  0  0  0  0  0  0  0  0  0
   -9.4134   -3.4843    0.0000 C   0  0  0  0  0  0  0  0  0  0  0  0
  -10.7339   -4.1958    0.0000 C   0  0  0  0  0  0  0  0  0  0  0  0
  -12.0009   -4.9987    0.0000 C   0  0  0  0  0  0  0  0  0  0  0  0
  -13.2082   -5.8889    0.0000 C   0  0  0  0  0  0  0  0  0  0  0  0
  -14.3497   -6.8620    0.0000 C   0  0  0  0  0  0  0  0  0  0  0  0
  -15.4197   -7.9133    0.0000 C   0  0  0  0  0  0  0  0  0  0  0  0
  -16.4128   -9.0374    0.0000 C   0  0  0  0  0  0  0  0  0  0  0  0
  -17.3242  -10.2288    0.0000 C   0  0  0  0  0  0  0  0  0  0  0  0
  -18.1493  -11.4815    0.0000 C   0  0  0  0  0  0  0  0  0  0  0  0
  -18.8840  -12.7893    0.0000 C   0  0  0  0  0  0  0  0  0  0  0  0
  -19.5245  -14.1456    0.0000 C   0  0  0  0  0  0  0  0  0  0  0  0
  -20.0679  -15.5437    0.0000 C   0  0  0  0  0  0  0  0  0  0  0  0
  -20.5112  -16.9767    0.0000 C   0  0  0  0  0  0  0  0  0  0  0  0
  -20.8524  -18.4374    0.0000 C   0  0  0  0  0  0  0  0  0  0  0  0
  -21.0896  -19.9185    0.0000 C   0  0  0  0  0  0  0  0  0  0  0  0
  -21.2218  -21.4127    0.0000 C   0  0  0  0  0  0  0  0  0  0  0  0
  -21.2483  -22.9125    0.0000 C   0  0  0  0  0  0  0  0  0  0  0  0
  -21.1689  -24.4104    0.0000 C   0  0  0  0  0  0  0  0  0  0  0  0
  -20.9841  -25.8989    0.0000 C   0  0  0  0  0  0  0  0  0  0  0  0
  -20.6947  -27.3707    0.0000 C   0  0  0  0  0  0  0  0  0  0  0  0
  -20.3022  -28.8185    0.0000 C   0  0  0  0  0  0  0  0  0  0  0  0
  -19.8085  -30.2349    0.0000 C   0  0  0  0  0  0  0  0  0  0  0  0
  -19.2162  -31.6130    0.0000 C   0  0  0  0  0  0  0  0  0  0  0  0
  -18.5282  -32.9459    0.0000 C   0  0  0  0  0  0  0  0  0  0  0  0
  -17.7478  -34.2269    0.0000 C   0  0  0  0  0  0  0  0  0  0  0  0
  -16.8790  -35.4497    0.0000 C   0  0  0  0  0  0  0  0  0  0  0  0
  -15.9262  -36.6082    0.0000 C   0  0  0  0  0  0  0  0  0  0  0  0
  -14.8940  -37.6966    0.0000 C   0  0  0  0  0  0  0  0  0  0  0  0
  -13.7875  -38.7094    0.0000 C   0  0  0  0  0  0  0  0  0  0  0  0
  -12.6124  -39.6417    0.0000 C   0  0  0  0  0  0  0  0  0  0  0  0
  -11.3745  -40.4887    0.0000 C   0  0  0  0  0  0  0  0  0  0  0  0
  -10.0799  -41.2464    0.0000 C   0  0  0  0  0  0  0  0  0  0  0  0
   -8.7351  -41.9108    0.0000 C   0  0  0  0  0  0  0  0  0  0  0  0
   -7.3467  -42.4787    0.0000 C   0  0  0  0  0  0  0  0  0  0  0  0
   -5.9218  -42.9473    0.0000 C   0  0  0  0  0  0  0  0  0  0  0  0
   -4.4674  -43.3141    0.0000 C   0  0  0  0  0  0  0  0  0  0  0  0
   -2.9907  -43.5775    0.0000 C   0  0  0  0  0  0  0  0  0  0  0  0
   -1.4991  -43.7361    0.0000 C   0  0  0  0  0  0  0  0  0  0  0  0
   -0.0000  -43.7890    0.0000 C   0  0  0  0  0  0  0  0  0  0  0  0
    1.4991  -43.7361    0.0000 C   0  0  0  0  0  0  0  0  0  0  0  0
    2.9907  -43.5775    0.0000 C   0  0  0  0  0  0  0  0  0  0  0  0
    4.4674  -43.3141    0.0000 C   0  0  0  0  0  0  0  0  0  0  0  0
    5.9218  -42.9473    0.0000 C   0  0  0  0  0  0  0  0  0  0  0  0
    7.3467  -42.4787    0.0000 C   0  0  0  0  0  0  0  0  0  0  0  0
    8.7351  -41.9108    0.0000 C   0  0  0  0  0  0  0  0  0  0  0  0
   10.0799  -41.2464    0.0000 C   0  0  0  0  0  0  0  0  0  0  0  0
   11.3745  -40.4887    0.0000 C   0  0  0  0  0  0  0  0  0  0  0  0
   12.6124  -39.6417    0.0000 C   0  0  0  0  0  0  0  0  0  0  0  0
   13.7875  -38.7094    0.0000 C   0  0  0  0  0  0  0  0  0  0  0  0
   14.8940  -37.6966    0.0000 C   0  0  0  0  0  0  0  0  0  0  0  0
   15.9262  -36.6082    0.0000 C   0  0  0  0  0  0  0  0  0  0  0  0
   16.8790  -35.4497    0.0000 C   0  0  0  0  0  0  0  0  0  0  0  0
   17.7478  -34.2269    0.0000 C   0  0  0  0  0  0  0  0  0  0  0  0
   18.5282  -32.9459    0.0000 C   0  0  0  0  0  0  0  0  0  0  0  0
   19.2162  -31.6130    0.0000 C   0  0  0  0  0  0  0  0  0  0  0  0
   19.8085  -30.2349    0.0000 C   0  0  0  0  0  0  0  0  0  0  0  0
   20.3022  -28.8185    0.0000 C   0  0  0  0  0  0  0  0  0  0  0  0
   20.6947  -27.3707    0.0000 C   0  0  0  0  0  0  0  0  0  0  0  0
   20.9841  -25.8989    0.0000 C   0  0  0  0  0  0  0  0  0  0  0  0
   21.1689  -24.4104    0.0000 C   0  0  0  0  0  0  0  0  0  0  0  0
   21.2483  -22.9125    0.0000 C   0  0  0  0  0  0  0  0  0  0  0  0
   21.2218  -21.4127    0.0000 C   0  0  0  0  0  0  0  0  0  0  0  0
   21.0896  -19.9185    0.0000 C   0  0  0  0  0  0  0  0  0  0  0  0
   20.8524  -18.4374    0.0000 C   0  0  0  0  0  0  0  0  0  0  0  0
   20.5112  -16.9767    0.0000 C   0  0  0  0  0  0  0  0  0  0  0  0
   20.0679  -15.5437    0.0000 C   0  0  0  0  0  0  0  0  0  0  0  0
   19.5245  -14.1456    0.0000 C   0  0  0  0  0  0  0  0  0  0  0  0
   18.8840  -12.7893    0.0000 C   0  0  0  0  0  0  0  0  0  0  0  0
   18.1493  -11.4815    0.0000 C   0  0  0  0  0  0  0  0  0  0  0  0
   17.3242  -10.2288    0.0000 C   0  0  0  0  0  0  0  0  0  0  0  0
   16.4128   -9.0374    0.0000 C   0  0  0  0  0  0  0  0  0  0  0  0
   15.4197   -7.9133    0.0000 C   0  0  0  0  0  0  0  0  0  0  0  0
   14.3497   -6.8620    0.0000 C   0  0  0  0  0  0  0  0  0  0  0  0
   13.2082   -5.8889    0.0000 C   0  0  0  0  0  0  0  0  0  0  0  0
   12.0009   -4.9987    0.0000 C   0  0  0  0  0  0  0  0  0  0  0  0
   10.7339   -4.1958    0.0000 C   0  0  0  0  0  0  0  0  0  0  0  0
    9.4134   -3.4843    0.0000 C   0  0  0  0  0  0  0  0  0  0  0  0
    8.0459   -2.8678    0.0000 C   0  0  0  0  0  0  0  0  0  0  0  0
    6.6384   -2.3492    0.0000 C   0  0  0  0  0  0  0  0  0  0  0  0
    5.1978   -1.9313    0.0000 C   0  0  0  0  0  0  0  0  0  0  0  0
    3.7313   -1.6159    0.0000 C   0  0  0  0  0  0  0  0  0  0  0  0
    3.9895   -3.0936    0.0000 C   0  0  0  0  0  0  0  0  0  0  0  0
    2.6640   -3.7957    0.0000 C   0  0  0  0  0  0  0  0  0  0  0  0
    1.5866   -2.7520    0.0000 C   0  0  0  0  0  0  0  0  0  0  0  0
    2.2463   -1.4048    0.0000 C   0  0  0  0  0  0  0  0  0  0  0  0
    0.7500   -1.2990    0.0000 C   0  0  0  0  0  0  0  0  0  0  0  0
    1.5000    0.0000    0.0000 C   0  0  0  0  0  0  0  0  0  0  0  0
    0.7500    1.2990    0.0000 C   0  0  0  0  0  0  0  0  0  0  0  0
   -0.7500    1.2990    0.0000 C   0  0  0  0  0  0  0  0  0  0  0  0
   -1.5000    0.0000    0.0000 C   0  0  0  0  0  0  0  0  0  0  0  0
   -0.7500   -1.2990    0.0000 C   0  0  0  0  0  0  0  0  0  0  0  0
   -2.2463   -1.4048    0.0000 C   0  0  0  0  0  0  0  0  0  0  0  0
   -1.3209   -2.5854    0.0000 C   0  0  0  0  0  0  0  0  0  0  0  0
   -1.8806   -3.9771    0.0000 C   0  0  0  0  0  0  0  0  0  0  0  0
   -3.3657   -4.1882    0.0000 C   0  0  0  0  0  0  0  0  0  0  0  0
   -4.2911   -3.0076    0.0000 C   0  0  0  0  0  0  0  0  0  0  0  0
   -3.7313   -1.6159    0.0000 C   0  0  0  0  0  0  0  0  0  0  0  0
  1  2  1  0
  2  3  1  0
  3  4  1  0
  4  5  1  0
  5  6  1  0
  6  7  1  0
  7  8  1  0
  8  9  1  0
  9 10  1  0
 10 11  1  0
 11 12  1  0
 12 13  1  0
 13 14  1  0
 14 15  1  0
 15 16  1  0
 16 17  1  0
 17 18  1  0
 18 19  1  0
 19 20  1  0
 20 21  1  0
 21 22  1  0
 22 23  1  0
 23 24  1  0
 24 25  1  0
 25 26  1  0
 26 27  1  0
 27 28  1  0
 28 29  1  0
 29 30  1  0
 30 31  1  0
 31 32  1  0
 32 33  1  0
 33 34  1  0
 34 35  1  0
 35 36  1  0
 36 37  1  0
 37 38  1  0
 38 39  1  0
 39 40  1  0
 40 41  1  0
 41 42  1  0
 42 43  1  0
 43 44  1  0
 44 45  1  0
 45 46  1  0
 46 47  1  0
 47 48  1  0
 48 49  1  0
 49 50  1  0
 50 51  1  0
 51 52  1  0
 52 53  1  0
 53 54  1  0
 54 55  1  0
 55 56  1  0
 56 57  1  0
 57 58  1  0
 58 59  1  0
 59 60  1  0
 60 61  1  0
 61 62  1  0
 62 63  1  0
 63 64  1  0
 64 65  1  0
 65 66  1  0
 66 67  1  0
 67 68  1  0
 68 69  1  0
 69 70  1  0
 70 71  1  0
 71 72  1  0
 72 73  1  0
 73 74  1  0
 74 75  2  0
 75 76  1  0
 76 77  2  0
 77 78  1  0
 78 79  2  0
 79 80  1  0
 80 81  2  0
 81 82  1  0
 82 83  2  0
 83 84  1  0
 84 85  2  0
 85 86  1  0
 86 87  2  0
 87 88  1  0
 88 89  2  0
 89 90  1  0
 90 91  2  0
 91 92  1  0
 92 93  2  0
 93 94  1  0
 94 95  2  0
 95 96  1  0
 96 97  2  0
 97 98  1  0
 98 99  2  0
 99100  1  0
100101  2  0
101  2  1  0
 89 85  1  0
 95 90  1  0
101 96  1  0
M  END
>  <Title>  (1135) 
idABPWgen7

$$$$

     RDKit          2D

 53 53  0  0  0  0  0  0  0  0999 V2000
   12.6602    0.0000    0.0000 C   0  0  0  0  0  0  0  0  0  0  0  0
   12.5714    1.4974    0.0000 C   0  0  0  0  0  0  0  0  0  0  0  0
   12.3060    2.9737    0.0000 C   0  0  0  0  0  0  0  0  0  0  0  0
   11.8679    4.4083    0.0000 C   0  0  0  0  0  0  0  0  0  0  0  0
   11.2633    5.7810    0.0000 C   0  0  0  0  0  0  0  0  0  0  0  0
   10.5005    7.0726    0.0000 C   0  0  0  0  0  0  0  0  0  0  0  0
    9.5903    8.2649    0.0000 C   0  0  0  0  0  0  0  0  0  0  0  0
    8.5454    9.3411    0.0000 C   0  0  0  0  0  0  0  0  0  0  0  0
    7.3807   10.2863    0.0000 C   0  0  0  0  0  0  0  0  0  0  0  0
    6.1123   11.0870    0.0000 C   0  0  0  0  0  0  0  0  0  0  0  0
    4.7581   11.7321    0.0000 C   0  0  0  0  0  0  0  0  0  0  0  0
    3.3371   12.2125    0.0000 C   0  0  0  0  0  0  0  0  0  0  0  0
    1.8692   12.5215    0.0000 C   0  0  0  0  0  0  0  0  0  0  0  0
    0.3752   12.6547    0.0000 C   0  0  0  0  0  0  0  0  0  0  0  0
   -1.1242   12.6102    0.0000 C   0  0  0  0  0  0  0  0  0  0  0  0
   -2.6077   12.3888    0.0000 C   0  0  0  0  0  0  0  0  0  0  0  0
   -4.0547   11.9934    0.0000 C   0  0  0  0  0  0  0  0  0  0  0  0
   -5.4447   11.4296    0.0000 C   0  0  0  0  0  0  0  0  0  0  0  0
   -6.7583   10.7054    0.0000 C   0  0  0  0  0  0  0  0  0  0  0  0
   -7.9771    9.8310    0.0000 C   0  0  0  0  0  0  0  0  0  0  0  0
   -9.0838    8.8185    0.0000 C   0  0  0  0  0  0  0  0  0  0  0  0
  -10.0630    7.6822    0.0000 C   0  0  0  0  0  0  0  0  0  0  0  0
  -10.9010    6.4381    0.0000 C   0  0  0  0  0  0  0  0  0  0  0  0
  -11.5860    5.1036    0.0000 C   0  0  0  0  0  0  0  0  0  0  0  0
  -12.1083    3.6975    0.0000 C   0  0  0  0  0  0  0  0  0  0  0  0
  -12.4606    2.2395    0.0000 C   0  0  0  0  0  0  0  0  0  0  0  0
  -12.6380    0.7500    0.0000 C   0  0  0  0  0  0  0  0  0  0  0  0
  -12.6380   -0.7500    0.0000 C   0  0  0  0  0  0  0  0  0  0  0  0
  -12.4606   -2.2395    0.0000 C   0  0  0  0  0  0  0  0  0  0  0  0
  -12.1083   -3.6975    0.0000 C   0  0  0  0  0  0  0  0  0  0  0  0
  -11.5860   -5.1036    0.0000 C   0  0  0  0  0  0  0  0  0  0  0  0
  -10.9010   -6.4381    0.0000 C   0  0  0  0  0  0  0  0  0  0  0  0
  -10.0630   -7.6822    0.0000 C   0  0  0  0  0  0  0  0  0  0  0  0
   -9.0838   -8.8185    0.0000 C   0  0  0  0  0  0  0  0  0  0  0  0
   -7.9771   -9.8310    0.0000 C   0  0  0  0  0  0  0  0  0  0  0  0
   -6.7583  -10.7054    0.0000 C   0  0  0  0  0  0  0  0  0  0  0  0
   -5.4447  -11.4296    0.0000 C   0  0  0  0  0  0  0  0  0  0  0  0
   -4.0547  -11.9934    0.0000 C   0  0  0  0  0  0  0  0  0  0  0  0
   -2.6077  -12.3888    0.0000 C   0  0  0  0  0  0  0  0  0  0  0  0
   -1.1242  -12.6102    0.0000 C   0  0  0  0  0  0  0  0  0  0  0  0
    0.3752  -12.6547    0.0000 C   0  0  0  0  0  0  0  0  0  0  0  0
    1.8692  -12.5215    0.0000 C   0  0  0  0  0  0  0  0  0  0  0  0
    3.3371  -12.2125    0.0000 C   0  0  0  0  0  0  0  0  0  0  0  0
    4.7581  -11.7321    0.0000 C   0  0  0  0  0  0  0  0  0  0  0  0
    6.1123  -11.0870    0.0000 C   0  0  0  0  0  0  0  0  0  0  0  0
    7.3807  -10.2863    0.0000 C   0  0  0  0  0  0  0  0  0  0  0  0
    8.5454   -9.3411    0.0000 C   0  0  0  0  0  0  0  0  0  0  0  0
    9.5903   -8.2649    0.0000 C   0  0  0  0  0  0  0  0  0  0  0  0
   10.5005   -7.0726    0.0000 C   0  0  0  0  0  0  0  0  0  0  0  0
   11.2633   -5.7810    0.0000 C   0  0  0  0  0  0  0  0  0  0  0  0
   11.8679   -4.4083    0.0000 C   0  0  0  0  0  0  0  0  0  0  0  0
   12.3060   -2.9737    0.0000 C   0  0  0  0  0  0  0  0  0  0  0  0
   12.5714   -1.4974    0.0000 C   0  0  0  0  0  0  0  0  0  0  0  0
  1  2  1  0
  2  3  1  0
  3  4  1  0
  4  5  1  0
  5  6  1  0
  6  7  1  0
  7  8  1  0
  8  9  1  0
  9 10  1  0
 10 11  1  0
 11 12  1  0
 12 13  1  0
 13 14  1  0
 14 15  1  0
 15 16  1  0
 16 17  1  0
 17 18  1  0
 18 19  1  0
 19 20  1  0
 20 21  1  0
 21 22  1  0
 22 23  1  0
 23 24  1  0
 24 25  1  0
 25 26  1  0
 26 27  1  0
 27 28  1  0
 28 29  1  0
 29 30  1  0
 30 31  1  0
 31 32  1  0
 32 33  1  0
 33 34  1  0
 34 35  1  0
 35 36  1  0
 36 37  1  0
 37 38  1  0
 38 39  1  0
 39 40  1  0
 40 41  1  0
 41 42  1  0
 42 43  1  0
 43 44  1  0
 44 45  1  0
 45 46  1  0
 46 47  1  0
 47 48  1  0
 48 49  1  0
 49 50  1  0
 50 51  1  0
 51 52  1  0
 52 53  1  0
 53  1  1  0
M  END
>  <Title>  (1136) 
idABPXgen7

$$$$

     RDKit          2D

 38 38  0  0  0  0  0  0  0  0999 V2000
   10.3437    0.0000    0.0000 C   0  0  0  0  0  0  0  0  0  0  0  0
    8.8437    0.0000    0.0000 C   0  0  0  0  0  0  0  0  0  0  0  0
    8.7165    1.4946    0.0000 C   0  0  0  0  0  0  0  0  0  0  0  0
    8.3385    2.9462    0.0000 C   0  0  0  0  0  0  0  0  0  0  0  0
    7.7207    4.3130    0.0000 C   0  0  0  0  0  0  0  0  0  0  0  0
    6.8807    5.5558    0.0000 C   0  0  0  0  0  0  0  0  0  0  0  0
    5.8428    6.6387    0.0000 C   0  0  0  0  0  0  0  0  0  0  0  0
    4.6368    7.5307    0.0000 C   0  0  0  0  0  0  0  0  0  0  0  0
    3.2974    8.2060    0.0000 C   0  0  0  0  0  0  0  0  0  0  0  0
    1.8632    8.6452    0.0000 C   0  0  0  0  0  0  0  0  0  0  0  0
    0.3753    8.8358    0.0000 C   0  0  0  0  0  0  0  0  0  0  0  0
   -1.1233    8.7721    0.0000 C   0  0  0  0  0  0  0  0  0  0  0  0
   -2.5896    8.4561    0.0000 C   0  0  0  0  0  0  0  0  0  0  0  0
   -3.9815    7.8968    0.0000 C   0  0  0  0  0  0  0  0  0  0  0  0
   -5.2588    7.1103    0.0000 C   0  0  0  0  0  0  0  0  0  0  0  0
   -6.3848    6.1193    0.0000 C   0  0  0  0  0  0  0  0  0  0  0  0
   -7.3271    4.9523    0.0000 C   0  0  0  0  0  0  0  0  0  0  0  0
   -8.0587    3.6427    0.0000 C   0  0  0  0  0  0  0  0  0  0  0  0
   -8.5584    2.2284    0.0000 C   0  0  0  0  0  0  0  0  0  0  0  0
   -8.8119    0.7500    0.0000 C   0  0  0  0  0  0  0  0  0  0  0  0
   -8.8119   -0.7500    0.0000 C   0  0  0  0  0  0  0  0  0  0  0  0
   -8.5584   -2.2284    0.0000 C   0  0  0  0  0  0  0  0  0  0  0  0
   -8.0587   -3.6427    0.0000 C   0  0  0  0  0  0  0  0  0  0  0  0
   -7.3271   -4.9523    0.0000 C   0  0  0  0  0  0  0  0  0  0  0  0
   -6.3848   -6.1193    0.0000 C   0  0  0  0  0  0  0  0  0  0  0  0
   -5.2588   -7.1103    0.0000 C   0  0  0  0  0  0  0  0  0  0  0  0
   -3.9815   -7.8968    0.0000 C   0  0  0  0  0  0  0  0  0  0  0  0
   -2.5896   -8.4561    0.0000 C   0  0  0  0  0  0  0  0  0  0  0  0
   -1.1233   -8.7721    0.0000 C   0  0  0  0  0  0  0  0  0  0  0  0
    0.3753   -8.8358    0.0000 C   0  0  0  0  0  0  0  0  0  0  0  0
    1.8632   -8.6452    0.0000 C   0  0  0  0  0  0  0  0  0  0  0  0
    3.2974   -8.2060    0.0000 C   0  0  0  0  0  0  0  0  0  0  0  0
    4.6368   -7.5307    0.0000 C   0  0  0  0  0  0  0  0  0  0  0  0
    5.8428   -6.6387    0.0000 C   0  0  0  0  0  0  0  0  0  0  0  0
    6.8807   -5.5558    0.0000 C   0  0  0  0  0  0  0  0  0  0  0  0
    7.7207   -4.3130    0.0000 C   0  0  0  0  0  0  0  0  0  0  0  0
    8.3385   -2.9462    0.0000 C   0  0  0  0  0  0  0  0  0  0  0  0
    8.7165   -1.4946    0.0000 C   0  0  0  0  0  0  0  0  0  0  0  0
  1  2  1  0
  2  3  1  0
  3  4  2  0
  4  5  1  0
  5  6  2  0
  6  7  1  0
  7  8  1  0
  8  9  1  0
  9 10  1  0
 10 11  1  0
 11 12  1  0
 12 13  1  0
 13 14  1  0
 14 15  1  0
 15 16  1  0
 16 17  1  0
 17 18  1  0
 18 19  1  0
 19 20  1  0
 20 21  1  0
 21 22  1  0
 22 23  1  0
 23 24  1  0
 24 25  1  0
 25 26  1  0
 26 27  1  0
 27 28  1  0
 28 29  1  0
 29 30  1  0
 30 31  1  0
 31 32  1  0
 32 33  1  0
 33 34  1  0
 34 35  1  0
 35 36  1  0
 36 37  2  0
 37 38  1  0
 38  2  1  0
M  END
>  <Title>  (1137) 
idABPYgen7

$$$$

     RDKit          2D

 20 22  0  0  0  0  0  0  0  0999 V2000
   -3.0000   -2.5981    0.0000 C   0  0  0  0  0  0  0  0  0  0  0  0
   -1.5000   -2.5981    0.0000 C   0  0  0  0  0  0  0  0  0  0  0  0
   -0.7500   -3.8971    0.0000 C   0  0  0  0  0  0  0  0  0  0  0  0
    0.7500   -3.8971    0.0000 C   0  0  0  0  0  0  0  0  0  0  0  0
    1.5000   -2.5981    0.0000 C   0  0  0  0  0  0  0  0  0  0  0  0
    3.0000   -2.5981    0.0000 C   0  0  0  0  0  0  0  0  0  0  0  0
    3.7500   -1.2990    0.0000 O   0  0  0  0  0  0  0  0  0  0  0  0
    3.7500   -3.8971    0.0000 N   0  0  0  0  0  0  0  0  0  0  0  0
    5.2500   -3.8971    0.0000 C   0  0  0  0  0  0  0  0  0  0  0  0
    6.0000   -5.1962    0.0000 N   0  0  0  0  0  0  0  0  0  0  0  0
    7.5000   -5.1962    0.0000 N   0  0  0  0  0  0  0  0  0  0  0  0
    8.2500   -3.8971    0.0000 N   0  0  0  0  0  0  0  0  0  0  0  0
    7.5000   -2.5981    0.0000 N   0  0  0  0  0  0  0  0  0  0  0  0
    6.0000   -2.5981    0.0000 N   0  0  0  0  0  0  0  0  0  0  0  0
    0.7500   -1.2990    0.0000 C   0  0  0  0  0  0  0  0  0  0  0  0
    1.5000    0.0000    0.0000 C   0  0  0  0  0  0  0  0  0  0  0  0
    0.7500    1.2990    0.0000 C   0  0  0  0  0  0  0  0  0  0  0  0
   -0.7500    1.2990    0.0000 C   0  0  0  0  0  0  0  0  0  0  0  0
   -1.5000    0.0000    0.0000 C   0  0  0  0  0  0  0  0  0  0  0  0
   -0.7500   -1.2990    0.0000 C   0  0  0  0  0  0  0  0  0  0  0  0
  1  2  1  0
  2  3  2  0
  3  4  1  0
  4  5  2  0
  5  6  1  0
  6  7  2  0
  6  8  1  0
  8  9  1  0
  9 10  2  0
 10 11  1  0
 11 12  2  0
 12 13  1  0
 13 14  2  0
  5 15  1  0
 15 16  2  0
 16 17  1  0
 17 18  2  0
 18 19  1  0
 19 20  2  0
 20  2  1  0
 14  9  1  0
 20 15  1  0
M  END
>  <Title>  (1138) 
idABPZgen7

$$$$

     RDKit          2D

  9  9  0  0  0  0  0  0  0  0999 V2000
    2.7760   -2.5981    0.0000 O   0  0  0  0  0  0  0  0  0  0  0  0
    3.5260   -1.2990    0.0000 C   0  0  0  0  0  0  0  0  0  0  0  0
    5.0260   -1.2990    0.0000 O   0  0  0  0  0  0  0  0  0  0  0  0
    2.7760    0.0000    0.0000 O   0  0  0  0  0  0  0  0  0  0  0  0
    1.2760    0.0000    0.0000 C   0  0  0  0  0  0  0  0  0  0  0  0
    0.3943    1.2135    0.0000 C   0  0  0  0  0  0  0  0  0  0  0  0
   -1.0323    0.7500    0.0000 C   0  0  0  0  0  0  0  0  0  0  0  0
   -1.0323   -0.7500    0.0000 C   0  0  0  0  0  0  0  0  0  0  0  0
    0.3943   -1.2135    0.0000 C   0  0  0  0  0  0  0  0  0  0  0  0
  1  2  2  0
  2  3  1  0
  2  4  1  0
  4  5  1  0
  5  6  2  0
  6  7  1  0
  7  8  1  0
  8  9  2  0
  9  5  1  0
M  END
>  <Title>  (1139) 
idABQAgen7

$$$$

     RDKit          2D

 22 24  0  0  0  0  0  0  0  0999 V2000
   -2.2500   -6.4952    0.0000 N   0  0  0  0  0  0  0  0  0  0  0  0
   -1.5000   -5.1962    0.0000 C   0  0  0  0  0  0  0  0  0  0  0  0
   -0.7500   -3.8971    0.0000 C   0  0  0  0  0  0  0  0  0  0  0  0
    0.7500   -3.8971    0.0000 C   0  0  0  0  0  0  0  0  0  0  0  0
    1.5000   -2.5981    0.0000 C   0  0  0  0  0  0  0  0  0  0  0  0
    3.0000   -2.5981    0.0000 C   0  0  0  0  0  0  0  0  0  0  0  0
    3.7500   -1.2990    0.0000 O   0  0  0  0  0  0  0  0  0  0  0  0
    3.7500   -3.8971    0.0000 N   0  0  0  0  0  0  0  0  0  0  0  0
    5.2500   -3.8971    0.0000 C   0  0  0  0  0  0  0  0  0  0  0  0
    6.0000   -5.1962    0.0000 N   0  0  0  0  0  0  0  0  0  0  0  0
    7.5000   -5.1962    0.0000 N   0  0  0  0  0  0  0  0  0  0  0  0
    8.2500   -3.8971    0.0000 N   0  0  0  0  0  0  0  0  0  0  0  0
    7.5000   -2.5981    0.0000 N   0  0  0  0  0  0  0  0  0  0  0  0
    6.0000   -2.5981    0.0000 N   0  0  0  0  0  0  0  0  0  0  0  0
    0.7500   -1.2990    0.0000 C   0  0  0  0  0  0  0  0  0  0  0  0
    1.5000    0.0000    0.0000 C   0  0  0  0  0  0  0  0  0  0  0  0
    0.7500    1.2990    0.0000 C   0  0  0  0  0  0  0  0  0  0  0  0
   -0.7500    1.2990    0.0000 C   0  0  0  0  0  0  0  0  0  0  0  0
   -1.5000    0.0000    0.0000 C   0  0  0  0  0  0  0  0  0  0  0  0
   -0.7500   -1.2990    0.0000 C   0  0  0  0  0  0  0  0  0  0  0  0
   -1.5000   -2.5981    0.0000 C   0  0  0  0  0  0  0  0  0  0  0  0
   -3.0000   -2.5981    0.0000 O   0  0  0  0  0  0  0  0  0  0  0  0
  1  2  3  0
  2  3  1  0
  3  4  2  0
  4  5  1  0
  5  6  1  0
  6  7  2  0
  6  8  1  0
  8  9  1  0
  9 10  2  0
 10 11  1  0
 11 12  2  0
 12 13  1  0
 13 14  2  0
  5 15  1  0
 15 16  2  0
 16 17  1  0
 17 18  2  0
 18 19  1  0
 19 20  2  0
 20 21  1  0
 21 22  2  0
 21  3  1  0
 14  9  1  0
 20 15  1  0
M  END
>  <Title>  (1140) 
idABQBgen7

$$$$

     RDKit          2D

 34 36  0  0  0  0  0  0  0  0999 V2000
   -2.8576   -0.4261    0.0000 C   0  0  0  0  0  0  0  0  0  0  0  0
   -2.1766   -1.7626    0.0000 C   0  0  0  0  0  0  0  0  0  0  0  0
   -3.3901   -2.6442    0.0000 C   0  0  0  0  0  0  0  0  0  0  0  0
   -4.2718   -3.8578    0.0000 C   0  0  0  0  0  0  0  0  0  0  0  0
   -4.7353   -5.2844    0.0000 C   0  0  0  0  0  0  0  0  0  0  0  0
   -4.7353   -6.7844    0.0000 C   0  0  0  0  0  0  0  0  0  0  0  0
   -4.2718   -8.2109    0.0000 C   0  0  0  0  0  0  0  0  0  0  0  0
   -3.3901   -9.4245    0.0000 C   0  0  0  0  0  0  0  0  0  0  0  0
   -2.1766  -10.3061    0.0000 C   0  0  0  0  0  0  0  0  0  0  0  0
   -0.7500  -10.7697    0.0000 C   0  0  0  0  0  0  0  0  0  0  0  0
    0.7500  -10.7697    0.0000 C   0  0  0  0  0  0  0  0  0  0  0  0
    2.1766  -10.3061    0.0000 C   0  0  0  0  0  0  0  0  0  0  0  0
    3.3901   -9.4245    0.0000 C   0  0  0  0  0  0  0  0  0  0  0  0
    4.2718   -8.2109    0.0000 C   0  0  0  0  0  0  0  0  0  0  0  0
    4.7353   -6.7844    0.0000 C   0  0  0  0  0  0  0  0  0  0  0  0
    4.7353   -5.2844    0.0000 C   0  0  0  0  0  0  0  0  0  0  0  0
    4.2718   -3.8578    0.0000 C   0  0  0  0  0  0  0  0  0  0  0  0
    3.3901   -2.6442    0.0000 C   0  0  0  0  0  0  0  0  0  0  0  0
    2.1766   -1.7626    0.0000 C   0  0  0  0  0  0  0  0  0  0  0  0
    2.8576   -0.4261    0.0000 C   0  0  0  0  0  0  0  0  0  0  0  0
    2.0406    0.8320    0.0000 O   0  0  0  0  0  0  0  0  0  0  0  0
    4.3555   -0.3475    0.0000 N   0  0  0  0  0  0  0  0  0  0  0  0
    5.0365    0.9890    0.0000 C   0  0  0  0  0  0  0  0  0  0  0  0
    6.5344    1.0675    0.0000 N   0  0  0  0  0  0  0  0  0  0  0  0
    7.2154    2.4040    0.0000 N   0  0  0  0  0  0  0  0  0  0  0  0
    6.3985    3.6620    0.0000 N   0  0  0  0  0  0  0  0  0  0  0  0
    4.9005    3.5835    0.0000 N   0  0  0  0  0  0  0  0  0  0  0  0
    4.2195    2.2470    0.0000 N   0  0  0  0  0  0  0  0  0  0  0  0
    0.7500   -1.2990    0.0000 C   0  0  0  0  0  0  0  0  0  0  0  0
    1.5000    0.0000    0.0000 C   0  0  0  0  0  0  0  0  0  0  0  0
    0.7500    1.2990    0.0000 C   0  0  0  0  0  0  0  0  0  0  0  0
   -0.7500    1.2990    0.0000 C   0  0  0  0  0  0  0  0  0  0  0  0
   -1.5000    0.0000    0.0000 C   0  0  0  0  0  0  0  0  0  0  0  0
   -0.7500   -1.2990    0.0000 C   0  0  0  0  0  0  0  0  0  0  0  0
  1  2  1  0
  2  3  1  0
  3  4  1  0
  4  5  1  0
  5  6  1  0
  6  7  1  0
  7  8  1  0
  8  9  1  0
  9 10  1  0
 10 11  1  0
 11 12  1  0
 12 13  1  0
 13 14  1  0
 14 15  1  0
 15 16  1  0
 16 17  1  0
 17 18  1  0
 18 19  1  0
 19 20  1  0
 20 21  2  0
 20 22  1  0
 22 23  1  0
 23 24  2  0
 24 25  1  0
 25 26  2  0
 26 27  1  0
 27 28  2  0
 19 29  1  0
 29 30  2  0
 30 31  1  0
 31 32  2  0
 32 33  1  0
 33 34  2  0
 34  2  1  0
 28 23  1  0
 34 29  1  0
M  END
>  <Title>  (1141) 
idABQCgen7

$$$$

     RDKit          2D

 14 14  0  0  0  0  0  0  0  0999 V2000
    4.6339    0.0000    0.0000 C   0  0  0  0  0  0  0  0  0  0  0  0
    3.1339    0.0000    0.0000 C   0  0  0  0  0  0  0  0  0  0  0  0
    2.7750    1.4564    0.0000 C   0  0  0  0  0  0  0  0  0  0  0  0
    1.7803    2.5792    0.0000 C   0  0  0  0  0  0  0  0  0  0  0  0
    0.3778    3.1111    0.0000 C   0  0  0  0  0  0  0  0  0  0  0  0
   -1.1113    2.9303    0.0000 C   0  0  0  0  0  0  0  0  0  0  0  0
   -2.3458    2.0782    0.0000 C   0  0  0  0  0  0  0  0  0  0  0  0
   -3.0429    0.7500    0.0000 C   0  0  0  0  0  0  0  0  0  0  0  0
   -3.0429   -0.7500    0.0000 C   0  0  0  0  0  0  0  0  0  0  0  0
   -2.3458   -2.0782    0.0000 C   0  0  0  0  0  0  0  0  0  0  0  0
   -1.1113   -2.9303    0.0000 C   0  0  0  0  0  0  0  0  0  0  0  0
    0.3778   -3.1111    0.0000 C   0  0  0  0  0  0  0  0  0  0  0  0
    1.7803   -2.5792    0.0000 C   0  0  0  0  0  0  0  0  0  0  0  0
    2.7750   -1.4564    0.0000 C   0  0  0  0  0  0  0  0  0  0  0  0
  1  2  1  0
  2  3  1  0
  3  4  2  0
  4  5  1  0
  5  6  2  0
  6  7  1  0
  7  8  2  0
  8  9  1  0
  9 10  2  0
 10 11  1  0
 11 12  2  0
 12 13  1  0
 13 14  2  0
 14  2  1  0
M  END
>  <Title>  (1142) 
idABQDgen7

$$$$

     RDKit          2D

  8  7  0  0  0  0  0  0  0  0999 V2000
    0.0000    0.0000    0.0000 C   0  0  0  0  0  0  0  0  0  0  0  0
    1.2990    0.7500    0.0000 C   0  0  0  0  0  0  0  0  0  0  0  0
    2.5981   -0.0000    0.0000 C   0  0  0  0  0  0  0  0  0  0  0  0
    3.8971    0.7500    0.0000 C   0  0  0  0  0  0  0  0  0  0  0  0
    5.1962   -0.0000    0.0000 C   0  0  0  0  0  0  0  0  0  0  0  0
    6.4952    0.7500    0.0000 C   0  0  0  0  0  0  0  0  0  0  0  0
    5.1962   -1.5000    0.0000 O   0  0  0  0  0  0  0  0  0  0  0  0
    6.4952   -2.2500    0.0000 C   0  0  0  0  0  0  0  0  0  0  0  0
  1  2  2  0
  2  3  1  0
  3  4  2  3
  4  5  1  0
  5  6  1  0
  5  7  1  0
  7  8  1  0
M  END
>  <Title>  (1143) 
idABQEgen7

$$$$

     RDKit          2D

 10 10  0  0  0  0  0  0  0  0999 V2000
    3.6929    0.0000    0.0000 C   0  0  0  0  0  0  0  0  0  0  0  0
    2.1929    0.0000    0.0000 C   0  0  0  0  0  0  0  0  0  0  0  0
    1.6798    1.4095    0.0000 C   0  0  0  0  0  0  0  0  0  0  0  0
    0.3808    2.1595    0.0000 C   0  0  0  0  0  0  0  0  0  0  0  0
   -1.0964    1.8991    0.0000 C   0  0  0  0  0  0  0  0  0  0  0  0
   -2.0606    0.7500    0.0000 C   0  0  0  0  0  0  0  0  0  0  0  0
   -2.0606   -0.7500    0.0000 C   0  0  0  0  0  0  0  0  0  0  0  0
   -1.0964   -1.8991    0.0000 C   0  0  0  0  0  0  0  0  0  0  0  0
    0.3808   -2.1595    0.0000 C   0  0  0  0  0  0  0  0  0  0  0  0
    1.6798   -1.4095    0.0000 C   0  0  0  0  0  0  0  0  0  0  0  0
  1  2  1  0
  2  3  1  0
  3  4  1  0
  4  5  2  0
  5  6  1  0
  6  7  2  0
  7  8  1  0
  8  9  2  0
  9 10  1  0
 10  2  1  0
M  END
>  <Title>  (1144) 
idABQFgen7

$$$$

     RDKit          2D

  8  8  0  0  0  0  0  0  0  0999 V2000
    2.7760    0.0000    0.0000 C   0  0  0  0  0  0  0  0  0  0  0  0
    1.2760    0.0000    0.0000 C   0  0  0  0  0  0  0  0  0  0  0  0
    0.3943    1.2135    0.0000 C   0  0  0  0  0  0  0  0  0  0  0  0
   -1.0323    0.7500    0.0000 C   0  0  0  0  0  0  0  0  0  0  0  0
   -1.0323   -0.7500    0.0000 C   0  0  0  0  0  0  0  0  0  0  0  0
   -2.2458   -1.6317    0.0000 C   0  0  0  0  0  0  0  0  0  0  0  0
   -3.4593   -2.5134    0.0000 N   0  0  0  0  0  0  0  0  0  0  0  0
    0.3943   -1.2135    0.0000 C   0  0  0  0  0  0  0  0  0  0  0  0
  1  2  1  0
  2  3  1  0
  3  4  1  0
  4  5  1  0
  5  6  1  0
  6  7  3  0
  5  8  1  0
  8  2  1  0
M  END
>  <Title>  (1145) 
idABQGgen7

$$$$

     RDKit          2D

  8  8  0  0  0  0  0  0  0  0999 V2000
    3.5260    1.2990    0.0000 O   0  0  0  0  0  0  0  0  0  0  0  0
    2.7760    0.0000    0.0000 C   0  0  0  0  0  0  0  0  0  0  0  0
    3.5260   -1.2990    0.0000 O   0  0  0  0  0  0  0  0  0  0  0  0
    1.2760    0.0000    0.0000 C   0  0  0  0  0  0  0  0  0  0  0  0
    0.3943    1.2135    0.0000 C   0  0  0  0  0  0  0  0  0  0  0  0
   -1.0323    0.7500    0.0000 C   0  0  0  0  0  0  0  0  0  0  0  0
   -1.0323   -0.7500    0.0000 C   0  0  0  0  0  0  0  0  0  0  0  0
    0.3943   -1.2135    0.0000 C   0  0  0  0  0  0  0  0  0  0  0  0
  1  2  2  0
  2  3  1  0
  2  4  1  0
  4  5  1  0
  5  6  1  0
  6  7  1  0
  7  8  1  0
  8  4  1  0
M  END
>  <Title>  (1146) 
idABQHgen7

$$$$

     RDKit          2D

 12 12  0  0  0  0  0  0  0  0999 V2000
    3.9786   -1.2990    0.0000 C   0  0  0  0  0  0  0  0  0  0  0  0
    3.2286   -0.0000    0.0000 O   0  0  0  0  0  0  0  0  0  0  0  0
    1.7286    0.0000    0.0000 C   0  0  0  0  0  0  0  0  0  0  0  0
    1.0777    1.3515    0.0000 C   0  0  0  0  0  0  0  0  0  0  0  0
   -0.3846    1.6852    0.0000 C   0  0  0  0  0  0  0  0  0  0  0  0
   -1.5574    0.7500    0.0000 C   0  0  0  0  0  0  0  0  0  0  0  0
   -1.5574   -0.7500    0.0000 C   0  0  0  0  0  0  0  0  0  0  0  0
   -2.9088   -1.4008    0.0000 C   0  0  0  0  0  0  0  0  0  0  0  0
   -4.1482   -0.5558    0.0000 C   0  0  0  0  0  0  0  0  0  0  0  0
   -3.0209   -2.8966    0.0000 C   0  0  0  0  0  0  0  0  0  0  0  0
   -0.3846   -1.6852    0.0000 C   0  0  0  0  0  0  0  0  0  0  0  0
    1.0777   -1.3515    0.0000 C   0  0  0  0  0  0  0  0  0  0  0  0
  1  2  1  0
  2  3  1  0
  3  4  2  0
  4  5  1  0
  5  6  1  0
  6  7  1  0
  7  8  1  0
  8  9  1  0
  8 10  1  0
  7 11  1  0
 11 12  2  0
 12  3  1  0
M  END
>  <Title>  (1147) 
idABQIgen7

$$$$

     RDKit          2D

 68 78  0  0  0  0  0  0  0  0999 V2000
    6.4958   -4.6081    0.0000 C   0  0  0  0  0  0  0  0  0  0  0  0
    5.0565   -5.0307    0.0000 C   0  0  0  0  0  0  0  0  0  0  0  0
    4.4334   -3.6662    0.0000 C   0  0  0  0  0  0  0  0  0  0  0  0
    3.4511   -2.5326    0.0000 C   0  0  0  0  0  0  0  0  0  0  0  0
    2.1892   -1.7216    0.0000 C   0  0  0  0  0  0  0  0  0  0  0  0
    2.8124   -0.3572    0.0000 C   0  0  0  0  0  0  0  0  0  0  0  0
    1.9423    0.8647    0.0000 O   0  0  0  0  0  0  0  0  0  0  0  0
    4.3056   -0.2146    0.0000 N   0  0  0  0  0  0  0  0  0  0  0  0
    4.9287    1.1498    0.0000 C   0  0  0  0  0  0  0  0  0  0  0  0
    6.4219    1.2924    0.0000 N   0  0  0  0  0  0  0  0  0  0  0  0
    7.0450    2.6569    0.0000 N   0  0  0  0  0  0  0  0  0  0  0  0
    6.1749    3.8787    0.0000 N   0  0  0  0  0  0  0  0  0  0  0  0
    4.6817    3.7362    0.0000 N   0  0  0  0  0  0  0  0  0  0  0  0
    4.0586    2.3717    0.0000 N   0  0  0  0  0  0  0  0  0  0  0  0
    0.7500   -1.2990    0.0000 C   0  0  0  0  0  0  0  0  0  0  0  0
    1.5000    0.0000    0.0000 C   0  0  0  0  0  0  0  0  0  0  0  0
    0.7500    1.2990    0.0000 C   0  0  0  0  0  0  0  0  0  0  0  0
   -0.7500    1.2990    0.0000 C   0  0  0  0  0  0  0  0  0  0  0  0
   -1.5000    0.0000    0.0000 C   0  0  0  0  0  0  0  0  0  0  0  0
   -0.7500   -1.2990    0.0000 C   0  0  0  0  0  0  0  0  0  0  0  0
   -2.1892   -1.7216    0.0000 C   0  0  0  0  0  0  0  0  0  0  0  0
   -2.2606   -0.2233    0.0000 C   0  0  0  0  0  0  0  0  0  0  0  0
   -3.5939    0.4640    0.0000 C   0  0  0  0  0  0  0  0  0  0  0  0
   -4.8557   -0.3470    0.0000 C   0  0  0  0  0  0  0  0  0  0  0  0
   -4.7844   -1.8453    0.0000 C   0  0  0  0  0  0  0  0  0  0  0  0
   -3.4511   -2.5326    0.0000 C   0  0  0  0  0  0  0  0  0  0  0  0
   -4.4334   -3.6662    0.0000 C   0  0  0  0  0  0  0  0  0  0  0  0
   -5.3035   -2.4444    0.0000 C   0  0  0  0  0  0  0  0  0  0  0  0
   -6.7967   -2.5869    0.0000 C   0  0  0  0  0  0  0  0  0  0  0  0
   -7.4198   -3.9514    0.0000 C   0  0  0  0  0  0  0  0  0  0  0  0
   -6.5497   -5.1733    0.0000 C   0  0  0  0  0  0  0  0  0  0  0  0
   -5.0565   -5.0307    0.0000 C   0  0  0  0  0  0  0  0  0  0  0  0
   -5.2700   -6.5154    0.0000 C   0  0  0  0  0  0  0  0  0  0  0  0
   -6.6626   -5.9579    0.0000 C   0  0  0  0  0  0  0  0  0  0  0  0
   -7.8416   -6.8851    0.0000 C   0  0  0  0  0  0  0  0  0  0  0  0
   -7.6282   -8.3699    0.0000 C   0  0  0  0  0  0  0  0  0  0  0  0
   -6.2356   -8.9274    0.0000 C   0  0  0  0  0  0  0  0  0  0  0  0
   -5.0565   -8.0001    0.0000 C   0  0  0  0  0  0  0  0  0  0  0  0
   -4.4334   -9.3646    0.0000 C   0  0  0  0  0  0  0  0  0  0  0  0
   -5.9063   -9.6485    0.0000 C   0  0  0  0  0  0  0  0  0  0  0  0
   -6.3969  -11.0660    0.0000 C   0  0  0  0  0  0  0  0  0  0  0  0
   -5.4146  -12.1996    0.0000 C   0  0  0  0  0  0  0  0  0  0  0  0
   -3.9417  -11.9157    0.0000 C   0  0  0  0  0  0  0  0  0  0  0  0
   -3.4511  -10.4982    0.0000 C   0  0  0  0  0  0  0  0  0  0  0  0
   -2.1892  -11.3092    0.0000 C   0  0  0  0  0  0  0  0  0  0  0  0
   -3.2748  -12.3443    0.0000 C   0  0  0  0  0  0  0  0  0  0  0  0
   -2.9212  -13.8020    0.0000 C   0  0  0  0  0  0  0  0  0  0  0  0
   -1.4820  -14.2246    0.0000 C   0  0  0  0  0  0  0  0  0  0  0  0
   -0.3964  -13.1895    0.0000 C   0  0  0  0  0  0  0  0  0  0  0  0
   -0.7500  -11.7318    0.0000 C   0  0  0  0  0  0  0  0  0  0  0  0
    0.7500  -11.7318    0.0000 C   0  0  0  0  0  0  0  0  0  0  0  0
    0.3964  -13.1895    0.0000 C   0  0  0  0  0  0  0  0  0  0  0  0
    1.4820  -14.2246    0.0000 C   0  0  0  0  0  0  0  0  0  0  0  0
    2.9212  -13.8020    0.0000 C   0  0  0  0  0  0  0  0  0  0  0  0
    3.2748  -12.3443    0.0000 C   0  0  0  0  0  0  0  0  0  0  0  0
    2.1892  -11.3092    0.0000 C   0  0  0  0  0  0  0  0  0  0  0  0
    3.4511  -10.4982    0.0000 C   0  0  0  0  0  0  0  0  0  0  0  0
    3.9417  -11.9157    0.0000 C   0  0  0  0  0  0  0  0  0  0  0  0
    5.4146  -12.1996    0.0000 C   0  0  0  0  0  0  0  0  0  0  0  0
    6.3969  -11.0660    0.0000 C   0  0  0  0  0  0  0  0  0  0  0  0
    5.9063   -9.6485    0.0000 C   0  0  0  0  0  0  0  0  0  0  0  0
    4.4334   -9.3646    0.0000 C   0  0  0  0  0  0  0  0  0  0  0  0
    5.0565   -8.0001    0.0000 C   0  0  0  0  0  0  0  0  0  0  0  0
    6.2356   -8.9274    0.0000 C   0  0  0  0  0  0  0  0  0  0  0  0
    7.6282   -8.3699    0.0000 C   0  0  0  0  0  0  0  0  0  0  0  0
    7.8416   -6.8851    0.0000 C   0  0  0  0  0  0  0  0  0  0  0  0
    6.6626   -5.9579    0.0000 C   0  0  0  0  0  0  0  0  0  0  0  0
    5.2700   -6.5154    0.0000 C   0  0  0  0  0  0  0  0  0  0  0  0
  1  2  1  0
  2  3  1  0
  3  4  1  0
  4  5  1  0
  5  6  1  0
  6  7  2  0
  6  8  1  0
  8  9  1  0
  9 10  2  0
 10 11  1  0
 11 12  2  0
 12 13  1  0
 13 14  2  0
  5 15  1  0
 15 16  2  0
 16 17  1  0
 17 18  2  0
 18 19  1  0
 19 20  2  0
 20 21  1  0
 21 22  2  0
 22 23  1  0
 23 24  2  0
 24 25  1  0
 25 26  2  0
 26 27  1  0
 27 28  2  0
 28 29  1  0
 29 30  2  0
 30 31  1  0
 31 32  2  0
 32 33  1  0
 33 34  2  0
 34 35  1  0
 35 36  2  0
 36 37  1  0
 37 38  2  0
 38 39  1  0
 39 40  2  0
 40 41  1  0
 41 42  2  0
 42 43  1  0
 43 44  2  0
 44 45  1  0
 45 46  2  0
 46 47  1  0
 47 48  2  0
 48 49  1  0
 49 50  2  0
 50 51  1  0
 51 52  2  0
 52 53  1  0
 53 54  2  0
 54 55  1  0
 55 56  2  0
 56 57  1  0
 57 58  2  0
 58 59  1  0
 59 60  2  0
 60 61  1  0
 61 62  2  0
 62 63  1  0
 63 64  2  0
 64 65  1  0
 65 66  2  0
 66 67  1  0
 67 68  2  0
 68  2  1  0
 14  9  1  0
 20 15  1  0
 26 21  1  0
 32 27  1  0
 38 33  1  0
 44 39  1  0
 50 45  1  0
 56 51  1  0
 62 57  1  0
 68 63  1  0
M  END
>  <Title>  (1148) 
idABQJgen7

$$$$

     RDKit          2D

 52 59  0  0  0  0  0  0  0  0999 V2000
    5.1070  -10.3477    0.0000 C   0  0  0  0  0  0  0  0  0  0  0  0
    3.9343   -9.4124    0.0000 C   0  0  0  0  0  0  0  0  0  0  0  0
    4.6843   -8.1134    0.0000 C   0  0  0  0  0  0  0  0  0  0  0  0
    5.0181   -6.6510    0.0000 C   0  0  0  0  0  0  0  0  0  0  0  0
    4.9060   -5.1552    0.0000 C   0  0  0  0  0  0  0  0  0  0  0  0
    4.3580   -3.7589    0.0000 C   0  0  0  0  0  0  0  0  0  0  0  0
    5.6570   -3.0089    0.0000 O   0  0  0  0  0  0  0  0  0  0  0  0
    3.4227   -2.5862    0.0000 C   0  0  0  0  0  0  0  0  0  0  0  0
    4.4430   -1.4866    0.0000 O   0  0  0  0  0  0  0  0  0  0  0  0
    2.1834   -1.7412    0.0000 N   0  0  0  0  0  0  0  0  0  0  0  0
    0.7500   -1.2990    0.0000 C   0  0  0  0  0  0  0  0  0  0  0  0
    1.5000    0.0000    0.0000 C   0  0  0  0  0  0  0  0  0  0  0  0
    0.7500    1.2990    0.0000 C   0  0  0  0  0  0  0  0  0  0  0  0
   -0.7500    1.2990    0.0000 C   0  0  0  0  0  0  0  0  0  0  0  0
   -1.5000    0.0000    0.0000 C   0  0  0  0  0  0  0  0  0  0  0  0
   -0.7500   -1.2990    0.0000 C   0  0  0  0  0  0  0  0  0  0  0  0
   -2.1834   -1.7412    0.0000 C   0  0  0  0  0  0  0  0  0  0  0  0
   -2.2955   -0.2454    0.0000 C   0  0  0  0  0  0  0  0  0  0  0  0
   -3.6469    0.4055    0.0000 C   0  0  0  0  0  0  0  0  0  0  0  0
   -4.8863   -0.4395    0.0000 C   0  0  0  0  0  0  0  0  0  0  0  0
   -4.7742   -1.9353    0.0000 C   0  0  0  0  0  0  0  0  0  0  0  0
   -3.4227   -2.5862    0.0000 C   0  0  0  0  0  0  0  0  0  0  0  0
   -4.3580   -3.7589    0.0000 C   0  0  0  0  0  0  0  0  0  0  0  0
   -5.2932   -2.5862    0.0000 C   0  0  0  0  0  0  0  0  0  0  0  0
   -6.7764   -2.8097    0.0000 C   0  0  0  0  0  0  0  0  0  0  0  0
   -7.3244   -4.2060    0.0000 C   0  0  0  0  0  0  0  0  0  0  0  0
   -6.3892   -5.3788    0.0000 C   0  0  0  0  0  0  0  0  0  0  0  0
   -4.9060   -5.1552    0.0000 C   0  0  0  0  0  0  0  0  0  0  0  0
   -5.0181   -6.6510    0.0000 C   0  0  0  0  0  0  0  0  0  0  0  0
   -6.4514   -6.2089    0.0000 C   0  0  0  0  0  0  0  0  0  0  0  0
   -7.5510   -7.2291    0.0000 C   0  0  0  0  0  0  0  0  0  0  0  0
   -7.2172   -8.6915    0.0000 C   0  0  0  0  0  0  0  0  0  0  0  0
   -5.7839   -9.1337    0.0000 C   0  0  0  0  0  0  0  0  0  0  0  0
   -4.6843   -8.1134    0.0000 C   0  0  0  0  0  0  0  0  0  0  0  0
   -3.9343   -9.4124    0.0000 C   0  0  0  0  0  0  0  0  0  0  0  0
   -5.3676   -9.8546    0.0000 C   0  0  0  0  0  0  0  0  0  0  0  0
   -5.7014  -11.3170    0.0000 C   0  0  0  0  0  0  0  0  0  0  0  0
   -4.6018  -12.3372    0.0000 C   0  0  0  0  0  0  0  0  0  0  0  0
   -3.1685  -11.8951    0.0000 C   0  0  0  0  0  0  0  0  0  0  0  0
   -2.8347  -10.4327    0.0000 C   0  0  0  0  0  0  0  0  0  0  0  0
   -1.4832  -11.0835    0.0000 C   0  0  0  0  0  0  0  0  0  0  0  0
   -2.4185  -12.2563    0.0000 C   0  0  0  0  0  0  0  0  0  0  0  0
   -1.8705  -13.6526    0.0000 C   0  0  0  0  0  0  0  0  0  0  0  0
   -0.3872  -13.8762    0.0000 C   0  0  0  0  0  0  0  0  0  0  0  0
    0.5480  -12.7034    0.0000 C   0  0  0  0  0  0  0  0  0  0  0  0
   -0.0000  -11.3071    0.0000 C   0  0  0  0  0  0  0  0  0  0  0  0
    1.4832  -11.0835    0.0000 C   0  0  0  0  0  0  0  0  0  0  0  0
    1.3712  -12.5793    0.0000 C   0  0  0  0  0  0  0  0  0  0  0  0
    2.6105  -13.4243    0.0000 C   0  0  0  0  0  0  0  0  0  0  0  0
    3.9620  -12.7735    0.0000 C   0  0  0  0  0  0  0  0  0  0  0  0
    4.0741  -11.2777    0.0000 C   0  0  0  0  0  0  0  0  0  0  0  0
    2.8347  -10.4327    0.0000 C   0  0  0  0  0  0  0  0  0  0  0  0
  1  2  1  0
  2  3  1  0
  3  4  1  0
  4  5  1  0
  5  6  2  0
  6  7  1  0
  6  8  1  0
  8  9  2  0
  8 10  1  0
 10 11  1  0
 11 12  2  0
 12 13  1  0
 13 14  2  0
 14 15  1  0
 15 16  2  0
 16 17  1  0
 17 18  2  0
 18 19  1  0
 19 20  2  0
 20 21  1  0
 21 22  2  0
 22 23  1  0
 23 24  2  0
 24 25  1  0
 25 26  2  0
 26 27  1  0
 27 28  2  0
 28 29  1  0
 29 30  2  0
 30 31  1  0
 31 32  2  0
 32 33  1  0
 33 34  2  0
 34 35  1  0
 35 36  2  0
 36 37  1  0
 37 38  2  0
 38 39  1  0
 39 40  2  0
 40 41  1  0
 41 42  2  0
 42 43  1  0
 43 44  2  0
 44 45  1  0
 45 46  2  0
 46 47  1  0
 47 48  2  0
 48 49  1  0
 49 50  2  0
 50 51  1  0
 51 52  2  0
 52  2  1  0
 16 11  1  0
 22 17  1  0
 28 23  1  0
 34 29  1  0
 40 35  1  0
 46 41  1  0
 52 47  1  0
M  END
>  <Title>  (1149) 
idABQKgen7

$$$$

     RDKit          2D

 44 50  0  0  0  0  0  0  0  0999 V2000
    5.8191   -5.5525    0.0000 C   0  0  0  0  0  0  0  0  0  0  0  0
    4.3191   -5.5525    0.0000 C   0  0  0  0  0  0  0  0  0  0  0  0
    4.0586   -4.0753    0.0000 C   0  0  0  0  0  0  0  0  0  0  0  0
    3.3086   -2.7762    0.0000 C   0  0  0  0  0  0  0  0  0  0  0  0
    2.1595   -1.8121    0.0000 C   0  0  0  0  0  0  0  0  0  0  0  0
    2.9095   -0.5130    0.0000 C   0  0  0  0  0  0  0  0  0  0  0  0
    0.7500   -1.2990    0.0000 C   0  0  0  0  0  0  0  0  0  0  0  0
    1.5000    0.0000    0.0000 C   0  0  0  0  0  0  0  0  0  0  0  0
    0.7500    1.2990    0.0000 C   0  0  0  0  0  0  0  0  0  0  0  0
   -0.7500    1.2990    0.0000 C   0  0  0  0  0  0  0  0  0  0  0  0
   -1.5000    0.0000    0.0000 C   0  0  0  0  0  0  0  0  0  0  0  0
   -0.7500   -1.2990    0.0000 C   0  0  0  0  0  0  0  0  0  0  0  0
   -2.1595   -1.8121    0.0000 C   0  0  0  0  0  0  0  0  0  0  0  0
   -2.4200   -0.3349    0.0000 C   0  0  0  0  0  0  0  0  0  0  0  0
   -3.8296    0.1782    0.0000 C   0  0  0  0  0  0  0  0  0  0  0  0
   -4.9786   -0.7860    0.0000 C   0  0  0  0  0  0  0  0  0  0  0  0
   -4.7181   -2.2632    0.0000 C   0  0  0  0  0  0  0  0  0  0  0  0
   -3.3086   -2.7762    0.0000 C   0  0  0  0  0  0  0  0  0  0  0  0
   -4.0586   -4.0753    0.0000 C   0  0  0  0  0  0  0  0  0  0  0  0
   -5.3830   -3.3711    0.0000 C   0  0  0  0  0  0  0  0  0  0  0  0
   -6.4620   -4.4131    0.0000 C   0  0  0  0  0  0  0  0  0  0  0  0
   -5.8045   -5.7613    0.0000 C   0  0  0  0  0  0  0  0  0  0  0  0
   -4.3191   -5.5525    0.0000 C   0  0  0  0  0  0  0  0  0  0  0  0
   -4.0586   -7.0297    0.0000 C   0  0  0  0  0  0  0  0  0  0  0  0
   -5.5586   -7.0297    0.0000 C   0  0  0  0  0  0  0  0  0  0  0  0
   -6.3086   -8.3287    0.0000 C   0  0  0  0  0  0  0  0  0  0  0  0
   -5.5586   -9.6278    0.0000 C   0  0  0  0  0  0  0  0  0  0  0  0
   -4.0586   -9.6278    0.0000 C   0  0  0  0  0  0  0  0  0  0  0  0
   -3.3086   -8.3287    0.0000 C   0  0  0  0  0  0  0  0  0  0  0  0
   -2.1595   -9.2929    0.0000 C   0  0  0  0  0  0  0  0  0  0  0  0
   -3.3086  -10.2571    0.0000 C   0  0  0  0  0  0  0  0  0  0  0  0
   -3.0481  -11.7343    0.0000 C   0  0  0  0  0  0  0  0  0  0  0  0
   -1.6386  -12.2474    0.0000 C   0  0  0  0  0  0  0  0  0  0  0  0
   -0.4895  -11.2832    0.0000 C   0  0  0  0  0  0  0  0  0  0  0  0
   -0.7500   -9.8060    0.0000 C   0  0  0  0  0  0  0  0  0  0  0  0
    0.7500   -9.8060    0.0000 C   0  0  0  0  0  0  0  0  0  0  0  0
    0.4895  -11.2832    0.0000 C   0  0  0  0  0  0  0  0  0  0  0  0
    1.6386  -12.2474    0.0000 C   0  0  0  0  0  0  0  0  0  0  0  0
    3.0481  -11.7343    0.0000 C   0  0  0  0  0  0  0  0  0  0  0  0
    3.3086  -10.2571    0.0000 C   0  0  0  0  0  0  0  0  0  0  0  0
    2.1595   -9.2929    0.0000 C   0  0  0  0  0  0  0  0  0  0  0  0
    3.3086   -8.3287    0.0000 O   0  0  0  0  0  0  0  0  0  0  0  0
    4.0586   -7.0297    0.0000 C   0  0  0  0  0  0  0  0  0  0  0  0
    5.4681   -7.5427    0.0000 O   0  0  0  0  0  0  0  0  0  0  0  0
  1  2  1  0
  2  3  1  0
  3  4  1  0
  4  5  1  0
  5  6  1  0
  5  7  1  0
  7  8  2  0
  8  9  1  0
  9 10  2  0
 10 11  1  0
 11 12  2  0
 12 13  1  0
 13 14  2  0
 14 15  1  0
 15 16  2  0
 16 17  1  0
 17 18  2  0
 18 19  1  0
 19 20  2  0
 20 21  1  0
 21 22  2  0
 22 23  1  0
 23 24  1  0
 24 25  2  0
 25 26  1  0
 26 27  2  0
 27 28  1  0
 28 29  2  0
 29 30  1  0
 30 31  2  0
 31 32  1  0
 32 33  2  0
 33 34  1  0
 34 35  2  0
 35 36  1  0
 36 37  2  0
 37 38  1  0
 38 39  2  0
 39 40  1  0
 40 41  2  0
 41 42  1  0
 42 43  1  0
 43 44  2  0
 43  2  1  0
 12  7  1  0
 18 13  1  0
 23 19  1  0
 29 24  1  0
 35 30  1  0
 41 36  1  0
M  END
>  <Title>  (1150) 
idABQLgen7

$$$$

     RDKit          2D

 26 26  0  0  0  0  0  0  0  0999 V2000
    6.2222    0.0000    0.0000 C   0  0  0  0  0  0  0  0  0  0  0  0
    6.0414   -1.4891    0.0000 C   0  0  0  0  0  0  0  0  0  0  0  0
    5.5095   -2.8916    0.0000 C   0  0  0  0  0  0  0  0  0  0  0  0
    4.6574   -4.1261    0.0000 C   0  0  0  0  0  0  0  0  0  0  0  0
    3.5346   -5.1207    0.0000 C   0  0  0  0  0  0  0  0  0  0  0  0
    2.2064   -5.8178    0.0000 C   0  0  0  0  0  0  0  0  0  0  0  0
    0.7500   -6.1768    0.0000 C   0  0  0  0  0  0  0  0  0  0  0  0
   -0.7500   -6.1768    0.0000 C   0  0  0  0  0  0  0  0  0  0  0  0
   -2.2064   -5.8178    0.0000 C   0  0  0  0  0  0  0  0  0  0  0  0
   -3.5346   -5.1207    0.0000 C   0  0  0  0  0  0  0  0  0  0  0  0
   -4.6574   -4.1261    0.0000 C   0  0  0  0  0  0  0  0  0  0  0  0
   -5.5095   -2.8916    0.0000 C   0  0  0  0  0  0  0  0  0  0  0  0
   -6.0414   -1.4891    0.0000 C   0  0  0  0  0  0  0  0  0  0  0  0
   -6.2222    0.0000    0.0000 C   0  0  0  0  0  0  0  0  0  0  0  0
   -6.0414    1.4891    0.0000 C   0  0  0  0  0  0  0  0  0  0  0  0
   -5.5095    2.8916    0.0000 C   0  0  0  0  0  0  0  0  0  0  0  0
   -4.6574    4.1261    0.0000 C   0  0  0  0  0  0  0  0  0  0  0  0
   -3.5346    5.1207    0.0000 C   0  0  0  0  0  0  0  0  0  0  0  0
   -2.2064    5.8178    0.0000 C   0  0  0  0  0  0  0  0  0  0  0  0
   -0.7500    6.1768    0.0000 C   0  0  0  0  0  0  0  0  0  0  0  0
    0.7500    6.1768    0.0000 C   0  0  0  0  0  0  0  0  0  0  0  0
    2.2064    5.8178    0.0000 C   0  0  0  0  0  0  0  0  0  0  0  0
    3.5346    5.1207    0.0000 C   0  0  0  0  0  0  0  0  0  0  0  0
    4.6574    4.1261    0.0000 C   0  0  0  0  0  0  0  0  0  0  0  0
    5.5095    2.8916    0.0000 C   0  0  0  0  0  0  0  0  0  0  0  0
    6.0414    1.4891    0.0000 C   0  0  0  0  0  0  0  0  0  0  0  0
  1  2  1  0
  2  3  1  0
  3  4  1  0
  4  5  1  0
  5  6  1  0
  6  7  1  0
  7  8  1  0
  8  9  1  0
  9 10  1  0
 10 11  1  0
 11 12  1  0
 12 13  1  0
 13 14  1  0
 14 15  1  0
 15 16  1  0
 16 17  1  0
 17 18  1  0
 18 19  1  0
 19 20  1  0
 20 21  1  0
 21 22  1  0
 22 23  1  0
 23 24  1  0
 24 25  1  0
 25 26  1  0
 26  1  1  0
M  END
>  <Title>  (1151) 
idABQMgen7

$$$$

     RDKit          2D

107107  0  0  0  0  0  0  0  0999 V2000
   26.8093    0.0000    0.0000 O   0  0  0  0  0  0  0  0  0  0  0  0
   25.3093    0.0000    0.0000 C   0  0  0  0  0  0  0  0  0  0  0  0
   25.2649   -1.4993    0.0000 C   0  0  0  0  0  0  0  0  0  0  0  0
   25.1317   -2.9934    0.0000 C   0  0  0  0  0  0  0  0  0  0  0  0
   24.9102   -4.4770    0.0000 C   0  0  0  0  0  0  0  0  0  0  0  0
   24.6013   -5.9448    0.0000 C   0  0  0  0  0  0  0  0  0  0  0  0
   24.2059   -7.3918    0.0000 C   0  0  0  0  0  0  0  0  0  0  0  0
   23.7255   -8.8128    0.0000 C   0  0  0  0  0  0  0  0  0  0  0  0
   23.1617  -10.2028    0.0000 C   0  0  0  0  0  0  0  0  0  0  0  0
   22.5166  -11.5570    0.0000 C   0  0  0  0  0  0  0  0  0  0  0  0
   21.7924  -12.8706    0.0000 C   0  0  0  0  0  0  0  0  0  0  0  0
   20.9917  -14.1390    0.0000 C   0  0  0  0  0  0  0  0  0  0  0  0
   20.1172  -15.3577    0.0000 C   0  0  0  0  0  0  0  0  0  0  0  0
   19.1721  -16.5225    0.0000 C   0  0  0  0  0  0  0  0  0  0  0  0
   18.1596  -17.6292    0.0000 C   0  0  0  0  0  0  0  0  0  0  0  0
   17.0834  -18.6741    0.0000 C   0  0  0  0  0  0  0  0  0  0  0  0
   15.9471  -19.6533    0.0000 C   0  0  0  0  0  0  0  0  0  0  0  0
   14.7548  -20.5635    0.0000 C   0  0  0  0  0  0  0  0  0  0  0  0
   13.5107  -21.4015    0.0000 C   0  0  0  0  0  0  0  0  0  0  0  0
   12.2192  -22.1643    0.0000 C   0  0  0  0  0  0  0  0  0  0  0  0
   10.8847  -22.8492    0.0000 C   0  0  0  0  0  0  0  0  0  0  0  0
    9.5119  -23.4539    0.0000 C   0  0  0  0  0  0  0  0  0  0  0  0
    8.1058  -23.9762    0.0000 C   0  0  0  0  0  0  0  0  0  0  0  0
    6.6712  -24.4143    0.0000 C   0  0  0  0  0  0  0  0  0  0  0  0
    5.2132  -24.7666    0.0000 C   0  0  0  0  0  0  0  0  0  0  0  0
    3.7368  -25.0320    0.0000 C   0  0  0  0  0  0  0  0  0  0  0  0
    2.2474  -25.2094    0.0000 C   0  0  0  0  0  0  0  0  0  0  0  0
    0.7500  -25.2982    0.0000 C   0  0  0  0  0  0  0  0  0  0  0  0
   -0.7500  -25.2982    0.0000 C   0  0  0  0  0  0  0  0  0  0  0  0
   -2.2474  -25.2094    0.0000 C   0  0  0  0  0  0  0  0  0  0  0  0
   -3.7368  -25.0320    0.0000 C   0  0  0  0  0  0  0  0  0  0  0  0
   -5.2132  -24.7666    0.0000 C   0  0  0  0  0  0  0  0  0  0  0  0
   -6.6712  -24.4143    0.0000 C   0  0  0  0  0  0  0  0  0  0  0  0
   -8.1058  -23.9762    0.0000 C   0  0  0  0  0  0  0  0  0  0  0  0
   -9.5119  -23.4539    0.0000 C   0  0  0  0  0  0  0  0  0  0  0  0
  -10.8847  -22.8492    0.0000 C   0  0  0  0  0  0  0  0  0  0  0  0
  -12.2192  -22.1643    0.0000 C   0  0  0  0  0  0  0  0  0  0  0  0
  -13.5107  -21.4015    0.0000 C   0  0  0  0  0  0  0  0  0  0  0  0
  -14.7548  -20.5635    0.0000 C   0  0  0  0  0  0  0  0  0  0  0  0
  -15.9471  -19.6533    0.0000 C   0  0  0  0  0  0  0  0  0  0  0  0
  -17.0834  -18.6741    0.0000 C   0  0  0  0  0  0  0  0  0  0  0  0
  -18.1596  -17.6292    0.0000 C   0  0  0  0  0  0  0  0  0  0  0  0
  -19.1721  -16.5225    0.0000 C   0  0  0  0  0  0  0  0  0  0  0  0
  -20.1172  -15.3577    0.0000 C   0  0  0  0  0  0  0  0  0  0  0  0
  -20.9917  -14.1390    0.0000 C   0  0  0  0  0  0  0  0  0  0  0  0
  -21.7924  -12.8706    0.0000 C   0  0  0  0  0  0  0  0  0  0  0  0
  -22.5166  -11.5570    0.0000 C   0  0  0  0  0  0  0  0  0  0  0  0
  -23.1617  -10.2028    0.0000 C   0  0  0  0  0  0  0  0  0  0  0  0
  -23.7255   -8.8128    0.0000 C   0  0  0  0  0  0  0  0  0  0  0  0
  -24.2059   -7.3918    0.0000 C   0  0  0  0  0  0  0  0  0  0  0  0
  -24.6013   -5.9448    0.0000 C   0  0  0  0  0  0  0  0  0  0  0  0
  -24.9102   -4.4770    0.0000 C   0  0  0  0  0  0  0  0  0  0  0  0
  -25.1317   -2.9934    0.0000 C   0  0  0  0  0  0  0  0  0  0  0  0
  -25.2649   -1.4993    0.0000 C   0  0  0  0  0  0  0  0  0  0  0  0
  -25.3093    0.0000    0.0000 C   0  0  0  0  0  0  0  0  0  0  0  0
  -25.2649    1.4993    0.0000 C   0  0  0  0  0  0  0  0  0  0  0  0
  -25.1317    2.9934    0.0000 C   0  0  0  0  0  0  0  0  0  0  0  0
  -24.9102    4.4770    0.0000 C   0  0  0  0  0  0  0  0  0  0  0  0
  -24.6013    5.9448    0.0000 C   0  0  0  0  0  0  0  0  0  0  0  0
  -24.2059    7.3918    0.0000 C   0  0  0  0  0  0  0  0  0  0  0  0
  -23.7255    8.8128    0.0000 C   0  0  0  0  0  0  0  0  0  0  0  0
  -23.1617   10.2028    0.0000 C   0  0  0  0  0  0  0  0  0  0  0  0
  -22.5166   11.5570    0.0000 C   0  0  0  0  0  0  0  0  0  0  0  0
  -21.7924   12.8706    0.0000 C   0  0  0  0  0  0  0  0  0  0  0  0
  -20.9917   14.1390    0.0000 C   0  0  0  0  0  0  0  0  0  0  0  0
  -20.1172   15.3577    0.0000 C   0  0  0  0  0  0  0  0  0  0  0  0
  -19.1721   16.5225    0.0000 C   0  0  0  0  0  0  0  0  0  0  0  0
  -18.1596   17.6292    0.0000 C   0  0  0  0  0  0  0  0  0  0  0  0
  -17.0834   18.6741    0.0000 C   0  0  0  0  0  0  0  0  0  0  0  0
  -15.9471   19.6533    0.0000 C   0  0  0  0  0  0  0  0  0  0  0  0
  -14.7548   20.5635    0.0000 C   0  0  0  0  0  0  0  0  0  0  0  0
  -13.5107   21.4015    0.0000 C   0  0  0  0  0  0  0  0  0  0  0  0
  -12.2192   22.1643    0.0000 C   0  0  0  0  0  0  0  0  0  0  0  0
  -10.8847   22.8492    0.0000 C   0  0  0  0  0  0  0  0  0  0  0  0
   -9.5119   23.4539    0.0000 C   0  0  0  0  0  0  0  0  0  0  0  0
   -8.1058   23.9762    0.0000 C   0  0  0  0  0  0  0  0  0  0  0  0
   -6.6712   24.4143    0.0000 C   0  0  0  0  0  0  0  0  0  0  0  0
   -5.2132   24.7666    0.0000 C   0  0  0  0  0  0  0  0  0  0  0  0
   -3.7368   25.0320    0.0000 C   0  0  0  0  0  0  0  0  0  0  0  0
   -2.2474   25.2094    0.0000 C   0  0  0  0  0  0  0  0  0  0  0  0
   -0.7500   25.2982    0.0000 C   0  0  0  0  0  0  0  0  0  0  0  0
    0.7500   25.2982    0.0000 C   0  0  0  0  0  0  0  0  0  0  0  0
    2.2474   25.2094    0.0000 C   0  0  0  0  0  0  0  0  0  0  0  0
    3.7368   25.0320    0.0000 C   0  0  0  0  0  0  0  0  0  0  0  0
    5.2132   24.7666    0.0000 C   0  0  0  0  0  0  0  0  0  0  0  0
    6.6712   24.4143    0.0000 C   0  0  0  0  0  0  0  0  0  0  0  0
    8.1058   23.9762    0.0000 C   0  0  0  0  0  0  0  0  0  0  0  0
    9.5119   23.4539    0.0000 C   0  0  0  0  0  0  0  0  0  0  0  0
   10.8847   22.8492    0.0000 C   0  0  0  0  0  0  0  0  0  0  0  0
   12.2192   22.1643    0.0000 C   0  0  0  0  0  0  0  0  0  0  0  0
   13.5107   21.4015    0.0000 C   0  0  0  0  0  0  0  0  0  0  0  0
   14.7548   20.5635    0.0000 C   0  0  0  0  0  0  0  0  0  0  0  0
   15.9471   19.6533    0.0000 C   0  0  0  0  0  0  0  0  0  0  0  0
   17.0834   18.6741    0.0000 C   0  0  0  0  0  0  0  0  0  0  0  0
   18.1596   17.6292    0.0000 C   0  0  0  0  0  0  0  0  0  0  0  0
   19.1721   16.5225    0.0000 C   0  0  0  0  0  0  0  0  0  0  0  0
   20.1172   15.3577    0.0000 C   0  0  0  0  0  0  0  0  0  0  0  0
   20.9917   14.1390    0.0000 C   0  0  0  0  0  0  0  0  0  0  0  0
   21.7924   12.8706    0.0000 C   0  0  0  0  0  0  0  0  0  0  0  0
   22.5166   11.5570    0.0000 C   0  0  0  0  0  0  0  0  0  0  0  0
   23.1617   10.2028    0.0000 C   0  0  0  0  0  0  0  0  0  0  0  0
   23.7255    8.8128    0.0000 C   0  0  0  0  0  0  0  0  0  0  0  0
   24.2059    7.3918    0.0000 C   0  0  0  0  0  0  0  0  0  0  0  0
   24.6013    5.9448    0.0000 C   0  0  0  0  0  0  0  0  0  0  0  0
   24.9102    4.4770    0.0000 C   0  0  0  0  0  0  0  0  0  0  0  0
   25.1317    2.9934    0.0000 C   0  0  0  0  0  0  0  0  0  0  0  0
   25.2649    1.4993    0.0000 C   0  0  0  0  0  0  0  0  0  0  0  0
  1  2  1  0
  2  3  1  0
  3  4  1  0
  4  5  1  0
  5  6  1  0
  6  7  1  0
  7  8  1  0
  8  9  1  0
  9 10  1  0
 10 11  1  0
 11 12  1  0
 12 13  1  0
 13 14  1  0
 14 15  2  0
 15 16  1  0
 16 17  2  0
 17 18  1  0
 18 19  1  0
 19 20  1  0
 20 21  1  0
 21 22  1  0
 22 23  1  0
 23 24  1  0
 24 25  1  0
 25 26  1  0
 26 27  1  0
 27 28  1  0
 28 29  1  0
 29 30  1  0
 30 31  1  0
 31 32  1  0
 32 33  1  0
 33 34  1  0
 34 35  1  0
 35 36  1  0
 36 37  1  0
 37 38  1  0
 38 39  1  0
 39 40  1  0
 40 41  1  0
 41 42  1  0
 42 43  1  0
 43 44  1  0
 44 45  1  0
 45 46  1  0
 46 47  1  0
 47 48  1  0
 48 49  1  0
 49 50  1  0
 50 51  1  0
 51 52  1  0
 52 53  1  0
 53 54  1  0
 54 55  1  0
 55 56  1  0
 56 57  1  0
 57 58  1  0
 58 59  1  0
 59 60  1  0
 60 61  1  0
 61 62  1  0
 62 63  1  0
 63 64  1  0
 64 65  1  0
 65 66  1  0
 66 67  1  0
 67 68  1  0
 68 69  1  0
 69 70  1  0
 70 71  1  0
 71 72  1  0
 72 73  1  0
 73 74  1  0
 74 75  1  0
 75 76  1  0
 76 77  1  0
 77 78  1  0
 78 79  1  0
 79 80  1  0
 80 81  1  0
 81 82  1  0
 82 83  1  0
 83 84  1  0
 84 85  1  0
 85 86  1  0
 86 87  1  0
 87 88  1  0
 88 89  1  0
 89 90  1  0
 90 91  1  0
 91 92  1  0
 92 93  1  0
 93 94  1  0
 94 95  1  0
 95 96  1  0
 96 97  1  0
 97 98  1  0
 98 99  1  0
 99100  1  0
100101  1  0
101102  1  0
102103  1  0
103104  1  0
104105  1  0
105106  1  0
106107  1  0
107  2  1  0
M  END
>  <Title>  (1152) 
idABQNgen7

$$$$

     RDKit          2D

 42 42  0  0  0  0  0  0  0  0999 V2000
   11.2976   -0.0000    0.0000 C   0  0  0  0  0  0  0  0  0  0  0  0
    9.7976    0.0000    0.0000 C   0  0  0  0  0  0  0  0  0  0  0  0
    9.6828    1.4956    0.0000 C   0  0  0  0  0  0  0  0  0  0  0  0
    9.3410    2.9561    0.0000 C   0  0  0  0  0  0  0  0  0  0  0  0
    8.7803    4.3474    0.0000 C   0  0  0  0  0  0  0  0  0  0  0  0
    8.0138    5.6367    0.0000 C   0  0  0  0  0  0  0  0  0  0  0  0
    7.0594    6.7940    0.0000 C   0  0  0  0  0  0  0  0  0  0  0  0
    5.9396    7.7920    0.0000 C   0  0  0  0  0  0  0  0  0  0  0  0
    4.6805    8.6073    0.0000 C   0  0  0  0  0  0  0  0  0  0  0  0
    3.3118    9.2209    0.0000 C   0  0  0  0  0  0  0  0  0  0  0  0
    1.8654    9.6184    0.0000 C   0  0  0  0  0  0  0  0  0  0  0  0
    0.3753    9.7904    0.0000 C   0  0  0  0  0  0  0  0  0  0  0  0
   -1.1236    9.7330    0.0000 C   0  0  0  0  0  0  0  0  0  0  0  0
   -2.5962    9.4474    0.0000 C   0  0  0  0  0  0  0  0  0  0  0  0
   -4.0079    8.9404    0.0000 C   0  0  0  0  0  0  0  0  0  0  0  0
   -5.3257    8.2238    0.0000 C   0  0  0  0  0  0  0  0  0  0  0  0
   -6.5186    7.3144    0.0000 C   0  0  0  0  0  0  0  0  0  0  0  0
   -7.5588    6.2337    0.0000 C   0  0  0  0  0  0  0  0  0  0  0  0
   -8.4217    5.0068    0.0000 C   0  0  0  0  0  0  0  0  0  0  0  0
   -9.0873    3.6625    0.0000 C   0  0  0  0  0  0  0  0  0  0  0  0
   -9.5399    2.2324    0.0000 C   0  0  0  0  0  0  0  0  0  0  0  0
   -9.7689    0.7500    0.0000 C   0  0  0  0  0  0  0  0  0  0  0  0
   -9.7689   -0.7500    0.0000 C   0  0  0  0  0  0  0  0  0  0  0  0
   -9.5399   -2.2324    0.0000 C   0  0  0  0  0  0  0  0  0  0  0  0
   -9.0873   -3.6625    0.0000 C   0  0  0  0  0  0  0  0  0  0  0  0
   -8.4217   -5.0068    0.0000 C   0  0  0  0  0  0  0  0  0  0  0  0
   -7.5588   -6.2337    0.0000 C   0  0  0  0  0  0  0  0  0  0  0  0
   -6.5186   -7.3144    0.0000 C   0  0  0  0  0  0  0  0  0  0  0  0
   -5.3257   -8.2238    0.0000 C   0  0  0  0  0  0  0  0  0  0  0  0
   -4.0079   -8.9404    0.0000 C   0  0  0  0  0  0  0  0  0  0  0  0
   -2.5962   -9.4474    0.0000 C   0  0  0  0  0  0  0  0  0  0  0  0
   -1.1236   -9.7330    0.0000 C   0  0  0  0  0  0  0  0  0  0  0  0
    0.3753   -9.7904    0.0000 C   0  0  0  0  0  0  0  0  0  0  0  0
    1.8654   -9.6184    0.0000 C   0  0  0  0  0  0  0  0  0  0  0  0
    3.3118   -9.2209    0.0000 C   0  0  0  0  0  0  0  0  0  0  0  0
    4.6805   -8.6073    0.0000 C   0  0  0  0  0  0  0  0  0  0  0  0
    5.9396   -7.7920    0.0000 C   0  0  0  0  0  0  0  0  0  0  0  0
    7.0594   -6.7940    0.0000 C   0  0  0  0  0  0  0  0  0  0  0  0
    8.0138   -5.6367    0.0000 C   0  0  0  0  0  0  0  0  0  0  0  0
    8.7803   -4.3474    0.0000 C   0  0  0  0  0  0  0  0  0  0  0  0
    9.3410   -2.9561    0.0000 C   0  0  0  0  0  0  0  0  0  0  0  0
    9.6828   -1.4956    0.0000 C   0  0  0  0  0  0  0  0  0  0  0  0
  1  2  1  0
  2  3  1  0
  3  4  1  0
  4  5  2  0
  5  6  1  0
  6  7  2  0
  7  8  1  0
  8  9  2  0
  9 10  1  0
 10 11  1  0
 11 12  1  0
 12 13  1  0
 13 14  1  0
 14 15  1  0
 15 16  1  0
 16 17  1  0
 17 18  1  0
 18 19  1  0
 19 20  1  0
 20 21  1  0
 21 22  1  0
 22 23  1  0
 23 24  1  0
 24 25  1  0
 25 26  1  0
 26 27  1  0
 27 28  1  0
 28 29  1  0
 29 30  1  0
 30 31  1  0
 31 32  1  0
 32 33  1  0
 33 34  1  0
 34 35  1  0
 35 36  1  0
 36 37  1  0
 37 38  1  0
 38 39  1  0
 39 40  1  0
 40 41  1  0
 41 42  1  0
 42  2  1  0
M  END
>  <Title>  (1153) 
idABQOgen7

$$$$

     RDKit          2D

123123  0  0  0  0  0  0  0  0999 V2000
   30.6286    0.0000    0.0000 C   0  0  0  0  0  0  0  0  0  0  0  0
   29.1286    0.0000    0.0000 C   0  0  0  0  0  0  0  0  0  0  0  0
   29.0900   -1.4995    0.0000 C   0  0  0  0  0  0  0  0  0  0  0  0
   28.9742   -2.9950    0.0000 C   0  0  0  0  0  0  0  0  0  0  0  0
   28.7816   -4.4826    0.0000 C   0  0  0  0  0  0  0  0  0  0  0  0
   28.5127   -5.9583    0.0000 C   0  0  0  0  0  0  0  0  0  0  0  0
   28.1681   -7.4182    0.0000 C   0  0  0  0  0  0  0  0  0  0  0  0
   27.7489   -8.8584    0.0000 C   0  0  0  0  0  0  0  0  0  0  0  0
   27.2561  -10.2752    0.0000 C   0  0  0  0  0  0  0  0  0  0  0  0
   26.6910  -11.6647    0.0000 C   0  0  0  0  0  0  0  0  0  0  0  0
   26.0551  -13.0232    0.0000 C   0  0  0  0  0  0  0  0  0  0  0  0
   25.3502  -14.3472    0.0000 C   0  0  0  0  0  0  0  0  0  0  0  0
   24.5780  -15.6332    0.0000 C   0  0  0  0  0  0  0  0  0  0  0  0
   23.7406  -16.8777    0.0000 C   0  0  0  0  0  0  0  0  0  0  0  0
   22.8403  -18.0775    0.0000 C   0  0  0  0  0  0  0  0  0  0  0  0
   21.8794  -19.2293    0.0000 C   0  0  0  0  0  0  0  0  0  0  0  0
   20.8605  -20.3301    0.0000 C   0  0  0  0  0  0  0  0  0  0  0  0
   19.7863  -21.3770    0.0000 C   0  0  0  0  0  0  0  0  0  0  0  0
   18.6596  -22.3673    0.0000 C   0  0  0  0  0  0  0  0  0  0  0  0
   17.4834  -23.2982    0.0000 C   0  0  0  0  0  0  0  0  0  0  0  0
   16.2608  -24.1673    0.0000 C   0  0  0  0  0  0  0  0  0  0  0  0
   14.9952  -24.9724    0.0000 C   0  0  0  0  0  0  0  0  0  0  0  0
   13.6898  -25.7112    0.0000 C   0  0  0  0  0  0  0  0  0  0  0  0
   12.3480  -26.3818    0.0000 C   0  0  0  0  0  0  0  0  0  0  0  0
   10.9735  -26.9825    0.0000 C   0  0  0  0  0  0  0  0  0  0  0  0
    9.5700  -27.5116    0.0000 C   0  0  0  0  0  0  0  0  0  0  0  0
    8.1410  -27.9678    0.0000 C   0  0  0  0  0  0  0  0  0  0  0  0
    6.6905  -28.3498    0.0000 C   0  0  0  0  0  0  0  0  0  0  0  0
    5.2222  -28.6566    0.0000 C   0  0  0  0  0  0  0  0  0  0  0  0
    3.7401  -28.8875    0.0000 C   0  0  0  0  0  0  0  0  0  0  0  0
    2.2480  -29.0417    0.0000 C   0  0  0  0  0  0  0  0  0  0  0  0
    0.7500  -29.1189    0.0000 C   0  0  0  0  0  0  0  0  0  0  0  0
   -0.7500  -29.1189    0.0000 C   0  0  0  0  0  0  0  0  0  0  0  0
   -2.2480  -29.0417    0.0000 C   0  0  0  0  0  0  0  0  0  0  0  0
   -3.7401  -28.8875    0.0000 C   0  0  0  0  0  0  0  0  0  0  0  0
   -5.2222  -28.6566    0.0000 C   0  0  0  0  0  0  0  0  0  0  0  0
   -6.6905  -28.3498    0.0000 C   0  0  0  0  0  0  0  0  0  0  0  0
   -8.1410  -27.9678    0.0000 C   0  0  0  0  0  0  0  0  0  0  0  0
   -9.5700  -27.5116    0.0000 C   0  0  0  0  0  0  0  0  0  0  0  0
  -10.9735  -26.9825    0.0000 C   0  0  0  0  0  0  0  0  0  0  0  0
  -12.3480  -26.3818    0.0000 C   0  0  0  0  0  0  0  0  0  0  0  0
  -13.6898  -25.7112    0.0000 C   0  0  0  0  0  0  0  0  0  0  0  0
  -14.9952  -24.9724    0.0000 C   0  0  0  0  0  0  0  0  0  0  0  0
  -16.2608  -24.1673    0.0000 C   0  0  0  0  0  0  0  0  0  0  0  0
  -17.4834  -23.2982    0.0000 C   0  0  0  0  0  0  0  0  0  0  0  0
  -18.6596  -22.3673    0.0000 C   0  0  0  0  0  0  0  0  0  0  0  0
  -19.7863  -21.3770    0.0000 C   0  0  0  0  0  0  0  0  0  0  0  0
  -20.8605  -20.3301    0.0000 C   0  0  0  0  0  0  0  0  0  0  0  0
  -21.8794  -19.2293    0.0000 C   0  0  0  0  0  0  0  0  0  0  0  0
  -22.8403  -18.0775    0.0000 C   0  0  0  0  0  0  0  0  0  0  0  0
  -23.7406  -16.8777    0.0000 C   0  0  0  0  0  0  0  0  0  0  0  0
  -24.5780  -15.6332    0.0000 C   0  0  0  0  0  0  0  0  0  0  0  0
  -25.3502  -14.3472    0.0000 C   0  0  0  0  0  0  0  0  0  0  0  0
  -26.0551  -13.0232    0.0000 C   0  0  0  0  0  0  0  0  0  0  0  0
  -26.6910  -11.6647    0.0000 C   0  0  0  0  0  0  0  0  0  0  0  0
  -27.2561  -10.2752    0.0000 C   0  0  0  0  0  0  0  0  0  0  0  0
  -27.7489   -8.8584    0.0000 C   0  0  0  0  0  0  0  0  0  0  0  0
  -28.1681   -7.4182    0.0000 C   0  0  0  0  0  0  0  0  0  0  0  0
  -28.5127   -5.9583    0.0000 C   0  0  0  0  0  0  0  0  0  0  0  0
  -28.7816   -4.4826    0.0000 C   0  0  0  0  0  0  0  0  0  0  0  0
  -28.9742   -2.9950    0.0000 C   0  0  0  0  0  0  0  0  0  0  0  0
  -29.0900   -1.4995    0.0000 C   0  0  0  0  0  0  0  0  0  0  0  0
  -29.1286    0.0000    0.0000 C   0  0  0  0  0  0  0  0  0  0  0  0
  -29.0900    1.4995    0.0000 C   0  0  0  0  0  0  0  0  0  0  0  0
  -28.9742    2.9950    0.0000 C   0  0  0  0  0  0  0  0  0  0  0  0
  -28.7816    4.4826    0.0000 C   0  0  0  0  0  0  0  0  0  0  0  0
  -28.5127    5.9583    0.0000 C   0  0  0  0  0  0  0  0  0  0  0  0
  -28.1681    7.4182    0.0000 C   0  0  0  0  0  0  0  0  0  0  0  0
  -27.7489    8.8584    0.0000 C   0  0  0  0  0  0  0  0  0  0  0  0
  -27.2561   10.2752    0.0000 C   0  0  0  0  0  0  0  0  0  0  0  0
  -26.6910   11.6647    0.0000 C   0  0  0  0  0  0  0  0  0  0  0  0
  -26.0551   13.0232    0.0000 C   0  0  0  0  0  0  0  0  0  0  0  0
  -25.3502   14.3472    0.0000 C   0  0  0  0  0  0  0  0  0  0  0  0
  -24.5780   15.6332    0.0000 C   0  0  0  0  0  0  0  0  0  0  0  0
  -23.7406   16.8777    0.0000 C   0  0  0  0  0  0  0  0  0  0  0  0
  -22.8403   18.0775    0.0000 C   0  0  0  0  0  0  0  0  0  0  0  0
  -21.8794   19.2293    0.0000 C   0  0  0  0  0  0  0  0  0  0  0  0
  -20.8605   20.3301    0.0000 C   0  0  0  0  0  0  0  0  0  0  0  0
  -19.7863   21.3770    0.0000 C   0  0  0  0  0  0  0  0  0  0  0  0
  -18.6596   22.3673    0.0000 C   0  0  0  0  0  0  0  0  0  0  0  0
  -17.4834   23.2982    0.0000 C   0  0  0  0  0  0  0  0  0  0  0  0
  -16.2608   24.1673    0.0000 C   0  0  0  0  0  0  0  0  0  0  0  0
  -14.9952   24.9724    0.0000 C   0  0  0  0  0  0  0  0  0  0  0  0
  -13.6898   25.7112    0.0000 C   0  0  0  0  0  0  0  0  0  0  0  0
  -12.3480   26.3818    0.0000 C   0  0  0  0  0  0  0  0  0  0  0  0
  -10.9735   26.9825    0.0000 C   0  0  0  0  0  0  0  0  0  0  0  0
   -9.5700   27.5116    0.0000 C   0  0  0  0  0  0  0  0  0  0  0  0
   -8.1410   27.9678    0.0000 C   0  0  0  0  0  0  0  0  0  0  0  0
   -6.6905   28.3498    0.0000 C   0  0  0  0  0  0  0  0  0  0  0  0
   -5.2222   28.6566    0.0000 C   0  0  0  0  0  0  0  0  0  0  0  0
   -3.7401   28.8875    0.0000 C   0  0  0  0  0  0  0  0  0  0  0  0
   -2.2480   29.0417    0.0000 C   0  0  0  0  0  0  0  0  0  0  0  0
   -0.7500   29.1189    0.0000 N   0  0  0  0  0  0  0  0  0  0  0  0
    0.7500   29.1189    0.0000 C   0  0  0  0  0  0  0  0  0  0  0  0
    2.2480   29.0417    0.0000 C   0  0  0  0  0  0  0  0  0  0  0  0
    3.7401   28.8875    0.0000 C   0  0  0  0  0  0  0  0  0  0  0  0
    5.2222   28.6566    0.0000 C   0  0  0  0  0  0  0  0  0  0  0  0
    6.6905   28.3498    0.0000 C   0  0  0  0  0  0  0  0  0  0  0  0
    8.1410   27.9678    0.0000 C   0  0  0  0  0  0  0  0  0  0  0  0
    9.5700   27.5116    0.0000 C   0  0  0  0  0  0  0  0  0  0  0  0
   10.9735   26.9825    0.0000 C   0  0  0  0  0  0  0  0  0  0  0  0
   12.3480   26.3818    0.0000 C   0  0  0  0  0  0  0  0  0  0  0  0
   13.6898   25.7112    0.0000 C   0  0  0  0  0  0  0  0  0  0  0  0
   14.9952   24.9724    0.0000 C   0  0  0  0  0  0  0  0  0  0  0  0
   16.2608   24.1673    0.0000 C   0  0  0  0  0  0  0  0  0  0  0  0
   17.4834   23.2982    0.0000 C   0  0  0  0  0  0  0  0  0  0  0  0
   18.6596   22.3673    0.0000 C   0  0  0  0  0  0  0  0  0  0  0  0
   19.7863   21.3770    0.0000 C   0  0  0  0  0  0  0  0  0  0  0  0
   20.8605   20.3301    0.0000 C   0  0  0  0  0  0  0  0  0  0  0  0
   21.8794   19.2293    0.0000 C   0  0  0  0  0  0  0  0  0  0  0  0
   22.8403   18.0775    0.0000 C   0  0  0  0  0  0  0  0  0  0  0  0
   23.7406   16.8777    0.0000 C   0  0  0  0  0  0  0  0  0  0  0  0
   24.5780   15.6332    0.0000 C   0  0  0  0  0  0  0  0  0  0  0  0
   25.3502   14.3472    0.0000 C   0  0  0  0  0  0  0  0  0  0  0  0
   26.0551   13.0232    0.0000 C   0  0  0  0  0  0  0  0  0  0  0  0
   26.6910   11.6647    0.0000 C   0  0  0  0  0  0  0  0  0  0  0  0
   27.2561   10.2752    0.0000 C   0  0  0  0  0  0  0  0  0  0  0  0
   27.7489    8.8584    0.0000 C   0  0  0  0  0  0  0  0  0  0  0  0
   28.1681    7.4182    0.0000 C   0  0  0  0  0  0  0  0  0  0  0  0
   28.5127    5.9583    0.0000 C   0  0  0  0  0  0  0  0  0  0  0  0
   28.7816    4.4826    0.0000 C   0  0  0  0  0  0  0  0  0  0  0  0
   28.9742    2.9950    0.0000 C   0  0  0  0  0  0  0  0  0  0  0  0
   29.0900    1.4995    0.0000 C   0  0  0  0  0  0  0  0  0  0  0  0
  1  2  1  0
  2  3  1  0
  3  4  1  0
  4  5  1  0
  5  6  1  0
  6  7  1  0
  7  8  1  0
  8  9  1  0
  9 10  1  0
 10 11  1  0
 11 12  1  0
 12 13  1  0
 13 14  1  0
 14 15  1  0
 15 16  1  0
 16 17  1  0
 17 18  1  0
 18 19  1  0
 19 20  1  0
 20 21  1  0
 21 22  1  0
 22 23  1  0
 23 24  1  0
 24 25  1  0
 25 26  1  0
 26 27  1  0
 27 28  1  0
 28 29  1  0
 29 30  1  0
 30 31  1  0
 31 32  1  0
 32 33  1  0
 33 34  1  0
 34 35  1  0
 35 36  1  0
 36 37  1  0
 37 38  1  0
 38 39  1  0
 39 40  1  0
 40 41  1  0
 41 42  1  0
 42 43  1  0
 43 44  1  0
 44 45  1  0
 45 46  1  0
 46 47  1  0
 47 48  1  0
 48 49  1  0
 49 50  1  0
 50 51  1  0
 51 52  1  0
 52 53  1  0
 53 54  1  0
 54 55  1  0
 55 56  1  0
 56 57  1  0
 57 58  1  0
 58 59  1  0
 59 60  1  0
 60 61  1  0
 61 62  1  0
 62 63  1  0
 63 64  1  0
 64 65  1  0
 65 66  1  0
 66 67  1  0
 67 68  1  0
 68 69  1  0
 69 70  1  0
 70 71  1  0
 71 72  1  0
 72 73  1  0
 73 74  1  0
 74 75  1  0
 75 76  1  0
 76 77  1  0
 77 78  1  0
 78 79  1  0
 79 80  1  0
 80 81  1  0
 81 82  1  0
 82 83  1  0
 83 84  1  0
 84 85  1  0
 85 86  1  0
 86 87  1  0
 87 88  1  0
 88 89  1  0
 89 90  1  0
 90 91  1  0
 91 92  1  0
 92 93  1  0
 93 94  1  0
 94 95  1  0
 95 96  1  0
 96 97  1  0
 97 98  1  0
 98 99  1  0
 99100  1  0
100101  1  0
101102  1  0
102103  1  0
103104  1  0
104105  1  0
105106  1  0
106107  1  0
107108  1  0
108109  1  0
109110  1  0
110111  1  0
111112  1  0
112113  1  0
113114  1  0
114115  1  0
115116  1  0
116117  1  0
117118  1  0
118119  1  0
119120  1  0
120121  1  0
121122  1  0
122123  1  0
123  2  1  0
M  END
>  <Title>  (1154) 
idABQPgen7

$$$$

     RDKit          2D

 20 19  0  0  0  0  0  0  0  0999 V2000
    0.0000    0.0000    0.0000 C   0  0  0  0  0  0  0  0  0  0  0  0
    1.2990    0.7500    0.0000 C   0  0  0  0  0  0  0  0  0  0  0  0
    2.5981   -0.0000    0.0000 C   0  0  0  0  0  0  0  0  0  0  0  0
    3.8971    0.7500    0.0000 C   0  0  0  0  0  0  0  0  0  0  0  0
    5.1962   -0.0000    0.0000 C   0  0  0  0  0  0  0  0  0  0  0  0
    6.4952    0.7500    0.0000 C   0  0  0  0  0  0  0  0  0  0  0  0
    7.7942   -0.0000    0.0000 C   0  0  0  0  0  0  0  0  0  0  0  0
    9.0933    0.7500    0.0000 C   0  0  0  0  0  0  0  0  0  0  0  0
   10.3923   -0.0000    0.0000 C   0  0  0  0  0  0  0  0  0  0  0  0
   11.6913    0.7500    0.0000 C   0  0  0  0  0  0  0  0  0  0  0  0
   12.9904   -0.0000    0.0000 C   0  0  0  0  0  0  0  0  0  0  0  0
   14.2894    0.7500    0.0000 C   0  0  0  0  0  0  0  0  0  0  0  0
   15.5885   -0.0000    0.0000 C   0  0  0  0  0  0  0  0  0  0  0  0
   16.8875    0.7500    0.0000 C   0  0  0  0  0  0  0  0  0  0  0  0
   18.1865   -0.0000    0.0000 C   0  0  0  0  0  0  0  0  0  0  0  0
   19.4856    0.7500    0.0000 C   0  0  0  0  0  0  0  0  0  0  0  0
   20.7846   -0.0000    0.0000 C   0  0  0  0  0  0  0  0  0  0  0  0
   22.0836    0.7500    0.0000 C   0  0  0  0  0  0  0  0  0  0  0  0
   23.3827   -0.0000    0.0000 C   0  0  0  0  0  0  0  0  0  0  0  0
   24.6817    0.7500    0.0000 C   0  0  0  0  0  0  0  0  0  0  0  0
  1  2  2  0
  2  3  1  0
  3  4  1  0
  4  5  1  0
  5  6  1  0
  6  7  1  0
  7  8  1  0
  8  9  1  0
  9 10  1  0
 10 11  1  0
 11 12  1  0
 12 13  1  0
 13 14  1  0
 14 15  1  0
 15 16  1  0
 16 17  1  0
 17 18  1  0
 18 19  1  0
 19 20  1  0
M  END
>  <Title>  (1155) 
idABQQgen7

$$$$

     RDKit          2D

 17 18  0  0  0  0  0  0  0  0999 V2000
    3.0613   -9.9436    0.0000 O   0  0  0  0  0  0  0  0  0  0  0  0
    1.8478   -9.0619    0.0000 C   0  0  0  0  0  0  0  0  0  0  0  0
    0.4775   -9.6721    0.0000 O   0  0  0  0  0  0  0  0  0  0  0  0
    2.0046   -7.5702    0.0000 C   0  0  0  0  0  0  0  0  0  0  0  0
    3.3037   -6.8202    0.0000 C   0  0  0  0  0  0  0  0  0  0  0  0
    2.9918   -5.3529    0.0000 C   0  0  0  0  0  0  0  0  0  0  0  0
    1.5000   -5.1962    0.0000 C   0  0  0  0  0  0  0  0  0  0  0  0
    0.7500   -3.8971    0.0000 C   0  0  0  0  0  0  0  0  0  0  0  0
   -0.7500   -3.8971    0.0000 O   0  0  0  0  0  0  0  0  0  0  0  0
    1.5000   -2.5981    0.0000 N   0  0  0  0  0  0  0  0  0  0  0  0
    0.7500   -1.2990    0.0000 C   0  0  0  0  0  0  0  0  0  0  0  0
    1.5000    0.0000    0.0000 N   0  0  0  0  0  0  0  0  0  0  0  0
    0.7500    1.2990    0.0000 N   0  0  0  0  0  0  0  0  0  0  0  0
   -0.7500    1.2990    0.0000 N   0  0  0  0  0  0  0  0  0  0  0  0
   -1.5000    0.0000    0.0000 N   0  0  0  0  0  0  0  0  0  0  0  0
   -0.7500   -1.2990    0.0000 N   0  0  0  0  0  0  0  0  0  0  0  0
    0.8899   -6.5665    0.0000 C   0  0  0  0  0  0  0  0  0  0  0  0
  1  2  2  0
  2  3  1  0
  2  4  1  0
  4  5  1  0
  5  6  1  0
  6  7  1  0
  7  8  1  0
  8  9  2  0
  8 10  1  0
 10 11  1  0
 11 12  2  0
 12 13  1  0
 13 14  2  0
 14 15  1  0
 15 16  2  0
  7 17  1  0
 17  4  1  0
 16 11  1  0
M  END
>  <Title>  (1156) 
idABQRgen7

$$$$

     RDKit          2D

 64 64  0  0  0  0  0  0  0  0999 V2000
   16.5464    0.0000    0.0000 C   0  0  0  0  0  0  0  0  0  0  0  0
   15.0464    0.0000    0.0000 C   0  0  0  0  0  0  0  0  0  0  0  0
   14.9716    1.4981    0.0000 C   0  0  0  0  0  0  0  0  0  0  0  0
   14.7480    2.9814    0.0000 C   0  0  0  0  0  0  0  0  0  0  0  0
   14.3779    4.4350    0.0000 C   0  0  0  0  0  0  0  0  0  0  0  0
   13.8649    5.8445    0.0000 C   0  0  0  0  0  0  0  0  0  0  0  0
   13.2141    7.1960    0.0000 C   0  0  0  0  0  0  0  0  0  0  0  0
   12.4319    8.4759    0.0000 C   0  0  0  0  0  0  0  0  0  0  0  0
   11.5262    9.6716    0.0000 C   0  0  0  0  0  0  0  0  0  0  0  0
   10.5059   10.7712    0.0000 C   0  0  0  0  0  0  0  0  0  0  0  0
    9.3813   11.7637    0.0000 C   0  0  0  0  0  0  0  0  0  0  0  0
    8.1634   12.6393    0.0000 C   0  0  0  0  0  0  0  0  0  0  0  0
    6.8643   13.3893    0.0000 C   0  0  0  0  0  0  0  0  0  0  0  0
    5.4971   14.0063    0.0000 C   0  0  0  0  0  0  0  0  0  0  0  0
    4.0752   14.4840    0.0000 C   0  0  0  0  0  0  0  0  0  0  0  0
    2.6128   14.8178    0.0000 C   0  0  0  0  0  0  0  0  0  0  0  0
    1.1244   15.0043    0.0000 C   0  0  0  0  0  0  0  0  0  0  0  0
   -0.3751   15.0417    0.0000 C   0  0  0  0  0  0  0  0  0  0  0  0
   -1.8709   14.9296    0.0000 C   0  0  0  0  0  0  0  0  0  0  0  0
   -3.3481   14.6691    0.0000 C   0  0  0  0  0  0  0  0  0  0  0  0
   -4.7921   14.2629    0.0000 C   0  0  0  0  0  0  0  0  0  0  0  0
   -6.1884   13.7149    0.0000 C   0  0  0  0  0  0  0  0  0  0  0  0
   -7.5232   13.0305    0.0000 C   0  0  0  0  0  0  0  0  0  0  0  0
   -8.7832   12.2167    0.0000 C   0  0  0  0  0  0  0  0  0  0  0  0
   -9.9560   11.2815    0.0000 C   0  0  0  0  0  0  0  0  0  0  0  0
  -11.0298   10.2341    0.0000 C   0  0  0  0  0  0  0  0  0  0  0  0
  -11.9940    9.0851    0.0000 C   0  0  0  0  0  0  0  0  0  0  0  0
  -12.8389    7.8457    0.0000 C   0  0  0  0  0  0  0  0  0  0  0  0
  -13.5563    6.5284    0.0000 C   0  0  0  0  0  0  0  0  0  0  0  0
  -14.1390    5.1462    0.0000 C   0  0  0  0  0  0  0  0  0  0  0  0
  -14.5811    3.7128    0.0000 C   0  0  0  0  0  0  0  0  0  0  0  0
  -14.8783    2.2425    0.0000 C   0  0  0  0  0  0  0  0  0  0  0  0
  -15.0277    0.7500    0.0000 C   0  0  0  0  0  0  0  0  0  0  0  0
  -15.0277   -0.7500    0.0000 C   0  0  0  0  0  0  0  0  0  0  0  0
  -14.8783   -2.2425    0.0000 C   0  0  0  0  0  0  0  0  0  0  0  0
  -14.5811   -3.7128    0.0000 C   0  0  0  0  0  0  0  0  0  0  0  0
  -14.1390   -5.1462    0.0000 C   0  0  0  0  0  0  0  0  0  0  0  0
  -13.5563   -6.5284    0.0000 C   0  0  0  0  0  0  0  0  0  0  0  0
  -12.8389   -7.8457    0.0000 C   0  0  0  0  0  0  0  0  0  0  0  0
  -11.9940   -9.0851    0.0000 C   0  0  0  0  0  0  0  0  0  0  0  0
  -11.0298  -10.2341    0.0000 C   0  0  0  0  0  0  0  0  0  0  0  0
   -9.9560  -11.2815    0.0000 C   0  0  0  0  0  0  0  0  0  0  0  0
   -8.7832  -12.2167    0.0000 C   0  0  0  0  0  0  0  0  0  0  0  0
   -7.5232  -13.0305    0.0000 C   0  0  0  0  0  0  0  0  0  0  0  0
   -6.1884  -13.7149    0.0000 C   0  0  0  0  0  0  0  0  0  0  0  0
   -4.7921  -14.2629    0.0000 C   0  0  0  0  0  0  0  0  0  0  0  0
   -3.3481  -14.6691    0.0000 C   0  0  0  0  0  0  0  0  0  0  0  0
   -1.8709  -14.9296    0.0000 C   0  0  0  0  0  0  0  0  0  0  0  0
   -0.3751  -15.0417    0.0000 C   0  0  0  0  0  0  0  0  0  0  0  0
    1.1244  -15.0043    0.0000 C   0  0  0  0  0  0  0  0  0  0  0  0
    2.6128  -14.8178    0.0000 C   0  0  0  0  0  0  0  0  0  0  0  0
    4.0752  -14.4840    0.0000 C   0  0  0  0  0  0  0  0  0  0  0  0
    5.4971  -14.0063    0.0000 C   0  0  0  0  0  0  0  0  0  0  0  0
    6.8643  -13.3893    0.0000 C   0  0  0  0  0  0  0  0  0  0  0  0
    8.1634  -12.6393    0.0000 C   0  0  0  0  0  0  0  0  0  0  0  0
    9.3813  -11.7637    0.0000 C   0  0  0  0  0  0  0  0  0  0  0  0
   10.5059  -10.7712    0.0000 C   0  0  0  0  0  0  0  0  0  0  0  0
   11.5262   -9.6716    0.0000 C   0  0  0  0  0  0  0  0  0  0  0  0
   12.4319   -8.4759    0.0000 C   0  0  0  0  0  0  0  0  0  0  0  0
   13.2141   -7.1960    0.0000 C   0  0  0  0  0  0  0  0  0  0  0  0
   13.8649   -5.8445    0.0000 C   0  0  0  0  0  0  0  0  0  0  0  0
   14.3779   -4.4350    0.0000 C   0  0  0  0  0  0  0  0  0  0  0  0
   14.7480   -2.9814    0.0000 C   0  0  0  0  0  0  0  0  0  0  0  0
   14.9716   -1.4981    0.0000 C   0  0  0  0  0  0  0  0  0  0  0  0
  1  2  1  0
  2  3  1  0
  3  4  1  0
  4  5  1  0
  5  6  1  0
  6  7  1  0
  7  8  1  0
  8  9  1  0
  9 10  1  0
 10 11  1  0
 11 12  1  0
 12 13  1  0
 13 14  1  0
 14 15  1  0
 15 16  1  0
 16 17  1  0
 17 18  1  0
 18 19  1  0
 19 20  1  0
 20 21  1  0
 21 22  1  0
 22 23  1  0
 23 24  1  0
 24 25  1  0
 25 26  1  0
 26 27  1  0
 27 28  1  0
 28 29  1  0
 29 30  1  0
 30 31  1  0
 31 32  1  0
 32 33  1  0
 33 34  1  0
 34 35  1  0
 35 36  1  0
 36 37  1  0
 37 38  1  0
 38 39  1  0
 39 40  1  0
 40 41  1  0
 41 42  1  0
 42 43  1  0
 43 44  1  0
 44 45  1  0
 45 46  1  0
 46 47  1  0
 47 48  1  0
 48 49  1  0
 49 50  1  0
 50 51  1  0
 51 52  1  0
 52 53  1  0
 53 54  1  0
 54 55  1  0
 55 56  1  0
 56 57  1  0
 57 58  1  0
 58 59  1  0
 59 60  1  0
 60 61  1  0
 61 62  1  0
 62 63  1  0
 63 64  1  0
 64  2  1  0
M  END
>  <Title>  (1157) 
idABQSgen7

$$$$

     RDKit          2D

 81 81  0  0  0  0  0  0  0  0999 V2000
   20.6035    0.0000    0.0000 O   0  0  0  0  0  0  0  0  0  0  0  0
   19.1035    0.0000    0.0000 C   0  0  0  0  0  0  0  0  0  0  0  0
   19.0446   -1.4988    0.0000 C   0  0  0  0  0  0  0  0  0  0  0  0
   18.8683   -2.9884    0.0000 C   0  0  0  0  0  0  0  0  0  0  0  0
   18.5757   -4.4596    0.0000 C   0  0  0  0  0  0  0  0  0  0  0  0
   18.1685   -5.9033    0.0000 C   0  0  0  0  0  0  0  0  0  0  0  0
   17.6493   -7.3106    0.0000 C   0  0  0  0  0  0  0  0  0  0  0  0
   17.0213   -8.6728    0.0000 C   0  0  0  0  0  0  0  0  0  0  0  0
   16.2884   -9.9816    0.0000 C   0  0  0  0  0  0  0  0  0  0  0  0
   15.4551  -11.2288    0.0000 C   0  0  0  0  0  0  0  0  0  0  0  0
   14.5264  -12.4067    0.0000 C   0  0  0  0  0  0  0  0  0  0  0  0
   13.5082  -13.5082    0.0000 C   0  0  0  0  0  0  0  0  0  0  0  0
   12.4067  -14.5264    0.0000 C   0  0  0  0  0  0  0  0  0  0  0  0
   11.2288  -15.4551    0.0000 C   0  0  0  0  0  0  0  0  0  0  0  0
    9.9816  -16.2884    0.0000 C   0  0  0  0  0  0  0  0  0  0  0  0
    8.6728  -17.0213    0.0000 C   0  0  0  0  0  0  0  0  0  0  0  0
    7.3106  -17.6493    0.0000 C   0  0  0  0  0  0  0  0  0  0  0  0
    5.9033  -18.1685    0.0000 C   0  0  0  0  0  0  0  0  0  0  0  0
    4.4596  -18.5757    0.0000 C   0  0  0  0  0  0  0  0  0  0  0  0
    2.9884  -18.8683    0.0000 C   0  0  0  0  0  0  0  0  0  0  0  0
    1.4988  -19.0446    0.0000 C   0  0  0  0  0  0  0  0  0  0  0  0
   -0.0000  -19.1035    0.0000 C   0  0  0  0  0  0  0  0  0  0  0  0
   -1.4988  -19.0446    0.0000 C   0  0  0  0  0  0  0  0  0  0  0  0
   -2.9884  -18.8683    0.0000 C   0  0  0  0  0  0  0  0  0  0  0  0
   -4.4596  -18.5757    0.0000 C   0  0  0  0  0  0  0  0  0  0  0  0
   -5.9033  -18.1685    0.0000 C   0  0  0  0  0  0  0  0  0  0  0  0
   -7.3106  -17.6493    0.0000 C   0  0  0  0  0  0  0  0  0  0  0  0
   -8.6728  -17.0213    0.0000 C   0  0  0  0  0  0  0  0  0  0  0  0
   -9.9816  -16.2884    0.0000 C   0  0  0  0  0  0  0  0  0  0  0  0
  -11.2288  -15.4551    0.0000 C   0  0  0  0  0  0  0  0  0  0  0  0
  -12.4067  -14.5264    0.0000 C   0  0  0  0  0  0  0  0  0  0  0  0
  -13.5082  -13.5082    0.0000 C   0  0  0  0  0  0  0  0  0  0  0  0
  -14.5264  -12.4067    0.0000 C   0  0  0  0  0  0  0  0  0  0  0  0
  -15.4551  -11.2288    0.0000 C   0  0  0  0  0  0  0  0  0  0  0  0
  -16.2884   -9.9816    0.0000 C   0  0  0  0  0  0  0  0  0  0  0  0
  -17.0213   -8.6728    0.0000 C   0  0  0  0  0  0  0  0  0  0  0  0
  -17.6493   -7.3106    0.0000 C   0  0  0  0  0  0  0  0  0  0  0  0
  -18.1685   -5.9033    0.0000 C   0  0  0  0  0  0  0  0  0  0  0  0
  -18.5757   -4.4596    0.0000 C   0  0  0  0  0  0  0  0  0  0  0  0
  -18.8683   -2.9884    0.0000 C   0  0  0  0  0  0  0  0  0  0  0  0
  -19.0446   -1.4988    0.0000 C   0  0  0  0  0  0  0  0  0  0  0  0
  -19.1035    0.0000    0.0000 C   0  0  0  0  0  0  0  0  0  0  0  0
  -19.0446    1.4988    0.0000 C   0  0  0  0  0  0  0  0  0  0  0  0
  -18.8683    2.9884    0.0000 C   0  0  0  0  0  0  0  0  0  0  0  0
  -18.5757    4.4596    0.0000 C   0  0  0  0  0  0  0  0  0  0  0  0
  -18.1685    5.9033    0.0000 C   0  0  0  0  0  0  0  0  0  0  0  0
  -17.6493    7.3106    0.0000 C   0  0  0  0  0  0  0  0  0  0  0  0
  -17.0213    8.6728    0.0000 C   0  0  0  0  0  0  0  0  0  0  0  0
  -16.2884    9.9816    0.0000 C   0  0  0  0  0  0  0  0  0  0  0  0
  -15.4551   11.2288    0.0000 C   0  0  0  0  0  0  0  0  0  0  0  0
  -14.5264   12.4067    0.0000 C   0  0  0  0  0  0  0  0  0  0  0  0
  -13.5082   13.5082    0.0000 C   0  0  0  0  0  0  0  0  0  0  0  0
  -12.4067   14.5264    0.0000 C   0  0  0  0  0  0  0  0  0  0  0  0
  -11.2288   15.4551    0.0000 C   0  0  0  0  0  0  0  0  0  0  0  0
   -9.9816   16.2884    0.0000 C   0  0  0  0  0  0  0  0  0  0  0  0
   -8.6728   17.0213    0.0000 C   0  0  0  0  0  0  0  0  0  0  0  0
   -7.3106   17.6493    0.0000 C   0  0  0  0  0  0  0  0  0  0  0  0
   -5.9033   18.1685    0.0000 C   0  0  0  0  0  0  0  0  0  0  0  0
   -4.4596   18.5757    0.0000 C   0  0  0  0  0  0  0  0  0  0  0  0
   -2.9884   18.8683    0.0000 C   0  0  0  0  0  0  0  0  0  0  0  0
   -1.4988   19.0446    0.0000 C   0  0  0  0  0  0  0  0  0  0  0  0
    0.0000   19.1035    0.0000 C   0  0  0  0  0  0  0  0  0  0  0  0
    1.4988   19.0446    0.0000 C   0  0  0  0  0  0  0  0  0  0  0  0
    2.9884   18.8683    0.0000 C   0  0  0  0  0  0  0  0  0  0  0  0
    4.4596   18.5757    0.0000 C   0  0  0  0  0  0  0  0  0  0  0  0
    5.9033   18.1685    0.0000 C   0  0  0  0  0  0  0  0  0  0  0  0
    7.3106   17.6493    0.0000 C   0  0  0  0  0  0  0  0  0  0  0  0
    8.6728   17.0213    0.0000 C   0  0  0  0  0  0  0  0  0  0  0  0
    9.9816   16.2884    0.0000 C   0  0  0  0  0  0  0  0  0  0  0  0
   11.2288   15.4551    0.0000 C   0  0  0  0  0  0  0  0  0  0  0  0
   12.4067   14.5264    0.0000 C   0  0  0  0  0  0  0  0  0  0  0  0
   13.5082   13.5082    0.0000 C   0  0  0  0  0  0  0  0  0  0  0  0
   14.5264   12.4067    0.0000 C   0  0  0  0  0  0  0  0  0  0  0  0
   15.4551   11.2288    0.0000 C   0  0  0  0  0  0  0  0  0  0  0  0
   16.2884    9.9816    0.0000 C   0  0  0  0  0  0  0  0  0  0  0  0
   17.0213    8.6728    0.0000 C   0  0  0  0  0  0  0  0  0  0  0  0
   17.6493    7.3106    0.0000 C   0  0  0  0  0  0  0  0  0  0  0  0
   18.1685    5.9033    0.0000 C   0  0  0  0  0  0  0  0  0  0  0  0
   18.5757    4.4596    0.0000 C   0  0  0  0  0  0  0  0  0  0  0  0
   18.8683    2.9884    0.0000 C   0  0  0  0  0  0  0  0  0  0  0  0
   19.0446    1.4988    0.0000 C   0  0  0  0  0  0  0  0  0  0  0  0
  1  2  1  0
  2  3  1  0
  3  4  1  0
  4  5  1  0
  5  6  1  0
  6  7  1  0
  7  8  1  0
  8  9  1  0
  9 10  1  0
 10 11  1  0
 11 12  1  0
 12 13  1  0
 13 14  1  0
 14 15  1  0
 15 16  1  0
 16 17  1  0
 17 18  1  0
 18 19  1  0
 19 20  1  0
 20 21  1  0
 21 22  1  0
 22 23  1  0
 23 24  1  0
 24 25  1  0
 25 26  1  0
 26 27  1  0
 27 28  1  0
 28 29  1  0
 29 30  1  0
 30 31  1  0
 31 32  1  0
 32 33  1  0
 33 34  1  0
 34 35  1  0
 35 36  1  0
 36 37  1  0
 37 38  1  0
 38 39  1  0
 39 40  1  0
 40 41  1  0
 41 42  1  0
 42 43  1  0
 43 44  1  0
 44 45  1  0
 45 46  1  0
 46 47  1  0
 47 48  1  0
 48 49  1  0
 49 50  1  0
 50 51  1  0
 51 52  1  0
 52 53  1  0
 53 54  1  0
 54 55  1  0
 55 56  1  0
 56 57  1  0
 57 58  1  0
 58 59  1  0
 59 60  1  0
 60 61  1  0
 61 62  1  0
 62 63  1  0
 63 64  1  0
 64 65  1  0
 65 66  1  0
 66 67  1  0
 67 68  1  0
 68 69  1  0
 69 70  1  0
 70 71  1  0
 71 72  1  0
 72 73  1  0
 73 74  1  0
 74 75  1  0
 75 76  1  0
 76 77  1  0
 77 78  1  0
 78 79  1  0
 79 80  1  0
 80 81  1  0
 81  2  1  0
M  END
>  <Title>  (1158) 
idABQTgen7

$$$$

     RDKit          2D

 53 53  0  0  0  0  0  0  0  0999 V2000
   13.9216    0.0000    0.0000 O   0  0  0  0  0  0  0  0  0  0  0  0
   12.4216    0.0000    0.0000 C   0  0  0  0  0  0  0  0  0  0  0  0
   12.3311   -1.4973    0.0000 C   0  0  0  0  0  0  0  0  0  0  0  0
   12.0607   -2.9727    0.0000 C   0  0  0  0  0  0  0  0  0  0  0  0
   11.6144   -4.4048    0.0000 C   0  0  0  0  0  0  0  0  0  0  0  0
   10.9988   -5.7726    0.0000 C   0  0  0  0  0  0  0  0  0  0  0  0
   10.2228   -7.0563    0.0000 C   0  0  0  0  0  0  0  0  0  0  0  0
    9.2977   -8.2371    0.0000 C   0  0  0  0  0  0  0  0  0  0  0  0
    8.2371   -9.2977    0.0000 C   0  0  0  0  0  0  0  0  0  0  0  0
    7.0563  -10.2228    0.0000 C   0  0  0  0  0  0  0  0  0  0  0  0
    5.7726  -10.9988    0.0000 C   0  0  0  0  0  0  0  0  0  0  0  0
    4.4048  -11.6144    0.0000 C   0  0  0  0  0  0  0  0  0  0  0  0
    2.9727  -12.0607    0.0000 C   0  0  0  0  0  0  0  0  0  0  0  0
    1.4973  -12.3311    0.0000 C   0  0  0  0  0  0  0  0  0  0  0  0
   -0.0000  -12.4216    0.0000 C   0  0  0  0  0  0  0  0  0  0  0  0
   -1.4973  -12.3311    0.0000 C   0  0  0  0  0  0  0  0  0  0  0  0
   -2.9727  -12.0607    0.0000 C   0  0  0  0  0  0  0  0  0  0  0  0
   -4.4048  -11.6144    0.0000 C   0  0  0  0  0  0  0  0  0  0  0  0
   -5.7726  -10.9988    0.0000 C   0  0  0  0  0  0  0  0  0  0  0  0
   -7.0563  -10.2228    0.0000 C   0  0  0  0  0  0  0  0  0  0  0  0
   -8.2371   -9.2977    0.0000 C   0  0  0  0  0  0  0  0  0  0  0  0
   -9.2977   -8.2371    0.0000 C   0  0  0  0  0  0  0  0  0  0  0  0
  -10.2228   -7.0563    0.0000 C   0  0  0  0  0  0  0  0  0  0  0  0
  -10.9988   -5.7726    0.0000 C   0  0  0  0  0  0  0  0  0  0  0  0
  -11.6144   -4.4048    0.0000 C   0  0  0  0  0  0  0  0  0  0  0  0
  -12.0607   -2.9727    0.0000 C   0  0  0  0  0  0  0  0  0  0  0  0
  -12.3311   -1.4973    0.0000 C   0  0  0  0  0  0  0  0  0  0  0  0
  -12.4216    0.0000    0.0000 C   0  0  0  0  0  0  0  0  0  0  0  0
  -12.3311    1.4973    0.0000 C   0  0  0  0  0  0  0  0  0  0  0  0
  -12.0607    2.9727    0.0000 C   0  0  0  0  0  0  0  0  0  0  0  0
  -11.6144    4.4048    0.0000 C   0  0  0  0  0  0  0  0  0  0  0  0
  -10.9988    5.7726    0.0000 C   0  0  0  0  0  0  0  0  0  0  0  0
  -10.2228    7.0563    0.0000 C   0  0  0  0  0  0  0  0  0  0  0  0
   -9.2977    8.2371    0.0000 C   0  0  0  0  0  0  0  0  0  0  0  0
   -8.2371    9.2977    0.0000 C   0  0  0  0  0  0  0  0  0  0  0  0
   -7.0563   10.2228    0.0000 C   0  0  0  0  0  0  0  0  0  0  0  0
   -5.7726   10.9988    0.0000 C   0  0  0  0  0  0  0  0  0  0  0  0
   -4.4048   11.6144    0.0000 C   0  0  0  0  0  0  0  0  0  0  0  0
   -2.9727   12.0607    0.0000 C   0  0  0  0  0  0  0  0  0  0  0  0
   -1.4973   12.3311    0.0000 C   0  0  0  0  0  0  0  0  0  0  0  0
    0.0000   12.4216    0.0000 C   0  0  0  0  0  0  0  0  0  0  0  0
    1.4973   12.3311    0.0000 C   0  0  0  0  0  0  0  0  0  0  0  0
    2.9727   12.0607    0.0000 C   0  0  0  0  0  0  0  0  0  0  0  0
    4.4048   11.6144    0.0000 C   0  0  0  0  0  0  0  0  0  0  0  0
    5.7726   10.9988    0.0000 C   0  0  0  0  0  0  0  0  0  0  0  0
    7.0563   10.2228    0.0000 C   0  0  0  0  0  0  0  0  0  0  0  0
    8.2371    9.2977    0.0000 C   0  0  0  0  0  0  0  0  0  0  0  0
    9.2977    8.2371    0.0000 C   0  0  0  0  0  0  0  0  0  0  0  0
   10.2228    7.0563    0.0000 C   0  0  0  0  0  0  0  0  0  0  0  0
   10.9988    5.7726    0.0000 C   0  0  0  0  0  0  0  0  0  0  0  0
   11.6144    4.4048    0.0000 C   0  0  0  0  0  0  0  0  0  0  0  0
   12.0607    2.9727    0.0000 C   0  0  0  0  0  0  0  0  0  0  0  0
   12.3311    1.4973    0.0000 C   0  0  0  0  0  0  0  0  0  0  0  0
  1  2  1  0
  2  3  1  0
  3  4  1  0
  4  5  1  0
  5  6  1  0
  6  7  1  0
  7  8  1  0
  8  9  1  0
  9 10  1  0
 10 11  1  0
 11 12  1  0
 12 13  1  0
 13 14  1  0
 14 15  1  0
 15 16  1  0
 16 17  1  0
 17 18  1  0
 18 19  1  0
 19 20  1  0
 20 21  1  0
 21 22  1  0
 22 23  1  0
 23 24  1  0
 24 25  1  0
 25 26  1  0
 26 27  1  0
 27 28  1  0
 28 29  1  0
 29 30  1  0
 30 31  1  0
 31 32  1  0
 32 33  1  0
 33 34  1  0
 34 35  1  0
 35 36  1  0
 36 37  1  0
 37 38  1  0
 38 39  1  0
 39 40  1  0
 40 41  1  0
 41 42  1  0
 42 43  1  0
 43 44  1  0
 44 45  1  0
 45 46  1  0
 46 47  1  0
 47 48  1  0
 48 49  1  0
 49 50  1  0
 50 51  1  0
 51 52  1  0
 52 53  1  0
 53  2  1  0
M  END
>  <Title>  (1159) 
idABQUgen7

$$$$

     RDKit          2D

 21 23  0  0  0  0  0  0  0  0999 V2000
    3.6172   -9.8037    0.0000 O   0  0  0  0  0  0  0  0  0  0  0  0
    4.8308   -8.9221    0.0000 C   0  0  0  0  0  0  0  0  0  0  0  0
    4.6740   -7.4303    0.0000 N   0  0  0  0  0  0  0  0  0  0  0  0
    3.3037   -6.8202    0.0000 C   0  0  0  0  0  0  0  0  0  0  0  0
    2.0046   -7.5702    0.0000 C   0  0  0  0  0  0  0  0  0  0  0  0
    0.8899   -6.5665    0.0000 C   0  0  0  0  0  0  0  0  0  0  0  0
    1.5000   -5.1962    0.0000 C   0  0  0  0  0  0  0  0  0  0  0  0
    0.7500   -3.8971    0.0000 C   0  0  0  0  0  0  0  0  0  0  0  0
   -0.7500   -3.8971    0.0000 O   0  0  0  0  0  0  0  0  0  0  0  0
    1.5000   -2.5981    0.0000 N   0  0  0  0  0  0  0  0  0  0  0  0
    0.7500   -1.2990    0.0000 C   0  0  0  0  0  0  0  0  0  0  0  0
    1.5000    0.0000    0.0000 N   0  0  0  0  0  0  0  0  0  0  0  0
    0.7500    1.2990    0.0000 N   0  0  0  0  0  0  0  0  0  0  0  0
   -0.7500    1.2990    0.0000 N   0  0  0  0  0  0  0  0  0  0  0  0
   -1.5000    0.0000    0.0000 N   0  0  0  0  0  0  0  0  0  0  0  0
   -0.7500   -1.2990    0.0000 N   0  0  0  0  0  0  0  0  0  0  0  0
    2.9918   -5.3529    0.0000 C   0  0  0  0  0  0  0  0  0  0  0  0
    6.2011   -9.5322    0.0000 C   0  0  0  0  0  0  0  0  0  0  0  0
    7.6929   -9.3754    0.0000 C   0  0  0  0  0  0  0  0  0  0  0  0
    8.9064   -8.4937    0.0000 O   0  0  0  0  0  0  0  0  0  0  0  0
    7.0828  -10.7457    0.0000 C   0  0  0  0  0  0  0  0  0  0  0  0
  1  2  2  0
  2  3  1  0
  3  4  1  0
  4  5  1  0
  5  6  1  0
  6  7  1  0
  7  8  1  0
  8  9  2  0
  8 10  1  0
 10 11  1  0
 11 12  2  0
 12 13  1  0
 13 14  2  0
 14 15  1  0
 15 16  2  0
  7 17  1  0
  2 18  1  0
 18 19  2  0
 19 20  1  0
 19 21  1  0
 17  4  1  0
 21 18  1  0
 16 11  1  0
M  END
>  <Title>  (1160) 
idABQVgen7

$$$$

     RDKit          2D

 33 33  0  0  0  0  0  0  0  0999 V2000
    9.1517    0.0000    0.0000 C   0  0  0  0  0  0  0  0  0  0  0  0
    7.6517    0.0000    0.0000 C   0  0  0  0  0  0  0  0  0  0  0  0
    7.5047   -1.4928    0.0000 C   0  0  0  0  0  0  0  0  0  0  0  0
    7.0693   -2.9282    0.0000 C   0  0  0  0  0  0  0  0  0  0  0  0
    6.3622   -4.2511    0.0000 C   0  0  0  0  0  0  0  0  0  0  0  0
    5.4106   -5.4106    0.0000 C   0  0  0  0  0  0  0  0  0  0  0  0
    4.2511   -6.3622    0.0000 C   0  0  0  0  0  0  0  0  0  0  0  0
    2.9282   -7.0693    0.0000 C   0  0  0  0  0  0  0  0  0  0  0  0
    1.4928   -7.5047    0.0000 C   0  0  0  0  0  0  0  0  0  0  0  0
   -0.0000   -7.6517    0.0000 C   0  0  0  0  0  0  0  0  0  0  0  0
   -1.4928   -7.5047    0.0000 C   0  0  0  0  0  0  0  0  0  0  0  0
   -2.9282   -7.0693    0.0000 C   0  0  0  0  0  0  0  0  0  0  0  0
   -4.2511   -6.3622    0.0000 C   0  0  0  0  0  0  0  0  0  0  0  0
   -5.4106   -5.4106    0.0000 C   0  0  0  0  0  0  0  0  0  0  0  0
   -6.3622   -4.2511    0.0000 C   0  0  0  0  0  0  0  0  0  0  0  0
   -7.0693   -2.9282    0.0000 C   0  0  0  0  0  0  0  0  0  0  0  0
   -7.5047   -1.4928    0.0000 C   0  0  0  0  0  0  0  0  0  0  0  0
   -7.6517    0.0000    0.0000 C   0  0  0  0  0  0  0  0  0  0  0  0
   -7.5047    1.4928    0.0000 C   0  0  0  0  0  0  0  0  0  0  0  0
   -7.0693    2.9282    0.0000 C   0  0  0  0  0  0  0  0  0  0  0  0
   -6.3622    4.2511    0.0000 C   0  0  0  0  0  0  0  0  0  0  0  0
   -5.4106    5.4106    0.0000 C   0  0  0  0  0  0  0  0  0  0  0  0
   -4.2511    6.3622    0.0000 C   0  0  0  0  0  0  0  0  0  0  0  0
   -2.9282    7.0693    0.0000 C   0  0  0  0  0  0  0  0  0  0  0  0
   -1.4928    7.5047    0.0000 C   0  0  0  0  0  0  0  0  0  0  0  0
    0.0000    7.6517    0.0000 C   0  0  0  0  0  0  0  0  0  0  0  0
    1.4928    7.5047    0.0000 C   0  0  0  0  0  0  0  0  0  0  0  0
    2.9282    7.0693    0.0000 C   0  0  0  0  0  0  0  0  0  0  0  0
    4.2511    6.3622    0.0000 C   0  0  0  0  0  0  0  0  0  0  0  0
    5.4106    5.4106    0.0000 C   0  0  0  0  0  0  0  0  0  0  0  0
    6.3622    4.2511    0.0000 C   0  0  0  0  0  0  0  0  0  0  0  0
    7.0693    2.9282    0.0000 C   0  0  0  0  0  0  0  0  0  0  0  0
    7.5047    1.4928    0.0000 C   0  0  0  0  0  0  0  0  0  0  0  0
  1  2  1  0
  2  3  1  0
  3  4  2  0
  4  5  1  0
  5  6  2  0
  6  7  1  0
  7  8  2  0
  8  9  1  0
  9 10  2  0
 10 11  1  0
 11 12  2  0
 12 13  1  0
 13 14  2  0
 14 15  1  0
 15 16  2  0
 16 17  1  0
 17 18  2  0
 18 19  1  0
 19 20  2  0
 20 21  1  0
 21 22  2  0
 22 23  1  0
 23 24  2  0
 24 25  1  0
 25 26  1  0
 26 27  1  0
 27 28  1  0
 28 29  1  0
 29 30  1  0
 30 31  1  0
 31 32  1  0
 32 33  1  0
 33  2  1  0
M  END
>  <Title>  (1161) 
idABQWgen7

$$$$

     RDKit          2D

 14 15  0  0  0  0  0  0  0  0999 V2000
    2.7760    0.0000    0.0000 O   0  0  0  0  0  0  0  0  0  0  0  0
    1.2760    0.0000    0.0000 C   0  0  0  0  0  0  0  0  0  0  0  0
    0.3943    1.2135    0.0000 C   0  0  0  0  0  0  0  0  0  0  0  0
   -1.0323    0.7500    0.0000 C   0  0  0  0  0  0  0  0  0  0  0  0
   -1.0323   -0.7500    0.0000 C   0  0  0  0  0  0  0  0  0  0  0  0
    0.3943   -1.2135    0.0000 C   0  0  0  0  0  0  0  0  0  0  0  0
    0.8578   -2.6401    0.0000 C   0  0  0  0  0  0  0  0  0  0  0  0
    2.3250   -2.9520    0.0000 O   0  0  0  0  0  0  0  0  0  0  0  0
   -0.1459   -3.7548    0.0000 N   0  0  0  0  0  0  0  0  0  0  0  0
    0.3177   -5.1814    0.0000 C   0  0  0  0  0  0  0  0  0  0  0  0
    1.7442   -5.6449    0.0000 C   0  0  0  0  0  0  0  0  0  0  0  0
    1.7442   -7.1449    0.0000 C   0  0  0  0  0  0  0  0  0  0  0  0
    0.3177   -7.6085    0.0000 C   0  0  0  0  0  0  0  0  0  0  0  0
   -0.5640   -6.3949    0.0000 C   0  0  0  0  0  0  0  0  0  0  0  0
  1  2  2  0
  2  3  1  0
  3  4  1  0
  4  5  1  0
  5  6  2  0
  6  7  1  0
  7  8  2  0
  7  9  1  0
  9 10  1  0
 10 11  2  0
 11 12  1  0
 12 13  1  0
 13 14  1  0
  6  2  1  0
 14 10  1  0
M  END
>  <Title>  (1162) 
idABQXgen7

$$$$

     RDKit          2D

 13 13  0  0  0  0  0  0  0  0999 V2000
   13.2760   -0.0000    0.0000 C   0  0  0  0  0  0  0  0  0  0  0  0
   11.7760   -0.0000    0.0000 C   0  0  0  0  0  0  0  0  0  0  0  0
   10.2760   -0.0000    0.0000 C   0  0  0  0  0  0  0  0  0  0  0  0
    8.7760   -0.0000    0.0000 C   0  0  0  0  0  0  0  0  0  0  0  0
    7.2760   -0.0000    0.0000 C   0  0  0  0  0  0  0  0  0  0  0  0
    5.7760   -0.0000    0.0000 C   0  0  0  0  0  0  0  0  0  0  0  0
    4.2760   -0.0000    0.0000 C   0  0  0  0  0  0  0  0  0  0  0  0
    2.7760    0.0000    0.0000 C   0  0  0  0  0  0  0  0  0  0  0  0
    1.2760    0.0000    0.0000 C   0  0  0  0  0  0  0  0  0  0  0  0
    0.3943    1.2135    0.0000 C   0  0  0  0  0  0  0  0  0  0  0  0
   -1.0323    0.7500    0.0000 C   0  0  0  0  0  0  0  0  0  0  0  0
   -1.0323   -0.7500    0.0000 C   0  0  0  0  0  0  0  0  0  0  0  0
    0.3943   -1.2135    0.0000 C   0  0  0  0  0  0  0  0  0  0  0  0
  1  2  3  0
  2  3  1  0
  3  4  3  0
  4  5  1  0
  5  6  3  0
  6  7  1  0
  7  8  3  0
  8  9  1  0
  9 10  2  0
 10 11  1  0
 11 12  1  0
 12 13  2  0
 13  9  1  0
M  END
>  <Title>  (1163) 
idABQYgen7

$$$$

     RDKit          2D

 94 94  0  0  0  0  0  0  0  0999 V2000
   22.4450    0.0000    0.0000 C   0  0  0  0  0  0  0  0  0  0  0  0
   22.3949   -1.4992    0.0000 C   0  0  0  0  0  0  0  0  0  0  0  0
   22.2448   -2.9916    0.0000 C   0  0  0  0  0  0  0  0  0  0  0  0
   21.9953   -4.4707    0.0000 C   0  0  0  0  0  0  0  0  0  0  0  0
   21.6475   -5.9299    0.0000 C   0  0  0  0  0  0  0  0  0  0  0  0
   21.2031   -7.3625    0.0000 C   0  0  0  0  0  0  0  0  0  0  0  0
   20.6640   -8.7623    0.0000 C   0  0  0  0  0  0  0  0  0  0  0  0
   20.0326  -10.1229    0.0000 C   0  0  0  0  0  0  0  0  0  0  0  0
   19.3117  -11.4384    0.0000 C   0  0  0  0  0  0  0  0  0  0  0  0
   18.5046  -12.7027    0.0000 C   0  0  0  0  0  0  0  0  0  0  0  0
   17.6148  -13.9103    0.0000 C   0  0  0  0  0  0  0  0  0  0  0  0
   16.6464  -15.0558    0.0000 C   0  0  0  0  0  0  0  0  0  0  0  0
   15.6036  -16.1340    0.0000 C   0  0  0  0  0  0  0  0  0  0  0  0
   14.4911  -17.1402    0.0000 C   0  0  0  0  0  0  0  0  0  0  0  0
   13.3139  -18.0698    0.0000 C   0  0  0  0  0  0  0  0  0  0  0  0
   12.0773  -18.9187    0.0000 C   0  0  0  0  0  0  0  0  0  0  0  0
   10.7867  -19.6832    0.0000 C   0  0  0  0  0  0  0  0  0  0  0  0
    9.4479  -20.3597    0.0000 C   0  0  0  0  0  0  0  0  0  0  0  0
    8.0669  -20.9453    0.0000 C   0  0  0  0  0  0  0  0  0  0  0  0
    6.6499  -21.4373    0.0000 C   0  0  0  0  0  0  0  0  0  0  0  0
    5.2032  -21.8336    0.0000 C   0  0  0  0  0  0  0  0  0  0  0  0
    3.7333  -22.1324    0.0000 C   0  0  0  0  0  0  0  0  0  0  0  0
    2.2467  -22.3323    0.0000 C   0  0  0  0  0  0  0  0  0  0  0  0
    0.7500  -22.4325    0.0000 C   0  0  0  0  0  0  0  0  0  0  0  0
   -0.7500  -22.4325    0.0000 C   0  0  0  0  0  0  0  0  0  0  0  0
   -2.2467  -22.3323    0.0000 C   0  0  0  0  0  0  0  0  0  0  0  0
   -3.7333  -22.1324    0.0000 C   0  0  0  0  0  0  0  0  0  0  0  0
   -5.2032  -21.8336    0.0000 C   0  0  0  0  0  0  0  0  0  0  0  0
   -6.6499  -21.4373    0.0000 C   0  0  0  0  0  0  0  0  0  0  0  0
   -8.0669  -20.9453    0.0000 C   0  0  0  0  0  0  0  0  0  0  0  0
   -9.4479  -20.3597    0.0000 C   0  0  0  0  0  0  0  0  0  0  0  0
  -10.7867  -19.6832    0.0000 C   0  0  0  0  0  0  0  0  0  0  0  0
  -12.0773  -18.9187    0.0000 C   0  0  0  0  0  0  0  0  0  0  0  0
  -13.3139  -18.0698    0.0000 C   0  0  0  0  0  0  0  0  0  0  0  0
  -14.4911  -17.1402    0.0000 C   0  0  0  0  0  0  0  0  0  0  0  0
  -15.6036  -16.1340    0.0000 C   0  0  0  0  0  0  0  0  0  0  0  0
  -16.6464  -15.0558    0.0000 C   0  0  0  0  0  0  0  0  0  0  0  0
  -17.6148  -13.9103    0.0000 C   0  0  0  0  0  0  0  0  0  0  0  0
  -18.5046  -12.7027    0.0000 C   0  0  0  0  0  0  0  0  0  0  0  0
  -19.3117  -11.4384    0.0000 C   0  0  0  0  0  0  0  0  0  0  0  0
  -20.0326  -10.1229    0.0000 C   0  0  0  0  0  0  0  0  0  0  0  0
  -20.6640   -8.7623    0.0000 C   0  0  0  0  0  0  0  0  0  0  0  0
  -21.2031   -7.3625    0.0000 C   0  0  0  0  0  0  0  0  0  0  0  0
  -21.6475   -5.9299    0.0000 C   0  0  0  0  0  0  0  0  0  0  0  0
  -21.9953   -4.4707    0.0000 C   0  0  0  0  0  0  0  0  0  0  0  0
  -22.2448   -2.9916    0.0000 C   0  0  0  0  0  0  0  0  0  0  0  0
  -22.3949   -1.4992    0.0000 C   0  0  0  0  0  0  0  0  0  0  0  0
  -22.4450    0.0000    0.0000 C   0  0  0  0  0  0  0  0  0  0  0  0
  -22.3949    1.4992    0.0000 C   0  0  0  0  0  0  0  0  0  0  0  0
  -22.2448    2.9916    0.0000 C   0  0  0  0  0  0  0  0  0  0  0  0
  -21.9953    4.4707    0.0000 C   0  0  0  0  0  0  0  0  0  0  0  0
  -21.6475    5.9299    0.0000 C   0  0  0  0  0  0  0  0  0  0  0  0
  -21.2031    7.3625    0.0000 C   0  0  0  0  0  0  0  0  0  0  0  0
  -20.6640    8.7623    0.0000 C   0  0  0  0  0  0  0  0  0  0  0  0
  -20.0326   10.1229    0.0000 C   0  0  0  0  0  0  0  0  0  0  0  0
  -19.3117   11.4384    0.0000 C   0  0  0  0  0  0  0  0  0  0  0  0
  -18.5046   12.7027    0.0000 C   0  0  0  0  0  0  0  0  0  0  0  0
  -17.6148   13.9103    0.0000 C   0  0  0  0  0  0  0  0  0  0  0  0
  -16.6464   15.0558    0.0000 C   0  0  0  0  0  0  0  0  0  0  0  0
  -15.6036   16.1340    0.0000 C   0  0  0  0  0  0  0  0  0  0  0  0
  -14.4911   17.1402    0.0000 C   0  0  0  0  0  0  0  0  0  0  0  0
  -13.3139   18.0698    0.0000 C   0  0  0  0  0  0  0  0  0  0  0  0
  -12.0773   18.9187    0.0000 C   0  0  0  0  0  0  0  0  0  0  0  0
  -10.7867   19.6832    0.0000 C   0  0  0  0  0  0  0  0  0  0  0  0
   -9.4479   20.3597    0.0000 C   0  0  0  0  0  0  0  0  0  0  0  0
   -8.0669   20.9453    0.0000 C   0  0  0  0  0  0  0  0  0  0  0  0
   -6.6499   21.4373    0.0000 C   0  0  0  0  0  0  0  0  0  0  0  0
   -5.2032   21.8336    0.0000 C   0  0  0  0  0  0  0  0  0  0  0  0
   -3.7333   22.1324    0.0000 C   0  0  0  0  0  0  0  0  0  0  0  0
   -2.2467   22.3323    0.0000 C   0  0  0  0  0  0  0  0  0  0  0  0
   -0.7500   22.4325    0.0000 C   0  0  0  0  0  0  0  0  0  0  0  0
    0.7500   22.4325    0.0000 C   0  0  0  0  0  0  0  0  0  0  0  0
    2.2467   22.3323    0.0000 C   0  0  0  0  0  0  0  0  0  0  0  0
    3.7333   22.1324    0.0000 C   0  0  0  0  0  0  0  0  0  0  0  0
    5.2032   21.8336    0.0000 C   0  0  0  0  0  0  0  0  0  0  0  0
    6.6499   21.4373    0.0000 C   0  0  0  0  0  0  0  0  0  0  0  0
    8.0669   20.9453    0.0000 C   0  0  0  0  0  0  0  0  0  0  0  0
    9.4479   20.3597    0.0000 C   0  0  0  0  0  0  0  0  0  0  0  0
   10.7867   19.6832    0.0000 C   0  0  0  0  0  0  0  0  0  0  0  0
   12.0773   18.9187    0.0000 C   0  0  0  0  0  0  0  0  0  0  0  0
   13.3139   18.0698    0.0000 C   0  0  0  0  0  0  0  0  0  0  0  0
   14.4911   17.1402    0.0000 C   0  0  0  0  0  0  0  0  0  0  0  0
   15.6036   16.1340    0.0000 C   0  0  0  0  0  0  0  0  0  0  0  0
   16.6464   15.0558    0.0000 C   0  0  0  0  0  0  0  0  0  0  0  0
   17.6148   13.9103    0.0000 C   0  0  0  0  0  0  0  0  0  0  0  0
   18.5046   12.7027    0.0000 C   0  0  0  0  0  0  0  0  0  0  0  0
   19.3117   11.4384    0.0000 C   0  0  0  0  0  0  0  0  0  0  0  0
   20.0326   10.1229    0.0000 C   0  0  0  0  0  0  0  0  0  0  0  0
   20.6640    8.7623    0.0000 C   0  0  0  0  0  0  0  0  0  0  0  0
   21.2031    7.3625    0.0000 C   0  0  0  0  0  0  0  0  0  0  0  0
   21.6475    5.9299    0.0000 C   0  0  0  0  0  0  0  0  0  0  0  0
   21.9953    4.4707    0.0000 C   0  0  0  0  0  0  0  0  0  0  0  0
   22.2448    2.9916    0.0000 C   0  0  0  0  0  0  0  0  0  0  0  0
   22.3949    1.4992    0.0000 C   0  0  0  0  0  0  0  0  0  0  0  0
  1  2  1  0
  2  3  1  0
  3  4  1  0
  4  5  1  0
  5  6  1  0
  6  7  1  0
  7  8  1  0
  8  9  1  0
  9 10  1  0
 10 11  1  0
 11 12  1  0
 12 13  1  0
 13 14  1  0
 14 15  1  0
 15 16  1  0
 16 17  1  0
 17 18  1  0
 18 19  1  0
 19 20  1  0
 20 21  1  0
 21 22  1  0
 22 23  1  0
 23 24  1  0
 24 25  1  0
 25 26  1  0
 26 27  1  0
 27 28  1  0
 28 29  1  0
 29 30  1  0
 30 31  1  0
 31 32  1  0
 32 33  1  0
 33 34  1  0
 34 35  1  0
 35 36  1  0
 36 37  1  0
 37 38  1  0
 38 39  1  0
 39 40  1  0
 40 41  1  0
 41 42  1  0
 42 43  1  0
 43 44  1  0
 44 45  1  0
 45 46  1  0
 46 47  1  0
 47 48  1  0
 48 49  1  0
 49 50  1  0
 50 51  1  0
 51 52  1  0
 52 53  1  0
 53 54  1  0
 54 55  1  0
 55 56  1  0
 56 57  1  0
 57 58  1  0
 58 59  1  0
 59 60  1  0
 60 61  1  0
 61 62  1  0
 62 63  1  0
 63 64  1  0
 64 65  1  0
 65 66  1  0
 66 67  1  0
 67 68  1  0
 68 69  1  0
 69 70  1  0
 70 71  1  0
 71 72  1  0
 72 73  1  0
 73 74  1  0
 74 75  1  0
 75 76  1  0
 76 77  1  0
 77 78  1  0
 78 79  1  0
 79 80  1  0
 80 81  1  0
 81 82  1  0
 82 83  1  0
 83 84  1  0
 84 85  1  0
 85 86  1  0
 86 87  1  0
 87 88  1  0
 88 89  1  0
 89 90  1  0
 90 91  1  0
 91 92  1  0
 92 93  1  0
 93 94  1  0
 94  1  1  0
M  END
>  <Title>  (1164) 
idABQZgen7

$$$$

     RDKit          2D

  9  8  0  0  0  0  0  0  0  0999 V2000
    0.0000    0.0000    0.0000 C   0  0  0  0  0  0  0  0  0  0  0  0
    1.2990    0.7500    0.0000 C   0  0  0  0  0  0  0  0  0  0  0  0
    2.5981   -0.0000    0.0000 C   0  0  0  0  0  0  0  0  0  0  0  0
    3.8971    0.7500    0.0000 C   0  0  0  0  0  0  0  0  0  0  0  0
    5.1962   -0.0000    0.0000 C   0  0  0  0  0  0  0  0  0  0  0  0
    6.4952    0.7500    0.0000 C   0  0  0  0  0  0  0  0  0  0  0  0
    7.7942   -0.0000    0.0000 C   0  0  0  0  0  0  0  0  0  0  0  0
    9.0933    0.7500    0.0000 C   0  0  0  0  0  0  0  0  0  0  0  0
   10.3923   -0.0000    0.0000 C   0  0  0  0  0  0  0  0  0  0  0  0
  1  2  1  0
  2  3  1  0
  3  4  1  0
  4  5  1  0
  5  6  1  0
  6  7  1  0
  7  8  1  0
  8  9  1  0
M  END
>  <Title>  (1165) 
idABRAgen7

$$$$

     RDKit          2D

 16 17  0  0  0  0  0  0  0  0999 V2000
   -1.0607   -9.6313    0.0000 C   0  0  0  0  0  0  0  0  0  0  0  0
   -0.3107   -8.3323    0.0000 C   0  0  0  0  0  0  0  0  0  0  0  0
   -0.6989   -6.8834    0.0000 C   0  0  0  0  0  0  0  0  0  0  0  0
    0.7500   -6.4952    0.0000 C   0  0  0  0  0  0  0  0  0  0  0  0
    1.5000   -5.1962    0.0000 C   0  0  0  0  0  0  0  0  0  0  0  0
    0.7500   -3.8971    0.0000 C   0  0  0  0  0  0  0  0  0  0  0  0
   -0.7500   -3.8971    0.0000 O   0  0  0  0  0  0  0  0  0  0  0  0
    1.5000   -2.5981    0.0000 N   0  0  0  0  0  0  0  0  0  0  0  0
    0.7500   -1.2990    0.0000 C   0  0  0  0  0  0  0  0  0  0  0  0
    1.5000    0.0000    0.0000 N   0  0  0  0  0  0  0  0  0  0  0  0
    0.7500    1.2990    0.0000 N   0  0  0  0  0  0  0  0  0  0  0  0
   -0.7500    1.2990    0.0000 N   0  0  0  0  0  0  0  0  0  0  0  0
   -1.5000    0.0000    0.0000 N   0  0  0  0  0  0  0  0  0  0  0  0
   -0.7500   -1.2990    0.0000 N   0  0  0  0  0  0  0  0  0  0  0  0
    1.1382   -7.9441    0.0000 C   0  0  0  0  0  0  0  0  0  0  0  0
    2.4373   -8.6941    0.0000 O   0  0  0  0  0  0  0  0  0  0  0  0
  1  2  1  0
  2  3  1  0
  3  4  1  0
  4  5  1  0
  5  6  1  0
  6  7  2  0
  6  8  1  0
  8  9  1  0
  9 10  2  0
 10 11  1  0
 11 12  2  0
 12 13  1  0
 13 14  2  0
  4 15  1  0
 15 16  2  0
 15  2  1  0
 14  9  1  0
M  END
>  <Title>  (1166) 
idABRBgen7

$$$$

     RDKit          2D

 65 65  0  0  0  0  0  0  0  0999 V2000
   16.7850    0.0000    0.0000 C   0  0  0  0  0  0  0  0  0  0  0  0
   15.2850    0.0000    0.0000 C   0  0  0  0  0  0  0  0  0  0  0  0
   15.2114   -1.4982    0.0000 C   0  0  0  0  0  0  0  0  0  0  0  0
   14.9913   -2.9820    0.0000 C   0  0  0  0  0  0  0  0  0  0  0  0
   14.6268   -4.4370    0.0000 C   0  0  0  0  0  0  0  0  0  0  0  0
   14.1215   -5.8493    0.0000 C   0  0  0  0  0  0  0  0  0  0  0  0
   13.4802   -7.2053    0.0000 C   0  0  0  0  0  0  0  0  0  0  0  0
   12.7090   -8.4919    0.0000 C   0  0  0  0  0  0  0  0  0  0  0  0
   11.8155   -9.6967    0.0000 C   0  0  0  0  0  0  0  0  0  0  0  0
   10.8081  -10.8081    0.0000 C   0  0  0  0  0  0  0  0  0  0  0  0
    9.6967  -11.8155    0.0000 C   0  0  0  0  0  0  0  0  0  0  0  0
    8.4919  -12.7090    0.0000 C   0  0  0  0  0  0  0  0  0  0  0  0
    7.2053  -13.4802    0.0000 C   0  0  0  0  0  0  0  0  0  0  0  0
    5.8493  -14.1215    0.0000 C   0  0  0  0  0  0  0  0  0  0  0  0
    4.4370  -14.6268    0.0000 C   0  0  0  0  0  0  0  0  0  0  0  0
    2.9820  -14.9913    0.0000 C   0  0  0  0  0  0  0  0  0  0  0  0
    1.4982  -15.2114    0.0000 C   0  0  0  0  0  0  0  0  0  0  0  0
   -0.0000  -15.2850    0.0000 C   0  0  0  0  0  0  0  0  0  0  0  0
   -1.4982  -15.2114    0.0000 C   0  0  0  0  0  0  0  0  0  0  0  0
   -2.9820  -14.9913    0.0000 C   0  0  0  0  0  0  0  0  0  0  0  0
   -4.4370  -14.6268    0.0000 C   0  0  0  0  0  0  0  0  0  0  0  0
   -5.8493  -14.1215    0.0000 C   0  0  0  0  0  0  0  0  0  0  0  0
   -7.2053  -13.4802    0.0000 C   0  0  0  0  0  0  0  0  0  0  0  0
   -8.4919  -12.7090    0.0000 C   0  0  0  0  0  0  0  0  0  0  0  0
   -9.6967  -11.8155    0.0000 C   0  0  0  0  0  0  0  0  0  0  0  0
  -10.8081  -10.8081    0.0000 C   0  0  0  0  0  0  0  0  0  0  0  0
  -11.8155   -9.6967    0.0000 C   0  0  0  0  0  0  0  0  0  0  0  0
  -12.7090   -8.4919    0.0000 C   0  0  0  0  0  0  0  0  0  0  0  0
  -13.4802   -7.2053    0.0000 C   0  0  0  0  0  0  0  0  0  0  0  0
  -14.1215   -5.8493    0.0000 C   0  0  0  0  0  0  0  0  0  0  0  0
  -14.6268   -4.4370    0.0000 C   0  0  0  0  0  0  0  0  0  0  0  0
  -14.9913   -2.9820    0.0000 C   0  0  0  0  0  0  0  0  0  0  0  0
  -15.2114   -1.4982    0.0000 C   0  0  0  0  0  0  0  0  0  0  0  0
  -15.2850    0.0000    0.0000 C   0  0  0  0  0  0  0  0  0  0  0  0
  -15.2114    1.4982    0.0000 C   0  0  0  0  0  0  0  0  0  0  0  0
  -14.9913    2.9820    0.0000 C   0  0  0  0  0  0  0  0  0  0  0  0
  -14.6268    4.4370    0.0000 C   0  0  0  0  0  0  0  0  0  0  0  0
  -14.1215    5.8493    0.0000 C   0  0  0  0  0  0  0  0  0  0  0  0
  -13.4802    7.2053    0.0000 C   0  0  0  0  0  0  0  0  0  0  0  0
  -12.7090    8.4919    0.0000 C   0  0  0  0  0  0  0  0  0  0  0  0
  -11.8155    9.6967    0.0000 C   0  0  0  0  0  0  0  0  0  0  0  0
  -10.8081   10.8081    0.0000 C   0  0  0  0  0  0  0  0  0  0  0  0
   -9.6967   11.8155    0.0000 C   0  0  0  0  0  0  0  0  0  0  0  0
   -8.4919   12.7090    0.0000 C   0  0  0  0  0  0  0  0  0  0  0  0
   -7.2053   13.4802    0.0000 C   0  0  0  0  0  0  0  0  0  0  0  0
   -5.8493   14.1215    0.0000 C   0  0  0  0  0  0  0  0  0  0  0  0
   -4.4370   14.6268    0.0000 C   0  0  0  0  0  0  0  0  0  0  0  0
   -2.9820   14.9913    0.0000 C   0  0  0  0  0  0  0  0  0  0  0  0
   -1.4982   15.2114    0.0000 C   0  0  0  0  0  0  0  0  0  0  0  0
    0.0000   15.2850    0.0000 C   0  0  0  0  0  0  0  0  0  0  0  0
    1.4982   15.2114    0.0000 C   0  0  0  0  0  0  0  0  0  0  0  0
    2.9820   14.9913    0.0000 C   0  0  0  0  0  0  0  0  0  0  0  0
    4.4370   14.6268    0.0000 C   0  0  0  0  0  0  0  0  0  0  0  0
    5.8493   14.1215    0.0000 C   0  0  0  0  0  0  0  0  0  0  0  0
    7.2053   13.4802    0.0000 C   0  0  0  0  0  0  0  0  0  0  0  0
    8.4919   12.7090    0.0000 C   0  0  0  0  0  0  0  0  0  0  0  0
    9.6967   11.8155    0.0000 C   0  0  0  0  0  0  0  0  0  0  0  0
   10.8081   10.8081    0.0000 C   0  0  0  0  0  0  0  0  0  0  0  0
   11.8155    9.6967    0.0000 C   0  0  0  0  0  0  0  0  0  0  0  0
   12.7090    8.4919    0.0000 C   0  0  0  0  0  0  0  0  0  0  0  0
   13.4802    7.2053    0.0000 C   0  0  0  0  0  0  0  0  0  0  0  0
   14.1215    5.8493    0.0000 C   0  0  0  0  0  0  0  0  0  0  0  0
   14.6268    4.4370    0.0000 C   0  0  0  0  0  0  0  0  0  0  0  0
   14.9913    2.9820    0.0000 C   0  0  0  0  0  0  0  0  0  0  0  0
   15.2114    1.4982    0.0000 C   0  0  0  0  0  0  0  0  0  0  0  0
  1  2  1  0
  2  3  1  0
  3  4  1  0
  4  5  1  0
  5  6  1  0
  6  7  1  0
  7  8  1  0
  8  9  1  0
  9 10  1  0
 10 11  1  0
 11 12  1  0
 12 13  1  0
 13 14  1  0
 14 15  1  0
 15 16  1  0
 16 17  1  0
 17 18  1  0
 18 19  1  0
 19 20  1  0
 20 21  1  0
 21 22  1  0
 22 23  1  0
 23 24  1  0
 24 25  1  0
 25 26  1  0
 26 27  1  0
 27 28  1  0
 28 29  1  0
 29 30  1  0
 30 31  1  0
 31 32  1  0
 32 33  1  0
 33 34  1  0
 34 35  1  0
 35 36  1  0
 36 37  1  0
 37 38  1  0
 38 39  1  0
 39 40  1  0
 40 41  1  0
 41 42  1  0
 42 43  1  0
 43 44  1  0
 44 45  1  0
 45 46  1  0
 46 47  1  0
 47 48  1  0
 48 49  1  0
 49 50  1  0
 50 51  1  0
 51 52  1  0
 52 53  1  0
 53 54  1  0
 54 55  1  0
 55 56  1  0
 56 57  1  0
 57 58  1  0
 58 59  1  0
 59 60  1  0
 60 61  1  0
 61 62  1  0
 62 63  1  0
 63 64  1  0
 64 65  1  0
 65  2  1  0
M  END
>  <Title>  (1167) 
idABRCgen7

$$$$

     RDKit          2D

 25 27  0  0  0  0  0  0  0  0999 V2000
   -2.2502   -7.3547    0.0000 C   0  0  0  0  0  0  0  0  0  0  0  0
   -1.4392   -6.0928    0.0000 C   0  0  0  0  0  0  0  0  0  0  0  0
   -0.0000   -6.5154    0.0000 C   0  0  0  0  0  0  0  0  0  0  0  0
    1.4392   -6.0928    0.0000 C   0  0  0  0  0  0  0  0  0  0  0  0
    2.4215   -4.9592    0.0000 C   0  0  0  0  0  0  0  0  0  0  0  0
    2.6350   -3.4744    0.0000 C   0  0  0  0  0  0  0  0  0  0  0  0
    2.0119   -2.1100    0.0000 C   0  0  0  0  0  0  0  0  0  0  0  0
    0.7500   -1.2990    0.0000 C   0  0  0  0  0  0  0  0  0  0  0  0
    1.5000    0.0000    0.0000 C   0  0  0  0  0  0  0  0  0  0  0  0
    0.7500    1.2990    0.0000 C   0  0  0  0  0  0  0  0  0  0  0  0
   -0.7500    1.2990    0.0000 C   0  0  0  0  0  0  0  0  0  0  0  0
   -1.5000    0.0000    0.0000 C   0  0  0  0  0  0  0  0  0  0  0  0
   -0.7500   -1.2990    0.0000 C   0  0  0  0  0  0  0  0  0  0  0  0
   -2.0119   -2.1100    0.0000 C   0  0  0  0  0  0  0  0  0  0  0  0
   -3.1455   -1.1277    0.0000 C   0  0  0  0  0  0  0  0  0  0  0  0
   -2.8616    0.3452    0.0000 O   0  0  0  0  0  0  0  0  0  0  0  0
   -4.5630   -1.6183    0.0000 N   0  0  0  0  0  0  0  0  0  0  0  0
   -5.6966   -0.6360    0.0000 C   0  0  0  0  0  0  0  0  0  0  0  0
   -5.4128    0.8369    0.0000 N   0  0  0  0  0  0  0  0  0  0  0  0
   -6.5464    1.8192    0.0000 N   0  0  0  0  0  0  0  0  0  0  0  0
   -7.9639    1.3286    0.0000 N   0  0  0  0  0  0  0  0  0  0  0  0
   -8.2478   -0.1443    0.0000 N   0  0  0  0  0  0  0  0  0  0  0  0
   -7.1141   -1.1266    0.0000 N   0  0  0  0  0  0  0  0  0  0  0  0
   -2.6350   -3.4744    0.0000 C   0  0  0  0  0  0  0  0  0  0  0  0
   -2.4215   -4.9592    0.0000 C   0  0  0  0  0  0  0  0  0  0  0  0
  1  2  1  0
  2  3  1  0
  3  4  1  0
  4  5  2  0
  5  6  1  0
  6  7  2  0
  7  8  1  0
  8  9  2  0
  9 10  1  0
 10 11  2  0
 11 12  1  0
 12 13  2  0
 13 14  1  0
 14 15  1  0
 15 16  2  0
 15 17  1  0
 17 18  1  0
 18 19  2  0
 19 20  1  0
 20 21  2  0
 21 22  1  0
 22 23  2  0
 14 24  1  0
 24 25  1  0
 25  2  1  0
 13  8  1  0
 23 18  1  0
M  END
>  <Title>  (1168) 
idABRDgen7

$$$$

     RDKit          2D

 20 21  0  0  0  0  0  0  0  0999 V2000
   -1.2064  -13.2657    0.0000 C   0  0  0  0  0  0  0  0  0  0  0  0
   -1.0496  -11.7739    0.0000 C   0  0  0  0  0  0  0  0  0  0  0  0
    0.3207  -11.1638    0.0000 C   0  0  0  0  0  0  0  0  0  0  0  0
    0.4775   -9.6721    0.0000 C   0  0  0  0  0  0  0  0  0  0  0  0
    1.8478   -9.0619    0.0000 C   0  0  0  0  0  0  0  0  0  0  0  0
    3.0613   -9.9436    0.0000 O   0  0  0  0  0  0  0  0  0  0  0  0
    2.0046   -7.5702    0.0000 N   0  0  0  0  0  0  0  0  0  0  0  0
    3.3037   -6.8202    0.0000 C   0  0  0  0  0  0  0  0  0  0  0  0
    2.9918   -5.3529    0.0000 C   0  0  0  0  0  0  0  0  0  0  0  0
    1.5000   -5.1962    0.0000 C   0  0  0  0  0  0  0  0  0  0  0  0
    0.7500   -3.8971    0.0000 C   0  0  0  0  0  0  0  0  0  0  0  0
   -0.7500   -3.8971    0.0000 O   0  0  0  0  0  0  0  0  0  0  0  0
    1.5000   -2.5981    0.0000 N   0  0  0  0  0  0  0  0  0  0  0  0
    0.7500   -1.2990    0.0000 C   0  0  0  0  0  0  0  0  0  0  0  0
    1.5000    0.0000    0.0000 N   0  0  0  0  0  0  0  0  0  0  0  0
    0.7500    1.2990    0.0000 N   0  0  0  0  0  0  0  0  0  0  0  0
   -0.7500    1.2990    0.0000 N   0  0  0  0  0  0  0  0  0  0  0  0
   -1.5000    0.0000    0.0000 N   0  0  0  0  0  0  0  0  0  0  0  0
   -0.7500   -1.2990    0.0000 N   0  0  0  0  0  0  0  0  0  0  0  0
    0.8899   -6.5665    0.0000 C   0  0  0  0  0  0  0  0  0  0  0  0
  1  2  2  0
  2  3  1  0
  3  4  1  0
  4  5  1  0
  5  6  2  0
  5  7  1  0
  7  8  1  0
  8  9  1  0
  9 10  1  0
 10 11  1  0
 11 12  2  0
 11 13  1  0
 13 14  1  0
 14 15  2  0
 15 16  1  0
 16 17  2  0
 17 18  1  0
 18 19  2  0
 10 20  1  0
 20  7  1  0
 19 14  1  0
M  END
>  <Title>  (1169) 
idABREgen7

$$$$

     RDKit          2D

  9  9  0  0  0  0  0  0  0  0999 V2000
    5.0260   -1.2990    0.0000 O   0  0  0  0  0  0  0  0  0  0  0  0
    3.5260   -1.2990    0.0000 C   0  0  0  0  0  0  0  0  0  0  0  0
    2.7760    0.0000    0.0000 C   0  0  0  0  0  0  0  0  0  0  0  0
    3.5260    1.2990    0.0000 O   0  0  0  0  0  0  0  0  0  0  0  0
    1.2760    0.0000    0.0000 C   0  0  0  0  0  0  0  0  0  0  0  0
    0.3943    1.2135    0.0000 C   0  0  0  0  0  0  0  0  0  0  0  0
   -1.0323    0.7500    0.0000 C   0  0  0  0  0  0  0  0  0  0  0  0
   -1.0323   -0.7500    0.0000 C   0  0  0  0  0  0  0  0  0  0  0  0
    0.3943   -1.2135    0.0000 C   0  0  0  0  0  0  0  0  0  0  0  0
  1  2  1  0
  2  3  1  0
  3  4  1  0
  3  5  1  0
  5  6  2  0
  6  7  1  0
  7  8  1  0
  8  9  1  0
  9  5  1  0
M  END
>  <Title>  (1170) 
idABRFgen7

$$$$

     RDKit          2D

 33 33  0  0  0  0  0  0  0  0999 V2000
    8.6751   -0.0000    0.0000 C   0  0  0  0  0  0  0  0  0  0  0  0
    7.1751    0.0000    0.0000 C   0  0  0  0  0  0  0  0  0  0  0  0
    7.0183   -1.4918    0.0000 C   0  0  0  0  0  0  0  0  0  0  0  0
    6.5548   -2.9184    0.0000 C   0  0  0  0  0  0  0  0  0  0  0  0
    5.8048   -4.2174    0.0000 C   0  0  0  0  0  0  0  0  0  0  0  0
    4.8011   -5.3321    0.0000 C   0  0  0  0  0  0  0  0  0  0  0  0
    3.5875   -6.2138    0.0000 C   0  0  0  0  0  0  0  0  0  0  0  0
    2.2172   -6.8239    0.0000 C   0  0  0  0  0  0  0  0  0  0  0  0
    0.7500   -7.1358    0.0000 C   0  0  0  0  0  0  0  0  0  0  0  0
   -0.7500   -7.1358    0.0000 C   0  0  0  0  0  0  0  0  0  0  0  0
   -2.2172   -6.8239    0.0000 C   0  0  0  0  0  0  0  0  0  0  0  0
   -3.5875   -6.2138    0.0000 C   0  0  0  0  0  0  0  0  0  0  0  0
   -4.8011   -5.3321    0.0000 C   0  0  0  0  0  0  0  0  0  0  0  0
   -5.8048   -4.2174    0.0000 C   0  0  0  0  0  0  0  0  0  0  0  0
   -6.5548   -2.9184    0.0000 C   0  0  0  0  0  0  0  0  0  0  0  0
   -7.0183   -1.4918    0.0000 C   0  0  0  0  0  0  0  0  0  0  0  0
   -7.1751    0.0000    0.0000 C   0  0  0  0  0  0  0  0  0  0  0  0
   -7.0183    1.4918    0.0000 C   0  0  0  0  0  0  0  0  0  0  0  0
   -6.5548    2.9184    0.0000 C   0  0  0  0  0  0  0  0  0  0  0  0
   -5.8048    4.2174    0.0000 C   0  0  0  0  0  0  0  0  0  0  0  0
   -4.8011    5.3321    0.0000 C   0  0  0  0  0  0  0  0  0  0  0  0
   -3.5875    6.2138    0.0000 C   0  0  0  0  0  0  0  0  0  0  0  0
   -2.2172    6.8239    0.0000 C   0  0  0  0  0  0  0  0  0  0  0  0
   -0.7500    7.1358    0.0000 C   0  0  0  0  0  0  0  0  0  0  0  0
    0.7500    7.1358    0.0000 C   0  0  0  0  0  0  0  0  0  0  0  0
    2.2172    6.8239    0.0000 C   0  0  0  0  0  0  0  0  0  0  0  0
    3.5875    6.2138    0.0000 C   0  0  0  0  0  0  0  0  0  0  0  0
    4.3375    7.5128    0.0000 C   0  0  0  0  0  0  0  0  0  0  0  0
    4.8011    5.3321    0.0000 C   0  0  0  0  0  0  0  0  0  0  0  0
    5.8048    4.2174    0.0000 C   0  0  0  0  0  0  0  0  0  0  0  0
    7.0183    5.0991    0.0000 C   0  0  0  0  0  0  0  0  0  0  0  0
    6.5548    2.9184    0.0000 C   0  0  0  0  0  0  0  0  0  0  0  0
    7.0183    1.4918    0.0000 C   0  0  0  0  0  0  0  0  0  0  0  0
  1  2  1  0
  2  3  1  0
  3  4  1  0
  4  5  1  0
  5  6  1  0
  6  7  1  0
  7  8  1  0
  8  9  1  0
  9 10  1  0
 10 11  1  0
 11 12  1  0
 12 13  1  0
 13 14  1  0
 14 15  1  0
 15 16  1  0
 16 17  1  0
 17 18  1  0
 18 19  1  0
 19 20  1  0
 20 21  1  0
 21 22  1  0
 22 23  1  0
 23 24  1  0
 24 25  1  0
 25 26  1  0
 26 27  1  0
 27 28  1  0
 27 29  1  0
 29 30  1  0
 30 31  1  0
 30 32  1  0
 32 33  1  0
 33  2  1  0
M  END
>  <Title>  (1171) 
idABRGgen7

$$$$

     RDKit          2D

 58 58  0  0  0  0  0  0  0  0999 V2000
   16.3760   -0.0000    0.0000 N   0  0  0  0  0  0  0  0  0  0  0  0
   14.8760    0.0000    0.0000 C   0  0  0  0  0  0  0  0  0  0  0  0
   13.3760    0.0000    0.0000 C   0  0  0  0  0  0  0  0  0  0  0  0
   13.2919   -1.4976    0.0000 C   0  0  0  0  0  0  0  0  0  0  0  0
   13.0407   -2.9764    0.0000 C   0  0  0  0  0  0  0  0  0  0  0  0
   12.6254   -4.4178    0.0000 C   0  0  0  0  0  0  0  0  0  0  0  0
   12.0514   -5.8036    0.0000 C   0  0  0  0  0  0  0  0  0  0  0  0
   11.3258   -7.1165    0.0000 C   0  0  0  0  0  0  0  0  0  0  0  0
   10.4578   -8.3398    0.0000 C   0  0  0  0  0  0  0  0  0  0  0  0
    9.4583   -9.4583    0.0000 C   0  0  0  0  0  0  0  0  0  0  0  0
    8.3398  -10.4578    0.0000 C   0  0  0  0  0  0  0  0  0  0  0  0
    7.1165  -11.3258    0.0000 C   0  0  0  0  0  0  0  0  0  0  0  0
    5.8036  -12.0514    0.0000 C   0  0  0  0  0  0  0  0  0  0  0  0
    4.4178  -12.6254    0.0000 C   0  0  0  0  0  0  0  0  0  0  0  0
    2.9764  -13.0407    0.0000 C   0  0  0  0  0  0  0  0  0  0  0  0
    1.4976  -13.2919    0.0000 C   0  0  0  0  0  0  0  0  0  0  0  0
   -0.0000  -13.3760    0.0000 C   0  0  0  0  0  0  0  0  0  0  0  0
   -1.4976  -13.2919    0.0000 C   0  0  0  0  0  0  0  0  0  0  0  0
   -2.9764  -13.0407    0.0000 C   0  0  0  0  0  0  0  0  0  0  0  0
   -4.4178  -12.6254    0.0000 C   0  0  0  0  0  0  0  0  0  0  0  0
   -5.8036  -12.0514    0.0000 C   0  0  0  0  0  0  0  0  0  0  0  0
   -7.1165  -11.3258    0.0000 C   0  0  0  0  0  0  0  0  0  0  0  0
   -8.3398  -10.4578    0.0000 C   0  0  0  0  0  0  0  0  0  0  0  0
   -9.4583   -9.4583    0.0000 C   0  0  0  0  0  0  0  0  0  0  0  0
  -10.4578   -8.3398    0.0000 C   0  0  0  0  0  0  0  0  0  0  0  0
  -11.3258   -7.1165    0.0000 C   0  0  0  0  0  0  0  0  0  0  0  0
  -12.0514   -5.8036    0.0000 C   0  0  0  0  0  0  0  0  0  0  0  0
  -12.6254   -4.4178    0.0000 C   0  0  0  0  0  0  0  0  0  0  0  0
  -13.0407   -2.9764    0.0000 C   0  0  0  0  0  0  0  0  0  0  0  0
  -13.2919   -1.4976    0.0000 C   0  0  0  0  0  0  0  0  0  0  0  0
  -13.3760    0.0000    0.0000 C   0  0  0  0  0  0  0  0  0  0  0  0
  -13.2919    1.4976    0.0000 C   0  0  0  0  0  0  0  0  0  0  0  0
  -13.0407    2.9764    0.0000 C   0  0  0  0  0  0  0  0  0  0  0  0
  -12.6254    4.4178    0.0000 C   0  0  0  0  0  0  0  0  0  0  0  0
  -12.0514    5.8036    0.0000 C   0  0  0  0  0  0  0  0  0  0  0  0
  -11.3258    7.1165    0.0000 C   0  0  0  0  0  0  0  0  0  0  0  0
  -10.4578    8.3398    0.0000 C   0  0  0  0  0  0  0  0  0  0  0  0
   -9.4583    9.4583    0.0000 C   0  0  0  0  0  0  0  0  0  0  0  0
   -8.3398   10.4578    0.0000 C   0  0  0  0  0  0  0  0  0  0  0  0
   -7.1165   11.3258    0.0000 C   0  0  0  0  0  0  0  0  0  0  0  0
   -5.8036   12.0514    0.0000 C   0  0  0  0  0  0  0  0  0  0  0  0
   -4.4178   12.6254    0.0000 C   0  0  0  0  0  0  0  0  0  0  0  0
   -2.9764   13.0407    0.0000 C   0  0  0  0  0  0  0  0  0  0  0  0
   -1.4976   13.2919    0.0000 C   0  0  0  0  0  0  0  0  0  0  0  0
    0.0000   13.3760    0.0000 C   0  0  0  0  0  0  0  0  0  0  0  0
    1.4976   13.2919    0.0000 C   0  0  0  0  0  0  0  0  0  0  0  0
    2.9764   13.0407    0.0000 C   0  0  0  0  0  0  0  0  0  0  0  0
    4.4178   12.6254    0.0000 C   0  0  0  0  0  0  0  0  0  0  0  0
    5.8036   12.0514    0.0000 C   0  0  0  0  0  0  0  0  0  0  0  0
    7.1165   11.3258    0.0000 C   0  0  0  0  0  0  0  0  0  0  0  0
    8.3398   10.4578    0.0000 C   0  0  0  0  0  0  0  0  0  0  0  0
    9.4583    9.4583    0.0000 C   0  0  0  0  0  0  0  0  0  0  0  0
   10.4578    8.3398    0.0000 C   0  0  0  0  0  0  0  0  0  0  0  0
   11.3258    7.1165    0.0000 C   0  0  0  0  0  0  0  0  0  0  0  0
   12.0514    5.8036    0.0000 C   0  0  0  0  0  0  0  0  0  0  0  0
   12.6254    4.4178    0.0000 C   0  0  0  0  0  0  0  0  0  0  0  0
   13.0407    2.9764    0.0000 C   0  0  0  0  0  0  0  0  0  0  0  0
   13.2919    1.4976    0.0000 C   0  0  0  0  0  0  0  0  0  0  0  0
  1  2  3  0
  2  3  1  0
  3  4  1  0
  4  5  1  0
  5  6  1  0
  6  7  1  0
  7  8  1  0
  8  9  1  0
  9 10  1  0
 10 11  1  0
 11 12  1  0
 12 13  1  0
 13 14  1  0
 14 15  1  0
 15 16  1  0
 16 17  1  0
 17 18  1  0
 18 19  1  0
 19 20  1  0
 20 21  2  0
 21 22  1  0
 22 23  2  0
 23 24  1  0
 24 25  2  0
 25 26  1  0
 26 27  1  0
 27 28  1  0
 28 29  1  0
 29 30  1  0
 30 31  1  0
 31 32  1  0
 32 33  2  0
 33 34  1  0
 34 35  1  0
 35 36  1  0
 36 37  1  0
 37 38  1  0
 38 39  1  0
 39 40  1  0
 40 41  1  0
 41 42  1  0
 42 43  1  0
 43 44  1  0
 44 45  1  0
 45 46  1  0
 46 47  1  0
 47 48  1  0
 48 49  1  0
 49 50  1  0
 50 51  1  0
 51 52  1  0
 52 53  1  0
 53 54  1  0
 54 55  1  0
 55 56  1  0
 56 57  1  0
 57 58  1  0
 58  3  1  0
M  END
>  <Title>  (1172) 
idABRHgen7

$$$$

     RDKit          2D

 16 16  0  0  0  0  0  0  0  0999 V2000
    5.1073    0.0000    0.0000 C   0  0  0  0  0  0  0  0  0  0  0  0
    3.6073    0.0000    0.0000 C   0  0  0  0  0  0  0  0  0  0  0  0
    3.2954    1.4672    0.0000 C   0  0  0  0  0  0  0  0  0  0  0  0
    2.4138    2.6807    0.0000 C   0  0  0  0  0  0  0  0  0  0  0  0
    1.1147    3.4307    0.0000 C   0  0  0  0  0  0  0  0  0  0  0  0
   -0.3771    3.5875    0.0000 C   0  0  0  0  0  0  0  0  0  0  0  0
   -1.8037    3.1240    0.0000 C   0  0  0  0  0  0  0  0  0  0  0  0
   -2.9184    2.1203    0.0000 C   0  0  0  0  0  0  0  0  0  0  0  0
   -3.5285    0.7500    0.0000 C   0  0  0  0  0  0  0  0  0  0  0  0
   -3.5285   -0.7500    0.0000 C   0  0  0  0  0  0  0  0  0  0  0  0
   -2.9184   -2.1203    0.0000 C   0  0  0  0  0  0  0  0  0  0  0  0
   -1.8037   -3.1240    0.0000 C   0  0  0  0  0  0  0  0  0  0  0  0
   -0.3771   -3.5875    0.0000 C   0  0  0  0  0  0  0  0  0  0  0  0
    1.1147   -3.4307    0.0000 C   0  0  0  0  0  0  0  0  0  0  0  0
    2.4138   -2.6807    0.0000 C   0  0  0  0  0  0  0  0  0  0  0  0
    3.2954   -1.4672    0.0000 C   0  0  0  0  0  0  0  0  0  0  0  0
  1  2  1  0
  2  3  1  0
  3  4  1  0
  4  5  2  0
  5  6  1  0
  6  7  2  0
  7  8  1  0
  8  9  1  0
  9 10  1  0
 10 11  1  0
 11 12  1  0
 12 13  1  0
 13 14  1  0
 14 15  1  0
 15 16  1  0
 16  2  1  0
M  END
>  <Title>  (1173) 
idABRIgen7

$$$$

     RDKit          2D

  9  8  0  0  0  0  0  0  0  0999 V2000
    0.0000    0.0000    0.0000 C   0  0  0  0  0  0  0  0  0  0  0  0
    1.2990    0.7500    0.0000 C   0  0  0  0  0  0  0  0  0  0  0  0
    2.5981   -0.0000    0.0000 C   0  0  0  0  0  0  0  0  0  0  0  0
    3.8971    0.7500    0.0000 C   0  0  0  0  0  0  0  0  0  0  0  0
    5.1962   -0.0000    0.0000 C   0  0  0  0  0  0  0  0  0  0  0  0
    6.4952    0.7500    0.0000 C   0  0  0  0  0  0  0  0  0  0  0  0
    7.7942   -0.0000    0.0000 C   0  0  0  0  0  0  0  0  0  0  0  0
    9.0933    0.7500    0.0000 C   0  0  0  0  0  0  0  0  0  0  0  0
   10.3923   -0.0000    0.0000 C   0  0  0  0  0  0  0  0  0  0  0  0
  1  2  2  0
  2  3  1  0
  3  4  1  0
  4  5  1  0
  5  6  1  0
  6  7  1  0
  7  8  1  0
  8  9  1  0
M  END
>  <Title>  (1174) 
idABRJgen7

$$$$

     RDKit          2D

  7  7  0  0  0  0  0  0  0  0999 V2000
    3.5260   -1.2990    0.0000 C   0  0  0  0  0  0  0  0  0  0  0  0
    2.7760    0.0000    0.0000 C   0  0  0  0  0  0  0  0  0  0  0  0
    1.2760    0.0000    0.0000 C   0  0  0  0  0  0  0  0  0  0  0  0
    0.3943    1.2135    0.0000 C   0  0  0  0  0  0  0  0  0  0  0  0
   -1.0323    0.7500    0.0000 C   0  0  0  0  0  0  0  0  0  0  0  0
   -1.0323   -0.7500    0.0000 C   0  0  0  0  0  0  0  0  0  0  0  0
    0.3943   -1.2135    0.0000 C   0  0  0  0  0  0  0  0  0  0  0  0
  1  2  2  0
  2  3  1  0
  3  4  2  0
  4  5  1  0
  5  6  2  0
  6  7  1  0
  7  3  1  0
M  END
>  <Title>  (1175) 
idABRKgen7

$$$$

     RDKit          2D

 10 10  0  0  0  0  0  0  0  0999 V2000
    3.2286   -0.0000    0.0000 C   0  0  0  0  0  0  0  0  0  0  0  0
    1.7286    0.0000    0.0000 C   0  0  0  0  0  0  0  0  0  0  0  0
    1.0777    1.3515    0.0000 C   0  0  0  0  0  0  0  0  0  0  0  0
   -0.3846    1.6852    0.0000 C   0  0  0  0  0  0  0  0  0  0  0  0
   -1.5574    0.7500    0.0000 C   0  0  0  0  0  0  0  0  0  0  0  0
   -2.9088    1.4008    0.0000 O   0  0  0  0  0  0  0  0  0  0  0  0
   -1.5574   -0.7500    0.0000 C   0  0  0  0  0  0  0  0  0  0  0  0
   -0.3846   -1.6852    0.0000 C   0  0  0  0  0  0  0  0  0  0  0  0
    1.0777   -1.3515    0.0000 C   0  0  0  0  0  0  0  0  0  0  0  0
    2.0130   -2.5242    0.0000 C   0  0  0  0  0  0  0  0  0  0  0  0
  1  2  1  0
  2  3  1  0
  3  4  2  0
  4  5  1  0
  5  6  1  0
  5  7  1  0
  7  8  1  0
  8  9  1  0
  9 10  1  0
  9  2  1  0
M  END
>  <Title>  (1176) 
idABRLgen7

$$$$

     RDKit          2D

 98 99  0  0  0  0  0  0  0  0999 V2000
   22.0356    0.0000    0.0000 C   0  0  0  0  0  0  0  0  0  0  0  0
   20.5356    0.0000    0.0000 C   0  0  0  0  0  0  0  0  0  0  0  0
   20.4808   -1.4990    0.0000 C   0  0  0  0  0  0  0  0  0  0  0  0
   20.3167   -2.9900    0.0000 C   0  0  0  0  0  0  0  0  0  0  0  0
   20.0443   -4.4650    0.0000 C   0  0  0  0  0  0  0  0  0  0  0  0
   19.6649   -5.9163    0.0000 C   0  0  0  0  0  0  0  0  0  0  0  0
   19.1805   -7.3359    0.0000 C   0  0  0  0  0  0  0  0  0  0  0  0
   18.5939   -8.7165    0.0000 C   0  0  0  0  0  0  0  0  0  0  0  0
   17.9080  -10.0505    0.0000 C   0  0  0  0  0  0  0  0  0  0  0  0
   17.1266  -11.3309    0.0000 C   0  0  0  0  0  0  0  0  0  0  0  0
   16.2538  -12.5508    0.0000 C   0  0  0  0  0  0  0  0  0  0  0  0
   15.2943  -13.7038    0.0000 C   0  0  0  0  0  0  0  0  0  0  0  0
   14.2532  -14.7836    0.0000 C   0  0  0  0  0  0  0  0  0  0  0  0
   13.1360  -15.7846    0.0000 C   0  0  0  0  0  0  0  0  0  0  0  0
   11.9488  -16.7014    0.0000 C   0  0  0  0  0  0  0  0  0  0  0  0
   10.6978  -17.5290    0.0000 C   0  0  0  0  0  0  0  0  0  0  0  0
    9.3897  -18.2631    0.0000 C   0  0  0  0  0  0  0  0  0  0  0  0
    8.0316  -18.8998    0.0000 C   0  0  0  0  0  0  0  0  0  0  0  0
    6.6305  -19.4357    0.0000 C   0  0  0  0  0  0  0  0  0  0  0  0
    5.1941  -19.8678    0.0000 C   0  0  0  0  0  0  0  0  0  0  0  0
    3.7300  -20.1940    0.0000 C   0  0  0  0  0  0  0  0  0  0  0  0
    2.2460  -20.4124    0.0000 C   0  0  0  0  0  0  0  0  0  0  0  0
    0.7500  -20.5219    0.0000 C   0  0  0  0  0  0  0  0  0  0  0  0
   -0.7500  -20.5219    0.0000 C   0  0  0  0  0  0  0  0  0  0  0  0
   -2.2460  -20.4124    0.0000 C   0  0  0  0  0  0  0  0  0  0  0  0
   -3.7300  -20.1940    0.0000 C   0  0  0  0  0  0  0  0  0  0  0  0
   -5.1941  -19.8678    0.0000 C   0  0  0  0  0  0  0  0  0  0  0  0
   -6.6305  -19.4357    0.0000 C   0  0  0  0  0  0  0  0  0  0  0  0
   -8.0316  -18.8998    0.0000 C   0  0  0  0  0  0  0  0  0  0  0  0
   -9.3897  -18.2631    0.0000 C   0  0  0  0  0  0  0  0  0  0  0  0
  -10.6978  -17.5290    0.0000 C   0  0  0  0  0  0  0  0  0  0  0  0
  -11.9488  -16.7014    0.0000 C   0  0  0  0  0  0  0  0  0  0  0  0
  -13.1360  -15.7846    0.0000 C   0  0  0  0  0  0  0  0  0  0  0  0
  -14.2532  -14.7836    0.0000 C   0  0  0  0  0  0  0  0  0  0  0  0
  -15.2943  -13.7038    0.0000 C   0  0  0  0  0  0  0  0  0  0  0  0
  -16.2538  -12.5508    0.0000 C   0  0  0  0  0  0  0  0  0  0  0  0
  -17.1266  -11.3309    0.0000 C   0  0  0  0  0  0  0  0  0  0  0  0
  -17.9080  -10.0505    0.0000 C   0  0  0  0  0  0  0  0  0  0  0  0
  -18.5939   -8.7165    0.0000 C   0  0  0  0  0  0  0  0  0  0  0  0
  -19.1805   -7.3359    0.0000 C   0  0  0  0  0  0  0  0  0  0  0  0
  -19.6649   -5.9163    0.0000 C   0  0  0  0  0  0  0  0  0  0  0  0
  -20.0443   -4.4650    0.0000 C   0  0  0  0  0  0  0  0  0  0  0  0
  -20.3167   -2.9900    0.0000 C   0  0  0  0  0  0  0  0  0  0  0  0
  -20.4808   -1.4990    0.0000 C   0  0  0  0  0  0  0  0  0  0  0  0
  -20.5356    0.0000    0.0000 C   0  0  0  0  0  0  0  0  0  0  0  0
  -20.4808    1.4990    0.0000 C   0  0  0  0  0  0  0  0  0  0  0  0
  -20.3167    2.9900    0.0000 C   0  0  0  0  0  0  0  0  0  0  0  0
  -20.0443    4.4650    0.0000 C   0  0  0  0  0  0  0  0  0  0  0  0
  -19.6649    5.9163    0.0000 C   0  0  0  0  0  0  0  0  0  0  0  0
  -19.1805    7.3359    0.0000 C   0  0  0  0  0  0  0  0  0  0  0  0
  -18.5939    8.7165    0.0000 C   0  0  0  0  0  0  0  0  0  0  0  0
  -17.9080   10.0505    0.0000 C   0  0  0  0  0  0  0  0  0  0  0  0
  -17.1266   11.3309    0.0000 C   0  0  0  0  0  0  0  0  0  0  0  0
  -16.2538   12.5508    0.0000 C   0  0  0  0  0  0  0  0  0  0  0  0
  -15.2943   13.7038    0.0000 C   0  0  0  0  0  0  0  0  0  0  0  0
  -14.2532   14.7836    0.0000 C   0  0  0  0  0  0  0  0  0  0  0  0
  -13.1360   15.7846    0.0000 C   0  0  0  0  0  0  0  0  0  0  0  0
  -11.9488   16.7014    0.0000 C   0  0  0  0  0  0  0  0  0  0  0  0
  -10.6978   17.5290    0.0000 C   0  0  0  0  0  0  0  0  0  0  0  0
   -9.3897   18.2631    0.0000 C   0  0  0  0  0  0  0  0  0  0  0  0
   -8.0316   18.8998    0.0000 C   0  0  0  0  0  0  0  0  0  0  0  0
   -6.6305   19.4357    0.0000 C   0  0  0  0  0  0  0  0  0  0  0  0
   -5.1941   19.8678    0.0000 C   0  0  0  0  0  0  0  0  0  0  0  0
   -3.7300   20.1940    0.0000 C   0  0  0  0  0  0  0  0  0  0  0  0
   -2.2460   20.4124    0.0000 C   0  0  0  0  0  0  0  0  0  0  0  0
   -0.7500   20.5219    0.0000 C   0  0  0  0  0  0  0  0  0  0  0  0
    0.7500   20.5219    0.0000 C   0  0  0  0  0  0  0  0  0  0  0  0
    2.2460   20.4124    0.0000 C   0  0  0  0  0  0  0  0  0  0  0  0
    3.7300   20.1940    0.0000 C   0  0  0  0  0  0  0  0  0  0  0  0
    5.1941   19.8678    0.0000 C   0  0  0  0  0  0  0  0  0  0  0  0
    6.6305   19.4357    0.0000 C   0  0  0  0  0  0  0  0  0  0  0  0
    8.0316   18.8998    0.0000 C   0  0  0  0  0  0  0  0  0  0  0  0
    9.3897   18.2631    0.0000 C   0  0  0  0  0  0  0  0  0  0  0  0
   10.6978   17.5290    0.0000 C   0  0  0  0  0  0  0  0  0  0  0  0
   11.9488   16.7014    0.0000 C   0  0  0  0  0  0  0  0  0  0  0  0
   12.8216   17.9213    0.0000 N   0  0  0  0  0  0  0  0  0  0  0  0
   14.3145   17.7754    0.0000 C   0  0  0  0  0  0  0  0  0  0  0  0
   14.9346   16.4096    0.0000 O   0  0  0  0  0  0  0  0  0  0  0  0
   15.1873   18.9953    0.0000 C   0  0  0  0  0  0  0  0  0  0  0  0
   16.6483   18.6558    0.0000 C   0  0  0  0  0  0  0  0  0  0  0  0
   17.9215   19.4489    0.0000 C   0  0  0  0  0  0  0  0  0  0  0  0
   18.2610   20.9100    0.0000 C   0  0  0  0  0  0  0  0  0  0  0  0
   17.4680   22.1832    0.0000 C   0  0  0  0  0  0  0  0  0  0  0  0
   16.0069   22.5227    0.0000 C   0  0  0  0  0  0  0  0  0  0  0  0
   14.7337   21.7296    0.0000 C   0  0  0  0  0  0  0  0  0  0  0  0
   14.3942   20.2685    0.0000 C   0  0  0  0  0  0  0  0  0  0  0  0
   13.1360   15.7846    0.0000 C   0  0  0  0  0  0  0  0  0  0  0  0
   14.2532   14.7836    0.0000 C   0  0  0  0  0  0  0  0  0  0  0  0
   15.2943   13.7038    0.0000 C   0  0  0  0  0  0  0  0  0  0  0  0
   16.2538   12.5508    0.0000 C   0  0  0  0  0  0  0  0  0  0  0  0
   17.1266   11.3309    0.0000 C   0  0  0  0  0  0  0  0  0  0  0  0
   17.9080   10.0505    0.0000 C   0  0  0  0  0  0  0  0  0  0  0  0
   18.5939    8.7165    0.0000 C   0  0  0  0  0  0  0  0  0  0  0  0
   19.1805    7.3359    0.0000 C   0  0  0  0  0  0  0  0  0  0  0  0
   19.6649    5.9163    0.0000 C   0  0  0  0  0  0  0  0  0  0  0  0
   20.0443    4.4650    0.0000 C   0  0  0  0  0  0  0  0  0  0  0  0
   20.3167    2.9900    0.0000 C   0  0  0  0  0  0  0  0  0  0  0  0
   20.4808    1.4990    0.0000 C   0  0  0  0  0  0  0  0  0  0  0  0
  1  2  1  0
  2  3  1  0
  3  4  1  0
  4  5  1  0
  5  6  1  0
  6  7  1  0
  7  8  1  0
  8  9  1  0
  9 10  1  0
 10 11  1  0
 11 12  1  0
 12 13  1  0
 13 14  1  0
 14 15  1  0
 15 16  1  0
 16 17  1  0
 17 18  1  0
 18 19  1  0
 19 20  1  0
 20 21  1  0
 21 22  1  0
 22 23  1  0
 23 24  1  0
 24 25  1  0
 25 26  1  0
 26 27  1  0
 27 28  1  0
 28 29  1  0
 29 30  1  0
 30 31  1  0
 31 32  1  0
 32 33  1  0
 33 34  1  0
 34 35  1  0
 35 36  1  0
 36 37  1  0
 37 38  1  0
 38 39  1  0
 39 40  1  0
 40 41  1  0
 41 42  1  0
 42 43  1  0
 43 44  1  0
 44 45  1  0
 45 46  1  0
 46 47  1  0
 47 48  1  0
 48 49  1  0
 49 50  1  0
 50 51  1  0
 51 52  1  0
 52 53  1  0
 53 54  1  0
 54 55  1  0
 55 56  1  0
 56 57  1  0
 57 58  1  0
 58 59  1  0
 59 60  1  0
 60 61  1  0
 61 62  1  0
 62 63  1  0
 63 64  1  0
 64 65  1  0
 65 66  1  0
 66 67  1  0
 67 68  1  0
 68 69  1  0
 69 70  1  0
 70 71  1  0
 71 72  1  0
 72 73  1  0
 73 74  1  0
 74 75  1  0
 75 76  1  0
 76 77  1  0
 77 78  2  0
 77 79  1  0
 79 80  1  0
 80 81  1  0
 81 82  1  0
 82 83  1  0
 83 84  1  0
 84 85  1  0
 85 86  1  0
 75 87  1  0
 87 88  1  0
 88 89  1  0
 89 90  1  0
 90 91  1  0
 91 92  1  0
 92 93  1  0
 93 94  1  0
 94 95  1  0
 95 96  1  0
 96 97  1  0
 97 98  1  0
 98  2  1  0
 86 79  1  0
M  END
>  <Title>  (1177) 
idABRMgen7

$$$$

     RDKit          2D

 16 17  0  0  0  0  0  0  0  0999 V2000
   -2.5081   -6.0187    0.0000 C   0  0  0  0  0  0  0  0  0  0  0  0
   -1.0409   -5.7068    0.0000 C   0  0  0  0  0  0  0  0  0  0  0  0
   -0.0372   -6.8216    0.0000 O   0  0  0  0  0  0  0  0  0  0  0  0
   -0.5773   -4.2803    0.0000 N   0  0  0  0  0  0  0  0  0  0  0  0
    0.8899   -3.9684    0.0000 C   0  0  0  0  0  0  0  0  0  0  0  0
    2.0046   -4.9721    0.0000 N   0  0  0  0  0  0  0  0  0  0  0  0
    3.3037   -4.2221    0.0000 N   0  0  0  0  0  0  0  0  0  0  0  0
    2.9918   -2.7549    0.0000 N   0  0  0  0  0  0  0  0  0  0  0  0
    1.5000   -2.5981    0.0000 N   0  0  0  0  0  0  0  0  0  0  0  0
    0.7500   -1.2990    0.0000 C   0  0  0  0  0  0  0  0  0  0  0  0
    1.5000    0.0000    0.0000 C   0  0  0  0  0  0  0  0  0  0  0  0
    0.7500    1.2990    0.0000 C   0  0  0  0  0  0  0  0  0  0  0  0
   -0.7500    1.2990    0.0000 C   0  0  0  0  0  0  0  0  0  0  0  0
   -1.5000    0.0000    0.0000 C   0  0  0  0  0  0  0  0  0  0  0  0
   -0.7500   -1.2990    0.0000 C   0  0  0  0  0  0  0  0  0  0  0  0
   -1.5000   -2.5981    0.0000 C   0  0  0  0  0  0  0  0  0  0  0  0
  1  2  1  0
  2  3  2  0
  2  4  1  0
  4  5  1  0
  5  6  2  0
  6  7  1  0
  7  8  2  0
  8  9  1  0
  9 10  1  0
 10 11  2  0
 11 12  1  0
 12 13  2  0
 13 14  1  0
 14 15  2  0
 15 16  1  0
  9  5  1  0
 15 10  1  0
M  END
>  <Title>  (1178) 
idABRNgen7

$$$$

     RDKit          2D

 21 22  0  0  0  0  0  0  0  0999 V2000
    3.9271    0.0000    0.0000 C   0  0  0  0  0  0  0  0  0  0  0  0
    2.4271    0.0000    0.0000 C   0  0  0  0  0  0  0  0  0  0  0  0
    1.9635   -1.4266    0.0000 C   0  0  0  0  0  0  0  0  0  0  0  0
    0.7500   -2.3083    0.0000 C   0  0  0  0  0  0  0  0  0  0  0  0
   -0.7500   -2.3083    0.0000 C   0  0  0  0  0  0  0  0  0  0  0  0
   -1.9635   -1.4266    0.0000 C   0  0  0  0  0  0  0  0  0  0  0  0
   -3.1771   -2.3083    0.0000 O   0  0  0  0  0  0  0  0  0  0  0  0
   -2.4271    0.0000    0.0000 C   0  0  0  0  0  0  0  0  0  0  0  0
   -3.9271    0.0000    0.0000 C   0  0  0  0  0  0  0  0  0  0  0  0
   -4.6771   -1.2990    0.0000 O   0  0  0  0  0  0  0  0  0  0  0  0
   -4.6771    1.2990    0.0000 N   0  0  0  0  0  0  0  0  0  0  0  0
   -6.1771    1.2990    0.0000 C   0  0  0  0  0  0  0  0  0  0  0  0
   -6.9271    2.5981    0.0000 N   0  0  0  0  0  0  0  0  0  0  0  0
   -8.4271    2.5981    0.0000 N   0  0  0  0  0  0  0  0  0  0  0  0
   -9.1771    1.2990    0.0000 N   0  0  0  0  0  0  0  0  0  0  0  0
   -8.4271    0.0000    0.0000 N   0  0  0  0  0  0  0  0  0  0  0  0
   -6.9271    0.0000    0.0000 N   0  0  0  0  0  0  0  0  0  0  0  0
   -1.9635    1.4266    0.0000 C   0  0  0  0  0  0  0  0  0  0  0  0
   -0.7500    2.3083    0.0000 C   0  0  0  0  0  0  0  0  0  0  0  0
    0.7500    2.3083    0.0000 C   0  0  0  0  0  0  0  0  0  0  0  0
    1.9635    1.4266    0.0000 C   0  0  0  0  0  0  0  0  0  0  0  0
  1  2  1  0
  2  3  1  0
  3  4  2  0
  4  5  1  0
  5  6  1  0
  6  7  2  0
  6  8  1  0
  8  9  1  0
  9 10  2  0
  9 11  1  0
 11 12  1  0
 12 13  2  0
 13 14  1  0
 14 15  2  0
 15 16  1  0
 16 17  2  0
  8 18  1  0
 18 19  1  0
 19 20  1  0
 20 21  1  0
 21  2  1  0
 17 12  1  0
M  END
>  <Title>  (1179) 
idABROgen7

$$$$

     RDKit          2D

 11 11  0  0  0  0  0  0  0  0999 V2000
    3.9271    0.0000    0.0000 C   0  0  0  0  0  0  0  0  0  0  0  0
    2.4271    0.0000    0.0000 C   0  0  0  0  0  0  0  0  0  0  0  0
    1.9635   -1.4266    0.0000 C   0  0  0  0  0  0  0  0  0  0  0  0
    0.7500   -2.3083    0.0000 C   0  0  0  0  0  0  0  0  0  0  0  0
   -0.7500   -2.3083    0.0000 C   0  0  0  0  0  0  0  0  0  0  0  0
   -1.9635   -1.4266    0.0000 C   0  0  0  0  0  0  0  0  0  0  0  0
   -2.4271    0.0000    0.0000 C   0  0  0  0  0  0  0  0  0  0  0  0
   -1.9635    1.4266    0.0000 C   0  0  0  0  0  0  0  0  0  0  0  0
   -0.7500    2.3083    0.0000 C   0  0  0  0  0  0  0  0  0  0  0  0
    0.7500    2.3083    0.0000 C   0  0  0  0  0  0  0  0  0  0  0  0
    1.9635    1.4266    0.0000 C   0  0  0  0  0  0  0  0  0  0  0  0
  1  2  1  0
  2  3  1  0
  3  4  1  0
  4  5  2  0
  5  6  1  0
  6  7  2  0
  7  8  1  0
  8  9  1  0
  9 10  1  0
 10 11  1  0
 11  2  1  0
M  END
>  <Title>  (1180) 
idABRPgen7

$$$$

     RDKit          2D

 46 49  0  0  0  0  0  0  0  0999 V2000
   -3.0690    9.3873    0.0000 C   0  0  0  0  0  0  0  0  0  0  0  0
   -1.6525    8.8940    0.0000 C   0  0  0  0  0  0  0  0  0  0  0  0
   -0.9855   10.2375    0.0000 C   0  0  0  0  0  0  0  0  0  0  0  0
   -0.0054   11.3730    0.0000 C   0  0  0  0  0  0  0  0  0  0  0  0
    1.2263   12.2291    0.0000 C   0  0  0  0  0  0  0  0  0  0  0  0
    2.6323   12.7520    0.0000 C   0  0  0  0  0  0  0  0  0  0  0  0
    4.1241   12.9087    0.0000 C   0  0  0  0  0  0  0  0  0  0  0  0
    5.6080   12.6896    0.0000 C   0  0  0  0  0  0  0  0  0  0  0  0
    6.9908   12.1083    0.0000 C   0  0  0  0  0  0  0  0  0  0  0  0
    8.1856   11.2014    0.0000 C   0  0  0  0  0  0  0  0  0  0  0  0
    9.1173   10.0259    0.0000 C   0  0  0  0  0  0  0  0  0  0  0  0
    9.7274    8.6556    0.0000 C   0  0  0  0  0  0  0  0  0  0  0  0
    9.9775    7.1766    0.0000 C   0  0  0  0  0  0  0  0  0  0  0  0
    9.8520    5.6819    0.0000 C   0  0  0  0  0  0  0  0  0  0  0  0
    9.3587    4.2653    0.0000 C   0  0  0  0  0  0  0  0  0  0  0  0
    8.5286    3.0159    0.0000 C   0  0  0  0  0  0  0  0  0  0  0  0
    7.4139    2.0122    0.0000 C   0  0  0  0  0  0  0  0  0  0  0  0
    6.0846    1.3173    0.0000 C   0  0  0  0  0  0  0  0  0  0  0  0
    4.6242    0.9747    0.0000 C   0  0  0  0  0  0  0  0  0  0  0  0
    3.1246    1.0062    0.0000 C   0  0  0  0  0  0  0  0  0  0  0  0
    1.6798    1.4095    0.0000 C   0  0  0  0  0  0  0  0  0  0  0  0
    2.1929    0.0000    0.0000 N   0  0  0  0  0  0  0  0  0  0  0  0
    1.6798   -1.4095    0.0000 C   0  0  0  0  0  0  0  0  0  0  0  0
    0.3808   -2.1595    0.0000 C   0  0  0  0  0  0  0  0  0  0  0  0
   -1.0964   -1.8991    0.0000 C   0  0  0  0  0  0  0  0  0  0  0  0
   -2.0606   -0.7500    0.0000 C   0  0  0  0  0  0  0  0  0  0  0  0
   -2.0606    0.7500    0.0000 C   0  0  0  0  0  0  0  0  0  0  0  0
   -1.0964    1.8991    0.0000 C   0  0  0  0  0  0  0  0  0  0  0  0
    0.3808    2.1595    0.0000 C   0  0  0  0  0  0  0  0  0  0  0  0
   -0.6909    3.2090    0.0000 C   0  0  0  0  0  0  0  0  0  0  0  0
   -1.4680    4.4921    0.0000 C   0  0  0  0  0  0  0  0  0  0  0  0
   -2.8383    3.8820    0.0000 C   0  0  0  0  0  0  0  0  0  0  0  0
   -4.0518    4.7637    0.0000 O   0  0  0  0  0  0  0  0  0  0  0  0
   -2.9951    2.3902    0.0000 N   0  0  0  0  0  0  0  0  0  0  0  0
   -4.3654    1.7801    0.0000 C   0  0  0  0  0  0  0  0  0  0  0  0
   -5.5789    2.6618    0.0000 N   0  0  0  0  0  0  0  0  0  0  0  0
   -6.9492    2.0517    0.0000 N   0  0  0  0  0  0  0  0  0  0  0  0
   -7.1060    0.5599    0.0000 N   0  0  0  0  0  0  0  0  0  0  0  0
   -5.8925   -0.3218    0.0000 N   0  0  0  0  0  0  0  0  0  0  0  0
   -4.5222    0.2883    0.0000 N   0  0  0  0  0  0  0  0  0  0  0  0
   -1.9015    5.9281    0.0000 C   0  0  0  0  0  0  0  0  0  0  0  0
   -3.1680    5.1243    0.0000 C   0  0  0  0  0  0  0  0  0  0  0  0
   -4.4973    5.8193    0.0000 C   0  0  0  0  0  0  0  0  0  0  0  0
   -4.5601    7.3179    0.0000 C   0  0  0  0  0  0  0  0  0  0  0  0
   -3.2936    8.1217    0.0000 C   0  0  0  0  0  0  0  0  0  0  0  0
   -1.9643    7.4267    0.0000 C   0  0  0  0  0  0  0  0  0  0  0  0
  1  2  1  0
  2  3  1  0
  3  4  1  0
  4  5  1  0
  5  6  1  0
  6  7  1  0
  7  8  1  0
  8  9  1  0
  9 10  1  0
 10 11  2  0
 11 12  1  0
 12 13  2  0
 13 14  1  0
 14 15  2  0
 15 16  1  0
 16 17  2  0
 17 18  1  0
 18 19  2  0
 19 20  1  0
 20 21  2  0
 21 22  1  0
 22 23  2  0
 23 24  1  0
 24 25  2  0
 25 26  1  0
 26 27  2  0
 27 28  1  0
 28 29  2  0
 29 30  1  0
 30 31  2  0
 31 32  1  0
 32 33  2  0
 32 34  1  0
 34 35  1  0
 35 36  2  0
 36 37  1  0
 37 38  2  0
 38 39  1  0
 39 40  2  0
 31 41  1  0
 41 42  2  0
 42 43  1  0
 43 44  2  0
 44 45  1  0
 45 46  2  0
 46  2  1  0
 29 21  1  0
 40 35  1  0
 46 41  1  0
M  END
>  <Title>  (1181) 
idABRQgen7

$$$$

     RDKit          2D

  6  6  0  0  0  0  0  0  0  0999 V2000
    2.7760    0.0000    0.0000 C   0  0  0  0  0  0  0  0  0  0  0  0
    1.2760    0.0000    0.0000 C   0  0  0  0  0  0  0  0  0  0  0  0
    0.3943    1.2135    0.0000 C   0  0  0  0  0  0  0  0  0  0  0  0
   -1.0323    0.7500    0.0000 C   0  0  0  0  0  0  0  0  0  0  0  0
   -1.0323   -0.7500    0.0000 C   0  0  0  0  0  0  0  0  0  0  0  0
    0.3943   -1.2135    0.0000 C   0  0  0  0  0  0  0  0  0  0  0  0
  1  2  1  0
  2  3  1  0
  3  4  2  0
  4  5  1  0
  5  6  2  0
  6  2  1  0
M  END
>  <Title>  (1182) 
idABRRgen7

$$$$

     RDKit          2D

 33 33  0  0  0  0  0  0  0  0999 V2000
    9.1517    0.0000    0.0000 O   0  0  0  0  0  0  0  0  0  0  0  0
    7.6517    0.0000    0.0000 C   0  0  0  0  0  0  0  0  0  0  0  0
    7.5047   -1.4928    0.0000 C   0  0  0  0  0  0  0  0  0  0  0  0
    7.0693   -2.9282    0.0000 C   0  0  0  0  0  0  0  0  0  0  0  0
    6.3622   -4.2511    0.0000 C   0  0  0  0  0  0  0  0  0  0  0  0
    5.4106   -5.4106    0.0000 C   0  0  0  0  0  0  0  0  0  0  0  0
    4.2511   -6.3622    0.0000 C   0  0  0  0  0  0  0  0  0  0  0  0
    2.9282   -7.0693    0.0000 C   0  0  0  0  0  0  0  0  0  0  0  0
    1.4928   -7.5047    0.0000 C   0  0  0  0  0  0  0  0  0  0  0  0
   -0.0000   -7.6517    0.0000 C   0  0  0  0  0  0  0  0  0  0  0  0
   -1.4928   -7.5047    0.0000 C   0  0  0  0  0  0  0  0  0  0  0  0
   -2.9282   -7.0693    0.0000 C   0  0  0  0  0  0  0  0  0  0  0  0
   -4.2511   -6.3622    0.0000 C   0  0  0  0  0  0  0  0  0  0  0  0
   -5.4106   -5.4106    0.0000 C   0  0  0  0  0  0  0  0  0  0  0  0
   -6.3622   -4.2511    0.0000 C   0  0  0  0  0  0  0  0  0  0  0  0
   -7.0693   -2.9282    0.0000 C   0  0  0  0  0  0  0  0  0  0  0  0
   -7.5047   -1.4928    0.0000 C   0  0  0  0  0  0  0  0  0  0  0  0
   -7.6517    0.0000    0.0000 C   0  0  0  0  0  0  0  0  0  0  0  0
   -7.5047    1.4928    0.0000 C   0  0  0  0  0  0  0  0  0  0  0  0
   -7.0693    2.9282    0.0000 C   0  0  0  0  0  0  0  0  0  0  0  0
   -6.3622    4.2511    0.0000 C   0  0  0  0  0  0  0  0  0  0  0  0
   -5.4106    5.4106    0.0000 C   0  0  0  0  0  0  0  0  0  0  0  0
   -4.2511    6.3622    0.0000 C   0  0  0  0  0  0  0  0  0  0  0  0
   -2.9282    7.0693    0.0000 C   0  0  0  0  0  0  0  0  0  0  0  0
   -1.4928    7.5047    0.0000 C   0  0  0  0  0  0  0  0  0  0  0  0
    0.0000    7.6517    0.0000 C   0  0  0  0  0  0  0  0  0  0  0  0
    1.4928    7.5047    0.0000 C   0  0  0  0  0  0  0  0  0  0  0  0
    2.9282    7.0693    0.0000 C   0  0  0  0  0  0  0  0  0  0  0  0
    4.2511    6.3622    0.0000 C   0  0  0  0  0  0  0  0  0  0  0  0
    5.4106    5.4106    0.0000 C   0  0  0  0  0  0  0  0  0  0  0  0
    6.3622    4.2511    0.0000 C   0  0  0  0  0  0  0  0  0  0  0  0
    7.0693    2.9282    0.0000 C   0  0  0  0  0  0  0  0  0  0  0  0
    7.5047    1.4928    0.0000 C   0  0  0  0  0  0  0  0  0  0  0  0
  1  2  1  0
  2  3  2  0
  3  4  1  0
  4  5  1  0
  5  6  1  0
  6  7  1  0
  7  8  1  0
  8  9  1  0
  9 10  1  0
 10 11  1  0
 11 12  1  0
 12 13  1  0
 13 14  1  0
 14 15  1  0
 15 16  1  0
 16 17  1  0
 17 18  1  0
 18 19  1  0
 19 20  1  0
 20 21  1  0
 21 22  1  0
 22 23  1  0
 23 24  1  0
 24 25  1  0
 25 26  1  0
 26 27  1  0
 27 28  1  0
 28 29  1  0
 29 30  1  0
 30 31  1  0
 31 32  1  0
 32 33  1  0
 33  2  1  0
M  END
>  <Title>  (1183) 
idABRSgen7

$$$$

     RDKit          2D

 23 26  0  0  0  0  0  0  0  0999 V2000
   -1.2247   -7.1527    0.0000 C   0  0  0  0  0  0  0  0  0  0  0  0
   -2.3737   -6.1885    0.0000 C   0  0  0  0  0  0  0  0  0  0  0  0
   -3.5228   -5.2244    0.0000 C   0  0  0  0  0  0  0  0  0  0  0  0
   -3.3379   -7.3376    0.0000 C   0  0  0  0  0  0  0  0  0  0  0  0
   -1.4095   -5.0395    0.0000 C   0  0  0  0  0  0  0  0  0  0  0  0
   -0.0000   -5.5525    0.0000 C   0  0  0  0  0  0  0  0  0  0  0  0
    1.4095   -5.0395    0.0000 C   0  0  0  0  0  0  0  0  0  0  0  0
    2.1595   -3.7404    0.0000 C   0  0  0  0  0  0  0  0  0  0  0  0
    3.6368   -3.4800    0.0000 C   0  0  0  0  0  0  0  0  0  0  0  0
    3.3763   -2.0027    0.0000 C   0  0  0  0  0  0  0  0  0  0  0  0
    1.8991   -2.2632    0.0000 C   0  0  0  0  0  0  0  0  0  0  0  0
    0.7500   -1.2990    0.0000 C   0  0  0  0  0  0  0  0  0  0  0  0
    1.5000    0.0000    0.0000 C   0  0  0  0  0  0  0  0  0  0  0  0
    0.7500    1.2990    0.0000 C   0  0  0  0  0  0  0  0  0  0  0  0
   -0.7500    1.2990    0.0000 C   0  0  0  0  0  0  0  0  0  0  0  0
   -1.5000    0.0000    0.0000 C   0  0  0  0  0  0  0  0  0  0  0  0
   -0.7500   -1.2990    0.0000 C   0  0  0  0  0  0  0  0  0  0  0  0
   -1.8991   -2.2632    0.0000 C   0  0  0  0  0  0  0  0  0  0  0  0
   -3.0481   -1.2990    0.0000 C   0  0  0  0  0  0  0  0  0  0  0  0
   -4.4577   -1.8121    0.0000 C   0  0  0  0  0  0  0  0  0  0  0  0
   -4.7181   -3.2893    0.0000 C   0  0  0  0  0  0  0  0  0  0  0  0
   -3.5691   -4.2535    0.0000 C   0  0  0  0  0  0  0  0  0  0  0  0
   -2.1595   -3.7404    0.0000 C   0  0  0  0  0  0  0  0  0  0  0  0
  1  2  1  0
  2  3  1  0
  2  4  1  0
  2  5  1  0
  5  6  2  0
  6  7  1  0
  7  8  2  0
  8  9  1  0
  9 10  1  0
 10 11  2  0
 11 12  1  0
 12 13  2  0
 13 14  1  0
 14 15  2  0
 15 16  1  0
 16 17  2  0
 17 18  1  0
 18 19  2  0
 19 20  1  0
 20 21  2  0
 21 22  1  0
 22 23  2  0
 23  5  1  0
 11  8  1  0
 17 12  1  0
 23 18  1  0
M  END
>  <Title>  (1184) 
idABRTgen7

$$$$

     RDKit          2D

  9  9  0  0  0  0  0  0  0  0999 V2000
    3.5260   -1.2990    0.0000 C   0  0  0  0  0  0  0  0  0  0  0  0
    2.7760    0.0000    0.0000 C   0  0  0  0  0  0  0  0  0  0  0  0
    3.5260    1.2990    0.0000 C   0  0  0  0  0  0  0  0  0  0  0  0
    5.0260    1.2990    0.0000 O   0  0  0  0  0  0  0  0  0  0  0  0
    1.2760    0.0000    0.0000 C   0  0  0  0  0  0  0  0  0  0  0  0
    0.3943    1.2135    0.0000 C   0  0  0  0  0  0  0  0  0  0  0  0
   -1.0323    0.7500    0.0000 C   0  0  0  0  0  0  0  0  0  0  0  0
   -1.0323   -0.7500    0.0000 C   0  0  0  0  0  0  0  0  0  0  0  0
    0.3943   -1.2135    0.0000 C   0  0  0  0  0  0  0  0  0  0  0  0
  1  2  1  0
  2  3  1  0
  3  4  1  0
  2  5  1  0
  5  6  2  0
  6  7  1  0
  7  8  1  0
  8  9  2  0
  9  5  1  0
M  END
>  <Title>  (1185) 
idABRUgen7

$$$$

     RDKit          2D

 53 53  0  0  0  0  0  0  0  0999 V2000
   13.9216    0.0000    0.0000 C   0  0  0  0  0  0  0  0  0  0  0  0
   12.4216    0.0000    0.0000 C   0  0  0  0  0  0  0  0  0  0  0  0
   12.3311   -1.4973    0.0000 C   0  0  0  0  0  0  0  0  0  0  0  0
   12.0607   -2.9727    0.0000 C   0  0  0  0  0  0  0  0  0  0  0  0
   11.6144   -4.4048    0.0000 C   0  0  0  0  0  0  0  0  0  0  0  0
   10.9988   -5.7726    0.0000 C   0  0  0  0  0  0  0  0  0  0  0  0
   10.2228   -7.0563    0.0000 C   0  0  0  0  0  0  0  0  0  0  0  0
    9.2977   -8.2371    0.0000 C   0  0  0  0  0  0  0  0  0  0  0  0
    8.2371   -9.2977    0.0000 C   0  0  0  0  0  0  0  0  0  0  0  0
    7.0563  -10.2228    0.0000 C   0  0  0  0  0  0  0  0  0  0  0  0
    5.7726  -10.9988    0.0000 C   0  0  0  0  0  0  0  0  0  0  0  0
    4.4048  -11.6144    0.0000 C   0  0  0  0  0  0  0  0  0  0  0  0
    2.9727  -12.0607    0.0000 C   0  0  0  0  0  0  0  0  0  0  0  0
    1.4973  -12.3311    0.0000 C   0  0  0  0  0  0  0  0  0  0  0  0
   -0.0000  -12.4216    0.0000 C   0  0  0  0  0  0  0  0  0  0  0  0
   -1.4973  -12.3311    0.0000 C   0  0  0  0  0  0  0  0  0  0  0  0
   -2.9727  -12.0607    0.0000 C   0  0  0  0  0  0  0  0  0  0  0  0
   -4.4048  -11.6144    0.0000 C   0  0  0  0  0  0  0  0  0  0  0  0
   -5.7726  -10.9988    0.0000 C   0  0  0  0  0  0  0  0  0  0  0  0
   -7.0563  -10.2228    0.0000 C   0  0  0  0  0  0  0  0  0  0  0  0
   -8.2371   -9.2977    0.0000 C   0  0  0  0  0  0  0  0  0  0  0  0
   -9.2977   -8.2371    0.0000 C   0  0  0  0  0  0  0  0  0  0  0  0
  -10.2228   -7.0563    0.0000 C   0  0  0  0  0  0  0  0  0  0  0  0
  -10.9988   -5.7726    0.0000 C   0  0  0  0  0  0  0  0  0  0  0  0
  -11.6144   -4.4048    0.0000 C   0  0  0  0  0  0  0  0  0  0  0  0
  -12.0607   -2.9727    0.0000 C   0  0  0  0  0  0  0  0  0  0  0  0
  -12.3311   -1.4973    0.0000 C   0  0  0  0  0  0  0  0  0  0  0  0
  -12.4216    0.0000    0.0000 C   0  0  0  0  0  0  0  0  0  0  0  0
  -12.3311    1.4973    0.0000 C   0  0  0  0  0  0  0  0  0  0  0  0
  -12.0607    2.9727    0.0000 C   0  0  0  0  0  0  0  0  0  0  0  0
  -11.6144    4.4048    0.0000 C   0  0  0  0  0  0  0  0  0  0  0  0
  -10.9988    5.7726    0.0000 C   0  0  0  0  0  0  0  0  0  0  0  0
  -10.2228    7.0563    0.0000 C   0  0  0  0  0  0  0  0  0  0  0  0
   -9.2977    8.2371    0.0000 C   0  0  0  0  0  0  0  0  0  0  0  0
   -8.2371    9.2977    0.0000 C   0  0  0  0  0  0  0  0  0  0  0  0
   -7.0563   10.2228    0.0000 C   0  0  0  0  0  0  0  0  0  0  0  0
   -5.7726   10.9988    0.0000 C   0  0  0  0  0  0  0  0  0  0  0  0
   -4.4048   11.6144    0.0000 C   0  0  0  0  0  0  0  0  0  0  0  0
   -2.9727   12.0607    0.0000 C   0  0  0  0  0  0  0  0  0  0  0  0
   -1.4973   12.3311    0.0000 C   0  0  0  0  0  0  0  0  0  0  0  0
    0.0000   12.4216    0.0000 C   0  0  0  0  0  0  0  0  0  0  0  0
    1.4973   12.3311    0.0000 C   0  0  0  0  0  0  0  0  0  0  0  0
    2.9727   12.0607    0.0000 C   0  0  0  0  0  0  0  0  0  0  0  0
    4.4048   11.6144    0.0000 C   0  0  0  0  0  0  0  0  0  0  0  0
    5.7726   10.9988    0.0000 C   0  0  0  0  0  0  0  0  0  0  0  0
    7.0563   10.2228    0.0000 C   0  0  0  0  0  0  0  0  0  0  0  0
    8.2371    9.2977    0.0000 C   0  0  0  0  0  0  0  0  0  0  0  0
    9.2977    8.2371    0.0000 C   0  0  0  0  0  0  0  0  0  0  0  0
   10.2228    7.0563    0.0000 C   0  0  0  0  0  0  0  0  0  0  0  0
   10.9988    5.7726    0.0000 C   0  0  0  0  0  0  0  0  0  0  0  0
   11.6144    4.4048    0.0000 C   0  0  0  0  0  0  0  0  0  0  0  0
   12.0607    2.9727    0.0000 C   0  0  0  0  0  0  0  0  0  0  0  0
   12.3311    1.4973    0.0000 C   0  0  0  0  0  0  0  0  0  0  0  0
  1  2  1  0
  2  3  2  0
  3  4  1  0
  4  5  1  0
  5  6  1  0
  6  7  1  0
  7  8  1  0
  8  9  1  0
  9 10  1  0
 10 11  1  0
 11 12  1  0
 12 13  1  0
 13 14  1  0
 14 15  1  0
 15 16  1  0
 16 17  1  0
 17 18  1  0
 18 19  1  0
 19 20  1  0
 20 21  1  0
 21 22  1  0
 22 23  1  0
 23 24  1  0
 24 25  1  0
 25 26  1  0
 26 27  1  0
 27 28  1  0
 28 29  1  0
 29 30  1  0
 30 31  1  0
 31 32  1  0
 32 33  1  0
 33 34  1  0
 34 35  1  0
 35 36  1  0
 36 37  1  0
 37 38  1  0
 38 39  1  0
 39 40  1  0
 40 41  1  0
 41 42  1  0
 42 43  1  0
 43 44  1  0
 44 45  1  0
 45 46  1  0
 46 47  1  0
 47 48  1  0
 48 49  1  0
 49 50  1  0
 50 51  1  0
 51 52  1  0
 52 53  1  0
 53  2  1  0
M  END
>  <Title>  (1186) 
idABRVgen7

$$$$

     RDKit          2D

  8  8  0  0  0  0  0  0  0  0999 V2000
    3.7500   -1.2990    0.0000 O   0  0  0  0  0  0  0  0  0  0  0  0
    3.0000    0.0000    0.0000 C   0  0  0  0  0  0  0  0  0  0  0  0
    1.5000    0.0000    0.0000 C   0  0  0  0  0  0  0  0  0  0  0  0
    0.7500   -1.2990    0.0000 C   0  0  0  0  0  0  0  0  0  0  0  0
   -0.7500   -1.2990    0.0000 C   0  0  0  0  0  0  0  0  0  0  0  0
   -1.5000    0.0000    0.0000 C   0  0  0  0  0  0  0  0  0  0  0  0
   -0.7500    1.2990    0.0000 C   0  0  0  0  0  0  0  0  0  0  0  0
    0.7500    1.2990    0.0000 C   0  0  0  0  0  0  0  0  0  0  0  0
  1  2  1  0
  2  3  1  0
  3  4  2  0
  4  5  1  0
  5  6  2  0
  6  7  1  0
  7  8  2  0
  8  3  1  0
M  END
>  <Title>  (1187) 
idABRWgen7

$$$$

     RDKit          2D

 17 18  0  0  0  0  0  0  0  0999 V2000
    3.0000    0.0000    0.0000 C   0  0  0  0  0  0  0  0  0  0  0  0
    1.5000    0.0000    0.0000 C   0  0  0  0  0  0  0  0  0  0  0  0
    0.7500   -1.2990    0.0000 C   0  0  0  0  0  0  0  0  0  0  0  0
   -0.7500   -1.2990    0.0000 C   0  0  0  0  0  0  0  0  0  0  0  0
   -1.5000    0.0000    0.0000 C   0  0  0  0  0  0  0  0  0  0  0  0
   -0.7500    1.2990    0.0000 C   0  0  0  0  0  0  0  0  0  0  0  0
   -1.5000    2.5981    0.0000 C   0  0  0  0  0  0  0  0  0  0  0  0
   -3.0000    2.5981    0.0000 O   0  0  0  0  0  0  0  0  0  0  0  0
   -0.7500    3.8971    0.0000 N   0  0  0  0  0  0  0  0  0  0  0  0
   -1.5000    5.1962    0.0000 C   0  0  0  0  0  0  0  0  0  0  0  0
   -0.7500    6.4952    0.0000 N   0  0  0  0  0  0  0  0  0  0  0  0
   -1.5000    7.7942    0.0000 N   0  0  0  0  0  0  0  0  0  0  0  0
   -3.0000    7.7942    0.0000 N   0  0  0  0  0  0  0  0  0  0  0  0
   -3.7500    6.4952    0.0000 N   0  0  0  0  0  0  0  0  0  0  0  0
   -3.0000    5.1962    0.0000 N   0  0  0  0  0  0  0  0  0  0  0  0
    0.7500    1.2990    0.0000 C   0  0  0  0  0  0  0  0  0  0  0  0
    1.5000    2.5981    0.0000 O   0  0  0  0  0  0  0  0  0  0  0  0
  1  2  1  0
  2  3  2  0
  3  4  1  0
  4  5  1  0
  5  6  1  0
  6  7  1  0
  7  8  2  0
  7  9  1  0
  9 10  1  0
 10 11  2  0
 11 12  1  0
 12 13  2  0
 13 14  1  0
 14 15  2  0
  6 16  1  0
 16 17  2  0
 16  2  1  0
 15 10  1  0
M  END
>  <Title>  (1188) 
idABRXgen7

$$$$

     RDKit          2D

  9  9  0  0  0  0  0  0  0  0999 V2000
    7.2760   -0.0000    0.0000 C   0  0  0  0  0  0  0  0  0  0  0  0
    5.7760   -0.0000    0.0000 C   0  0  0  0  0  0  0  0  0  0  0  0
    4.2760   -0.0000    0.0000 C   0  0  0  0  0  0  0  0  0  0  0  0
    2.7760    0.0000    0.0000 C   0  0  0  0  0  0  0  0  0  0  0  0
    1.2760    0.0000    0.0000 C   0  0  0  0  0  0  0  0  0  0  0  0
    0.3943    1.2135    0.0000 C   0  0  0  0  0  0  0  0  0  0  0  0
   -1.0323    0.7500    0.0000 C   0  0  0  0  0  0  0  0  0  0  0  0
   -1.0323   -0.7500    0.0000 C   0  0  0  0  0  0  0  0  0  0  0  0
    0.3943   -1.2135    0.0000 C   0  0  0  0  0  0  0  0  0  0  0  0
  1  2  3  0
  2  3  1  0
  3  4  3  0
  4  5  1  0
  5  6  2  0
  6  7  1  0
  7  8  1  0
  8  9  1  0
  9  5  1  0
M  END
>  <Title>  (1189) 
idABRYgen7

$$$$

     RDKit          2D

  9  9  0  0  0  0  0  0  0  0999 V2000
    2.7760   -2.5981    0.0000 N   0  0  0  0  0  0  0  0  0  0  0  0
    3.5260   -1.2990    0.0000 C   0  0  0  0  0  0  0  0  0  0  0  0
    5.0260   -1.2990    0.0000 N   0  0  0  0  0  0  0  0  0  0  0  0
    2.7760    0.0000    0.0000 O   0  0  0  0  0  0  0  0  0  0  0  0
    1.2760    0.0000    0.0000 C   0  0  0  0  0  0  0  0  0  0  0  0
    0.3943    1.2135    0.0000 C   0  0  0  0  0  0  0  0  0  0  0  0
   -1.0323    0.7500    0.0000 C   0  0  0  0  0  0  0  0  0  0  0  0
   -1.0323   -0.7500    0.0000 C   0  0  0  0  0  0  0  0  0  0  0  0
    0.3943   -1.2135    0.0000 C   0  0  0  0  0  0  0  0  0  0  0  0
  1  2  2  0
  2  3  1  0
  2  4  1  0
  4  5  1  0
  5  6  2  0
  6  7  1  0
  7  8  1  0
  8  9  2  0
  9  5  1  0
M  END
>  <Title>  (1190) 
idABRZgen7

$$$$

     RDKit          2D

 48 48  0  0  0  0  0  0  0  0999 V2000
   12.7288    0.0000    0.0000 C   0  0  0  0  0  0  0  0  0  0  0  0
   11.2288    0.0000    0.0000 C   0  0  0  0  0  0  0  0  0  0  0  0
   11.1286    1.4967    0.0000 C   0  0  0  0  0  0  0  0  0  0  0  0
   10.8298    2.9666    0.0000 C   0  0  0  0  0  0  0  0  0  0  0  0
   10.3378    4.3836    0.0000 C   0  0  0  0  0  0  0  0  0  0  0  0
    9.6613    5.7224    0.0000 C   0  0  0  0  0  0  0  0  0  0  0  0
    8.8123    6.9590    0.0000 C   0  0  0  0  0  0  0  0  0  0  0  0
    7.8062    8.0715    0.0000 C   0  0  0  0  0  0  0  0  0  0  0  0
    6.6607    9.0400    0.0000 C   0  0  0  0  0  0  0  0  0  0  0  0
    5.3963    9.8471    0.0000 C   0  0  0  0  0  0  0  0  0  0  0  0
    4.0357   10.4785    0.0000 C   0  0  0  0  0  0  0  0  0  0  0  0
    2.6031   10.9229    0.0000 C   0  0  0  0  0  0  0  0  0  0  0  0
    1.1240   11.1724    0.0000 C   0  0  0  0  0  0  0  0  0  0  0  0
   -0.3752   11.2225    0.0000 C   0  0  0  0  0  0  0  0  0  0  0  0
   -1.8677   11.0724    0.0000 C   0  0  0  0  0  0  0  0  0  0  0  0
   -3.3268   10.7246    0.0000 C   0  0  0  0  0  0  0  0  0  0  0  0
   -4.7266   10.1855    0.0000 C   0  0  0  0  0  0  0  0  0  0  0  0
   -6.0420    9.4647    0.0000 C   0  0  0  0  0  0  0  0  0  0  0  0
   -7.2496    8.5749    0.0000 C   0  0  0  0  0  0  0  0  0  0  0  0
   -8.3279    7.5321    0.0000 C   0  0  0  0  0  0  0  0  0  0  0  0
   -9.2575    6.3549    0.0000 C   0  0  0  0  0  0  0  0  0  0  0  0
  -10.0219    5.0643    0.0000 C   0  0  0  0  0  0  0  0  0  0  0  0
  -10.6075    3.6833    0.0000 C   0  0  0  0  0  0  0  0  0  0  0  0
  -11.0038    2.2366    0.0000 C   0  0  0  0  0  0  0  0  0  0  0  0
  -11.2037    0.7500    0.0000 C   0  0  0  0  0  0  0  0  0  0  0  0
  -11.2037   -0.7500    0.0000 C   0  0  0  0  0  0  0  0  0  0  0  0
  -11.0038   -2.2366    0.0000 C   0  0  0  0  0  0  0  0  0  0  0  0
  -10.6075   -3.6833    0.0000 C   0  0  0  0  0  0  0  0  0  0  0  0
  -10.0219   -5.0643    0.0000 C   0  0  0  0  0  0  0  0  0  0  0  0
   -9.2575   -6.3549    0.0000 C   0  0  0  0  0  0  0  0  0  0  0  0
   -8.3279   -7.5321    0.0000 C   0  0  0  0  0  0  0  0  0  0  0  0
   -7.2496   -8.5749    0.0000 C   0  0  0  0  0  0  0  0  0  0  0  0
   -6.0420   -9.4647    0.0000 C   0  0  0  0  0  0  0  0  0  0  0  0
   -4.7266  -10.1855    0.0000 C   0  0  0  0  0  0  0  0  0  0  0  0
   -3.3268  -10.7246    0.0000 C   0  0  0  0  0  0  0  0  0  0  0  0
   -1.8677  -11.0724    0.0000 C   0  0  0  0  0  0  0  0  0  0  0  0
   -0.3752  -11.2225    0.0000 C   0  0  0  0  0  0  0  0  0  0  0  0
    1.1240  -11.1724    0.0000 C   0  0  0  0  0  0  0  0  0  0  0  0
    2.6031  -10.9229    0.0000 C   0  0  0  0  0  0  0  0  0  0  0  0
    4.0357  -10.4785    0.0000 C   0  0  0  0  0  0  0  0  0  0  0  0
    5.3963   -9.8471    0.0000 C   0  0  0  0  0  0  0  0  0  0  0  0
    6.6607   -9.0400    0.0000 C   0  0  0  0  0  0  0  0  0  0  0  0
    7.8062   -8.0715    0.0000 C   0  0  0  0  0  0  0  0  0  0  0  0
    8.8123   -6.9590    0.0000 C   0  0  0  0  0  0  0  0  0  0  0  0
    9.6613   -5.7224    0.0000 C   0  0  0  0  0  0  0  0  0  0  0  0
   10.3378   -4.3836    0.0000 C   0  0  0  0  0  0  0  0  0  0  0  0
   10.8298   -2.9666    0.0000 C   0  0  0  0  0  0  0  0  0  0  0  0
   11.1286   -1.4967    0.0000 C   0  0  0  0  0  0  0  0  0  0  0  0
  1  2  1  0
  2  3  1  0
  3  4  1  0
  4  5  2  0
  5  6  1  0
  6  7  2  0
  7  8  1  0
  8  9  2  0
  9 10  1  0
 10 11  2  0
 11 12  1  0
 12 13  1  0
 13 14  1  0
 14 15  1  0
 15 16  1  0
 16 17  1  0
 17 18  1  0
 18 19  1  0
 19 20  1  0
 20 21  1  0
 21 22  1  0
 22 23  1  0
 23 24  1  0
 24 25  1  0
 25 26  1  0
 26 27  1  0
 27 28  1  0
 28 29  1  0
 29 30  1  0
 30 31  1  0
 31 32  1  0
 32 33  1  0
 33 34  1  0
 34 35  1  0
 35 36  1  0
 36 37  1  0
 37 38  1  0
 38 39  1  0
 39 40  1  0
 40 41  1  0
 41 42  1  0
 42 43  1  0
 43 44  1  0
 44 45  1  0
 45 46  1  0
 46 47  1  0
 47 48  1  0
 48  2  1  0
M  END
>  <Title>  (1191) 
idABSAgen7

$$$$

     RDKit          2D

 13 13  0  0  0  0  0  0  0  0999 V2000
    4.3978    0.0000    0.0000 C   0  0  0  0  0  0  0  0  0  0  0  0
    2.8978    0.0000    0.0000 C   0  0  0  0  0  0  0  0  0  0  0  0
    2.5095   -1.4489    0.0000 C   0  0  0  0  0  0  0  0  0  0  0  0
    1.4489   -2.5095    0.0000 C   0  0  0  0  0  0  0  0  0  0  0  0
   -0.0000   -2.8978    0.0000 C   0  0  0  0  0  0  0  0  0  0  0  0
   -1.4489   -2.5095    0.0000 C   0  0  0  0  0  0  0  0  0  0  0  0
   -2.5095   -1.4489    0.0000 C   0  0  0  0  0  0  0  0  0  0  0  0
   -2.8978    0.0000    0.0000 C   0  0  0  0  0  0  0  0  0  0  0  0
   -2.5095    1.4489    0.0000 C   0  0  0  0  0  0  0  0  0  0  0  0
   -1.4489    2.5095    0.0000 C   0  0  0  0  0  0  0  0  0  0  0  0
    0.0000    2.8978    0.0000 C   0  0  0  0  0  0  0  0  0  0  0  0
    1.4489    2.5095    0.0000 C   0  0  0  0  0  0  0  0  0  0  0  0
    2.5095    1.4489    0.0000 C   0  0  0  0  0  0  0  0  0  0  0  0
  1  2  1  0
  2  3  1  0
  3  4  1  0
  4  5  2  0
  5  6  1  0
  6  7  1  0
  7  8  1  0
  8  9  1  0
  9 10  1  0
 10 11  1  0
 11 12  1  0
 12 13  1  0
 13  2  1  0
M  END
>  <Title>  (1192) 
idABSBgen7

$$$$

     RDKit          2D

 82 85  0  0  0  0  0  0  0  0999 V2000
  -10.0131   -2.9820    0.0000 C   0  0  0  0  0  0  0  0  0  0  0  0
   -9.1430   -4.2039    0.0000 C   0  0  0  0  0  0  0  0  0  0  0  0
  -10.3221   -5.1311    0.0000 C   0  0  0  0  0  0  0  0  0  0  0  0
  -11.4077   -6.1662    0.0000 C   0  0  0  0  0  0  0  0  0  0  0  0
  -12.3900   -7.2999    0.0000 C   0  0  0  0  0  0  0  0  0  0  0  0
  -13.2601   -8.5217    0.0000 C   0  0  0  0  0  0  0  0  0  0  0  0
  -14.0101   -9.8208    0.0000 C   0  0  0  0  0  0  0  0  0  0  0  0
  -14.6332  -11.1852    0.0000 C   0  0  0  0  0  0  0  0  0  0  0  0
  -15.1238  -12.6027    0.0000 C   0  0  0  0  0  0  0  0  0  0  0  0
  -15.4774  -14.0604    0.0000 C   0  0  0  0  0  0  0  0  0  0  0  0
  -15.6909  -15.5452    0.0000 C   0  0  0  0  0  0  0  0  0  0  0  0
  -15.7623  -17.0435    0.0000 C   0  0  0  0  0  0  0  0  0  0  0  0
  -15.6909  -18.5418    0.0000 C   0  0  0  0  0  0  0  0  0  0  0  0
  -15.4774  -20.0265    0.0000 C   0  0  0  0  0  0  0  0  0  0  0  0
  -15.1238  -21.4842    0.0000 C   0  0  0  0  0  0  0  0  0  0  0  0
  -14.6332  -22.9017    0.0000 C   0  0  0  0  0  0  0  0  0  0  0  0
  -14.0101  -24.2662    0.0000 C   0  0  0  0  0  0  0  0  0  0  0  0
  -13.2601  -25.5652    0.0000 C   0  0  0  0  0  0  0  0  0  0  0  0
  -12.3900  -26.7871    0.0000 C   0  0  0  0  0  0  0  0  0  0  0  0
  -11.4077  -27.9207    0.0000 C   0  0  0  0  0  0  0  0  0  0  0  0
  -10.3221  -28.9558    0.0000 C   0  0  0  0  0  0  0  0  0  0  0  0
   -9.1430  -29.8831    0.0000 C   0  0  0  0  0  0  0  0  0  0  0  0
   -7.8811  -30.6940    0.0000 C   0  0  0  0  0  0  0  0  0  0  0  0
   -6.5479  -31.3814    0.0000 C   0  0  0  0  0  0  0  0  0  0  0  0
   -5.1553  -31.9389    0.0000 C   0  0  0  0  0  0  0  0  0  0  0  0
   -3.7161  -32.3615    0.0000 C   0  0  0  0  0  0  0  0  0  0  0  0
   -2.2432  -32.6453    0.0000 C   0  0  0  0  0  0  0  0  0  0  0  0
   -0.7500  -32.7879    0.0000 C   0  0  0  0  0  0  0  0  0  0  0  0
    0.7500  -32.7879    0.0000 C   0  0  0  0  0  0  0  0  0  0  0  0
    2.2432  -32.6453    0.0000 C   0  0  0  0  0  0  0  0  0  0  0  0
    3.7161  -32.3615    0.0000 C   0  0  0  0  0  0  0  0  0  0  0  0
    5.1553  -31.9389    0.0000 C   0  0  0  0  0  0  0  0  0  0  0  0
    6.5479  -31.3814    0.0000 C   0  0  0  0  0  0  0  0  0  0  0  0
    7.8811  -30.6940    0.0000 C   0  0  0  0  0  0  0  0  0  0  0  0
    9.1430  -29.8831    0.0000 C   0  0  0  0  0  0  0  0  0  0  0  0
   10.3221  -28.9558    0.0000 C   0  0  0  0  0  0  0  0  0  0  0  0
   11.4077  -27.9207    0.0000 C   0  0  0  0  0  0  0  0  0  0  0  0
   12.3900  -26.7871    0.0000 C   0  0  0  0  0  0  0  0  0  0  0  0
   13.2601  -25.5652    0.0000 C   0  0  0  0  0  0  0  0  0  0  0  0
   14.0101  -24.2662    0.0000 C   0  0  0  0  0  0  0  0  0  0  0  0
   14.6332  -22.9017    0.0000 C   0  0  0  0  0  0  0  0  0  0  0  0
   15.1238  -21.4842    0.0000 C   0  0  0  0  0  0  0  0  0  0  0  0
   15.4774  -20.0265    0.0000 C   0  0  0  0  0  0  0  0  0  0  0  0
   15.6909  -18.5418    0.0000 C   0  0  0  0  0  0  0  0  0  0  0  0
   15.7623  -17.0435    0.0000 C   0  0  0  0  0  0  0  0  0  0  0  0
   15.6909  -15.5452    0.0000 C   0  0  0  0  0  0  0  0  0  0  0  0
   15.4774  -14.0604    0.0000 C   0  0  0  0  0  0  0  0  0  0  0  0
   15.1238  -12.6027    0.0000 C   0  0  0  0  0  0  0  0  0  0  0  0
   14.6332  -11.1852    0.0000 C   0  0  0  0  0  0  0  0  0  0  0  0
   14.0101   -9.8208    0.0000 C   0  0  0  0  0  0  0  0  0  0  0  0
   13.2601   -8.5217    0.0000 C   0  0  0  0  0  0  0  0  0  0  0  0
   12.3900   -7.2999    0.0000 C   0  0  0  0  0  0  0  0  0  0  0  0
   11.4077   -6.1662    0.0000 C   0  0  0  0  0  0  0  0  0  0  0  0
   10.3221   -5.1311    0.0000 C   0  0  0  0  0  0  0  0  0  0  0  0
    9.1430   -4.2039    0.0000 C   0  0  0  0  0  0  0  0  0  0  0  0
    7.8811   -3.3929    0.0000 C   0  0  0  0  0  0  0  0  0  0  0  0
    6.5479   -2.7056    0.0000 C   0  0  0  0  0  0  0  0  0  0  0  0
    5.1553   -2.1481    0.0000 C   0  0  0  0  0  0  0  0  0  0  0  0
    3.7161   -1.7255    0.0000 C   0  0  0  0  0  0  0  0  0  0  0  0
    2.2432   -1.4416    0.0000 C   0  0  0  0  0  0  0  0  0  0  0  0
    2.4567    0.0431    0.0000 C   0  0  0  0  0  0  0  0  0  0  0  0
    0.7500   -1.2990    0.0000 C   0  0  0  0  0  0  0  0  0  0  0  0
    1.5000    0.0000    0.0000 C   0  0  0  0  0  0  0  0  0  0  0  0
    0.7500    1.2990    0.0000 C   0  0  0  0  0  0  0  0  0  0  0  0
   -0.7500    1.2990    0.0000 C   0  0  0  0  0  0  0  0  0  0  0  0
   -1.5000    0.0000    0.0000 C   0  0  0  0  0  0  0  0  0  0  0  0
   -0.7500   -1.2990    0.0000 C   0  0  0  0  0  0  0  0  0  0  0  0
   -2.2432   -1.4416    0.0000 C   0  0  0  0  0  0  0  0  0  0  0  0
   -1.2609   -2.5752    0.0000 C   0  0  0  0  0  0  0  0  0  0  0  0
   -1.7515   -3.9927    0.0000 C   0  0  0  0  0  0  0  0  0  0  0  0
   -3.2244   -4.2766    0.0000 C   0  0  0  0  0  0  0  0  0  0  0  0
   -4.2067   -3.1430    0.0000 C   0  0  0  0  0  0  0  0  0  0  0  0
   -3.7161   -1.7255    0.0000 C   0  0  0  0  0  0  0  0  0  0  0  0
   -5.1553   -2.1481    0.0000 C   0  0  0  0  0  0  0  0  0  0  0  0
   -4.9419   -0.6634    0.0000 C   0  0  0  0  0  0  0  0  0  0  0  0
   -6.1209    0.2639    0.0000 C   0  0  0  0  0  0  0  0  0  0  0  0
   -5.9075    1.7486    0.0000 C   0  0  0  0  0  0  0  0  0  0  0  0
   -5.6940    3.2333    0.0000 N   0  0  0  0  0  0  0  0  0  0  0  0
   -7.5135   -0.2936    0.0000 C   0  0  0  0  0  0  0  0  0  0  0  0
   -7.7270   -1.7784    0.0000 C   0  0  0  0  0  0  0  0  0  0  0  0
   -6.5479   -2.7056    0.0000 C   0  0  0  0  0  0  0  0  0  0  0  0
   -7.8811   -3.3929    0.0000 N   0  0  0  0  0  0  0  0  0  0  0  0
  1  2  1  0
  2  3  1  0
  3  4  1  0
  4  5  1  0
  5  6  1  0
  6  7  1  0
  7  8  1  0
  8  9  1  0
  9 10  1  0
 10 11  1  0
 11 12  1  0
 12 13  1  0
 13 14  1  0
 14 15  1  0
 15 16  1  0
 16 17  1  0
 17 18  1  0
 18 19  1  0
 19 20  1  0
 20 21  1  0
 21 22  1  0
 22 23  1  0
 23 24  1  0
 24 25  1  0
 25 26  1  0
 26 27  1  0
 27 28  1  0
 28 29  1  0
 29 30  1  0
 30 31  1  0
 31 32  1  0
 32 33  1  0
 33 34  1  0
 34 35  1  0
 35 36  1  0
 36 37  1  0
 37 38  1  0
 38 39  1  0
 39 40  1  0
 40 41  1  0
 41 42  1  0
 42 43  1  0
 43 44  1  0
 44 45  1  0
 45 46  1  0
 46 47  1  0
 47 48  1  0
 48 49  1  0
 49 50  1  0
 50 51  1  0
 51 52  1  0
 52 53  1  0
 53 54  1  0
 54 55  1  0
 55 56  1  0
 56 57  1  0
 57 58  1  0
 58 59  1  0
 59 60  1  0
 60 61  1  0
 60 62  1  0
 62 63  2  0
 63 64  1  0
 64 65  2  0
 65 66  1  0
 66 67  2  0
 67 68  1  0
 68 69  2  0
 69 70  1  0
 70 71  2  0
 71 72  1  0
 72 73  2  0
 73 74  1  0
 74 75  2  0
 75 76  1  0
 76 77  1  0
 77 78  3  0
 76 79  2  0
 79 80  1  0
 80 81  2  0
 81 82  1  0
 82  2  1  0
 67 62  1  0
 73 68  1  0
 81 74  1  0
M  END
>  <Title>  (1193) 
idABSCgen7

$$$$

     RDKit          2D

  9  9  0  0  0  0  0  0  0  0999 V2000
    5.0260   -1.2990    0.0000 C   0  0  0  0  0  0  0  0  0  0  0  0
    3.5260   -1.2990    0.0000 C   0  0  0  0  0  0  0  0  0  0  0  0
    2.7760   -2.5981    0.0000 O   0  0  0  0  0  0  0  0  0  0  0  0
    2.7760    0.0000    0.0000 C   0  0  0  0  0  0  0  0  0  0  0  0
    1.2760    0.0000    0.0000 C   0  0  0  0  0  0  0  0  0  0  0  0
    0.3943    1.2135    0.0000 C   0  0  0  0  0  0  0  0  0  0  0  0
   -1.0323    0.7500    0.0000 C   0  0  0  0  0  0  0  0  0  0  0  0
   -1.0323   -0.7500    0.0000 C   0  0  0  0  0  0  0  0  0  0  0  0
    0.3943   -1.2135    0.0000 C   0  0  0  0  0  0  0  0  0  0  0  0
  1  2  1  0
  2  3  2  0
  2  4  1  0
  4  5  1  0
  5  6  2  0
  6  7  1  0
  7  8  1  0
  8  9  2  0
  9  5  1  0
M  END
>  <Title>  (1194) 
idABSDgen7

$$$$

     RDKit          2D

 24 26  0  0  0  0  0  0  0  0999 V2000
    1.8478   -9.0619    0.0000 C   0  0  0  0  0  0  0  0  0  0  0  0
    2.0046   -7.5702    0.0000 C   0  0  0  0  0  0  0  0  0  0  0  0
    3.3037   -6.8202    0.0000 C   0  0  0  0  0  0  0  0  0  0  0  0
    2.9918   -5.3529    0.0000 C   0  0  0  0  0  0  0  0  0  0  0  0
    1.5000   -5.1962    0.0000 C   0  0  0  0  0  0  0  0  0  0  0  0
    0.7500   -3.8971    0.0000 C   0  0  0  0  0  0  0  0  0  0  0  0
   -0.7500   -3.8971    0.0000 O   0  0  0  0  0  0  0  0  0  0  0  0
    1.5000   -2.5981    0.0000 N   0  0  0  0  0  0  0  0  0  0  0  0
    0.7500   -1.2990    0.0000 N   0  0  0  0  0  0  0  0  0  0  0  0
    1.5000    0.0000    0.0000 C   0  0  0  0  0  0  0  0  0  0  0  0
    0.7500    1.2990    0.0000 C   0  0  0  0  0  0  0  0  0  0  0  0
   -0.7500    1.2990    0.0000 N   0  0  0  0  0  0  0  0  0  0  0  0
   -1.5000    2.5981    0.0000 C   0  0  0  0  0  0  0  0  0  0  0  0
   -3.0000    2.5981    0.0000 O   0  0  0  0  0  0  0  0  0  0  0  0
   -0.7500    3.8971    0.0000 C   0  0  0  0  0  0  0  0  0  0  0  0
    0.7500    3.8971    0.0000 C   0  0  0  0  0  0  0  0  0  0  0  0
    1.5000    5.1962    0.0000 C   0  0  0  0  0  0  0  0  0  0  0  0
    0.7500    6.4952    0.0000 C   0  0  0  0  0  0  0  0  0  0  0  0
   -0.7500    6.4952    0.0000 C   0  0  0  0  0  0  0  0  0  0  0  0
   -1.5000    5.1962    0.0000 C   0  0  0  0  0  0  0  0  0  0  0  0
   -1.5000    0.0000    0.0000 C   0  0  0  0  0  0  0  0  0  0  0  0
   -0.7500   -1.2990    0.0000 C   0  0  0  0  0  0  0  0  0  0  0  0
    0.8899   -6.5665    0.0000 C   0  0  0  0  0  0  0  0  0  0  0  0
   -0.5773   -6.8783    0.0000 O   0  0  0  0  0  0  0  0  0  0  0  0
  1  2  1  0
  2  3  1  0
  3  4  1  0
  4  5  1  0
  5  6  1  0
  6  7  2  0
  6  8  1  0
  8  9  1  0
  9 10  1  0
 10 11  1  0
 11 12  1  0
 12 13  1  0
 13 14  2  0
 13 15  1  0
 15 16  2  0
 16 17  1  0
 17 18  2  0
 18 19  1  0
 19 20  2  0
 12 21  1  0
 21 22  1  0
  5 23  1  0
 23 24  2  0
 23  2  1  0
 22  9  1  0
 20 15  1  0
M  END
>  <Title>  (1195) 
idABSEgen7

$$$$

     RDKit          2D

 11 11  0  0  0  0  0  0  0  0999 V2000
    5.7760   -2.5981    0.0000 C   0  0  0  0  0  0  0  0  0  0  0  0
    5.0260   -1.2990    0.0000 C   0  0  0  0  0  0  0  0  0  0  0  0
    3.5260   -1.2990    0.0000 C   0  0  0  0  0  0  0  0  0  0  0  0
    2.7760    0.0000    0.0000 C   0  0  0  0  0  0  0  0  0  0  0  0
    3.5260    1.2990    0.0000 O   0  0  0  0  0  0  0  0  0  0  0  0
    1.2760    0.0000    0.0000 N   0  0  0  0  0  0  0  0  0  0  0  0
    0.3943    1.2135    0.0000 C   0  0  0  0  0  0  0  0  0  0  0  0
   -1.0323    0.7500    0.0000 C   0  0  0  0  0  0  0  0  0  0  0  0
   -1.0323   -0.7500    0.0000 C   0  0  0  0  0  0  0  0  0  0  0  0
   -2.2458   -1.6317    0.0000 C   0  0  0  0  0  0  0  0  0  0  0  0
    0.3943   -1.2135    0.0000 C   0  0  0  0  0  0  0  0  0  0  0  0
  1  2  2  0
  2  3  1  0
  3  4  1  0
  4  5  2  0
  4  6  1  0
  6  7  1  0
  7  8  1  0
  8  9  1  0
  9 10  1  0
  9 11  1  0
 11  6  1  0
M  END
>  <Title>  (1196) 
idABSFgen7

$$$$

     RDKit          2D

  9  9  0  0  0  0  0  0  0  0999 V2000
    5.0260   -1.2990    0.0000 C   0  0  0  0  0  0  0  0  0  0  0  0
    3.5260   -1.2990    0.0000 C   0  0  0  0  0  0  0  0  0  0  0  0
    2.7760   -2.5981    0.0000 O   0  0  0  0  0  0  0  0  0  0  0  0
    2.7760    0.0000    0.0000 N   0  0  0  0  0  0  0  0  0  0  0  0
    1.2760    0.0000    0.0000 C   0  0  0  0  0  0  0  0  0  0  0  0
    0.3943    1.2135    0.0000 C   0  0  0  0  0  0  0  0  0  0  0  0
   -1.0323    0.7500    0.0000 C   0  0  0  0  0  0  0  0  0  0  0  0
   -1.0323   -0.7500    0.0000 C   0  0  0  0  0  0  0  0  0  0  0  0
    0.3943   -1.2135    0.0000 C   0  0  0  0  0  0  0  0  0  0  0  0
  1  2  1  0
  2  3  2  0
  2  4  1  0
  4  5  1  0
  5  6  2  0
  6  7  1  0
  7  8  1  0
  8  9  1  0
  9  5  1  0
M  END
>  <Title>  (1197) 
idABSGgen7

$$$$

     RDKit          2D

 20 22  0  0  0  0  0  0  0  0999 V2000
    3.0000   -2.5981    0.0000 O   0  0  0  0  0  0  0  0  0  0  0  0
    1.5000   -2.5981    0.0000 C   0  0  0  0  0  0  0  0  0  0  0  0
    0.7500   -3.8971    0.0000 C   0  0  0  0  0  0  0  0  0  0  0  0
    1.5000   -5.1962    0.0000 C   0  0  0  0  0  0  0  0  0  0  0  0
    2.9918   -5.3529    0.0000 C   0  0  0  0  0  0  0  0  0  0  0  0
    3.3037   -6.8202    0.0000 C   0  0  0  0  0  0  0  0  0  0  0  0
    2.0046   -7.5702    0.0000 C   0  0  0  0  0  0  0  0  0  0  0  0
    0.8899   -6.5665    0.0000 C   0  0  0  0  0  0  0  0  0  0  0  0
    0.7500   -1.2990    0.0000 N   0  0  0  0  0  0  0  0  0  0  0  0
    1.5000    0.0000    0.0000 C   0  0  0  0  0  0  0  0  0  0  0  0
    0.7500    1.2990    0.0000 C   0  0  0  0  0  0  0  0  0  0  0  0
   -0.7500    1.2990    0.0000 N   0  0  0  0  0  0  0  0  0  0  0  0
   -1.5000    2.5981    0.0000 C   0  0  0  0  0  0  0  0  0  0  0  0
   -0.7500    3.8971    0.0000 C   0  0  0  0  0  0  0  0  0  0  0  0
   -1.5000    5.1962    0.0000 C   0  0  0  0  0  0  0  0  0  0  0  0
   -3.0000    5.1962    0.0000 C   0  0  0  0  0  0  0  0  0  0  0  0
   -3.7500    3.8971    0.0000 C   0  0  0  0  0  0  0  0  0  0  0  0
   -3.0000    2.5981    0.0000 C   0  0  0  0  0  0  0  0  0  0  0  0
   -1.5000    0.0000    0.0000 C   0  0  0  0  0  0  0  0  0  0  0  0
   -0.7500   -1.2990    0.0000 C   0  0  0  0  0  0  0  0  0  0  0  0
  1  2  2  0
  2  3  1  0
  3  4  1  0
  4  5  2  0
  5  6  1  0
  6  7  1  0
  7  8  1  0
  2  9  1  0
  9 10  1  0
 10 11  1  0
 11 12  1  0
 12 13  1  0
 13 14  1  0
 14 15  1  0
 15 16  1  0
 16 17  1  0
 17 18  1  0
 12 19  1  0
 19 20  1  0
  8  4  1  0
 20  9  1  0
 18 13  1  0
M  END
>  <Title>  (1198) 
idABSHgen7

$$$$

     RDKit          2D

 10 10  0  0  0  0  0  0  0  0999 V2000
    3.6929    0.0000    0.0000 C   0  0  0  0  0  0  0  0  0  0  0  0
    2.1929    0.0000    0.0000 C   0  0  0  0  0  0  0  0  0  0  0  0
    1.6798    1.4095    0.0000 C   0  0  0  0  0  0  0  0  0  0  0  0
    0.3808    2.1595    0.0000 C   0  0  0  0  0  0  0  0  0  0  0  0
   -1.0964    1.8991    0.0000 C   0  0  0  0  0  0  0  0  0  0  0  0
   -2.0606    0.7500    0.0000 C   0  0  0  0  0  0  0  0  0  0  0  0
   -2.0606   -0.7500    0.0000 C   0  0  0  0  0  0  0  0  0  0  0  0
   -1.0964   -1.8991    0.0000 C   0  0  0  0  0  0  0  0  0  0  0  0
    0.3808   -2.1595    0.0000 C   0  0  0  0  0  0  0  0  0  0  0  0
    1.6798   -1.4095    0.0000 C   0  0  0  0  0  0  0  0  0  0  0  0
  1  2  1  0
  2  3  1  0
  3  4  1  0
  4  5  2  0
  5  6  1  0
  6  7  1  0
  7  8  1  0
  8  9  2  0
  9 10  1  0
 10  2  1  0
M  END
>  <Title>  (1199) 
idABSIgen7

$$$$

     RDKit          2D

 96 96  0  0  0  0  0  0  0  0999 V2000
   24.1837    0.0000    0.0000 C   0  0  0  0  0  0  0  0  0  0  0  0
   22.6837    0.0000    0.0000 C   0  0  0  0  0  0  0  0  0  0  0  0
   22.6341    1.4992    0.0000 C   0  0  0  0  0  0  0  0  0  0  0  0
   22.4856    2.9918    0.0000 C   0  0  0  0  0  0  0  0  0  0  0  0
   22.2387    4.4713    0.0000 C   0  0  0  0  0  0  0  0  0  0  0  0
   21.8945    5.9313    0.0000 C   0  0  0  0  0  0  0  0  0  0  0  0
   21.4546    7.3654    0.0000 C   0  0  0  0  0  0  0  0  0  0  0  0
   20.9210    8.7672    0.0000 C   0  0  0  0  0  0  0  0  0  0  0  0
   20.2958   10.1307    0.0000 C   0  0  0  0  0  0  0  0  0  0  0  0
   19.5819   11.4500    0.0000 C   0  0  0  0  0  0  0  0  0  0  0  0
   18.7823   12.7191    0.0000 C   0  0  0  0  0  0  0  0  0  0  0  0
   17.9006   13.9326    0.0000 C   0  0  0  0  0  0  0  0  0  0  0  0
   16.9407   15.0852    0.0000 C   0  0  0  0  0  0  0  0  0  0  0  0
   15.9067   16.1719    0.0000 C   0  0  0  0  0  0  0  0  0  0  0  0
   14.8031   17.1878    0.0000 C   0  0  0  0  0  0  0  0  0  0  0  0
   13.6348   18.1286    0.0000 C   0  0  0  0  0  0  0  0  0  0  0  0
   12.4068   18.9900    0.0000 C   0  0  0  0  0  0  0  0  0  0  0  0
   11.1246   19.7685    0.0000 C   0  0  0  0  0  0  0  0  0  0  0  0
    9.7938   20.4605    0.0000 C   0  0  0  0  0  0  0  0  0  0  0  0
    8.4201   21.0631    0.0000 C   0  0  0  0  0  0  0  0  0  0  0  0
    7.0097   21.5735    0.0000 C   0  0  0  0  0  0  0  0  0  0  0  0
    5.5685   21.9896    0.0000 C   0  0  0  0  0  0  0  0  0  0  0  0
    4.1030   22.3095    0.0000 C   0  0  0  0  0  0  0  0  0  0  0  0
    2.6196   22.5319    0.0000 C   0  0  0  0  0  0  0  0  0  0  0  0
    1.1247   22.6558    0.0000 C   0  0  0  0  0  0  0  0  0  0  0  0
   -0.3751   22.6806    0.0000 C   0  0  0  0  0  0  0  0  0  0  0  0
   -1.8732   22.6062    0.0000 C   0  0  0  0  0  0  0  0  0  0  0  0
   -3.3632   22.4330    0.0000 C   0  0  0  0  0  0  0  0  0  0  0  0
   -4.8384   22.1617    0.0000 C   0  0  0  0  0  0  0  0  0  0  0  0
   -6.2925   21.7935    0.0000 C   0  0  0  0  0  0  0  0  0  0  0  0
   -7.7191   21.3299    0.0000 C   0  0  0  0  0  0  0  0  0  0  0  0
   -9.1119   20.7731    0.0000 C   0  0  0  0  0  0  0  0  0  0  0  0
  -10.4649   20.1255    0.0000 C   0  0  0  0  0  0  0  0  0  0  0  0
  -11.7722   19.3899    0.0000 C   0  0  0  0  0  0  0  0  0  0  0  0
  -13.0279   18.5695    0.0000 C   0  0  0  0  0  0  0  0  0  0  0  0
  -14.2267   17.6678    0.0000 C   0  0  0  0  0  0  0  0  0  0  0  0
  -15.3633   16.6890    0.0000 C   0  0  0  0  0  0  0  0  0  0  0  0
  -16.4327   15.6371    0.0000 C   0  0  0  0  0  0  0  0  0  0  0  0
  -17.4302   14.5169    0.0000 C   0  0  0  0  0  0  0  0  0  0  0  0
  -18.3515   13.3332    0.0000 C   0  0  0  0  0  0  0  0  0  0  0  0
  -19.1926   12.0911    0.0000 C   0  0  0  0  0  0  0  0  0  0  0  0
  -19.9497   10.7963    0.0000 C   0  0  0  0  0  0  0  0  0  0  0  0
  -20.6196    9.4542    0.0000 C   0  0  0  0  0  0  0  0  0  0  0  0
  -21.1994    8.0707    0.0000 C   0  0  0  0  0  0  0  0  0  0  0  0
  -21.6864    6.6520    0.0000 C   0  0  0  0  0  0  0  0  0  0  0  0
  -22.0787    5.2042    0.0000 C   0  0  0  0  0  0  0  0  0  0  0  0
  -22.3743    3.7336    0.0000 C   0  0  0  0  0  0  0  0  0  0  0  0
  -22.5722    2.2467    0.0000 C   0  0  0  0  0  0  0  0  0  0  0  0
  -22.6713    0.7500    0.0000 C   0  0  0  0  0  0  0  0  0  0  0  0
  -22.6713   -0.7500    0.0000 C   0  0  0  0  0  0  0  0  0  0  0  0
  -22.5722   -2.2467    0.0000 C   0  0  0  0  0  0  0  0  0  0  0  0
  -22.3743   -3.7336    0.0000 C   0  0  0  0  0  0  0  0  0  0  0  0
  -22.0787   -5.2042    0.0000 C   0  0  0  0  0  0  0  0  0  0  0  0
  -21.6864   -6.6520    0.0000 C   0  0  0  0  0  0  0  0  0  0  0  0
  -21.1994   -8.0707    0.0000 C   0  0  0  0  0  0  0  0  0  0  0  0
  -20.6196   -9.4542    0.0000 C   0  0  0  0  0  0  0  0  0  0  0  0
  -19.9497  -10.7963    0.0000 C   0  0  0  0  0  0  0  0  0  0  0  0
  -19.1926  -12.0911    0.0000 C   0  0  0  0  0  0  0  0  0  0  0  0
  -18.3515  -13.3332    0.0000 C   0  0  0  0  0  0  0  0  0  0  0  0
  -17.4302  -14.5169    0.0000 C   0  0  0  0  0  0  0  0  0  0  0  0
  -16.4327  -15.6371    0.0000 C   0  0  0  0  0  0  0  0  0  0  0  0
  -15.3633  -16.6890    0.0000 C   0  0  0  0  0  0  0  0  0  0  0  0
  -14.2267  -17.6678    0.0000 C   0  0  0  0  0  0  0  0  0  0  0  0
  -13.0279  -18.5695    0.0000 C   0  0  0  0  0  0  0  0  0  0  0  0
  -11.7722  -19.3899    0.0000 C   0  0  0  0  0  0  0  0  0  0  0  0
  -10.4649  -20.1255    0.0000 C   0  0  0  0  0  0  0  0  0  0  0  0
   -9.1119  -20.7731    0.0000 C   0  0  0  0  0  0  0  0  0  0  0  0
   -7.7191  -21.3299    0.0000 C   0  0  0  0  0  0  0  0  0  0  0  0
   -6.2925  -21.7935    0.0000 C   0  0  0  0  0  0  0  0  0  0  0  0
   -4.8384  -22.1617    0.0000 C   0  0  0  0  0  0  0  0  0  0  0  0
   -3.3632  -22.4330    0.0000 C   0  0  0  0  0  0  0  0  0  0  0  0
   -1.8732  -22.6062    0.0000 C   0  0  0  0  0  0  0  0  0  0  0  0
   -0.3751  -22.6806    0.0000 C   0  0  0  0  0  0  0  0  0  0  0  0
    1.1247  -22.6558    0.0000 C   0  0  0  0  0  0  0  0  0  0  0  0
    2.6196  -22.5319    0.0000 C   0  0  0  0  0  0  0  0  0  0  0  0
    4.1030  -22.3095    0.0000 C   0  0  0  0  0  0  0  0  0  0  0  0
    5.5685  -21.9896    0.0000 C   0  0  0  0  0  0  0  0  0  0  0  0
    7.0097  -21.5735    0.0000 C   0  0  0  0  0  0  0  0  0  0  0  0
    8.4201  -21.0631    0.0000 C   0  0  0  0  0  0  0  0  0  0  0  0
    9.7938  -20.4605    0.0000 C   0  0  0  0  0  0  0  0  0  0  0  0
   11.1246  -19.7685    0.0000 C   0  0  0  0  0  0  0  0  0  0  0  0
   12.4068  -18.9900    0.0000 C   0  0  0  0  0  0  0  0  0  0  0  0
   13.6348  -18.1286    0.0000 C   0  0  0  0  0  0  0  0  0  0  0  0
   14.8031  -17.1878    0.0000 C   0  0  0  0  0  0  0  0  0  0  0  0
   15.9067  -16.1719    0.0000 C   0  0  0  0  0  0  0  0  0  0  0  0
   16.9407  -15.0852    0.0000 C   0  0  0  0  0  0  0  0  0  0  0  0
   17.9006  -13.9326    0.0000 C   0  0  0  0  0  0  0  0  0  0  0  0
   18.7823  -12.7191    0.0000 C   0  0  0  0  0  0  0  0  0  0  0  0
   19.5819  -11.4500    0.0000 C   0  0  0  0  0  0  0  0  0  0  0  0
   20.2958  -10.1307    0.0000 C   0  0  0  0  0  0  0  0  0  0  0  0
   20.9210   -8.7672    0.0000 C   0  0  0  0  0  0  0  0  0  0  0  0
   21.4546   -7.3654    0.0000 C   0  0  0  0  0  0  0  0  0  0  0  0
   21.8945   -5.9313    0.0000 C   0  0  0  0  0  0  0  0  0  0  0  0
   22.2387   -4.4713    0.0000 C   0  0  0  0  0  0  0  0  0  0  0  0
   22.4856   -2.9918    0.0000 C   0  0  0  0  0  0  0  0  0  0  0  0
   22.6341   -1.4992    0.0000 C   0  0  0  0  0  0  0  0  0  0  0  0
  1  2  1  0
  2  3  1  0
  3  4  1  0
  4  5  1  0
  5  6  1  0
  6  7  1  0
  7  8  1  0
  8  9  1  0
  9 10  1  0
 10 11  1  0
 11 12  1  0
 12 13  1  0
 13 14  1  0
 14 15  1  0
 15 16  1  0
 16 17  1  0
 17 18  1  0
 18 19  1  0
 19 20  1  0
 20 21  1  0
 21 22  1  0
 22 23  1  0
 23 24  1  0
 24 25  1  0
 25 26  1  0
 26 27  1  0
 27 28  1  0
 28 29  1  0
 29 30  1  0
 30 31  1  0
 31 32  1  0
 32 33  1  0
 33 34  1  0
 34 35  1  0
 35 36  1  0
 36 37  1  0
 37 38  1  0
 38 39  1  0
 39 40  1  0
 40 41  1  0
 41 42  1  0
 42 43  1  0
 43 44  1  0
 44 45  1  0
 45 46  1  0
 46 47  1  0
 47 48  1  0
 48 49  1  0
 49 50  1  0
 50 51  1  0
 51 52  1  0
 52 53  1  0
 53 54  1  0
 54 55  1  0
 55 56  1  0
 56 57  1  0
 57 58  1  0
 58 59  1  0
 59 60  1  0
 60 61  1  0
 61 62  1  0
 62 63  1  0
 63 64  1  0
 64 65  1  0
 65 66  1  0
 66 67  1  0
 67 68  1  0
 68 69  1  0
 69 70  1  0
 70 71  1  0
 71 72  1  0
 72 73  1  0
 73 74  1  0
 74 75  1  0
 75 76  1  0
 76 77  1  0
 77 78  1  0
 78 79  1  0
 79 80  1  0
 80 81  1  0
 81 82  1  0
 82 83  1  0
 83 84  1  0
 84 85  1  0
 85 86  1  0
 86 87  1  0
 87 88  1  0
 88 89  1  0
 89 90  1  0
 90 91  1  0
 91 92  1  0
 92 93  1  0
 93 94  1  0
 94 95  1  0
 95 96  1  0
 96  2  1  0
M  END
>  <Title>  (1200) 
idABSJgen7

$$$$

     RDKit          2D

106106  0  0  0  0  0  0  0  0999 V2000
   25.3093    0.0000    0.0000 C   0  0  0  0  0  0  0  0  0  0  0  0
   25.2649   -1.4993    0.0000 C   0  0  0  0  0  0  0  0  0  0  0  0
   25.1317   -2.9934    0.0000 C   0  0  0  0  0  0  0  0  0  0  0  0
   24.9102   -4.4770    0.0000 C   0  0  0  0  0  0  0  0  0  0  0  0
   24.6013   -5.9448    0.0000 C   0  0  0  0  0  0  0  0  0  0  0  0
   24.2059   -7.3918    0.0000 C   0  0  0  0  0  0  0  0  0  0  0  0
   23.7255   -8.8128    0.0000 C   0  0  0  0  0  0  0  0  0  0  0  0
   23.1617  -10.2028    0.0000 C   0  0  0  0  0  0  0  0  0  0  0  0
   22.5166  -11.5570    0.0000 C   0  0  0  0  0  0  0  0  0  0  0  0
   21.7924  -12.8706    0.0000 C   0  0  0  0  0  0  0  0  0  0  0  0
   20.9917  -14.1390    0.0000 C   0  0  0  0  0  0  0  0  0  0  0  0
   20.1172  -15.3577    0.0000 C   0  0  0  0  0  0  0  0  0  0  0  0
   19.1721  -16.5225    0.0000 C   0  0  0  0  0  0  0  0  0  0  0  0
   18.1596  -17.6292    0.0000 C   0  0  0  0  0  0  0  0  0  0  0  0
   17.0834  -18.6741    0.0000 C   0  0  0  0  0  0  0  0  0  0  0  0
   15.9471  -19.6533    0.0000 C   0  0  0  0  0  0  0  0  0  0  0  0
   14.7548  -20.5635    0.0000 C   0  0  0  0  0  0  0  0  0  0  0  0
   13.5107  -21.4015    0.0000 C   0  0  0  0  0  0  0  0  0  0  0  0
   12.2192  -22.1643    0.0000 C   0  0  0  0  0  0  0  0  0  0  0  0
   10.8847  -22.8492    0.0000 C   0  0  0  0  0  0  0  0  0  0  0  0
    9.5119  -23.4539    0.0000 C   0  0  0  0  0  0  0  0  0  0  0  0
    8.1058  -23.9762    0.0000 C   0  0  0  0  0  0  0  0  0  0  0  0
    6.6712  -24.4143    0.0000 C   0  0  0  0  0  0  0  0  0  0  0  0
    5.2132  -24.7666    0.0000 C   0  0  0  0  0  0  0  0  0  0  0  0
    3.7368  -25.0320    0.0000 C   0  0  0  0  0  0  0  0  0  0  0  0
    2.2474  -25.2094    0.0000 C   0  0  0  0  0  0  0  0  0  0  0  0
    0.7500  -25.2982    0.0000 C   0  0  0  0  0  0  0  0  0  0  0  0
   -0.7500  -25.2982    0.0000 C   0  0  0  0  0  0  0  0  0  0  0  0
   -2.2474  -25.2094    0.0000 C   0  0  0  0  0  0  0  0  0  0  0  0
   -3.7368  -25.0320    0.0000 C   0  0  0  0  0  0  0  0  0  0  0  0
   -5.2132  -24.7666    0.0000 C   0  0  0  0  0  0  0  0  0  0  0  0
   -6.6712  -24.4143    0.0000 C   0  0  0  0  0  0  0  0  0  0  0  0
   -8.1058  -23.9762    0.0000 C   0  0  0  0  0  0  0  0  0  0  0  0
   -9.5119  -23.4539    0.0000 C   0  0  0  0  0  0  0  0  0  0  0  0
  -10.8847  -22.8492    0.0000 C   0  0  0  0  0  0  0  0  0  0  0  0
  -12.2192  -22.1643    0.0000 C   0  0  0  0  0  0  0  0  0  0  0  0
  -13.5107  -21.4015    0.0000 C   0  0  0  0  0  0  0  0  0  0  0  0
  -14.7548  -20.5635    0.0000 C   0  0  0  0  0  0  0  0  0  0  0  0
  -15.9471  -19.6533    0.0000 C   0  0  0  0  0  0  0  0  0  0  0  0
  -17.0834  -18.6741    0.0000 C   0  0  0  0  0  0  0  0  0  0  0  0
  -18.1596  -17.6292    0.0000 C   0  0  0  0  0  0  0  0  0  0  0  0
  -19.1721  -16.5225    0.0000 C   0  0  0  0  0  0  0  0  0  0  0  0
  -20.1172  -15.3577    0.0000 C   0  0  0  0  0  0  0  0  0  0  0  0
  -20.9917  -14.1390    0.0000 C   0  0  0  0  0  0  0  0  0  0  0  0
  -21.7924  -12.8706    0.0000 C   0  0  0  0  0  0  0  0  0  0  0  0
  -22.5166  -11.5570    0.0000 C   0  0  0  0  0  0  0  0  0  0  0  0
  -23.1617  -10.2028    0.0000 C   0  0  0  0  0  0  0  0  0  0  0  0
  -23.7255   -8.8128    0.0000 C   0  0  0  0  0  0  0  0  0  0  0  0
  -24.2059   -7.3918    0.0000 C   0  0  0  0  0  0  0  0  0  0  0  0
  -24.6013   -5.9448    0.0000 C   0  0  0  0  0  0  0  0  0  0  0  0
  -24.9102   -4.4770    0.0000 C   0  0  0  0  0  0  0  0  0  0  0  0
  -25.1317   -2.9934    0.0000 C   0  0  0  0  0  0  0  0  0  0  0  0
  -25.2649   -1.4993    0.0000 C   0  0  0  0  0  0  0  0  0  0  0  0
  -25.3093    0.0000    0.0000 C   0  0  0  0  0  0  0  0  0  0  0  0
  -25.2649    1.4993    0.0000 C   0  0  0  0  0  0  0  0  0  0  0  0
  -25.1317    2.9934    0.0000 C   0  0  0  0  0  0  0  0  0  0  0  0
  -24.9102    4.4770    0.0000 C   0  0  0  0  0  0  0  0  0  0  0  0
  -24.6013    5.9448    0.0000 C   0  0  0  0  0  0  0  0  0  0  0  0
  -24.2059    7.3918    0.0000 C   0  0  0  0  0  0  0  0  0  0  0  0
  -23.7255    8.8128    0.0000 C   0  0  0  0  0  0  0  0  0  0  0  0
  -23.1617   10.2028    0.0000 C   0  0  0  0  0  0  0  0  0  0  0  0
  -22.5166   11.5570    0.0000 C   0  0  0  0  0  0  0  0  0  0  0  0
  -21.7924   12.8706    0.0000 C   0  0  0  0  0  0  0  0  0  0  0  0
  -20.9917   14.1390    0.0000 C   0  0  0  0  0  0  0  0  0  0  0  0
  -20.1172   15.3577    0.0000 C   0  0  0  0  0  0  0  0  0  0  0  0
  -19.1721   16.5225    0.0000 C   0  0  0  0  0  0  0  0  0  0  0  0
  -18.1596   17.6292    0.0000 C   0  0  0  0  0  0  0  0  0  0  0  0
  -17.0834   18.6741    0.0000 C   0  0  0  0  0  0  0  0  0  0  0  0
  -15.9471   19.6533    0.0000 C   0  0  0  0  0  0  0  0  0  0  0  0
  -14.7548   20.5635    0.0000 C   0  0  0  0  0  0  0  0  0  0  0  0
  -13.5107   21.4015    0.0000 C   0  0  0  0  0  0  0  0  0  0  0  0
  -12.2192   22.1643    0.0000 C   0  0  0  0  0  0  0  0  0  0  0  0
  -10.8847   22.8492    0.0000 C   0  0  0  0  0  0  0  0  0  0  0  0
   -9.5119   23.4539    0.0000 C   0  0  0  0  0  0  0  0  0  0  0  0
   -8.1058   23.9762    0.0000 C   0  0  0  0  0  0  0  0  0  0  0  0
   -6.6712   24.4143    0.0000 C   0  0  0  0  0  0  0  0  0  0  0  0
   -5.2132   24.7666    0.0000 C   0  0  0  0  0  0  0  0  0  0  0  0
   -3.7368   25.0320    0.0000 C   0  0  0  0  0  0  0  0  0  0  0  0
   -2.2474   25.2094    0.0000 C   0  0  0  0  0  0  0  0  0  0  0  0
   -0.7500   25.2982    0.0000 C   0  0  0  0  0  0  0  0  0  0  0  0
    0.7500   25.2982    0.0000 C   0  0  0  0  0  0  0  0  0  0  0  0
    2.2474   25.2094    0.0000 C   0  0  0  0  0  0  0  0  0  0  0  0
    3.7368   25.0320    0.0000 C   0  0  0  0  0  0  0  0  0  0  0  0
    5.2132   24.7666    0.0000 C   0  0  0  0  0  0  0  0  0  0  0  0
    6.6712   24.4143    0.0000 C   0  0  0  0  0  0  0  0  0  0  0  0
    8.1058   23.9762    0.0000 C   0  0  0  0  0  0  0  0  0  0  0  0
    9.5119   23.4539    0.0000 C   0  0  0  0  0  0  0  0  0  0  0  0
   10.8847   22.8492    0.0000 C   0  0  0  0  0  0  0  0  0  0  0  0
   12.2192   22.1643    0.0000 C   0  0  0  0  0  0  0  0  0  0  0  0
   13.5107   21.4015    0.0000 C   0  0  0  0  0  0  0  0  0  0  0  0
   14.7548   20.5635    0.0000 C   0  0  0  0  0  0  0  0  0  0  0  0
   15.9471   19.6533    0.0000 C   0  0  0  0  0  0  0  0  0  0  0  0
   17.0834   18.6741    0.0000 C   0  0  0  0  0  0  0  0  0  0  0  0
   18.1596   17.6292    0.0000 C   0  0  0  0  0  0  0  0  0  0  0  0
   19.1721   16.5225    0.0000 C   0  0  0  0  0  0  0  0  0  0  0  0
   20.1172   15.3577    0.0000 C   0  0  0  0  0  0  0  0  0  0  0  0
   20.9917   14.1390    0.0000 C   0  0  0  0  0  0  0  0  0  0  0  0
   21.7924   12.8706    0.0000 C   0  0  0  0  0  0  0  0  0  0  0  0
   22.5166   11.5570    0.0000 C   0  0  0  0  0  0  0  0  0  0  0  0
   23.1617   10.2028    0.0000 C   0  0  0  0  0  0  0  0  0  0  0  0
   23.7255    8.8128    0.0000 C   0  0  0  0  0  0  0  0  0  0  0  0
   24.2059    7.3918    0.0000 C   0  0  0  0  0  0  0  0  0  0  0  0
   24.6013    5.9448    0.0000 C   0  0  0  0  0  0  0  0  0  0  0  0
   24.9102    4.4770    0.0000 C   0  0  0  0  0  0  0  0  0  0  0  0
   25.1317    2.9934    0.0000 C   0  0  0  0  0  0  0  0  0  0  0  0
   25.2649    1.4993    0.0000 C   0  0  0  0  0  0  0  0  0  0  0  0
  1  2  1  0
  2  3  1  0
  3  4  1  0
  4  5  1  0
  5  6  1  0
  6  7  1  0
  7  8  1  0
  8  9  1  0
  9 10  1  0
 10 11  1  0
 11 12  1  0
 12 13  1  0
 13 14  1  0
 14 15  1  0
 15 16  1  0
 16 17  1  0
 17 18  1  0
 18 19  1  0
 19 20  1  0
 20 21  1  0
 21 22  1  0
 22 23  1  0
 23 24  1  0
 24 25  1  0
 25 26  1  0
 26 27  1  0
 27 28  1  0
 28 29  1  0
 29 30  1  0
 30 31  1  0
 31 32  1  0
 32 33  1  0
 33 34  1  0
 34 35  1  0
 35 36  1  0
 36 37  1  0
 37 38  1  0
 38 39  1  0
 39 40  1  0
 40 41  1  0
 41 42  1  0
 42 43  1  0
 43 44  1  0
 44 45  1  0
 45 46  1  0
 46 47  1  0
 47 48  1  0
 48 49  1  0
 49 50  1  0
 50 51  1  0
 51 52  1  0
 52 53  1  0
 53 54  1  0
 54 55  1  0
 55 56  1  0
 56 57  1  0
 57 58  1  0
 58 59  1  0
 59 60  1  0
 60 61  1  0
 61 62  1  0
 62 63  1  0
 63 64  1  0
 64 65  1  0
 65 66  1  0
 66 67  1  0
 67 68  1  0
 68 69  1  0
 69 70  1  0
 70 71  1  0
 71 72  1  0
 72 73  1  0
 73 74  1  0
 74 75  1  0
 75 76  1  0
 76 77  1  0
 77 78  1  0
 78 79  1  0
 79 80  1  0
 80 81  1  0
 81 82  1  0
 82 83  1  0
 83 84  1  0
 84 85  1  0
 85 86  1  0
 86 87  1  0
 87 88  1  0
 88 89  1  0
 89 90  1  0
 90 91  1  0
 91 92  1  0
 92 93  1  0
 93 94  1  0
 94 95  1  0
 95 96  1  0
 96 97  1  0
 97 98  1  0
 98 99  1  0
 99100  1  0
100101  1  0
101102  1  0
102103  1  0
103104  1  0
104105  1  0
105106  1  0
106  1  1  0
M  END
>  <Title>  (1201) 
idABSKgen7

$$$$

     RDKit          2D

 34 38  0  0  0  0  0  0  0  0999 V2000
   -1.1382   -8.3460    0.0000 C   0  0  0  0  0  0  0  0  0  0  0  0
   -0.7500   -6.8971    0.0000 C   0  0  0  0  0  0  0  0  0  0  0  0
    0.7500   -6.8971    0.0000 C   0  0  0  0  0  0  0  0  0  0  0  0
    2.0490   -6.1471    0.0000 C   0  0  0  0  0  0  0  0  0  0  0  0
    2.7990   -4.8481    0.0000 C   0  0  0  0  0  0  0  0  0  0  0  0
    2.7990   -3.3481    0.0000 C   0  0  0  0  0  0  0  0  0  0  0  0
    2.0490   -2.0490    0.0000 C   0  0  0  0  0  0  0  0  0  0  0  0
    3.1097   -0.9884    0.0000 C   0  0  0  0  0  0  0  0  0  0  0  0
    2.7215    0.4605    0.0000 O   0  0  0  0  0  0  0  0  0  0  0  0
    4.5586   -1.3766    0.0000 N   0  0  0  0  0  0  0  0  0  0  0  0
    5.6192   -0.3159    0.0000 C   0  0  0  0  0  0  0  0  0  0  0  0
    7.0681   -0.7042    0.0000 N   0  0  0  0  0  0  0  0  0  0  0  0
    8.1288    0.3565    0.0000 N   0  0  0  0  0  0  0  0  0  0  0  0
    7.7406    1.8054    0.0000 N   0  0  0  0  0  0  0  0  0  0  0  0
    6.2917    2.1936    0.0000 N   0  0  0  0  0  0  0  0  0  0  0  0
    5.2310    1.1329    0.0000 N   0  0  0  0  0  0  0  0  0  0  0  0
    0.7500   -1.2990    0.0000 C   0  0  0  0  0  0  0  0  0  0  0  0
    1.5000    0.0000    0.0000 C   0  0  0  0  0  0  0  0  0  0  0  0
    0.7500    1.2990    0.0000 C   0  0  0  0  0  0  0  0  0  0  0  0
   -0.7500    1.2990    0.0000 C   0  0  0  0  0  0  0  0  0  0  0  0
   -1.5000    0.0000    0.0000 C   0  0  0  0  0  0  0  0  0  0  0  0
   -0.7500   -1.2990    0.0000 C   0  0  0  0  0  0  0  0  0  0  0  0
   -2.0490   -2.0490    0.0000 C   0  0  0  0  0  0  0  0  0  0  0  0
   -2.7990   -0.7500    0.0000 C   0  0  0  0  0  0  0  0  0  0  0  0
   -4.2990   -0.7500    0.0000 C   0  0  0  0  0  0  0  0  0  0  0  0
   -5.0490   -2.0490    0.0000 C   0  0  0  0  0  0  0  0  0  0  0  0
   -4.2990   -3.3481    0.0000 C   0  0  0  0  0  0  0  0  0  0  0  0
   -2.7990   -3.3481    0.0000 C   0  0  0  0  0  0  0  0  0  0  0  0
   -2.7990   -4.8481    0.0000 C   0  0  0  0  0  0  0  0  0  0  0  0
   -4.2990   -4.8481    0.0000 C   0  0  0  0  0  0  0  0  0  0  0  0
   -5.0490   -6.1471    0.0000 C   0  0  0  0  0  0  0  0  0  0  0  0
   -4.2990   -7.4462    0.0000 C   0  0  0  0  0  0  0  0  0  0  0  0
   -2.7990   -7.4462    0.0000 C   0  0  0  0  0  0  0  0  0  0  0  0
   -2.0490   -6.1471    0.0000 C   0  0  0  0  0  0  0  0  0  0  0  0
  1  2  1  0
  2  3  1  0
  3  4  2  0
  4  5  1  0
  5  6  1  0
  6  7  1  0
  7  8  1  0
  8  9  2  0
  8 10  1  0
 10 11  1  0
 11 12  2  0
 12 13  1  0
 13 14  2  0
 14 15  1  0
 15 16  2  0
  7 17  1  0
 17 18  2  0
 18 19  1  0
 19 20  2  0
 20 21  1  0
 21 22  2  0
 22 23  1  0
 23 24  2  0
 24 25  1  0
 25 26  2  0
 26 27  1  0
 27 28  2  0
 28 29  1  0
 29 30  2  0
 30 31  1  0
 31 32  2  0
 32 33  1  0
 33 34  2  0
 34  2  1  0
 16 11  1  0
 22 17  1  0
 28 23  1  0
 34 29  1  0
M  END
>  <Title>  (1202) 
idABSLgen7

$$$$

     RDKit          2D

 81 81  0  0  0  0  0  0  0  0999 V2000
   20.6035    0.0000    0.0000 C   0  0  0  0  0  0  0  0  0  0  0  0
   19.1035    0.0000    0.0000 C   0  0  0  0  0  0  0  0  0  0  0  0
   19.0446   -1.4988    0.0000 C   0  0  0  0  0  0  0  0  0  0  0  0
   18.8683   -2.9884    0.0000 C   0  0  0  0  0  0  0  0  0  0  0  0
   18.5757   -4.4596    0.0000 C   0  0  0  0  0  0  0  0  0  0  0  0
   18.1685   -5.9033    0.0000 C   0  0  0  0  0  0  0  0  0  0  0  0
   17.6493   -7.3106    0.0000 C   0  0  0  0  0  0  0  0  0  0  0  0
   17.0213   -8.6728    0.0000 C   0  0  0  0  0  0  0  0  0  0  0  0
   16.2884   -9.9816    0.0000 C   0  0  0  0  0  0  0  0  0  0  0  0
   15.4551  -11.2288    0.0000 C   0  0  0  0  0  0  0  0  0  0  0  0
   14.5264  -12.4067    0.0000 C   0  0  0  0  0  0  0  0  0  0  0  0
   13.5082  -13.5082    0.0000 C   0  0  0  0  0  0  0  0  0  0  0  0
   12.4067  -14.5264    0.0000 C   0  0  0  0  0  0  0  0  0  0  0  0
   11.2288  -15.4551    0.0000 C   0  0  0  0  0  0  0  0  0  0  0  0
    9.9816  -16.2884    0.0000 C   0  0  0  0  0  0  0  0  0  0  0  0
    8.6728  -17.0213    0.0000 C   0  0  0  0  0  0  0  0  0  0  0  0
    7.3106  -17.6493    0.0000 C   0  0  0  0  0  0  0  0  0  0  0  0
    5.9033  -18.1685    0.0000 C   0  0  0  0  0  0  0  0  0  0  0  0
    4.4596  -18.5757    0.0000 C   0  0  0  0  0  0  0  0  0  0  0  0
    2.9884  -18.8683    0.0000 C   0  0  0  0  0  0  0  0  0  0  0  0
    1.4988  -19.0446    0.0000 C   0  0  0  0  0  0  0  0  0  0  0  0
   -0.0000  -19.1035    0.0000 C   0  0  0  0  0  0  0  0  0  0  0  0
   -1.4988  -19.0446    0.0000 C   0  0  0  0  0  0  0  0  0  0  0  0
   -2.9884  -18.8683    0.0000 C   0  0  0  0  0  0  0  0  0  0  0  0
   -4.4596  -18.5757    0.0000 C   0  0  0  0  0  0  0  0  0  0  0  0
   -5.9033  -18.1685    0.0000 C   0  0  0  0  0  0  0  0  0  0  0  0
   -7.3106  -17.6493    0.0000 C   0  0  0  0  0  0  0  0  0  0  0  0
   -8.6728  -17.0213    0.0000 C   0  0  0  0  0  0  0  0  0  0  0  0
   -9.9816  -16.2884    0.0000 C   0  0  0  0  0  0  0  0  0  0  0  0
  -11.2288  -15.4551    0.0000 C   0  0  0  0  0  0  0  0  0  0  0  0
  -12.4067  -14.5264    0.0000 C   0  0  0  0  0  0  0  0  0  0  0  0
  -13.5082  -13.5082    0.0000 C   0  0  0  0  0  0  0  0  0  0  0  0
  -14.5264  -12.4067    0.0000 C   0  0  0  0  0  0  0  0  0  0  0  0
  -15.4551  -11.2288    0.0000 C   0  0  0  0  0  0  0  0  0  0  0  0
  -16.2884   -9.9816    0.0000 C   0  0  0  0  0  0  0  0  0  0  0  0
  -17.0213   -8.6728    0.0000 C   0  0  0  0  0  0  0  0  0  0  0  0
  -17.6493   -7.3106    0.0000 C   0  0  0  0  0  0  0  0  0  0  0  0
  -18.1685   -5.9033    0.0000 C   0  0  0  0  0  0  0  0  0  0  0  0
  -18.5757   -4.4596    0.0000 C   0  0  0  0  0  0  0  0  0  0  0  0
  -18.8683   -2.9884    0.0000 C   0  0  0  0  0  0  0  0  0  0  0  0
  -19.0446   -1.4988    0.0000 C   0  0  0  0  0  0  0  0  0  0  0  0
  -19.1035    0.0000    0.0000 C   0  0  0  0  0  0  0  0  0  0  0  0
  -19.0446    1.4988    0.0000 C   0  0  0  0  0  0  0  0  0  0  0  0
  -18.8683    2.9884    0.0000 C   0  0  0  0  0  0  0  0  0  0  0  0
  -18.5757    4.4596    0.0000 C   0  0  0  0  0  0  0  0  0  0  0  0
  -18.1685    5.9033    0.0000 C   0  0  0  0  0  0  0  0  0  0  0  0
  -17.6493    7.3106    0.0000 C   0  0  0  0  0  0  0  0  0  0  0  0
  -17.0213    8.6728    0.0000 C   0  0  0  0  0  0  0  0  0  0  0  0
  -16.2884    9.9816    0.0000 C   0  0  0  0  0  0  0  0  0  0  0  0
  -15.4551   11.2288    0.0000 C   0  0  0  0  0  0  0  0  0  0  0  0
  -14.5264   12.4067    0.0000 C   0  0  0  0  0  0  0  0  0  0  0  0
  -13.5082   13.5082    0.0000 C   0  0  0  0  0  0  0  0  0  0  0  0
  -12.4067   14.5264    0.0000 C   0  0  0  0  0  0  0  0  0  0  0  0
  -11.2288   15.4551    0.0000 C   0  0  0  0  0  0  0  0  0  0  0  0
   -9.9816   16.2884    0.0000 C   0  0  0  0  0  0  0  0  0  0  0  0
   -8.6728   17.0213    0.0000 C   0  0  0  0  0  0  0  0  0  0  0  0
   -7.3106   17.6493    0.0000 C   0  0  0  0  0  0  0  0  0  0  0  0
   -5.9033   18.1685    0.0000 C   0  0  0  0  0  0  0  0  0  0  0  0
   -4.4596   18.5757    0.0000 C   0  0  0  0  0  0  0  0  0  0  0  0
   -2.9884   18.8683    0.0000 C   0  0  0  0  0  0  0  0  0  0  0  0
   -1.4988   19.0446    0.0000 C   0  0  0  0  0  0  0  0  0  0  0  0
    0.0000   19.1035    0.0000 C   0  0  0  0  0  0  0  0  0  0  0  0
    1.4988   19.0446    0.0000 C   0  0  0  0  0  0  0  0  0  0  0  0
    2.9884   18.8683    0.0000 C   0  0  0  0  0  0  0  0  0  0  0  0
    4.4596   18.5757    0.0000 C   0  0  0  0  0  0  0  0  0  0  0  0
    5.9033   18.1685    0.0000 C   0  0  0  0  0  0  0  0  0  0  0  0
    7.3106   17.6493    0.0000 C   0  0  0  0  0  0  0  0  0  0  0  0
    8.6728   17.0213    0.0000 C   0  0  0  0  0  0  0  0  0  0  0  0
    9.9816   16.2884    0.0000 C   0  0  0  0  0  0  0  0  0  0  0  0
   11.2288   15.4551    0.0000 C   0  0  0  0  0  0  0  0  0  0  0  0
   12.4067   14.5264    0.0000 C   0  0  0  0  0  0  0  0  0  0  0  0
   13.5082   13.5082    0.0000 C   0  0  0  0  0  0  0  0  0  0  0  0
   14.5264   12.4067    0.0000 C   0  0  0  0  0  0  0  0  0  0  0  0
   15.4551   11.2288    0.0000 C   0  0  0  0  0  0  0  0  0  0  0  0
   16.2884    9.9816    0.0000 C   0  0  0  0  0  0  0  0  0  0  0  0
   17.0213    8.6728    0.0000 C   0  0  0  0  0  0  0  0  0  0  0  0
   17.6493    7.3106    0.0000 C   0  0  0  0  0  0  0  0  0  0  0  0
   18.1685    5.9033    0.0000 C   0  0  0  0  0  0  0  0  0  0  0  0
   18.5757    4.4596    0.0000 C   0  0  0  0  0  0  0  0  0  0  0  0
   18.8683    2.9884    0.0000 C   0  0  0  0  0  0  0  0  0  0  0  0
   19.0446    1.4988    0.0000 C   0  0  0  0  0  0  0  0  0  0  0  0
  1  2  1  0
  2  3  1  0
  3  4  1  0
  4  5  1  0
  5  6  2  0
  6  7  1  0
  7  8  2  0
  8  9  1  0
  9 10  1  0
 10 11  1  0
 11 12  1  0
 12 13  1  0
 13 14  1  0
 14 15  1  0
 15 16  1  0
 16 17  1  0
 17 18  1  0
 18 19  1  0
 19 20  1  0
 20 21  1  0
 21 22  1  0
 22 23  1  0
 23 24  1  0
 24 25  1  0
 25 26  1  0
 26 27  1  0
 27 28  1  0
 28 29  1  0
 29 30  1  0
 30 31  1  0
 31 32  1  0
 32 33  1  0
 33 34  1  0
 34 35  1  0
 35 36  1  0
 36 37  1  0
 37 38  1  0
 38 39  1  0
 39 40  1  0
 40 41  1  0
 41 42  1  0
 42 43  1  0
 43 44  1  0
 44 45  1  0
 45 46  1  0
 46 47  1  0
 47 48  1  0
 48 49  1  0
 49 50  1  0
 50 51  1  0
 51 52  1  0
 52 53  1  0
 53 54  1  0
 54 55  1  0
 55 56  1  0
 56 57  1  0
 57 58  1  0
 58 59  1  0
 59 60  1  0
 60 61  1  0
 61 62  1  0
 62 63  1  0
 63 64  1  0
 64 65  1  0
 65 66  1  0
 66 67  1  0
 67 68  1  0
 68 69  1  0
 69 70  1  0
 70 71  1  0
 71 72  1  0
 72 73  1  0
 73 74  1  0
 74 75  1  0
 75 76  1  0
 76 77  1  0
 77 78  1  0
 78 79  1  0
 79 80  1  0
 80 81  1  0
 81  2  1  0
M  END
>  <Title>  (1203) 
idABSMgen7

$$$$

     RDKit          2D

 63 63  0  0  0  0  0  0  0  0999 V2000
   17.5691    0.0000    0.0000 N   0  0  0  0  0  0  0  0  0  0  0  0
   16.0691    0.0000    0.0000 C   0  0  0  0  0  0  0  0  0  0  0  0
   14.5691    0.0000    0.0000 C   0  0  0  0  0  0  0  0  0  0  0  0
   14.4919    1.4980    0.0000 C   0  0  0  0  0  0  0  0  0  0  0  0
   14.2611    2.9801    0.0000 C   0  0  0  0  0  0  0  0  0  0  0  0
   13.8791    4.4307    0.0000 C   0  0  0  0  0  0  0  0  0  0  0  0
   13.3499    5.8343    0.0000 C   0  0  0  0  0  0  0  0  0  0  0  0
   12.6793    7.1760    0.0000 C   0  0  0  0  0  0  0  0  0  0  0  0
   11.8742    8.4417    0.0000 C   0  0  0  0  0  0  0  0  0  0  0  0
   10.9433    9.6178    0.0000 C   0  0  0  0  0  0  0  0  0  0  0  0
    9.8964   10.6921    0.0000 C   0  0  0  0  0  0  0  0  0  0  0  0
    8.7446   11.6530    0.0000 C   0  0  0  0  0  0  0  0  0  0  0  0
    7.5001   12.4903    0.0000 C   0  0  0  0  0  0  0  0  0  0  0  0
    6.1761   13.1953    0.0000 C   0  0  0  0  0  0  0  0  0  0  0  0
    4.7866   13.7604    0.0000 C   0  0  0  0  0  0  0  0  0  0  0  0
    3.3463   14.1796    0.0000 C   0  0  0  0  0  0  0  0  0  0  0  0
    1.8707   14.4485    0.0000 C   0  0  0  0  0  0  0  0  0  0  0  0
    0.3751   14.5643    0.0000 C   0  0  0  0  0  0  0  0  0  0  0  0
   -1.1244   14.5257    0.0000 C   0  0  0  0  0  0  0  0  0  0  0  0
   -2.6120   14.3331    0.0000 C   0  0  0  0  0  0  0  0  0  0  0  0
   -4.0719   13.9885    0.0000 C   0  0  0  0  0  0  0  0  0  0  0  0
   -5.4886   13.4957    0.0000 C   0  0  0  0  0  0  0  0  0  0  0  0
   -6.8471   12.8599    0.0000 C   0  0  0  0  0  0  0  0  0  0  0  0
   -8.1331   12.0877    0.0000 C   0  0  0  0  0  0  0  0  0  0  0  0
   -9.3329   11.1873    0.0000 C   0  0  0  0  0  0  0  0  0  0  0  0
  -10.4337   10.1684    0.0000 C   0  0  0  0  0  0  0  0  0  0  0  0
  -11.4239    9.0417    0.0000 C   0  0  0  0  0  0  0  0  0  0  0  0
  -12.2931    7.8192    0.0000 C   0  0  0  0  0  0  0  0  0  0  0  0
  -13.0319    6.5138    0.0000 C   0  0  0  0  0  0  0  0  0  0  0  0
  -13.6326    5.1393    0.0000 C   0  0  0  0  0  0  0  0  0  0  0  0
  -14.0887    3.7103    0.0000 C   0  0  0  0  0  0  0  0  0  0  0  0
  -14.3956    2.2420    0.0000 C   0  0  0  0  0  0  0  0  0  0  0  0
  -14.5498    0.7500    0.0000 C   0  0  0  0  0  0  0  0  0  0  0  0
  -14.5498   -0.7500    0.0000 C   0  0  0  0  0  0  0  0  0  0  0  0
  -14.3956   -2.2420    0.0000 C   0  0  0  0  0  0  0  0  0  0  0  0
  -14.0887   -3.7103    0.0000 C   0  0  0  0  0  0  0  0  0  0  0  0
  -13.6326   -5.1393    0.0000 C   0  0  0  0  0  0  0  0  0  0  0  0
  -13.0319   -6.5138    0.0000 C   0  0  0  0  0  0  0  0  0  0  0  0
  -12.2931   -7.8192    0.0000 C   0  0  0  0  0  0  0  0  0  0  0  0
  -11.4239   -9.0417    0.0000 C   0  0  0  0  0  0  0  0  0  0  0  0
  -10.4337  -10.1684    0.0000 C   0  0  0  0  0  0  0  0  0  0  0  0
   -9.3329  -11.1873    0.0000 C   0  0  0  0  0  0  0  0  0  0  0  0
   -8.1331  -12.0877    0.0000 C   0  0  0  0  0  0  0  0  0  0  0  0
   -6.8471  -12.8599    0.0000 C   0  0  0  0  0  0  0  0  0  0  0  0
   -5.4886  -13.4957    0.0000 C   0  0  0  0  0  0  0  0  0  0  0  0
   -4.0719  -13.9885    0.0000 C   0  0  0  0  0  0  0  0  0  0  0  0
   -2.6120  -14.3331    0.0000 C   0  0  0  0  0  0  0  0  0  0  0  0
   -1.1244  -14.5257    0.0000 C   0  0  0  0  0  0  0  0  0  0  0  0
    0.3751  -14.5643    0.0000 C   0  0  0  0  0  0  0  0  0  0  0  0
    1.8707  -14.4485    0.0000 C   0  0  0  0  0  0  0  0  0  0  0  0
    3.3463  -14.1796    0.0000 C   0  0  0  0  0  0  0  0  0  0  0  0
    4.7866  -13.7604    0.0000 C   0  0  0  0  0  0  0  0  0  0  0  0
    6.1761  -13.1953    0.0000 C   0  0  0  0  0  0  0  0  0  0  0  0
    7.5001  -12.4903    0.0000 C   0  0  0  0  0  0  0  0  0  0  0  0
    8.7446  -11.6530    0.0000 C   0  0  0  0  0  0  0  0  0  0  0  0
    9.8964  -10.6921    0.0000 C   0  0  0  0  0  0  0  0  0  0  0  0
   10.9433   -9.6178    0.0000 C   0  0  0  0  0  0  0  0  0  0  0  0
   11.8742   -8.4417    0.0000 C   0  0  0  0  0  0  0  0  0  0  0  0
   12.6793   -7.1760    0.0000 C   0  0  0  0  0  0  0  0  0  0  0  0
   13.3499   -5.8343    0.0000 C   0  0  0  0  0  0  0  0  0  0  0  0
   13.8791   -4.4307    0.0000 C   0  0  0  0  0  0  0  0  0  0  0  0
   14.2611   -2.9801    0.0000 C   0  0  0  0  0  0  0  0  0  0  0  0
   14.4919   -1.4980    0.0000 C   0  0  0  0  0  0  0  0  0  0  0  0
  1  2  3  0
  2  3  1  0
  3  4  1  0
  4  5  1  0
  5  6  1  0
  6  7  1  0
  7  8  1  0
  8  9  1  0
  9 10  1  0
 10 11  1  0
 11 12  1  0
 12 13  1  0
 13 14  1  0
 14 15  1  0
 15 16  1  0
 16 17  1  0
 17 18  1  0
 18 19  1  0
 19 20  1  0
 20 21  1  0
 21 22  1  0
 22 23  1  0
 23 24  1  0
 24 25  1  0
 25 26  1  0
 26 27  1  0
 27 28  1  0
 28 29  1  0
 29 30  1  0
 30 31  1  0
 31 32  1  0
 32 33  1  0
 33 34  1  0
 34 35  1  0
 35 36  1  0
 36 37  1  0
 37 38  1  0
 38 39  1  0
 39 40  1  0
 40 41  1  0
 41 42  1  0
 42 43  1  0
 43 44  1  0
 44 45  1  0
 45 46  1  0
 46 47  1  0
 47 48  1  0
 48 49  1  0
 49 50  1  0
 50 51  1  0
 51 52  1  0
 52 53  1  0
 53 54  1  0
 54 55  1  0
 55 56  1  0
 56 57  1  0
 57 58  1  0
 58 59  1  0
 59 60  1  0
 60 61  1  0
 61 62  1  0
 62 63  1  0
 63  3  1  0
M  END
>  <Title>  (1204) 
idABSNgen7

$$$$

     RDKit          2D

 23 25  0  0  0  0  0  0  0  0999 V2000
    3.2286   -0.0000    0.0000 C   0  0  0  0  0  0  0  0  0  0  0  0
    1.7286    0.0000    0.0000 C   0  0  0  0  0  0  0  0  0  0  0  0
    1.0777    1.3515    0.0000 C   0  0  0  0  0  0  0  0  0  0  0  0
   -0.3846    1.6852    0.0000 C   0  0  0  0  0  0  0  0  0  0  0  0
   -1.5574    0.7500    0.0000 C   0  0  0  0  0  0  0  0  0  0  0  0
   -1.5574   -0.7500    0.0000 C   0  0  0  0  0  0  0  0  0  0  0  0
   -2.9088   -1.4008    0.0000 N   0  0  0  0  0  0  0  0  0  0  0  0
   -4.1482   -0.5558    0.0000 C   0  0  0  0  0  0  0  0  0  0  0  0
   -5.4997   -1.2067    0.0000 C   0  0  0  0  0  0  0  0  0  0  0  0
   -5.6118   -2.7025    0.0000 C   0  0  0  0  0  0  0  0  0  0  0  0
   -6.9632   -3.3533    0.0000 C   0  0  0  0  0  0  0  0  0  0  0  0
   -7.0753   -4.8491    0.0000 O   0  0  0  0  0  0  0  0  0  0  0  0
   -8.2026   -2.5083    0.0000 N   0  0  0  0  0  0  0  0  0  0  0  0
   -9.5540   -3.1591    0.0000 C   0  0  0  0  0  0  0  0  0  0  0  0
  -10.7934   -2.3142    0.0000 N   0  0  0  0  0  0  0  0  0  0  0  0
  -12.1448   -2.9650    0.0000 N   0  0  0  0  0  0  0  0  0  0  0  0
  -12.2569   -4.4608    0.0000 N   0  0  0  0  0  0  0  0  0  0  0  0
  -11.0176   -5.3058    0.0000 N   0  0  0  0  0  0  0  0  0  0  0  0
   -9.6661   -4.6550    0.0000 N   0  0  0  0  0  0  0  0  0  0  0  0
   -4.3724   -3.5475    0.0000 C   0  0  0  0  0  0  0  0  0  0  0  0
   -3.0209   -2.8966    0.0000 C   0  0  0  0  0  0  0  0  0  0  0  0
   -0.3846   -1.6852    0.0000 C   0  0  0  0  0  0  0  0  0  0  0  0
    1.0777   -1.3515    0.0000 C   0  0  0  0  0  0  0  0  0  0  0  0
  1  2  1  0
  2  3  1  0
  3  4  2  0
  4  5  1  0
  5  6  1  0
  6  7  1  0
  7  8  1  0
  8  9  1  0
  9 10  1  0
 10 11  1  0
 11 12  2  0
 11 13  1  0
 13 14  1  0
 14 15  2  0
 15 16  1  0
 16 17  2  0
 17 18  1  0
 18 19  2  0
 10 20  1  0
 20 21  1  0
  6 22  1  0
 22 23  1  0
 23  2  1  0
 21  7  1  0
 19 14  1  0
M  END
>  <Title>  (1205) 
idABSOgen7

$$$$

     RDKit          2D

 20 20  0  0  0  0  0  0  0  0999 V2000
    6.0567    0.0000    0.0000 C   0  0  0  0  0  0  0  0  0  0  0  0
    4.5567    0.0000    0.0000 C   0  0  0  0  0  0  0  0  0  0  0  0
    4.3098    1.4795    0.0000 C   0  0  0  0  0  0  0  0  0  0  0  0
    3.5958    2.7988    0.0000 C   0  0  0  0  0  0  0  0  0  0  0  0
    2.4923    3.8147    0.0000 C   0  0  0  0  0  0  0  0  0  0  0  0
    1.1186    4.4172    0.0000 C   0  0  0  0  0  0  0  0  0  0  0  0
   -0.3763    4.5411    0.0000 C   0  0  0  0  0  0  0  0  0  0  0  0
   -1.8304    4.1729    0.0000 C   0  0  0  0  0  0  0  0  0  0  0  0
   -3.0861    3.3524    0.0000 C   0  0  0  0  0  0  0  0  0  0  0  0
   -4.0075    2.1687    0.0000 C   0  0  0  0  0  0  0  0  0  0  0  0
   -4.4945    0.7500    0.0000 C   0  0  0  0  0  0  0  0  0  0  0  0
   -4.4945   -0.7500    0.0000 C   0  0  0  0  0  0  0  0  0  0  0  0
   -4.0075   -2.1687    0.0000 C   0  0  0  0  0  0  0  0  0  0  0  0
   -3.0861   -3.3524    0.0000 C   0  0  0  0  0  0  0  0  0  0  0  0
   -1.8304   -4.1729    0.0000 C   0  0  0  0  0  0  0  0  0  0  0  0
   -0.3763   -4.5411    0.0000 C   0  0  0  0  0  0  0  0  0  0  0  0
    1.1186   -4.4172    0.0000 C   0  0  0  0  0  0  0  0  0  0  0  0
    2.4923   -3.8147    0.0000 C   0  0  0  0  0  0  0  0  0  0  0  0
    3.5958   -2.7988    0.0000 C   0  0  0  0  0  0  0  0  0  0  0  0
    4.3098   -1.4795    0.0000 C   0  0  0  0  0  0  0  0  0  0  0  0
  1  2  1  0
  2  3  1  0
  3  4  1  0
  4  5  2  0
  5  6  1  0
  6  7  2  0
  7  8  1  0
  8  9  2  0
  9 10  1  0
 10 11  2  0
 11 12  1  0
 12 13  1  0
 13 14  1  0
 14 15  1  0
 15 16  1  0
 16 17  1  0
 17 18  1  0
 18 19  1  0
 19 20  1  0
 20  2  1  0
M  END
>  <Title>  (1206) 
idABSPgen7

$$$$

     RDKit          2D

 17 18  0  0  0  0  0  0  0  0999 V2000
    3.0000    0.0000    0.0000 C   0  0  0  0  0  0  0  0  0  0  0  0
    1.5000    0.0000    0.0000 C   0  0  0  0  0  0  0  0  0  0  0  0
    0.7500   -1.2990    0.0000 C   0  0  0  0  0  0  0  0  0  0  0  0
   -0.7500   -1.2990    0.0000 C   0  0  0  0  0  0  0  0  0  0  0  0
   -1.5000    0.0000    0.0000 C   0  0  0  0  0  0  0  0  0  0  0  0
   -3.0000    0.0000    0.0000 C   0  0  0  0  0  0  0  0  0  0  0  0
   -3.7500   -1.2990    0.0000 O   0  0  0  0  0  0  0  0  0  0  0  0
   -3.7500    1.2990    0.0000 N   0  0  0  0  0  0  0  0  0  0  0  0
   -5.2500    1.2990    0.0000 C   0  0  0  0  0  0  0  0  0  0  0  0
   -6.0000    2.5981    0.0000 N   0  0  0  0  0  0  0  0  0  0  0  0
   -7.5000    2.5981    0.0000 N   0  0  0  0  0  0  0  0  0  0  0  0
   -8.2500    1.2990    0.0000 N   0  0  0  0  0  0  0  0  0  0  0  0
   -7.5000    0.0000    0.0000 N   0  0  0  0  0  0  0  0  0  0  0  0
   -6.0000    0.0000    0.0000 N   0  0  0  0  0  0  0  0  0  0  0  0
   -0.7500    1.2990    0.0000 C   0  0  0  0  0  0  0  0  0  0  0  0
    0.7500    1.2990    0.0000 C   0  0  0  0  0  0  0  0  0  0  0  0
    1.5000    2.5981    0.0000 O   0  0  0  0  0  0  0  0  0  0  0  0
  1  2  1  0
  2  3  1  0
  3  4  1  0
  4  5  1  0
  5  6  1  0
  6  7  2  0
  6  8  1  0
  8  9  1  0
  9 10  2  0
 10 11  1  0
 11 12  2  0
 12 13  1  0
 13 14  2  0
  5 15  1  0
 15 16  1  0
 16 17  2  0
 16  2  1  0
 14  9  1  0
M  END
>  <Title>  (1207) 
idABSQgen7

$$$$

     RDKit          2D

 35 35  0  0  0  0  0  0  0  0999 V2000
    9.6285    0.0000    0.0000 C   0  0  0  0  0  0  0  0  0  0  0  0
    8.1285    0.0000    0.0000 C   0  0  0  0  0  0  0  0  0  0  0  0
    7.9901   -1.4936    0.0000 C   0  0  0  0  0  0  0  0  0  0  0  0
    7.5796   -2.9363    0.0000 C   0  0  0  0  0  0  0  0  0  0  0  0
    6.9110   -4.2791    0.0000 C   0  0  0  0  0  0  0  0  0  0  0  0
    6.0070   -5.4761    0.0000 C   0  0  0  0  0  0  0  0  0  0  0  0
    4.8985   -6.4867    0.0000 C   0  0  0  0  0  0  0  0  0  0  0  0
    3.6232   -7.2763    0.0000 C   0  0  0  0  0  0  0  0  0  0  0  0
    2.2245   -7.8182    0.0000 C   0  0  0  0  0  0  0  0  0  0  0  0
    0.7500   -8.0938    0.0000 C   0  0  0  0  0  0  0  0  0  0  0  0
   -0.7500   -8.0938    0.0000 C   0  0  0  0  0  0  0  0  0  0  0  0
   -2.2245   -7.8182    0.0000 C   0  0  0  0  0  0  0  0  0  0  0  0
   -3.6232   -7.2763    0.0000 C   0  0  0  0  0  0  0  0  0  0  0  0
   -4.8985   -6.4867    0.0000 C   0  0  0  0  0  0  0  0  0  0  0  0
   -6.0070   -5.4761    0.0000 C   0  0  0  0  0  0  0  0  0  0  0  0
   -6.9110   -4.2791    0.0000 C   0  0  0  0  0  0  0  0  0  0  0  0
   -7.5796   -2.9363    0.0000 C   0  0  0  0  0  0  0  0  0  0  0  0
   -7.9901   -1.4936    0.0000 C   0  0  0  0  0  0  0  0  0  0  0  0
   -8.1285    0.0000    0.0000 C   0  0  0  0  0  0  0  0  0  0  0  0
   -7.9901    1.4936    0.0000 C   0  0  0  0  0  0  0  0  0  0  0  0
   -7.5796    2.9363    0.0000 C   0  0  0  0  0  0  0  0  0  0  0  0
   -6.9110    4.2791    0.0000 C   0  0  0  0  0  0  0  0  0  0  0  0
   -6.0070    5.4761    0.0000 C   0  0  0  0  0  0  0  0  0  0  0  0
   -4.8985    6.4867    0.0000 C   0  0  0  0  0  0  0  0  0  0  0  0
   -3.6232    7.2763    0.0000 C   0  0  0  0  0  0  0  0  0  0  0  0
   -2.2245    7.8182    0.0000 C   0  0  0  0  0  0  0  0  0  0  0  0
   -0.7500    8.0938    0.0000 C   0  0  0  0  0  0  0  0  0  0  0  0
    0.7500    8.0938    0.0000 C   0  0  0  0  0  0  0  0  0  0  0  0
    2.2245    7.8182    0.0000 C   0  0  0  0  0  0  0  0  0  0  0  0
    3.6232    7.2763    0.0000 C   0  0  0  0  0  0  0  0  0  0  0  0
    4.8985    6.4867    0.0000 C   0  0  0  0  0  0  0  0  0  0  0  0
    6.0070    5.4761    0.0000 C   0  0  0  0  0  0  0  0  0  0  0  0
    6.9110    4.2791    0.0000 C   0  0  0  0  0  0  0  0  0  0  0  0
    7.5796    2.9363    0.0000 C   0  0  0  0  0  0  0  0  0  0  0  0
    7.9901    1.4936    0.0000 C   0  0  0  0  0  0  0  0  0  0  0  0
  1  2  1  0
  2  3  1  0
  3  4  2  0
  4  5  1  0
  5  6  2  0
  6  7  1  0
  7  8  2  0
  8  9  1  0
  9 10  1  0
 10 11  1  0
 11 12  1  0
 12 13  1  0
 13 14  1  0
 14 15  1  0
 15 16  1  0
 16 17  1  0
 17 18  1  0
 18 19  1  0
 19 20  1  0
 20 21  1  0
 21 22  1  0
 22 23  1  0
 23 24  1  0
 24 25  1  0
 25 26  1  0
 26 27  1  0
 27 28  1  0
 28 29  1  0
 29 30  1  0
 30 31  1  0
 31 32  1  0
 32 33  1  0
 33 34  1  0
 34 35  1  0
 35  2  1  0
M  END
>  <Title>  (1208) 
idABSRgen7

$$$$

     RDKit          2D

 12 12  0  0  0  0  0  0  0  0999 V2000
    5.0260   -1.2990    0.0000 C   0  0  0  0  0  0  0  0  0  0  0  0
    3.5260   -1.2990    0.0000 O   0  0  0  0  0  0  0  0  0  0  0  0
    2.7760    0.0000    0.0000 C   0  0  0  0  0  0  0  0  0  0  0  0
    3.5260    1.2990    0.0000 O   0  0  0  0  0  0  0  0  0  0  0  0
    1.2760    0.0000    0.0000 N   0  0  0  0  0  0  0  0  0  0  0  0
    0.3943    1.2135    0.0000 C   0  0  0  0  0  0  0  0  0  0  0  0
   -1.0323    0.7500    0.0000 C   0  0  0  0  0  0  0  0  0  0  0  0
   -1.0323   -0.7500    0.0000 C   0  0  0  0  0  0  0  0  0  0  0  0
   -2.2458   -1.6317    0.0000 C   0  0  0  0  0  0  0  0  0  0  0  0
   -2.0890   -3.1235    0.0000 O   0  0  0  0  0  0  0  0  0  0  0  0
   -3.6161   -1.0216    0.0000 O   0  0  0  0  0  0  0  0  0  0  0  0
    0.3943   -1.2135    0.0000 C   0  0  0  0  0  0  0  0  0  0  0  0
  1  2  1  0
  2  3  1  0
  3  4  2  0
  3  5  1  0
  5  6  1  0
  6  7  1  0
  7  8  1  0
  8  9  1  0
  9 10  2  0
  9 11  1  0
  8 12  1  0
 12  5  1  0
M  END
>  <Title>  (1209) 
idABSSgen7

$$$$

     RDKit          2D

 10 10  0  0  0  0  0  0  0  0999 V2000
    5.0260   -1.2990    0.0000 C   0  0  0  0  0  0  0  0  0  0  0  0
    3.5260   -1.2990    0.0000 C   0  0  0  0  0  0  0  0  0  0  0  0
    2.7760   -2.5981    0.0000 O   0  0  0  0  0  0  0  0  0  0  0  0
    2.7760    0.0000    0.0000 C   0  0  0  0  0  0  0  0  0  0  0  0
    3.5260    1.2990    0.0000 O   0  0  0  0  0  0  0  0  0  0  0  0
    1.2760    0.0000    0.0000 C   0  0  0  0  0  0  0  0  0  0  0  0
    0.3943    1.2135    0.0000 C   0  0  0  0  0  0  0  0  0  0  0  0
   -1.0323    0.7500    0.0000 C   0  0  0  0  0  0  0  0  0  0  0  0
   -1.0323   -0.7500    0.0000 C   0  0  0  0  0  0  0  0  0  0  0  0
    0.3943   -1.2135    0.0000 C   0  0  0  0  0  0  0  0  0  0  0  0
  1  2  1  0
  2  3  2  0
  2  4  1  0
  4  5  2  0
  4  6  1  0
  6  7  2  0
  7  8  1  0
  8  9  2  0
  9 10  1  0
 10  6  1  0
M  END
>  <Title>  (1210) 
idABSTgen7

$$$$

     RDKit          2D

 35 35  0  0  0  0  0  0  0  0999 V2000
   11.1634   -1.2990    0.0000 C   0  0  0  0  0  0  0  0  0  0  0  0
    9.6634   -1.2990    0.0000 C   0  0  0  0  0  0  0  0  0  0  0  0
    8.9134    0.0000    0.0000 C   0  0  0  0  0  0  0  0  0  0  0  0
    7.4134    0.0000    0.0000 C   0  0  0  0  0  0  0  0  0  0  0  0
    7.2616    1.4923    0.0000 C   0  0  0  0  0  0  0  0  0  0  0  0
    6.8126    2.9235    0.0000 C   0  0  0  0  0  0  0  0  0  0  0  0
    6.0846    4.2350    0.0000 C   0  0  0  0  0  0  0  0  0  0  0  0
    5.1076    5.3732    0.0000 C   0  0  0  0  0  0  0  0  0  0  0  0
    3.9214    6.2913    0.0000 C   0  0  0  0  0  0  0  0  0  0  0  0
    2.5747    6.9519    0.0000 C   0  0  0  0  0  0  0  0  0  0  0  0
    1.1226    7.3279    0.0000 C   0  0  0  0  0  0  0  0  0  0  0  0
   -0.3755    7.4039    0.0000 C   0  0  0  0  0  0  0  0  0  0  0  0
   -1.8582    7.1767    0.0000 C   0  0  0  0  0  0  0  0  0  0  0  0
   -3.2648    6.6558    0.0000 C   0  0  0  0  0  0  0  0  0  0  0  0
   -4.5378    5.8623    0.0000 C   0  0  0  0  0  0  0  0  0  0  0  0
   -5.6250    4.8289    0.0000 C   0  0  0  0  0  0  0  0  0  0  0  0
   -6.4819    3.5977    0.0000 C   0  0  0  0  0  0  0  0  0  0  0  0
   -7.0734    2.2193    0.0000 C   0  0  0  0  0  0  0  0  0  0  0  0
   -7.3754    0.7500    0.0000 C   0  0  0  0  0  0  0  0  0  0  0  0
   -7.3754   -0.7500    0.0000 C   0  0  0  0  0  0  0  0  0  0  0  0
   -7.0734   -2.2193    0.0000 C   0  0  0  0  0  0  0  0  0  0  0  0
   -6.4819   -3.5977    0.0000 C   0  0  0  0  0  0  0  0  0  0  0  0
   -5.6250   -4.8289    0.0000 C   0  0  0  0  0  0  0  0  0  0  0  0
   -4.5378   -5.8623    0.0000 C   0  0  0  0  0  0  0  0  0  0  0  0
   -3.2648   -6.6558    0.0000 C   0  0  0  0  0  0  0  0  0  0  0  0
   -1.8582   -7.1767    0.0000 C   0  0  0  0  0  0  0  0  0  0  0  0
   -0.3755   -7.4039    0.0000 C   0  0  0  0  0  0  0  0  0  0  0  0
    1.1226   -7.3279    0.0000 C   0  0  0  0  0  0  0  0  0  0  0  0
    1.3497   -8.8106    0.0000 C   0  0  0  0  0  0  0  0  0  0  0  0
    2.5747   -6.9519    0.0000 C   0  0  0  0  0  0  0  0  0  0  0  0
    3.9214   -6.2913    0.0000 C   0  0  0  0  0  0  0  0  0  0  0  0
    5.1076   -5.3732    0.0000 C   0  0  0  0  0  0  0  0  0  0  0  0
    6.0846   -4.2350    0.0000 C   0  0  0  0  0  0  0  0  0  0  0  0
    6.8126   -2.9235    0.0000 C   0  0  0  0  0  0  0  0  0  0  0  0
    7.2616   -1.4923    0.0000 N   0  0  0  0  0  0  0  0  0  0  0  0
  1  2  1  0
  2  3  1  0
  3  4  1  0
  4  5  1  0
  5  6  1  0
  6  7  1  0
  7  8  1  0
  8  9  1  0
  9 10  1  0
 10 11  1  0
 11 12  1  0
 12 13  1  0
 13 14  1  0
 14 15  1  0
 15 16  1  0
 16 17  1  0
 17 18  1  0
 18 19  1  0
 19 20  1  0
 20 21  1  0
 21 22  1  0
 22 23  1  0
 23 24  1  0
 24 25  1  0
 25 26  1  0
 26 27  1  0
 27 28  1  0
 28 29  1  0
 28 30  1  0
 30 31  2  0
 31 32  1  0
 32 33  2  0
 33 34  1  0
 34 35  1  0
 35  4  1  0
M  END
>  <Title>  (1211) 
idABSUgen7

$$$$

     RDKit          2D

  9  9  0  0  0  0  0  0  0  0999 V2000
    3.9786   -1.2990    0.0000 O   0  0  0  0  0  0  0  0  0  0  0  0
    3.2286   -0.0000    0.0000 C   0  0  0  0  0  0  0  0  0  0  0  0
    1.7286    0.0000    0.0000 C   0  0  0  0  0  0  0  0  0  0  0  0
    1.0777    1.3515    0.0000 C   0  0  0  0  0  0  0  0  0  0  0  0
   -0.3846    1.6852    0.0000 C   0  0  0  0  0  0  0  0  0  0  0  0
   -1.5574    0.7500    0.0000 C   0  0  0  0  0  0  0  0  0  0  0  0
   -1.5574   -0.7500    0.0000 C   0  0  0  0  0  0  0  0  0  0  0  0
   -0.3846   -1.6852    0.0000 C   0  0  0  0  0  0  0  0  0  0  0  0
    1.0777   -1.3515    0.0000 C   0  0  0  0  0  0  0  0  0  0  0  0
  1  2  1  0
  2  3  1  0
  3  4  2  0
  4  5  1  0
  5  6  1  0
  6  7  1  0
  7  8  1  0
  8  9  1  0
  9  3  1  0
M  END
>  <Title>  (1212) 
idABSVgen7

$$$$

     RDKit          2D

 14 15  0  0  0  0  0  0  0  0999 V2000
    0.4775   -7.0740    0.0000 C   0  0  0  0  0  0  0  0  0  0  0  0
    1.8478   -6.4639    0.0000 C   0  0  0  0  0  0  0  0  0  0  0  0
    3.0613   -7.3456    0.0000 O   0  0  0  0  0  0  0  0  0  0  0  0
    2.0046   -4.9721    0.0000 N   0  0  0  0  0  0  0  0  0  0  0  0
    3.3037   -4.2221    0.0000 C   0  0  0  0  0  0  0  0  0  0  0  0
    2.9918   -2.7549    0.0000 C   0  0  0  0  0  0  0  0  0  0  0  0
    1.5000   -2.5981    0.0000 C   0  0  0  0  0  0  0  0  0  0  0  0
    0.7500   -1.2990    0.0000 C   0  0  0  0  0  0  0  0  0  0  0  0
    1.5000    0.0000    0.0000 C   0  0  0  0  0  0  0  0  0  0  0  0
    0.7500    1.2990    0.0000 C   0  0  0  0  0  0  0  0  0  0  0  0
   -0.7500    1.2990    0.0000 C   0  0  0  0  0  0  0  0  0  0  0  0
   -1.5000    0.0000    0.0000 C   0  0  0  0  0  0  0  0  0  0  0  0
   -0.7500   -1.2990    0.0000 C   0  0  0  0  0  0  0  0  0  0  0  0
    0.8899   -3.9684    0.0000 C   0  0  0  0  0  0  0  0  0  0  0  0
  1  2  1  0
  2  3  2  0
  2  4  1  0
  4  5  1  0
  5  6  1  0
  6  7  1  0
  7  8  1  0
  8  9  2  0
  9 10  1  0
 10 11  2  0
 11 12  1  0
 12 13  2  0
  7 14  1  0
 14  4  1  0
 13  8  1  0
M  END
>  <Title>  (1213) 
idABSWgen7

$$$$

     RDKit          2D

  6  6  0  0  0  0  0  0  0  0999 V2000
    2.7760    0.0000    0.0000 N   0  0  0  0  0  0  0  0  0  0  0  0
    1.2760    0.0000    0.0000 C   0  0  0  0  0  0  0  0  0  0  0  0
    0.3943    1.2135    0.0000 C   0  0  0  0  0  0  0  0  0  0  0  0
   -1.0323    0.7500    0.0000 C   0  0  0  0  0  0  0  0  0  0  0  0
   -1.0323   -0.7500    0.0000 C   0  0  0  0  0  0  0  0  0  0  0  0
    0.3943   -1.2135    0.0000 C   0  0  0  0  0  0  0  0  0  0  0  0
  1  2  2  0
  2  3  1  0
  3  4  1  0
  4  5  2  0
  5  6  1  0
  6  2  1  0
M  END
>  <Title>  (1214) 
idABSXgen7

$$$$

     RDKit          2D

 10 10  0  0  0  0  0  0  0  0999 V2000
    3.0000   -2.5981    0.0000 O   0  0  0  0  0  0  0  0  0  0  0  0
    3.7500   -1.2990    0.0000 C   0  0  0  0  0  0  0  0  0  0  0  0
    5.2500   -1.2990    0.0000 O   0  0  0  0  0  0  0  0  0  0  0  0
    3.0000    0.0000    0.0000 O   0  0  0  0  0  0  0  0  0  0  0  0
    1.5000    0.0000    0.0000 C   0  0  0  0  0  0  0  0  0  0  0  0
    0.7500   -1.2990    0.0000 C   0  0  0  0  0  0  0  0  0  0  0  0
   -0.7500   -1.2990    0.0000 C   0  0  0  0  0  0  0  0  0  0  0  0
   -1.5000    0.0000    0.0000 C   0  0  0  0  0  0  0  0  0  0  0  0
   -0.7500    1.2990    0.0000 C   0  0  0  0  0  0  0  0  0  0  0  0
    0.7500    1.2990    0.0000 C   0  0  0  0  0  0  0  0  0  0  0  0
  1  2  2  0
  2  3  1  0
  2  4  1  0
  4  5  1  0
  5  6  2  0
  6  7  1  0
  7  8  2  0
  8  9  1  0
  9 10  2  0
 10  5  1  0
M  END
>  <Title>  (1215) 
idABSYgen7

$$$$

     RDKit          2D

 33 37  0  0  0  0  0  0  0  0999 V2000
   -2.7508    2.2253    0.0000 C   0  0  0  0  0  0  0  0  0  0  0  0
   -1.3716    2.8148    0.0000 C   0  0  0  0  0  0  0  0  0  0  0  0
   -1.5060    4.3088    0.0000 C   0  0  0  0  0  0  0  0  0  0  0  0
   -0.7367    5.5965    0.0000 C   0  0  0  0  0  0  0  0  0  0  0  0
    0.6426    6.1860    0.0000 C   0  0  0  0  0  0  0  0  0  0  0  0
    0.5082    7.6800    0.0000 C   0  0  0  0  0  0  0  0  0  0  0  0
    1.7347    8.5434    0.0000 O   0  0  0  0  0  0  0  0  0  0  0  0
   -0.8529    8.3105    0.0000 N   0  0  0  0  0  0  0  0  0  0  0  0
   -0.9873    9.8045    0.0000 C   0  0  0  0  0  0  0  0  0  0  0  0
    0.2393   10.6679    0.0000 N   0  0  0  0  0  0  0  0  0  0  0  0
    0.1048   12.1619    0.0000 N   0  0  0  0  0  0  0  0  0  0  0  0
   -1.2562   12.7924    0.0000 N   0  0  0  0  0  0  0  0  0  0  0  0
   -2.4828   11.9290    0.0000 N   0  0  0  0  0  0  0  0  0  0  0  0
   -2.3484   10.4350    0.0000 N   0  0  0  0  0  0  0  0  0  0  0  0
    2.1050    5.8522    0.0000 C   0  0  0  0  0  0  0  0  0  0  0  0
    2.5898    7.2717    0.0000 C   0  0  0  0  0  0  0  0  0  0  0  0
    4.0616    7.5616    0.0000 C   0  0  0  0  0  0  0  0  0  0  0  0
    5.0485    6.4320    0.0000 C   0  0  0  0  0  0  0  0  0  0  0  0
    4.5637    5.0125    0.0000 C   0  0  0  0  0  0  0  0  0  0  0  0
    3.0919    4.7226    0.0000 C   0  0  0  0  0  0  0  0  0  0  0  0
    3.2264    3.2287    0.0000 C   0  0  0  0  0  0  0  0  0  0  0  0
    4.7262    3.2062    0.0000 C   0  0  0  0  0  0  0  0  0  0  0  0
    5.4567    1.8961    0.0000 C   0  0  0  0  0  0  0  0  0  0  0  0
    4.6874    0.6084    0.0000 C   0  0  0  0  0  0  0  0  0  0  0  0
    3.1875    0.6309    0.0000 C   0  0  0  0  0  0  0  0  0  0  0  0
    2.4570    1.9410    0.0000 C   0  0  0  0  0  0  0  0  0  0  0  0
    1.0777    1.3515    0.0000 C   0  0  0  0  0  0  0  0  0  0  0  0
    1.7286    0.0000    0.0000 C   0  0  0  0  0  0  0  0  0  0  0  0
    1.0777   -1.3515    0.0000 C   0  0  0  0  0  0  0  0  0  0  0  0
   -0.3846   -1.6852    0.0000 C   0  0  0  0  0  0  0  0  0  0  0  0
   -1.5574   -0.7500    0.0000 C   0  0  0  0  0  0  0  0  0  0  0  0
   -1.5574    0.7500    0.0000 C   0  0  0  0  0  0  0  0  0  0  0  0
   -0.3846    1.6852    0.0000 C   0  0  0  0  0  0  0  0  0  0  0  0
  1  2  1  0
  2  3  1  0
  3  4  1  0
  4  5  1  0
  5  6  1  0
  6  7  2  0
  6  8  1  0
  8  9  1  0
  9 10  2  0
 10 11  1  0
 11 12  2  0
 12 13  1  0
 13 14  2  0
  5 15  1  0
 15 16  2  0
 16 17  1  0
 17 18  2  0
 18 19  1  0
 19 20  2  0
 20 21  1  0
 21 22  2  0
 22 23  1  0
 23 24  2  0
 24 25  1  0
 25 26  2  0
 26 27  1  0
 27 28  2  0
 28 29  1  0
 29 30  1  0
 30 31  1  0
 31 32  1  0
 32 33  2  0
 33  2  1  0
 14  9  1  0
 20 15  1  0
 26 21  1  0
 33 27  1  0
M  END
>  <Title>  (1216) 
idABSZgen7

$$$$

     RDKit          2D

 15 15  0  0  0  0  0  0  0  0999 V2000
    5.7760   -0.0000    0.0000 O   0  0  0  0  0  0  0  0  0  0  0  0
    5.0260    1.2990    0.0000 C   0  0  0  0  0  0  0  0  0  0  0  0
    5.7760    2.5981    0.0000 O   0  0  0  0  0  0  0  0  0  0  0  0
    3.5260    1.2990    0.0000 C   0  0  0  0  0  0  0  0  0  0  0  0
    2.7760    0.0000    0.0000 C   0  0  0  0  0  0  0  0  0  0  0  0
    3.5260   -1.2990    0.0000 O   0  0  0  0  0  0  0  0  0  0  0  0
    1.2760    0.0000    0.0000 N   0  0  0  0  0  0  0  0  0  0  0  0
    0.3943    1.2135    0.0000 C   0  0  0  0  0  0  0  0  0  0  0  0
   -1.0323    0.7500    0.0000 C   0  0  0  0  0  0  0  0  0  0  0  0
   -1.0323   -0.7500    0.0000 C   0  0  0  0  0  0  0  0  0  0  0  0
   -2.2458   -1.6317    0.0000 C   0  0  0  0  0  0  0  0  0  0  0  0
   -2.0890   -3.1235    0.0000 O   0  0  0  0  0  0  0  0  0  0  0  0
   -3.6161   -1.0216    0.0000 O   0  0  0  0  0  0  0  0  0  0  0  0
    0.3943   -1.2135    0.0000 C   0  0  0  0  0  0  0  0  0  0  0  0
    0.8578   -2.6401    0.0000 O   0  0  0  0  0  0  0  0  0  0  0  0
  1  2  2  0
  2  3  1  0
  2  4  1  0
  4  5  1  0
  5  6  2  0
  5  7  1  0
  7  8  1  0
  8  9  1  0
  9 10  1  0
 10 11  1  0
 11 12  2  0
 11 13  1  0
 10 14  1  0
 14 15  2  0
 14  7  1  0
M  END
>  <Title>  (1217) 
idABTAgen7

$$$$

     RDKit          2D

  7  7  0  0  0  0  0  0  0  0999 V2000
    3.0000    0.0000    0.0000 O   0  0  0  0  0  0  0  0  0  0  0  0
    1.5000    0.0000    0.0000 C   0  0  0  0  0  0  0  0  0  0  0  0
    0.7500   -1.2990    0.0000 C   0  0  0  0  0  0  0  0  0  0  0  0
   -0.7500   -1.2990    0.0000 C   0  0  0  0  0  0  0  0  0  0  0  0
   -1.5000    0.0000    0.0000 C   0  0  0  0  0  0  0  0  0  0  0  0
   -0.7500    1.2990    0.0000 C   0  0  0  0  0  0  0  0  0  0  0  0
    0.7500    1.2990    0.0000 C   0  0  0  0  0  0  0  0  0  0  0  0
  1  2  1  0
  2  3  1  0
  3  4  2  0
  4  5  1  0
  5  6  2  0
  6  7  1  0
  7  2  1  0
M  END
>  <Title>  (1218) 
idABTBgen7

$$$$

     RDKit          2D

  9  9  0  0  0  0  0  0  0  0999 V2000
    6.5260   -1.2990    0.0000 C   0  0  0  0  0  0  0  0  0  0  0  0
    5.7760   -0.0000    0.0000 C   0  0  0  0  0  0  0  0  0  0  0  0
    4.2760   -0.0000    0.0000 C   0  0  0  0  0  0  0  0  0  0  0  0
    2.7760    0.0000    0.0000 C   0  0  0  0  0  0  0  0  0  0  0  0
    1.2760    0.0000    0.0000 C   0  0  0  0  0  0  0  0  0  0  0  0
    0.3943    1.2135    0.0000 C   0  0  0  0  0  0  0  0  0  0  0  0
   -1.0323    0.7500    0.0000 C   0  0  0  0  0  0  0  0  0  0  0  0
   -1.0323   -0.7500    0.0000 C   0  0  0  0  0  0  0  0  0  0  0  0
    0.3943   -1.2135    0.0000 C   0  0  0  0  0  0  0  0  0  0  0  0
  1  2  1  0
  2  3  1  0
  3  4  3  0
  4  5  1  0
  5  6  2  0
  6  7  1  0
  7  8  2  0
  8  9  1  0
  9  5  1  0
M  END
>  <Title>  (1219) 
idABTCgen7

$$$$

     RDKit          2D

 13 14  0  0  0  0  0  0  0  0999 V2000
    3.3287    1.8373    0.0000 O   0  0  0  0  0  0  0  0  0  0  0  0
    2.3250    2.9520    0.0000 C   0  0  0  0  0  0  0  0  0  0  0  0
    0.8578    2.6401    0.0000 N   0  0  0  0  0  0  0  0  0  0  0  0
    0.3943    1.2135    0.0000 C   0  0  0  0  0  0  0  0  0  0  0  0
    1.2760    0.0000    0.0000 C   0  0  0  0  0  0  0  0  0  0  0  0
    0.3943   -1.2135    0.0000 C   0  0  0  0  0  0  0  0  0  0  0  0
   -1.0323   -0.7500    0.0000 C   0  0  0  0  0  0  0  0  0  0  0  0
   -1.0323    0.7500    0.0000 C   0  0  0  0  0  0  0  0  0  0  0  0
    2.7886    4.3786    0.0000 C   0  0  0  0  0  0  0  0  0  0  0  0
    1.9069    5.5921    0.0000 C   0  0  0  0  0  0  0  0  0  0  0  0
    2.7886    6.8056    0.0000 C   0  0  0  0  0  0  0  0  0  0  0  0
    4.2152    6.3421    0.0000 C   0  0  0  0  0  0  0  0  0  0  0  0
    4.2152    4.8421    0.0000 C   0  0  0  0  0  0  0  0  0  0  0  0
  1  2  2  0
  2  3  1  0
  3  4  1  0
  4  5  2  0
  5  6  1  0
  6  7  1  0
  7  8  1  0
  2  9  1  0
  9 10  2  0
 10 11  1  0
 11 12  2  0
 12 13  1  0
  8  4  1  0
 13  9  1  0
M  END
>  <Title>  (1220) 
idABTDgen7

$$$$

     RDKit          2D

 33 37  0  0  0  0  0  0  0  0999 V2000
    3.0000   -2.5981    0.0000 O   0  0  0  0  0  0  0  0  0  0  0  0
    1.5000   -2.5981    0.0000 C   0  0  0  0  0  0  0  0  0  0  0  0
    0.7500   -1.2990    0.0000 C   0  0  0  0  0  0  0  0  0  0  0  0
    1.5000    0.0000    0.0000 C   0  0  0  0  0  0  0  0  0  0  0  0
    0.7500    1.2990    0.0000 C   0  0  0  0  0  0  0  0  0  0  0  0
   -0.7500    1.2990    0.0000 C   0  0  0  0  0  0  0  0  0  0  0  0
   -1.5000    0.0000    0.0000 C   0  0  0  0  0  0  0  0  0  0  0  0
   -0.7500   -1.2990    0.0000 C   0  0  0  0  0  0  0  0  0  0  0  0
    0.7500   -3.8971    0.0000 C   0  0  0  0  0  0  0  0  0  0  0  0
    1.5000   -5.1962    0.0000 C   0  0  0  0  0  0  0  0  0  0  0  0
    0.7500   -6.4952    0.0000 C   0  0  0  0  0  0  0  0  0  0  0  0
    1.3601   -7.8655    0.0000 C   0  0  0  0  0  0  0  0  0  0  0  0
    0.2454   -8.8692    0.0000 C   0  0  0  0  0  0  0  0  0  0  0  0
   -1.0537   -8.1192    0.0000 C   0  0  0  0  0  0  0  0  0  0  0  0
   -0.7418   -6.6520    0.0000 C   0  0  0  0  0  0  0  0  0  0  0  0
   -0.7500   -3.8971    0.0000 N   0  0  0  0  0  0  0  0  0  0  0  0
   -1.5000   -2.5981    0.0000 C   0  0  0  0  0  0  0  0  0  0  0  0
   -3.0000   -2.5981    0.0000 C   0  0  0  0  0  0  0  0  0  0  0  0
   -3.7500   -3.8971    0.0000 C   0  0  0  0  0  0  0  0  0  0  0  0
   -5.2500   -3.8971    0.0000 N   0  0  0  0  0  0  0  0  0  0  0  0
   -6.0000   -2.5981    0.0000 C   0  0  0  0  0  0  0  0  0  0  0  0
   -7.5000   -2.5981    0.0000 C   0  0  0  0  0  0  0  0  0  0  0  0
   -8.2500   -3.8971    0.0000 C   0  0  0  0  0  0  0  0  0  0  0  0
   -9.7500   -3.8971    0.0000 C   0  0  0  0  0  0  0  0  0  0  0  0
  -10.5000   -2.5981    0.0000 C   0  0  0  0  0  0  0  0  0  0  0  0
  -12.0000   -2.5981    0.0000 C   0  0  0  0  0  0  0  0  0  0  0  0
  -12.7500   -3.8971    0.0000 C   0  0  0  0  0  0  0  0  0  0  0  0
  -12.0000   -5.1962    0.0000 C   0  0  0  0  0  0  0  0  0  0  0  0
  -10.5000   -5.1962    0.0000 C   0  0  0  0  0  0  0  0  0  0  0  0
   -7.5000   -5.1962    0.0000 C   0  0  0  0  0  0  0  0  0  0  0  0
   -6.0000   -5.1962    0.0000 C   0  0  0  0  0  0  0  0  0  0  0  0
   -3.0000   -5.1962    0.0000 C   0  0  0  0  0  0  0  0  0  0  0  0
   -1.5000   -5.1962    0.0000 C   0  0  0  0  0  0  0  0  0  0  0  0
  1  2  2  0
  2  3  1  0
  3  4  2  0
  4  5  1  0
  5  6  2  0
  6  7  1  0
  7  8  2  0
  2  9  1  0
  9 10  1  0
 10 11  1  0
 11 12  2  0
 12 13  1  0
 13 14  1  0
 14 15  2  0
  9 16  1  0
 16 17  1  0
 17 18  1  0
 18 19  1  0
 19 20  1  0
 20 21  1  0
 21 22  1  0
 22 23  1  0
 23 24  1  0
 24 25  2  0
 25 26  1  0
 26 27  2  0
 27 28  1  0
 28 29  2  0
 23 30  1  0
 30 31  1  0
 19 32  1  0
 32 33  1  0
  8  3  1  0
 15 11  1  0
 33 16  1  0
 31 20  1  0
 29 24  1  0
M  END
>  <Title>  (1221) 
idABTEgen7

$$$$

     RDKit          2D

 24 26  0  0  0  0  0  0  0  0999 V2000
    1.3240   -6.3062    0.0000 C   0  0  0  0  0  0  0  0  0  0  0  0
    0.7500   -4.9204    0.0000 C   0  0  0  0  0  0  0  0  0  0  0  0
    1.8107   -3.8597    0.0000 C   0  0  0  0  0  0  0  0  0  0  0  0
    1.8107   -2.3597    0.0000 C   0  0  0  0  0  0  0  0  0  0  0  0
    0.7500   -1.2990    0.0000 C   0  0  0  0  0  0  0  0  0  0  0  0
    1.5000    0.0000    0.0000 C   0  0  0  0  0  0  0  0  0  0  0  0
    0.7500    1.2990    0.0000 C   0  0  0  0  0  0  0  0  0  0  0  0
    1.5000    2.5981    0.0000 C   0  0  0  0  0  0  0  0  0  0  0  0
    2.2500    3.8971    0.0000 N   0  0  0  0  0  0  0  0  0  0  0  0
   -0.7500    1.2990    0.0000 C   0  0  0  0  0  0  0  0  0  0  0  0
   -1.5000    0.0000    0.0000 C   0  0  0  0  0  0  0  0  0  0  0  0
   -0.7500   -1.2990    0.0000 C   0  0  0  0  0  0  0  0  0  0  0  0
   -1.8107   -2.3597    0.0000 C   0  0  0  0  0  0  0  0  0  0  0  0
   -3.1965   -1.7857    0.0000 C   0  0  0  0  0  0  0  0  0  0  0  0
   -3.3923   -0.2985    0.0000 O   0  0  0  0  0  0  0  0  0  0  0  0
   -4.3865   -2.6988    0.0000 N   0  0  0  0  0  0  0  0  0  0  0  0
   -5.7723   -2.1248    0.0000 C   0  0  0  0  0  0  0  0  0  0  0  0
   -5.9681   -0.6376    0.0000 N   0  0  0  0  0  0  0  0  0  0  0  0
   -7.3539   -0.0636    0.0000 N   0  0  0  0  0  0  0  0  0  0  0  0
   -8.5440   -0.9767    0.0000 N   0  0  0  0  0  0  0  0  0  0  0  0
   -8.3482   -2.4639    0.0000 N   0  0  0  0  0  0  0  0  0  0  0  0
   -6.9624   -3.0379    0.0000 N   0  0  0  0  0  0  0  0  0  0  0  0
   -1.8107   -3.8597    0.0000 C   0  0  0  0  0  0  0  0  0  0  0  0
   -0.7500   -4.9204    0.0000 C   0  0  0  0  0  0  0  0  0  0  0  0
  1  2  1  0
  2  3  1  0
  3  4  1  0
  4  5  1  0
  5  6  2  0
  6  7  1  0
  7  8  1  0
  8  9  3  0
  7 10  2  0
 10 11  1  0
 11 12  2  0
 12 13  1  0
 13 14  1  0
 14 15  2  0
 14 16  1  0
 16 17  1  0
 17 18  2  0
 18 19  1  0
 19 20  2  0
 20 21  1  0
 21 22  2  0
 13 23  1  0
 23 24  1  0
 24  2  1  0
 12  5  1  0
 22 17  1  0
M  END
>  <Title>  (1222) 
idABTFgen7

$$$$

     RDKit          2D

 10 10  0  0  0  0  0  0  0  0999 V2000
    3.4598   -0.0000    0.0000 C   0  0  0  0  0  0  0  0  0  0  0  0
    1.9598    0.0000    0.0000 C   0  0  0  0  0  0  0  0  0  0  0  0
    1.3858   -1.3858    0.0000 C   0  0  0  0  0  0  0  0  0  0  0  0
   -0.0000   -1.9598    0.0000 C   0  0  0  0  0  0  0  0  0  0  0  0
   -1.3858   -1.3858    0.0000 C   0  0  0  0  0  0  0  0  0  0  0  0
   -1.9598    0.0000    0.0000 C   0  0  0  0  0  0  0  0  0  0  0  0
   -1.3858    1.3858    0.0000 C   0  0  0  0  0  0  0  0  0  0  0  0
    0.0000    1.9598    0.0000 C   0  0  0  0  0  0  0  0  0  0  0  0
    0.0000    3.4598    0.0000 C   0  0  0  0  0  0  0  0  0  0  0  0
    1.3858    1.3858    0.0000 C   0  0  0  0  0  0  0  0  0  0  0  0
  1  2  1  0
  2  3  2  0
  3  4  1  0
  4  5  1  0
  5  6  1  0
  6  7  1  0
  7  8  1  0
  8  9  1  0
  8 10  1  0
 10  2  1  0
M  END
>  <Title>  (1223) 
idABTGgen7

$$$$

     RDKit          2D

 23 25  0  0  0  0  0  0  0  0999 V2000
   -3.0000   -2.5981    0.0000 C   0  0  0  0  0  0  0  0  0  0  0  0
   -1.5000   -2.5981    0.0000 C   0  0  0  0  0  0  0  0  0  0  0  0
   -0.7500   -3.8971    0.0000 C   0  0  0  0  0  0  0  0  0  0  0  0
    0.7500   -3.8971    0.0000 C   0  0  0  0  0  0  0  0  0  0  0  0
    1.5000   -2.5981    0.0000 C   0  0  0  0  0  0  0  0  0  0  0  0
    3.0000   -2.5981    0.0000 N   0  0  0  0  0  0  0  0  0  0  0  0
    3.7500   -3.8971    0.0000 C   0  0  0  0  0  0  0  0  0  0  0  0
    3.0000   -5.1962    0.0000 O   0  0  0  0  0  0  0  0  0  0  0  0
    5.2500   -3.8971    0.0000 C   0  0  0  0  0  0  0  0  0  0  0  0
    6.0000   -2.5981    0.0000 O   0  0  0  0  0  0  0  0  0  0  0  0
    6.0000   -5.1962    0.0000 N   0  0  0  0  0  0  0  0  0  0  0  0
    7.5000   -5.1962    0.0000 C   0  0  0  0  0  0  0  0  0  0  0  0
    8.2500   -6.4952    0.0000 N   0  0  0  0  0  0  0  0  0  0  0  0
    9.7500   -6.4952    0.0000 N   0  0  0  0  0  0  0  0  0  0  0  0
   10.5000   -5.1962    0.0000 N   0  0  0  0  0  0  0  0  0  0  0  0
    9.7500   -3.8971    0.0000 N   0  0  0  0  0  0  0  0  0  0  0  0
    8.2500   -3.8971    0.0000 N   0  0  0  0  0  0  0  0  0  0  0  0
    0.7500   -1.2990    0.0000 C   0  0  0  0  0  0  0  0  0  0  0  0
    1.5000    0.0000    0.0000 C   0  0  0  0  0  0  0  0  0  0  0  0
    0.7500    1.2990    0.0000 C   0  0  0  0  0  0  0  0  0  0  0  0
   -0.7500    1.2990    0.0000 C   0  0  0  0  0  0  0  0  0  0  0  0
   -1.5000    0.0000    0.0000 C   0  0  0  0  0  0  0  0  0  0  0  0
   -0.7500   -1.2990    0.0000 C   0  0  0  0  0  0  0  0  0  0  0  0
  1  2  1  0
  2  3  1  0
  3  4  1  0
  4  5  1  0
  5  6  1  0
  6  7  1  0
  7  8  2  0
  7  9  1  0
  9 10  2  0
  9 11  1  0
 11 12  1  0
 12 13  2  0
 13 14  1  0
 14 15  2  0
 15 16  1  0
 16 17  2  0
  5 18  1  0
 18 19  2  0
 19 20  1  0
 20 21  2  0
 21 22  1  0
 22 23  2  0
 23  2  1  0
 17 12  1  0
 23 18  1  0
M  END
>  <Title>  (1224) 
idABTHgen7

$$$$

     RDKit          2D

 20 21  0  0  0  0  0  0  0  0999 V2000
    3.5260   -1.2990    0.0000 C   0  0  0  0  0  0  0  0  0  0  0  0
    2.7760    0.0000    0.0000 C   0  0  0  0  0  0  0  0  0  0  0  0
    3.5260    1.2990    0.0000 C   0  0  0  0  0  0  0  0  0  0  0  0
    1.2760    0.0000    0.0000 C   0  0  0  0  0  0  0  0  0  0  0  0
    0.3943    1.2135    0.0000 C   0  0  0  0  0  0  0  0  0  0  0  0
   -1.0323    0.7500    0.0000 C   0  0  0  0  0  0  0  0  0  0  0  0
   -1.0323   -0.7500    0.0000 N   0  0  0  0  0  0  0  0  0  0  0  0
   -2.2458   -1.6317    0.0000 C   0  0  0  0  0  0  0  0  0  0  0  0
   -3.6161   -1.0216    0.0000 C   0  0  0  0  0  0  0  0  0  0  0  0
   -4.8297   -1.9033    0.0000 O   0  0  0  0  0  0  0  0  0  0  0  0
   -2.0890   -3.1235    0.0000 N   0  0  0  0  0  0  0  0  0  0  0  0
   -3.3025   -4.0051    0.0000 C   0  0  0  0  0  0  0  0  0  0  0  0
   -4.6729   -3.3950    0.0000 O   0  0  0  0  0  0  0  0  0  0  0  0
   -3.1458   -5.4969    0.0000 C   0  0  0  0  0  0  0  0  0  0  0  0
   -1.8467   -6.2469    0.0000 C   0  0  0  0  0  0  0  0  0  0  0  0
   -2.1586   -7.7141    0.0000 C   0  0  0  0  0  0  0  0  0  0  0  0
   -3.6504   -7.8709    0.0000 C   0  0  0  0  0  0  0  0  0  0  0  0
   -4.2605   -6.5006    0.0000 C   0  0  0  0  0  0  0  0  0  0  0  0
   -5.7277   -6.1887    0.0000 C   0  0  0  0  0  0  0  0  0  0  0  0
    0.3943   -1.2135    0.0000 C   0  0  0  0  0  0  0  0  0  0  0  0
  1  2  1  0
  2  3  1  0
  2  4  1  0
  4  5  1  0
  5  6  1  0
  6  7  1  0
  7  8  1  0
  8  9  1  0
  9 10  2  0
  8 11  1  0
 11 12  1  0
 12 13  2  0
 12 14  1  0
 14 15  1  0
 15 16  1  0
 16 17  1  0
 17 18  1  0
 18 19  1  0
  7 20  1  0
 20  4  1  0
 18 14  1  0
M  END
>  <Title>  (1225) 
idABTIgen7

$$$$

     RDKit          2D

  4  3  0  0  0  0  0  0  0  0999 V2000
   -1.2990    0.7500    0.0000 O   0  0  0  0  0  0  0  0  0  0  0  0
    0.0000    0.0000    0.0000 C   0  0  0  0  0  0  0  0  0  0  0  0
    1.2990    0.7500    0.0000 O   0  0  0  0  0  0  0  0  0  0  0  0
   -0.0000   -1.5000    0.0000 F   0  0  0  0  0  0  0  0  0  0  0  0
  1  2  2  0
  2  3  1  0
  2  4  1  0
M  END
>  <Title>  (1226) 
idABTJgen7

$$$$
