
     RDKit          2D

  6  6  0  0  0  0  0  0  0  0999 V2000
    2.7760    0.0000    0.0000 O   0  0  0  0  0  0  0  0  0  0  0  0
    1.2760    0.0000    0.0000 C   0  0  0  0  0  0  0  0  0  0  0  0
    0.3943    1.2135    0.0000 C   0  0  0  0  0  0  0  0  0  0  0  0
   -1.0323    0.7500    0.0000 C   0  0  0  0  0  0  0  0  0  0  0  0
   -1.0323   -0.7500    0.0000 C   0  0  0  0  0  0  0  0  0  0  0  0
    0.3943   -1.2135    0.0000 C   0  0  0  0  0  0  0  0  0  0  0  0
  1  2  1  0
  2  3  2  0
  3  4  1  0
  4  5  2  0
  5  6  1  0
  6  2  1  0
M  END
>  <Title>  (1) 
idAAAAgen8

$$$$

     RDKit          2D

  7  6  0  0  0  0  0  0  0  0999 V2000
    0.0000    0.0000    0.0000 C   0  0  0  0  0  0  0  0  0  0  0  0
    1.2990    0.7500    0.0000 C   0  0  0  0  0  0  0  0  0  0  0  0
    2.5981   -0.0000    0.0000 C   0  0  0  0  0  0  0  0  0  0  0  0
    3.8971    0.7500    0.0000 N   0  0  0  0  0  0  0  0  0  0  0  0
    5.1962   -0.0000    0.0000 C   0  0  0  0  0  0  0  0  0  0  0  0
    6.4952    0.7500    0.0000 C   0  0  0  0  0  0  0  0  0  0  0  0
    7.7942   -0.0000    0.0000 C   0  0  0  0  0  0  0  0  0  0  0  0
  1  2  1  0
  2  3  2  3
  3  4  1  0
  4  5  1  0
  5  6  1  0
  6  7  1  0
M  END
>  <Title>  (2) 
idAAABgen8

$$$$

     RDKit          2D

  7  7  0  0  0  0  0  0  0  0999 V2000
    3.0000    0.0000    0.0000 C   0  0  0  0  0  0  0  0  0  0  0  0
    1.5000    0.0000    0.0000 C   0  0  0  0  0  0  0  0  0  0  0  0
    0.7500   -1.2990    0.0000 C   0  0  0  0  0  0  0  0  0  0  0  0
   -0.7500   -1.2990    0.0000 C   0  0  0  0  0  0  0  0  0  0  0  0
   -1.5000    0.0000    0.0000 C   0  0  0  0  0  0  0  0  0  0  0  0
   -0.7500    1.2990    0.0000 C   0  0  0  0  0  0  0  0  0  0  0  0
    0.7500    1.2990    0.0000 N   0  0  0  0  0  0  0  0  0  0  0  0
  1  2  1  0
  2  3  2  0
  3  4  1  0
  4  5  2  0
  5  6  1  0
  6  7  2  0
  7  2  1  0
M  END
>  <Title>  (3) 
idAAACgen8

$$$$

     RDKit          2D

 17 17  0  0  0  0  0  0  0  0999 V2000
   19.2760   -0.0000    0.0000 C   0  0  0  0  0  0  0  0  0  0  0  0
   17.7760   -0.0000    0.0000 C   0  0  0  0  0  0  0  0  0  0  0  0
   16.2760   -0.0000    0.0000 C   0  0  0  0  0  0  0  0  0  0  0  0
   14.7760   -0.0000    0.0000 C   0  0  0  0  0  0  0  0  0  0  0  0
   13.2760   -0.0000    0.0000 C   0  0  0  0  0  0  0  0  0  0  0  0
   11.7760   -0.0000    0.0000 C   0  0  0  0  0  0  0  0  0  0  0  0
   10.2760   -0.0000    0.0000 C   0  0  0  0  0  0  0  0  0  0  0  0
    8.7760   -0.0000    0.0000 C   0  0  0  0  0  0  0  0  0  0  0  0
    7.2760   -0.0000    0.0000 C   0  0  0  0  0  0  0  0  0  0  0  0
    5.7760   -0.0000    0.0000 C   0  0  0  0  0  0  0  0  0  0  0  0
    4.2760   -0.0000    0.0000 C   0  0  0  0  0  0  0  0  0  0  0  0
    2.7760    0.0000    0.0000 C   0  0  0  0  0  0  0  0  0  0  0  0
    1.2760    0.0000    0.0000 C   0  0  0  0  0  0  0  0  0  0  0  0
    0.3943    1.2135    0.0000 C   0  0  0  0  0  0  0  0  0  0  0  0
   -1.0323    0.7500    0.0000 C   0  0  0  0  0  0  0  0  0  0  0  0
   -1.0323   -0.7500    0.0000 C   0  0  0  0  0  0  0  0  0  0  0  0
    0.3943   -1.2135    0.0000 C   0  0  0  0  0  0  0  0  0  0  0  0
  1  2  3  0
  2  3  1  0
  3  4  3  0
  4  5  1  0
  5  6  3  0
  6  7  1  0
  7  8  3  0
  8  9  1  0
  9 10  3  0
 10 11  1  0
 11 12  3  0
 12 13  1  0
 13 14  2  0
 14 15  1  0
 15 16  2  0
 16 17  1  0
 17 13  1  0
M  END
>  <Title>  (4) 
idAAADgen8

$$$$

     RDKit          2D

  7  7  0  0  0  0  0  0  0  0999 V2000
    3.0000    0.0000    0.0000 O   0  0  0  0  0  0  0  0  0  0  0  0
    1.5000    0.0000    0.0000 C   0  0  0  0  0  0  0  0  0  0  0  0
    0.7500   -1.2990    0.0000 C   0  0  0  0  0  0  0  0  0  0  0  0
   -0.7500   -1.2990    0.0000 C   0  0  0  0  0  0  0  0  0  0  0  0
   -1.5000    0.0000    0.0000 C   0  0  0  0  0  0  0  0  0  0  0  0
   -0.7500    1.2990    0.0000 C   0  0  0  0  0  0  0  0  0  0  0  0
    0.7500    1.2990    0.0000 C   0  0  0  0  0  0  0  0  0  0  0  0
  1  2  1  0
  2  3  2  0
  3  4  1  0
  4  5  2  0
  5  6  1  0
  6  7  2  0
  7  2  1  0
M  END
>  <Title>  (5) 
idAAAEgen8

$$$$

     RDKit          2D

 17 17  0  0  0  0  0  0  0  0999 V2000
   19.2760   -0.0000    0.0000 C   0  0  0  0  0  0  0  0  0  0  0  0
   17.7760   -0.0000    0.0000 C   0  0  0  0  0  0  0  0  0  0  0  0
   16.2760   -0.0000    0.0000 C   0  0  0  0  0  0  0  0  0  0  0  0
   14.7760   -0.0000    0.0000 C   0  0  0  0  0  0  0  0  0  0  0  0
   13.2760   -0.0000    0.0000 C   0  0  0  0  0  0  0  0  0  0  0  0
   11.7760   -0.0000    0.0000 C   0  0  0  0  0  0  0  0  0  0  0  0
   10.2760   -0.0000    0.0000 C   0  0  0  0  0  0  0  0  0  0  0  0
    8.7760   -0.0000    0.0000 C   0  0  0  0  0  0  0  0  0  0  0  0
    7.2760   -0.0000    0.0000 C   0  0  0  0  0  0  0  0  0  0  0  0
    5.7760   -0.0000    0.0000 C   0  0  0  0  0  0  0  0  0  0  0  0
    4.2760   -0.0000    0.0000 C   0  0  0  0  0  0  0  0  0  0  0  0
    2.7760    0.0000    0.0000 C   0  0  0  0  0  0  0  0  0  0  0  0
    1.2760    0.0000    0.0000 C   0  0  0  0  0  0  0  0  0  0  0  0
    0.3943    1.2135    0.0000 C   0  0  0  0  0  0  0  0  0  0  0  0
   -1.0323    0.7500    0.0000 C   0  0  0  0  0  0  0  0  0  0  0  0
   -1.0323   -0.7500    0.0000 C   0  0  0  0  0  0  0  0  0  0  0  0
    0.3943   -1.2135    0.0000 C   0  0  0  0  0  0  0  0  0  0  0  0
  1  2  3  0
  2  3  1  0
  3  4  3  0
  4  5  1  0
  5  6  3  0
  6  7  1  0
  7  8  3  0
  8  9  1  0
  9 10  3  0
 10 11  1  0
 11 12  3  0
 12 13  1  0
 13 14  2  0
 14 15  1  0
 15 16  2  0
 16 17  1  0
 17 13  1  0
M  END
>  <Title>  (6) 
idAAAFgen8

$$$$

     RDKit          2D

  7  7  0  0  0  0  0  0  0  0999 V2000
    3.0000    0.0000    0.0000 O   0  0  0  0  0  0  0  0  0  0  0  0
    1.5000    0.0000    0.0000 C   0  0  0  0  0  0  0  0  0  0  0  0
    0.7500   -1.2990    0.0000 C   0  0  0  0  0  0  0  0  0  0  0  0
   -0.7500   -1.2990    0.0000 C   0  0  0  0  0  0  0  0  0  0  0  0
   -1.5000    0.0000    0.0000 C   0  0  0  0  0  0  0  0  0  0  0  0
   -0.7500    1.2990    0.0000 C   0  0  0  0  0  0  0  0  0  0  0  0
    0.7500    1.2990    0.0000 C   0  0  0  0  0  0  0  0  0  0  0  0
  1  2  1  0
  2  3  2  0
  3  4  1  0
  4  5  2  0
  5  6  1  0
  6  7  2  0
  7  2  1  0
M  END
>  <Title>  (7) 
idAAAGgen8

$$$$

     RDKit          2D

 10 10  0  0  0  0  0  0  0  0999 V2000
    4.5000    0.0000    0.0000 N   0  0  0  0  0  0  0  0  0  0  0  0
    3.0000    0.0000    0.0000 C   0  0  0  0  0  0  0  0  0  0  0  0
    1.5000    0.0000    0.0000 C   0  0  0  0  0  0  0  0  0  0  0  0
    0.7500   -1.2990    0.0000 C   0  0  0  0  0  0  0  0  0  0  0  0
   -0.7500   -1.2990    0.0000 C   0  0  0  0  0  0  0  0  0  0  0  0
   -1.5000    0.0000    0.0000 C   0  0  0  0  0  0  0  0  0  0  0  0
   -3.0000    0.0000    0.0000 C   0  0  0  0  0  0  0  0  0  0  0  0
   -4.5000    0.0000    0.0000 N   0  0  0  0  0  0  0  0  0  0  0  0
   -0.7500    1.2990    0.0000 C   0  0  0  0  0  0  0  0  0  0  0  0
    0.7500    1.2990    0.0000 C   0  0  0  0  0  0  0  0  0  0  0  0
  1  2  3  0
  2  3  1  0
  3  4  2  0
  4  5  1  0
  5  6  1  0
  6  7  1  0
  7  8  3  0
  6  9  1  0
  9 10  2  0
 10  3  1  0
M  END
>  <Title>  (8) 
idAAAHgen8

$$$$

     RDKit          2D

  7  7  0  0  0  0  0  0  0  0999 V2000
    3.0000    0.0000    0.0000 O   0  0  0  0  0  0  0  0  0  0  0  0
    1.5000    0.0000    0.0000 C   0  0  0  0  0  0  0  0  0  0  0  0
    0.7500   -1.2990    0.0000 C   0  0  0  0  0  0  0  0  0  0  0  0
   -0.7500   -1.2990    0.0000 C   0  0  0  0  0  0  0  0  0  0  0  0
   -1.5000    0.0000    0.0000 C   0  0  0  0  0  0  0  0  0  0  0  0
   -0.7500    1.2990    0.0000 C   0  0  0  0  0  0  0  0  0  0  0  0
    0.7500    1.2990    0.0000 C   0  0  0  0  0  0  0  0  0  0  0  0
  1  2  1  0
  2  3  2  0
  3  4  1  0
  4  5  2  0
  5  6  1  0
  6  7  2  0
  7  2  1  0
M  END
>  <Title>  (9) 
idAAAIgen8

$$$$

     RDKit          2D

 11 10  0  0  0  0  0  0  0  0999 V2000
    0.0000    0.0000    0.0000 C   0  0  0  0  0  0  0  0  0  0  0  0
    1.2990    0.7500    0.0000 C   0  0  0  0  0  0  0  0  0  0  0  0
    2.5981   -0.0000    0.0000 C   0  0  0  0  0  0  0  0  0  0  0  0
    3.8971    0.7500    0.0000 N   0  0  0  0  0  0  0  0  0  0  0  0
    5.1962   -0.0000    0.0000 C   0  0  0  0  0  0  0  0  0  0  0  0
    5.1962   -1.5000    0.0000 O   0  0  0  0  0  0  0  0  0  0  0  0
    6.4952    0.7500    0.0000 C   0  0  0  0  0  0  0  0  0  0  0  0
    7.7942   -0.0000    0.0000 C   0  0  0  0  0  0  0  0  0  0  0  0
    9.0933   -0.7500    0.0000 C   0  0  0  0  0  0  0  0  0  0  0  0
    7.0442   -1.2990    0.0000 F   0  0  0  0  0  0  0  0  0  0  0  0
    8.5442    1.2990    0.0000 F   0  0  0  0  0  0  0  0  0  0  0  0
  1  2  1  0
  2  3  1  0
  3  4  1  0
  4  5  1  0
  5  6  2  0
  5  7  1  0
  7  8  1  0
  8  9  1  0
  8 10  1  0
  8 11  1  0
M  END
>  <Title>  (10) 
idAAAJgen8

$$$$

     RDKit          2D

  7  7  0  0  0  0  0  0  0  0999 V2000
    4.2760   -0.0000    0.0000 N   0  0  0  0  0  0  0  0  0  0  0  0
    2.7760    0.0000    0.0000 C   0  0  0  0  0  0  0  0  0  0  0  0
    1.2760    0.0000    0.0000 C   0  0  0  0  0  0  0  0  0  0  0  0
    0.3943    1.2135    0.0000 C   0  0  0  0  0  0  0  0  0  0  0  0
   -1.0323    0.7500    0.0000 C   0  0  0  0  0  0  0  0  0  0  0  0
   -1.0323   -0.7500    0.0000 C   0  0  0  0  0  0  0  0  0  0  0  0
    0.3943   -1.2135    0.0000 C   0  0  0  0  0  0  0  0  0  0  0  0
  1  2  3  0
  2  3  1  0
  3  4  2  0
  4  5  1  0
  5  6  2  0
  6  7  1  0
  7  3  1  0
M  END
>  <Title>  (11) 
idAAAKgen8

$$$$

     RDKit          2D

  8  8  0  0  0  0  0  0  0  0999 V2000
    4.5000    0.0000    0.0000 N   0  0  0  0  0  0  0  0  0  0  0  0
    3.0000    0.0000    0.0000 C   0  0  0  0  0  0  0  0  0  0  0  0
    1.5000    0.0000    0.0000 C   0  0  0  0  0  0  0  0  0  0  0  0
    0.7500   -1.2990    0.0000 C   0  0  0  0  0  0  0  0  0  0  0  0
   -0.7500   -1.2990    0.0000 C   0  0  0  0  0  0  0  0  0  0  0  0
   -1.5000    0.0000    0.0000 C   0  0  0  0  0  0  0  0  0  0  0  0
   -0.7500    1.2990    0.0000 C   0  0  0  0  0  0  0  0  0  0  0  0
    0.7500    1.2990    0.0000 C   0  0  0  0  0  0  0  0  0  0  0  0
  1  2  3  0
  2  3  1  0
  3  4  2  0
  4  5  1  0
  5  6  2  0
  6  7  1  0
  7  8  2  0
  8  3  1  0
M  END
>  <Title>  (12) 
idAAALgen8

$$$$

     RDKit          2D

  3  2  0  0  0  0  0  0  0  0999 V2000
    0.0000    0.0000    0.0000 C   0  0  0  0  0  0  0  0  0  0  0  0
    1.2990    0.7500    0.0000 C   0  0  0  0  0  0  0  0  0  0  0  0
    2.5981   -0.0000    0.0000 Br  0  0  0  0  0  0  0  0  0  0  0  0
  1  2  1  0
  2  3  1  0
M  END
>  <Title>  (13) 
idAAAMgen8

$$$$

     RDKit          2D

  8  8  0  0  0  0  0  0  0  0999 V2000
    4.5000    0.0000    0.0000 N   0  0  0  0  0  0  0  0  0  0  0  0
    3.0000    0.0000    0.0000 C   0  0  0  0  0  0  0  0  0  0  0  0
    1.5000    0.0000    0.0000 C   0  0  0  0  0  0  0  0  0  0  0  0
    0.7500   -1.2990    0.0000 C   0  0  0  0  0  0  0  0  0  0  0  0
   -0.7500   -1.2990    0.0000 C   0  0  0  0  0  0  0  0  0  0  0  0
   -1.5000    0.0000    0.0000 C   0  0  0  0  0  0  0  0  0  0  0  0
   -0.7500    1.2990    0.0000 C   0  0  0  0  0  0  0  0  0  0  0  0
    0.7500    1.2990    0.0000 C   0  0  0  0  0  0  0  0  0  0  0  0
  1  2  3  0
  2  3  1  0
  3  4  2  0
  4  5  1  0
  5  6  2  0
  6  7  1  0
  7  8  2  0
  8  3  1  0
M  END
>  <Title>  (14) 
idAAANgen8

$$$$

     RDKit          2D

 10 10  0  0  0  0  0  0  0  0999 V2000
    4.2760   -2.5981    0.0000 C   0  0  0  0  0  0  0  0  0  0  0  0
    3.5260   -1.2990    0.0000 C   0  0  0  0  0  0  0  0  0  0  0  0
    2.7760    0.0000    0.0000 O   0  0  0  0  0  0  0  0  0  0  0  0
    1.2760    0.0000    0.0000 C   0  0  0  0  0  0  0  0  0  0  0  0
    0.3943    1.2135    0.0000 C   0  0  0  0  0  0  0  0  0  0  0  0
   -1.0323    0.7500    0.0000 C   0  0  0  0  0  0  0  0  0  0  0  0
   -1.0323   -0.7500    0.0000 C   0  0  0  0  0  0  0  0  0  0  0  0
   -2.2458   -1.6317    0.0000 C   0  0  0  0  0  0  0  0  0  0  0  0
   -3.4593   -2.5134    0.0000 N   0  0  0  0  0  0  0  0  0  0  0  0
    0.3943   -1.2135    0.0000 C   0  0  0  0  0  0  0  0  0  0  0  0
  1  2  3  0
  2  3  1  0
  3  4  1  0
  4  5  2  0
  5  6  1  0
  6  7  1  0
  7  8  1  0
  8  9  3  0
  7 10  1  0
 10  4  1  0
M  END
>  <Title>  (15) 
idAAAOgen8

$$$$

     RDKit          2D

  8  8  0  0  0  0  0  0  0  0999 V2000
    4.5000    0.0000    0.0000 N   0  0  0  0  0  0  0  0  0  0  0  0
    3.0000    0.0000    0.0000 C   0  0  0  0  0  0  0  0  0  0  0  0
    1.5000    0.0000    0.0000 C   0  0  0  0  0  0  0  0  0  0  0  0
    0.7500   -1.2990    0.0000 C   0  0  0  0  0  0  0  0  0  0  0  0
   -0.7500   -1.2990    0.0000 C   0  0  0  0  0  0  0  0  0  0  0  0
   -1.5000    0.0000    0.0000 C   0  0  0  0  0  0  0  0  0  0  0  0
   -0.7500    1.2990    0.0000 C   0  0  0  0  0  0  0  0  0  0  0  0
    0.7500    1.2990    0.0000 C   0  0  0  0  0  0  0  0  0  0  0  0
  1  2  3  0
  2  3  1  0
  3  4  2  0
  4  5  1  0
  5  6  2  0
  6  7  1  0
  7  8  2  0
  8  3  1  0
M  END
>  <Title>  (16) 
idAAAPgen8

$$$$

     RDKit          2D

  3  2  0  0  0  0  0  0  0  0999 V2000
    0.0000    0.0000    0.0000 C   0  0  0  0  0  0  0  0  0  0  0  0
    1.2990    0.7500    0.0000 C   0  0  0  0  0  0  0  0  0  0  0  0
    2.5981   -0.0000    0.0000 C   0  0  0  0  0  0  0  0  0  0  0  0
  1  2  1  0
  2  3  1  0
M  END
>  <Title>  (17) 
idAAAQgen8

$$$$

     RDKit          2D

  8  8  0  0  0  0  0  0  0  0999 V2000
    4.5000    0.0000    0.0000 N   0  0  0  0  0  0  0  0  0  0  0  0
    3.0000    0.0000    0.0000 C   0  0  0  0  0  0  0  0  0  0  0  0
    1.5000    0.0000    0.0000 C   0  0  0  0  0  0  0  0  0  0  0  0
    0.7500   -1.2990    0.0000 C   0  0  0  0  0  0  0  0  0  0  0  0
   -0.7500   -1.2990    0.0000 C   0  0  0  0  0  0  0  0  0  0  0  0
   -1.5000    0.0000    0.0000 C   0  0  0  0  0  0  0  0  0  0  0  0
   -0.7500    1.2990    0.0000 C   0  0  0  0  0  0  0  0  0  0  0  0
    0.7500    1.2990    0.0000 C   0  0  0  0  0  0  0  0  0  0  0  0
  1  2  3  0
  2  3  1  0
  3  4  2  0
  4  5  1  0
  5  6  2  0
  6  7  1  0
  7  8  2  0
  8  3  1  0
M  END
>  <Title>  (18) 
idAAARgen8

$$$$

     RDKit          2D

  3  2  0  0  0  0  0  0  0  0999 V2000
    0.0000    0.0000    0.0000 C   0  0  0  0  0  0  0  0  0  0  0  0
    1.2990    0.7500    0.0000 C   0  0  0  0  0  0  0  0  0  0  0  0
    2.5981   -0.0000    0.0000 C   0  0  0  0  0  0  0  0  0  0  0  0
  1  2  1  0
  2  3  1  0
M  END
>  <Title>  (19) 
idAAASgen8

$$$$

     RDKit          2D

  4  3  0  0  0  0  0  0  0  0999 V2000
    0.0000    0.0000    0.0000 C   0  0  0  0  0  0  0  0  0  0  0  0
    1.2990    0.7500    0.0000 C   0  0  0  0  0  0  0  0  0  0  0  0
    2.5981   -0.0000    0.0000 C   0  0  0  0  0  0  0  0  0  0  0  0
    3.8971    0.7500    0.0000 C   0  0  0  0  0  0  0  0  0  0  0  0
  1  2  1  0
  2  3  2  3
  3  4  1  0
M  END
>  <Title>  (20) 
idAAATgen8

$$$$

     RDKit          2D

  3  2  0  0  0  0  0  0  0  0999 V2000
    0.0000    0.0000    0.0000 C   0  0  0  0  0  0  0  0  0  0  0  0
    1.2990    0.7500    0.0000 C   0  0  0  0  0  0  0  0  0  0  0  0
    2.5981   -0.0000    0.0000 C   0  0  0  0  0  0  0  0  0  0  0  0
  1  2  1  0
  2  3  1  0
M  END
>  <Title>  (21) 
idAAAUgen8

$$$$

     RDKit          2D

 13 13  0  0  0  0  0  0  0  0999 V2000
    4.0607    0.0000    0.0000 C   0  0  0  0  0  0  0  0  0  0  0  0
    2.5607    0.0000    0.0000 C   0  0  0  0  0  0  0  0  0  0  0  0
    1.0607    0.0000    0.0000 C   0  0  0  0  0  0  0  0  0  0  0  0
   -0.0000   -1.0607    0.0000 C   0  0  0  0  0  0  0  0  0  0  0  0
   -1.0607    0.0000    0.0000 C   0  0  0  0  0  0  0  0  0  0  0  0
   -2.5607    0.0000    0.0000 C   0  0  0  0  0  0  0  0  0  0  0  0
   -4.0607    0.0000    0.0000 C   0  0  0  0  0  0  0  0  0  0  0  0
   -5.5607    0.0000    0.0000 C   0  0  0  0  0  0  0  0  0  0  0  0
   -7.0607    0.0000    0.0000 C   0  0  0  0  0  0  0  0  0  0  0  0
   -8.5607    0.0000    0.0000 C   0  0  0  0  0  0  0  0  0  0  0  0
  -10.0607    0.0000    0.0000 C   0  0  0  0  0  0  0  0  0  0  0  0
  -11.5607    0.0000    0.0000 F   0  0  0  0  0  0  0  0  0  0  0  0
    0.0000    1.0607    0.0000 C   0  0  0  0  0  0  0  0  0  0  0  0
  1  2  3  0
  2  3  1  0
  3  4  1  0
  4  5  1  0
  5  6  1  0
  6  7  3  0
  7  8  1  0
  8  9  3  0
  9 10  1  0
 10 11  3  0
 11 12  1  0
  5 13  1  0
 13  3  1  0
M  END
>  <Title>  (22) 
idAAAVgen8

$$$$

     RDKit          2D

 19 19  0  0  0  0  0  0  0  0999 V2000
   19.2760   -0.0000    0.0000 C   0  0  0  0  0  0  0  0  0  0  0  0
   17.7760   -0.0000    0.0000 C   0  0  0  0  0  0  0  0  0  0  0  0
   16.2760   -0.0000    0.0000 C   0  0  0  0  0  0  0  0  0  0  0  0
   14.7760   -0.0000    0.0000 C   0  0  0  0  0  0  0  0  0  0  0  0
   13.2760   -0.0000    0.0000 C   0  0  0  0  0  0  0  0  0  0  0  0
   11.7760   -0.0000    0.0000 C   0  0  0  0  0  0  0  0  0  0  0  0
   10.2760   -0.0000    0.0000 C   0  0  0  0  0  0  0  0  0  0  0  0
    8.7760   -0.0000    0.0000 C   0  0  0  0  0  0  0  0  0  0  0  0
    7.2760   -0.0000    0.0000 C   0  0  0  0  0  0  0  0  0  0  0  0
    5.7760   -0.0000    0.0000 C   0  0  0  0  0  0  0  0  0  0  0  0
    4.2760   -0.0000    0.0000 C   0  0  0  0  0  0  0  0  0  0  0  0
    2.7760    0.0000    0.0000 C   0  0  0  0  0  0  0  0  0  0  0  0
    1.2760    0.0000    0.0000 C   0  0  0  0  0  0  0  0  0  0  0  0
    0.3943    1.2135    0.0000 C   0  0  0  0  0  0  0  0  0  0  0  0
   -1.0323    0.7500    0.0000 C   0  0  0  0  0  0  0  0  0  0  0  0
   -2.2458    1.6317    0.0000 C   0  0  0  0  0  0  0  0  0  0  0  0
   -3.4593    2.5134    0.0000 N   0  0  0  0  0  0  0  0  0  0  0  0
   -1.0323   -0.7500    0.0000 C   0  0  0  0  0  0  0  0  0  0  0  0
    0.3943   -1.2135    0.0000 C   0  0  0  0  0  0  0  0  0  0  0  0
  1  2  3  0
  2  3  1  0
  3  4  3  0
  4  5  1  0
  5  6  3  0
  6  7  1  0
  7  8  3  0
  8  9  1  0
  9 10  3  0
 10 11  1  0
 11 12  3  0
 12 13  1  0
 13 14  2  0
 14 15  1  0
 15 16  1  0
 16 17  3  0
 15 18  2  0
 18 19  1  0
 19 13  1  0
M  END
>  <Title>  (23) 
idAAAWgen8

$$$$

     RDKit          2D

  6  5  0  0  0  0  0  0  0  0999 V2000
    0.0000    0.0000    0.0000 C   0  0  0  0  0  0  0  0  0  0  0  0
    1.2990    0.7500    0.0000 C   0  0  0  0  0  0  0  0  0  0  0  0
    2.5981    1.5000    0.0000 C   0  0  0  0  0  0  0  0  0  0  0  0
    3.8971    2.2500    0.0000 C   0  0  0  0  0  0  0  0  0  0  0  0
    5.1962    1.5000    0.0000 C   0  0  0  0  0  0  0  0  0  0  0  0
    6.4952    2.2500    0.0000 C   0  0  0  0  0  0  0  0  0  0  0  0
  1  2  1  0
  2  3  3  0
  3  4  1  0
  4  5  2  3
  5  6  1  0
M  END
>  <Title>  (24) 
idAAAXgen8

$$$$

     RDKit          2D

 13 12  0  0  0  0  0  0  0  0999 V2000
    0.0000    0.0000    0.0000 C   0  0  0  0  0  0  0  0  0  0  0  0
   -0.0000   -1.5000    0.0000 C   0  0  0  0  0  0  0  0  0  0  0  0
   -0.0000   -3.0000    0.0000 C   0  0  0  0  0  0  0  0  0  0  0  0
   -0.0000   -4.5000    0.0000 C   0  0  0  0  0  0  0  0  0  0  0  0
   -0.0000   -6.0000    0.0000 C   0  0  0  0  0  0  0  0  0  0  0  0
   -0.0000   -7.5000    0.0000 C   0  0  0  0  0  0  0  0  0  0  0  0
   -0.0000   -9.0000    0.0000 C   0  0  0  0  0  0  0  0  0  0  0  0
   -0.0000  -10.5000    0.0000 C   0  0  0  0  0  0  0  0  0  0  0  0
   -0.0000  -12.0000    0.0000 C   0  0  0  0  0  0  0  0  0  0  0  0
    1.2990  -12.7500    0.0000 C   0  0  0  0  0  0  0  0  0  0  0  0
    1.2990  -14.2500    0.0000 C   0  0  0  0  0  0  0  0  0  0  0  0
    2.5981  -15.0000    0.0000 C   0  0  0  0  0  0  0  0  0  0  0  0
    3.8971  -15.7500    0.0000 C   0  0  0  0  0  0  0  0  0  0  0  0
  1  2  3  0
  2  3  1  0
  3  4  3  0
  4  5  1  0
  5  6  3  0
  6  7  1  0
  7  8  3  0
  8  9  1  0
  9 10  1  0
 10 11  1  0
 11 12  1  0
 12 13  3  0
M  END
>  <Title>  (25) 
idAAAYgen8

$$$$

     RDKit          2D

  6  5  0  0  0  0  0  0  0  0999 V2000
    0.0000    0.0000    0.0000 C   0  0  0  0  0  0  0  0  0  0  0  0
   -0.0000   -1.5000    0.0000 C   0  0  0  0  0  0  0  0  0  0  0  0
   -0.0000   -3.0000    0.0000 C   0  0  0  0  0  0  0  0  0  0  0  0
    1.2990   -3.7500    0.0000 C   0  0  0  0  0  0  0  0  0  0  0  0
    1.2990   -5.2500    0.0000 C   0  0  0  0  0  0  0  0  0  0  0  0
    2.5981   -6.0000    0.0000 C   0  0  0  0  0  0  0  0  0  0  0  0
  1  2  3  0
  2  3  1  0
  3  4  1  0
  4  5  2  3
  5  6  1  0
M  END
>  <Title>  (26) 
idAAAZgen8

$$$$

     RDKit          2D

 14 15  0  0  0  0  0  0  0  0999 V2000
    4.6740   -4.8322    0.0000 C   0  0  0  0  0  0  0  0  0  0  0  0
    3.3037   -4.2221    0.0000 C   0  0  0  0  0  0  0  0  0  0  0  0
    2.9918   -2.7549    0.0000 C   0  0  0  0  0  0  0  0  0  0  0  0
    1.5000   -2.5981    0.0000 N   0  0  0  0  0  0  0  0  0  0  0  0
    0.7500   -1.2990    0.0000 C   0  0  0  0  0  0  0  0  0  0  0  0
    1.5000    0.0000    0.0000 C   0  0  0  0  0  0  0  0  0  0  0  0
    0.7500    1.2990    0.0000 C   0  0  0  0  0  0  0  0  0  0  0  0
   -0.7500    1.2990    0.0000 C   0  0  0  0  0  0  0  0  0  0  0  0
   -1.5000    2.5981    0.0000 C   0  0  0  0  0  0  0  0  0  0  0  0
   -2.2500    3.8971    0.0000 N   0  0  0  0  0  0  0  0  0  0  0  0
   -1.5000    0.0000    0.0000 C   0  0  0  0  0  0  0  0  0  0  0  0
   -0.7500   -1.2990    0.0000 C   0  0  0  0  0  0  0  0  0  0  0  0
    0.8899   -3.9684    0.0000 N   0  0  0  0  0  0  0  0  0  0  0  0
    2.0046   -4.9721    0.0000 N   0  0  0  0  0  0  0  0  0  0  0  0
  1  2  1  0
  2  3  2  0
  3  4  1  0
  4  5  1  0
  5  6  2  0
  6  7  1  0
  7  8  2  0
  8  9  1  0
  9 10  3  0
  8 11  1  0
 11 12  2  0
  4 13  1  0
 13 14  2  0
 14  2  1  0
 12  5  1  0
M  END
>  <Title>  (27) 
idAABAgen8

$$$$

     RDKit          2D

 10  9  0  0  0  0  0  0  0  0999 V2000
    0.0000    0.0000    0.0000 C   0  0  0  0  0  0  0  0  0  0  0  0
    1.2990    0.7500    0.0000 C   0  0  0  0  0  0  0  0  0  0  0  0
    2.5981    1.5000    0.0000 C   0  0  0  0  0  0  0  0  0  0  0  0
    3.8971    2.2500    0.0000 C   0  0  0  0  0  0  0  0  0  0  0  0
    5.1962    3.0000    0.0000 C   0  0  0  0  0  0  0  0  0  0  0  0
    6.4952    3.7500    0.0000 C   0  0  0  0  0  0  0  0  0  0  0  0
    7.7942    4.5000    0.0000 C   0  0  0  0  0  0  0  0  0  0  0  0
    9.0933    5.2500    0.0000 C   0  0  0  0  0  0  0  0  0  0  0  0
   10.3923    4.5000    0.0000 C   0  0  0  0  0  0  0  0  0  0  0  0
   11.6913    5.2500    0.0000 C   0  0  0  0  0  0  0  0  0  0  0  0
  1  2  1  0
  2  3  3  0
  3  4  1  0
  4  5  3  0
  5  6  1  0
  6  7  3  0
  7  8  1  0
  8  9  2  3
  9 10  1  0
M  END
>  <Title>  (28) 
idAABBgen8

$$$$

     RDKit          2D

 10 10  0  0  0  0  0  0  0  0999 V2000
    6.5260   -1.2990    0.0000 C   0  0  0  0  0  0  0  0  0  0  0  0
    5.0260   -1.2990    0.0000 C   0  0  0  0  0  0  0  0  0  0  0  0
    3.5260   -1.2990    0.0000 C   0  0  0  0  0  0  0  0  0  0  0  0
    2.7760    0.0000    0.0000 C   0  0  0  0  0  0  0  0  0  0  0  0
    3.5260    1.2990    0.0000 O   0  0  0  0  0  0  0  0  0  0  0  0
    1.2760    0.0000    0.0000 C   0  0  0  0  0  0  0  0  0  0  0  0
    0.3943    1.2135    0.0000 C   0  0  0  0  0  0  0  0  0  0  0  0
   -1.0323    0.7500    0.0000 C   0  0  0  0  0  0  0  0  0  0  0  0
   -1.0323   -0.7500    0.0000 C   0  0  0  0  0  0  0  0  0  0  0  0
    0.3943   -1.2135    0.0000 C   0  0  0  0  0  0  0  0  0  0  0  0
  1  2  3  0
  2  3  1  0
  3  4  1  0
  4  5  2  0
  4  6  1  0
  6  7  2  0
  7  8  1  0
  8  9  2  0
  9 10  1  0
 10  6  1  0
M  END
>  <Title>  (29) 
idAABCgen8

$$$$

     RDKit          2D

  6  6  0  0  0  0  0  0  0  0999 V2000
    2.7760    0.0000    0.0000 O   0  0  0  0  0  0  0  0  0  0  0  0
    1.2760    0.0000    0.0000 C   0  0  0  0  0  0  0  0  0  0  0  0
    0.3943    1.2135    0.0000 C   0  0  0  0  0  0  0  0  0  0  0  0
   -1.0323    0.7500    0.0000 C   0  0  0  0  0  0  0  0  0  0  0  0
   -1.0323   -0.7500    0.0000 C   0  0  0  0  0  0  0  0  0  0  0  0
    0.3943   -1.2135    0.0000 C   0  0  0  0  0  0  0  0  0  0  0  0
  1  2  1  0
  2  3  2  0
  3  4  1  0
  4  5  2  0
  5  6  1  0
  6  2  1  0
M  END
>  <Title>  (30) 
idAABDgen8

$$$$

     RDKit          2D

 18 18  0  0  0  0  0  0  0  0999 V2000
   12.0000    2.5981    0.0000 C   0  0  0  0  0  0  0  0  0  0  0  0
   11.2500    1.2990    0.0000 C   0  0  0  0  0  0  0  0  0  0  0  0
    9.7500    1.2990    0.0000 C   0  0  0  0  0  0  0  0  0  0  0  0
    9.0000   -0.0000    0.0000 N   0  0  0  0  0  0  0  0  0  0  0  0
    7.5000    0.0000    0.0000 C   0  0  0  0  0  0  0  0  0  0  0  0
    6.7500    1.2990    0.0000 O   0  0  0  0  0  0  0  0  0  0  0  0
    6.7500   -1.2990    0.0000 C   0  0  0  0  0  0  0  0  0  0  0  0
    5.2500   -1.2990    0.0000 C   0  0  0  0  0  0  0  0  0  0  0  0
    5.2500   -2.7990    0.0000 F   0  0  0  0  0  0  0  0  0  0  0  0
    5.2500    0.2010    0.0000 F   0  0  0  0  0  0  0  0  0  0  0  0
    3.7500   -1.2990    0.0000 C   0  0  0  0  0  0  0  0  0  0  0  0
    3.0000    0.0000    0.0000 C   0  0  0  0  0  0  0  0  0  0  0  0
    1.5000    0.0000    0.0000 N   0  0  0  0  0  0  0  0  0  0  0  0
    0.7500   -1.2990    0.0000 C   0  0  0  0  0  0  0  0  0  0  0  0
   -0.7500   -1.2990    0.0000 C   0  0  0  0  0  0  0  0  0  0  0  0
   -1.5000    0.0000    0.0000 N   0  0  0  0  0  0  0  0  0  0  0  0
   -0.7500    1.2990    0.0000 N   0  0  0  0  0  0  0  0  0  0  0  0
    0.7500    1.2990    0.0000 N   0  0  0  0  0  0  0  0  0  0  0  0
  1  2  1  0
  2  3  1  0
  3  4  1  0
  4  5  1  0
  5  6  2  0
  5  7  1  0
  7  8  1  0
  8  9  1  0
  8 10  1  0
  8 11  1  0
 11 12  1  0
 12 13  1  0
 13 14  1  0
 14 15  1  0
 15 16  2  0
 16 17  1  0
 17 18  2  0
 18 13  1  0
M  END
>  <Title>  (31) 
idAABEgen8

$$$$

     RDKit          2D

 17 17  0  0  0  0  0  0  0  0999 V2000
   15.5260   -1.2990    0.0000 N   0  0  0  0  0  0  0  0  0  0  0  0
   14.0260   -1.2990    0.0000 C   0  0  0  0  0  0  0  0  0  0  0  0
   12.5260   -1.2990    0.0000 C   0  0  0  0  0  0  0  0  0  0  0  0
   11.0260   -1.2990    0.0000 C   0  0  0  0  0  0  0  0  0  0  0  0
    9.5260   -1.2990    0.0000 C   0  0  0  0  0  0  0  0  0  0  0  0
    8.0260   -1.2990    0.0000 C   0  0  0  0  0  0  0  0  0  0  0  0
    6.5260   -1.2990    0.0000 C   0  0  0  0  0  0  0  0  0  0  0  0
    5.0260   -1.2990    0.0000 C   0  0  0  0  0  0  0  0  0  0  0  0
    3.5260   -1.2990    0.0000 C   0  0  0  0  0  0  0  0  0  0  0  0
    2.7760    0.0000    0.0000 C   0  0  0  0  0  0  0  0  0  0  0  0
    3.5260    1.2990    0.0000 O   0  0  0  0  0  0  0  0  0  0  0  0
    1.2760    0.0000    0.0000 C   0  0  0  0  0  0  0  0  0  0  0  0
    0.3943    1.2135    0.0000 C   0  0  0  0  0  0  0  0  0  0  0  0
    0.8578    2.6401    0.0000 O   0  0  0  0  0  0  0  0  0  0  0  0
   -1.0323    0.7500    0.0000 C   0  0  0  0  0  0  0  0  0  0  0  0
   -1.0323   -0.7500    0.0000 C   0  0  0  0  0  0  0  0  0  0  0  0
    0.3943   -1.2135    0.0000 C   0  0  0  0  0  0  0  0  0  0  0  0
  1  2  3  0
  2  3  1  0
  3  4  3  0
  4  5  1  0
  5  6  3  0
  6  7  1  0
  7  8  3  0
  8  9  1  0
  9 10  1  0
 10 11  2  0
 10 12  1  0
 12 13  2  0
 13 14  1  0
 13 15  1  0
 15 16  1  0
 16 17  1  0
 17 12  1  0
M  END
>  <Title>  (32) 
idAABFgen8

$$$$

     RDKit          2D

 14 14  0  0  0  0  0  0  0  0999 V2000
    3.0000    0.0000    0.0000 O   0  0  0  0  0  0  0  0  0  0  0  0
    1.5000    0.0000    0.0000 C   0  0  0  0  0  0  0  0  0  0  0  0
    0.7500   -1.2990    0.0000 C   0  0  0  0  0  0  0  0  0  0  0  0
   -0.7500   -1.2990    0.0000 C   0  0  0  0  0  0  0  0  0  0  0  0
   -1.5000    0.0000    0.0000 C   0  0  0  0  0  0  0  0  0  0  0  0
   -0.7500    1.2990    0.0000 C   0  0  0  0  0  0  0  0  0  0  0  0
    0.7500    1.2990    0.0000 C   0  0  0  0  0  0  0  0  0  0  0  0
    1.5000    2.5981    0.0000 C   0  0  0  0  0  0  0  0  0  0  0  0
    2.2500    3.8971    0.0000 C   0  0  0  0  0  0  0  0  0  0  0  0
    3.0000    5.1962    0.0000 C   0  0  0  0  0  0  0  0  0  0  0  0
    3.7500    6.4952    0.0000 C   0  0  0  0  0  0  0  0  0  0  0  0
    4.5000    7.7942    0.0000 C   0  0  0  0  0  0  0  0  0  0  0  0
    5.2500    9.0933    0.0000 C   0  0  0  0  0  0  0  0  0  0  0  0
    6.0000   10.3923    0.0000 F   0  0  0  0  0  0  0  0  0  0  0  0
  1  2  2  0
  2  3  1  0
  3  4  2  0
  4  5  1  0
  5  6  1  0
  6  7  2  0
  7  8  1  0
  8  9  3  0
  9 10  1  0
 10 11  3  0
 11 12  1  0
 12 13  3  0
 13 14  1  0
  7  2  1  0
M  END
>  <Title>  (33) 
idAABGgen8

$$$$

     RDKit          2D

  7  6  0  0  0  0  0  0  0  0999 V2000
    0.0000    0.0000    0.0000 C   0  0  0  0  0  0  0  0  0  0  0  0
    1.2990    0.7500    0.0000 C   0  0  0  0  0  0  0  0  0  0  0  0
    2.5981   -0.0000    0.0000 C   0  0  0  0  0  0  0  0  0  0  0  0
    3.8971    0.7500    0.0000 C   0  0  0  0  0  0  0  0  0  0  0  0
    5.1962   -0.0000    0.0000 C   0  0  0  0  0  0  0  0  0  0  0  0
    6.4952    0.7500    0.0000 O   0  0  0  0  0  0  0  0  0  0  0  0
    7.7942   -0.0000    0.0000 C   0  0  0  0  0  0  0  0  0  0  0  0
  1  2  1  0
  2  3  2  3
  3  4  1  0
  4  5  1  0
  5  6  1  0
  6  7  1  0
M  END
>  <Title>  (34) 
idAABHgen8

$$$$

     RDKit          2D

  8  8  0  0  0  0  0  0  0  0999 V2000
    3.0000    0.0000    0.0000 C   0  0  0  0  0  0  0  0  0  0  0  0
    1.5000    0.0000    0.0000 C   0  0  0  0  0  0  0  0  0  0  0  0
    0.7500   -1.2990    0.0000 C   0  0  0  0  0  0  0  0  0  0  0  0
   -0.7500   -1.2990    0.0000 C   0  0  0  0  0  0  0  0  0  0  0  0
   -1.5000    0.0000    0.0000 C   0  0  0  0  0  0  0  0  0  0  0  0
   -0.7500    1.2990    0.0000 C   0  0  0  0  0  0  0  0  0  0  0  0
    0.7500    1.2990    0.0000 C   0  0  0  0  0  0  0  0  0  0  0  0
    1.5000    2.5981    0.0000 O   0  0  0  0  0  0  0  0  0  0  0  0
  1  2  1  0
  2  3  2  0
  3  4  1  0
  4  5  1  0
  5  6  1  0
  6  7  1  0
  7  8  1  0
  7  2  1  0
M  END
>  <Title>  (35) 
idAABIgen8

$$$$

     RDKit          2D

 25 25  0  0  0  0  0  0  0  0999 V2000
   19.2760   -0.0000    0.0000 C   0  0  0  0  0  0  0  0  0  0  0  0
   17.7760   -0.0000    0.0000 C   0  0  0  0  0  0  0  0  0  0  0  0
   16.2760   -0.0000    0.0000 C   0  0  0  0  0  0  0  0  0  0  0  0
   14.7760   -0.0000    0.0000 C   0  0  0  0  0  0  0  0  0  0  0  0
   13.2760   -0.0000    0.0000 C   0  0  0  0  0  0  0  0  0  0  0  0
   11.7760   -0.0000    0.0000 C   0  0  0  0  0  0  0  0  0  0  0  0
   10.2760   -0.0000    0.0000 C   0  0  0  0  0  0  0  0  0  0  0  0
    8.7760   -0.0000    0.0000 C   0  0  0  0  0  0  0  0  0  0  0  0
    7.2760   -0.0000    0.0000 C   0  0  0  0  0  0  0  0  0  0  0  0
    5.7760   -0.0000    0.0000 C   0  0  0  0  0  0  0  0  0  0  0  0
    4.2760   -0.0000    0.0000 C   0  0  0  0  0  0  0  0  0  0  0  0
    2.7760    0.0000    0.0000 C   0  0  0  0  0  0  0  0  0  0  0  0
    1.2760    0.0000    0.0000 C   0  0  0  0  0  0  0  0  0  0  0  0
    0.3943    1.2135    0.0000 C   0  0  0  0  0  0  0  0  0  0  0  0
   -1.0323    0.7500    0.0000 C   0  0  0  0  0  0  0  0  0  0  0  0
   -1.0323   -0.7500    0.0000 C   0  0  0  0  0  0  0  0  0  0  0  0
   -2.2458   -1.6317    0.0000 C   0  0  0  0  0  0  0  0  0  0  0  0
   -3.4593   -2.5134    0.0000 C   0  0  0  0  0  0  0  0  0  0  0  0
   -4.6729   -3.3950    0.0000 C   0  0  0  0  0  0  0  0  0  0  0  0
   -5.8864   -4.2767    0.0000 C   0  0  0  0  0  0  0  0  0  0  0  0
   -7.0999   -5.1584    0.0000 C   0  0  0  0  0  0  0  0  0  0  0  0
   -8.3134   -6.0401    0.0000 C   0  0  0  0  0  0  0  0  0  0  0  0
   -9.5270   -6.9217    0.0000 C   0  0  0  0  0  0  0  0  0  0  0  0
  -10.7405   -7.8034    0.0000 C   0  0  0  0  0  0  0  0  0  0  0  0
    0.3943   -1.2135    0.0000 C   0  0  0  0  0  0  0  0  0  0  0  0
  1  2  3  0
  2  3  1  0
  3  4  3  0
  4  5  1  0
  5  6  3  0
  6  7  1  0
  7  8  3  0
  8  9  1  0
  9 10  3  0
 10 11  1  0
 11 12  3  0
 12 13  1  0
 13 14  2  0
 14 15  1  0
 15 16  1  0
 16 17  1  0
 17 18  3  0
 18 19  1  0
 19 20  3  0
 20 21  1  0
 21 22  3  0
 22 23  1  0
 23 24  3  0
 16 25  1  0
 25 13  1  0
M  END
>  <Title>  (36) 
idAABJgen8

$$$$

     RDKit          2D

 13 13  0  0  0  0  0  0  0  0999 V2000
    4.2760   -0.0000    0.0000 C   0  0  0  0  0  0  0  0  0  0  0  0
    2.7760    0.0000    0.0000 C   0  0  0  0  0  0  0  0  0  0  0  0
    1.2760    0.0000    0.0000 C   0  0  0  0  0  0  0  0  0  0  0  0
    0.3943    1.2135    0.0000 C   0  0  0  0  0  0  0  0  0  0  0  0
   -1.0323    0.7500    0.0000 C   0  0  0  0  0  0  0  0  0  0  0  0
   -2.2458    1.6317    0.0000 C   0  0  0  0  0  0  0  0  0  0  0  0
   -3.4593    2.5134    0.0000 C   0  0  0  0  0  0  0  0  0  0  0  0
   -4.6729    3.3950    0.0000 C   0  0  0  0  0  0  0  0  0  0  0  0
   -5.8864    4.2767    0.0000 C   0  0  0  0  0  0  0  0  0  0  0  0
   -7.0999    5.1584    0.0000 C   0  0  0  0  0  0  0  0  0  0  0  0
   -8.3134    6.0401    0.0000 N   0  0  0  0  0  0  0  0  0  0  0  0
   -1.0323   -0.7500    0.0000 C   0  0  0  0  0  0  0  0  0  0  0  0
    0.3943   -1.2135    0.0000 C   0  0  0  0  0  0  0  0  0  0  0  0
  1  2  3  0
  2  3  1  0
  3  4  2  0
  4  5  1  0
  5  6  1  0
  6  7  3  0
  7  8  1  0
  8  9  3  0
  9 10  1  0
 10 11  3  0
  5 12  1  0
 12 13  1  0
 13  3  1  0
M  END
>  <Title>  (37) 
idAABKgen8

$$$$

     RDKit          2D

  7  7  0  0  0  0  0  0  0  0999 V2000
    2.7760    0.0000    0.0000 C   0  0  0  0  0  0  0  0  0  0  0  0
    1.2760    0.0000    0.0000 C   0  0  0  0  0  0  0  0  0  0  0  0
    0.3943    1.2135    0.0000 C   0  0  0  0  0  0  0  0  0  0  0  0
   -1.0323    0.7500    0.0000 C   0  0  0  0  0  0  0  0  0  0  0  0
   -1.0323   -0.7500    0.0000 C   0  0  0  0  0  0  0  0  0  0  0  0
    0.3943   -1.2135    0.0000 C   0  0  0  0  0  0  0  0  0  0  0  0
    0.8578   -2.6401    0.0000 O   0  0  0  0  0  0  0  0  0  0  0  0
  1  2  1  0
  2  3  1  0
  3  4  2  0
  4  5  1  0
  5  6  2  0
  6  7  1  0
  6  2  1  0
M  END
>  <Title>  (38) 
idAABLgen8

$$$$

     RDKit          2D

  6  6  0  0  0  0  0  0  0  0999 V2000
    2.7760    0.0000    0.0000 O   0  0  0  0  0  0  0  0  0  0  0  0
    1.2760    0.0000    0.0000 C   0  0  0  0  0  0  0  0  0  0  0  0
    0.3943    1.2135    0.0000 C   0  0  0  0  0  0  0  0  0  0  0  0
   -1.0323    0.7500    0.0000 C   0  0  0  0  0  0  0  0  0  0  0  0
   -1.0323   -0.7500    0.0000 C   0  0  0  0  0  0  0  0  0  0  0  0
    0.3943   -1.2135    0.0000 C   0  0  0  0  0  0  0  0  0  0  0  0
  1  2  1  0
  2  3  2  0
  3  4  1  0
  4  5  2  0
  5  6  1  0
  6  2  1  0
M  END
>  <Title>  (39) 
idAABMgen8

$$$$

     RDKit          2D

  8  8  0  0  0  0  0  0  0  0999 V2000
    4.5000    0.0000    0.0000 N   0  0  0  0  0  0  0  0  0  0  0  0
    3.0000    0.0000    0.0000 C   0  0  0  0  0  0  0  0  0  0  0  0
    1.5000    0.0000    0.0000 C   0  0  0  0  0  0  0  0  0  0  0  0
    0.7500   -1.2990    0.0000 C   0  0  0  0  0  0  0  0  0  0  0  0
   -0.7500   -1.2990    0.0000 C   0  0  0  0  0  0  0  0  0  0  0  0
   -1.5000    0.0000    0.0000 C   0  0  0  0  0  0  0  0  0  0  0  0
   -0.7500    1.2990    0.0000 C   0  0  0  0  0  0  0  0  0  0  0  0
    0.7500    1.2990    0.0000 C   0  0  0  0  0  0  0  0  0  0  0  0
  1  2  3  0
  2  3  1  0
  3  4  1  0
  4  5  2  0
  5  6  1  0
  6  7  2  0
  7  8  1  0
  8  3  1  0
M  END
>  <Title>  (40) 
idAABNgen8

$$$$

     RDKit          2D

 13 13  0  0  0  0  0  0  0  0999 V2000
    4.2760   -0.0000    0.0000 C   0  0  0  0  0  0  0  0  0  0  0  0
    2.7760    0.0000    0.0000 C   0  0  0  0  0  0  0  0  0  0  0  0
    1.2760    0.0000    0.0000 C   0  0  0  0  0  0  0  0  0  0  0  0
    0.3943    1.2135    0.0000 C   0  0  0  0  0  0  0  0  0  0  0  0
   -1.0323    0.7500    0.0000 C   0  0  0  0  0  0  0  0  0  0  0  0
   -2.2458    1.6317    0.0000 C   0  0  0  0  0  0  0  0  0  0  0  0
   -3.4593    2.5134    0.0000 C   0  0  0  0  0  0  0  0  0  0  0  0
   -4.6729    3.3950    0.0000 C   0  0  0  0  0  0  0  0  0  0  0  0
   -5.8864    4.2767    0.0000 C   0  0  0  0  0  0  0  0  0  0  0  0
   -7.0999    5.1584    0.0000 C   0  0  0  0  0  0  0  0  0  0  0  0
   -8.3134    6.0401    0.0000 N   0  0  0  0  0  0  0  0  0  0  0  0
   -1.0323   -0.7500    0.0000 C   0  0  0  0  0  0  0  0  0  0  0  0
    0.3943   -1.2135    0.0000 C   0  0  0  0  0  0  0  0  0  0  0  0
  1  2  3  0
  2  3  1  0
  3  4  2  0
  4  5  1  0
  5  6  1  0
  6  7  3  0
  7  8  1  0
  8  9  3  0
  9 10  1  0
 10 11  3  0
  5 12  1  0
 12 13  1  0
 13  3  1  0
M  END
>  <Title>  (41) 
idAABOgen8

$$$$

     RDKit          2D

 11 12  0  0  0  0  0  0  0  0999 V2000
    2.0046   -4.9721    0.0000 C   0  0  0  0  0  0  0  0  0  0  0  0
    3.3037   -4.2221    0.0000 C   0  0  0  0  0  0  0  0  0  0  0  0
    2.9918   -2.7549    0.0000 C   0  0  0  0  0  0  0  0  0  0  0  0
    1.5000   -2.5981    0.0000 C   0  0  0  0  0  0  0  0  0  0  0  0
    0.7500   -1.2990    0.0000 N   0  0  0  0  0  0  0  0  0  0  0  0
    1.5000    0.0000    0.0000 C   0  0  0  0  0  0  0  0  0  0  0  0
    0.7500    1.2990    0.0000 C   0  0  0  0  0  0  0  0  0  0  0  0
   -0.7500    1.2990    0.0000 N   0  0  0  0  0  0  0  0  0  0  0  0
   -1.5000    0.0000    0.0000 N   0  0  0  0  0  0  0  0  0  0  0  0
   -0.7500   -1.2990    0.0000 N   0  0  0  0  0  0  0  0  0  0  0  0
    0.8899   -3.9684    0.0000 C   0  0  0  0  0  0  0  0  0  0  0  0
  1  2  2  0
  2  3  1  0
  3  4  1  0
  4  5  1  0
  5  6  1  0
  6  7  1  0
  7  8  2  0
  8  9  1  0
  9 10  2  0
  4 11  2  0
 11  1  1  0
 10  5  1  0
M  END
>  <Title>  (42) 
idAABPgen8

$$$$

     RDKit          2D

 11 11  0  0  0  0  0  0  0  0999 V2000
    9.0000    0.0000    0.0000 F   0  0  0  0  0  0  0  0  0  0  0  0
    7.5000    0.0000    0.0000 C   0  0  0  0  0  0  0  0  0  0  0  0
    6.0000    0.0000    0.0000 C   0  0  0  0  0  0  0  0  0  0  0  0
    4.5000    0.0000    0.0000 C   0  0  0  0  0  0  0  0  0  0  0  0
    3.0000    0.0000    0.0000 C   0  0  0  0  0  0  0  0  0  0  0  0
    1.5000    0.0000    0.0000 C   0  0  0  0  0  0  0  0  0  0  0  0
    0.7500   -1.2990    0.0000 C   0  0  0  0  0  0  0  0  0  0  0  0
   -0.7500   -1.2990    0.0000 C   0  0  0  0  0  0  0  0  0  0  0  0
   -1.5000    0.0000    0.0000 C   0  0  0  0  0  0  0  0  0  0  0  0
   -0.7500    1.2990    0.0000 C   0  0  0  0  0  0  0  0  0  0  0  0
    0.7500    1.2990    0.0000 N   0  0  0  0  0  0  0  0  0  0  0  0
  1  2  1  0
  2  3  3  0
  3  4  1  0
  4  5  3  0
  5  6  1  0
  6  7  2  0
  7  8  1  0
  8  9  2  0
  9 10  1  0
 10 11  2  0
 11  6  1  0
M  END
>  <Title>  (43) 
idAABQgen8

$$$$

     RDKit          2D

  5  5  0  0  0  0  0  0  0  0999 V2000
    1.2760    0.0000    0.0000 C   0  0  0  0  0  0  0  0  0  0  0  0
    0.3943    1.2135    0.0000 C   0  0  0  0  0  0  0  0  0  0  0  0
   -1.0323    0.7500    0.0000 C   0  0  0  0  0  0  0  0  0  0  0  0
   -1.0323   -0.7500    0.0000 C   0  0  0  0  0  0  0  0  0  0  0  0
    0.3943   -1.2135    0.0000 C   0  0  0  0  0  0  0  0  0  0  0  0
  1  2  2  0
  2  3  1  0
  3  4  1  0
  4  5  2  0
  5  1  1  0
M  END
>  <Title>  (44) 
idAABRgen8

$$$$

     RDKit          2D

 17 17  0  0  0  0  0  0  0  0999 V2000
   16.5000    0.0000    0.0000 C   0  0  0  0  0  0  0  0  0  0  0  0
   15.0000    0.0000    0.0000 C   0  0  0  0  0  0  0  0  0  0  0  0
   13.5000    0.0000    0.0000 C   0  0  0  0  0  0  0  0  0  0  0  0
   12.0000    0.0000    0.0000 C   0  0  0  0  0  0  0  0  0  0  0  0
   10.5000    0.0000    0.0000 C   0  0  0  0  0  0  0  0  0  0  0  0
    9.0000    0.0000    0.0000 C   0  0  0  0  0  0  0  0  0  0  0  0
    7.5000    0.0000    0.0000 C   0  0  0  0  0  0  0  0  0  0  0  0
    6.0000    0.0000    0.0000 C   0  0  0  0  0  0  0  0  0  0  0  0
    4.5000    0.0000    0.0000 C   0  0  0  0  0  0  0  0  0  0  0  0
    3.0000    0.0000    0.0000 C   0  0  0  0  0  0  0  0  0  0  0  0
    1.5000    0.0000    0.0000 C   0  0  0  0  0  0  0  0  0  0  0  0
    0.7500   -1.2990    0.0000 C   0  0  0  0  0  0  0  0  0  0  0  0
   -0.7500   -1.2990    0.0000 C   0  0  0  0  0  0  0  0  0  0  0  0
   -1.5000    0.0000    0.0000 C   0  0  0  0  0  0  0  0  0  0  0  0
   -0.7500    1.2990    0.0000 C   0  0  0  0  0  0  0  0  0  0  0  0
    0.7500    1.2990    0.0000 C   0  0  0  0  0  0  0  0  0  0  0  0
    1.5000    2.5981    0.0000 O   0  0  0  0  0  0  0  0  0  0  0  0
  1  2  3  0
  2  3  1  0
  3  4  3  0
  4  5  1  0
  5  6  3  0
  6  7  1  0
  7  8  3  0
  8  9  1  0
  9 10  3  0
 10 11  1  0
 11 12  2  0
 12 13  1  0
 13 14  2  0
 14 15  1  0
 15 16  2  0
 16 17  1  0
 16 11  1  0
M  END
>  <Title>  (45) 
idAABSgen8

$$$$

     RDKit          2D

  7  7  0  0  0  0  0  0  0  0999 V2000
    4.2760   -0.0000    0.0000 C   0  0  0  0  0  0  0  0  0  0  0  0
    2.7760    0.0000    0.0000 C   0  0  0  0  0  0  0  0  0  0  0  0
    1.2760    0.0000    0.0000 C   0  0  0  0  0  0  0  0  0  0  0  0
    0.3943    1.2135    0.0000 C   0  0  0  0  0  0  0  0  0  0  0  0
   -1.0323    0.7500    0.0000 C   0  0  0  0  0  0  0  0  0  0  0  0
   -1.0323   -0.7500    0.0000 C   0  0  0  0  0  0  0  0  0  0  0  0
    0.3943   -1.2135    0.0000 C   0  0  0  0  0  0  0  0  0  0  0  0
  1  2  3  0
  2  3  1  0
  3  4  2  0
  4  5  1  0
  5  6  1  0
  6  7  2  0
  7  3  1  0
M  END
>  <Title>  (46) 
idAABTgen8

$$$$

     RDKit          2D

  7  7  0  0  0  0  0  0  0  0999 V2000
    4.2760   -0.0000    0.0000 C   0  0  0  0  0  0  0  0  0  0  0  0
    2.7760    0.0000    0.0000 C   0  0  0  0  0  0  0  0  0  0  0  0
    1.2760    0.0000    0.0000 C   0  0  0  0  0  0  0  0  0  0  0  0
    0.3943    1.2135    0.0000 C   0  0  0  0  0  0  0  0  0  0  0  0
   -1.0323    0.7500    0.0000 C   0  0  0  0  0  0  0  0  0  0  0  0
   -1.0323   -0.7500    0.0000 C   0  0  0  0  0  0  0  0  0  0  0  0
    0.3943   -1.2135    0.0000 C   0  0  0  0  0  0  0  0  0  0  0  0
  1  2  3  0
  2  3  1  0
  3  4  2  0
  4  5  1  0
  5  6  2  0
  6  7  1  0
  7  3  1  0
M  END
>  <Title>  (47) 
idAABUgen8

$$$$

     RDKit          2D

  6  6  0  0  0  0  0  0  0  0999 V2000
    2.7760    0.0000    0.0000 O   0  0  0  0  0  0  0  0  0  0  0  0
    1.2760    0.0000    0.0000 C   0  0  0  0  0  0  0  0  0  0  0  0
    0.3943    1.2135    0.0000 C   0  0  0  0  0  0  0  0  0  0  0  0
   -1.0323    0.7500    0.0000 C   0  0  0  0  0  0  0  0  0  0  0  0
   -1.0323   -0.7500    0.0000 C   0  0  0  0  0  0  0  0  0  0  0  0
    0.3943   -1.2135    0.0000 C   0  0  0  0  0  0  0  0  0  0  0  0
  1  2  1  0
  2  3  2  0
  3  4  1  0
  4  5  2  0
  5  6  1  0
  6  2  1  0
M  END
>  <Title>  (48) 
idAABVgen8

$$$$

     RDKit          2D

  7  6  0  0  0  0  0  0  0  0999 V2000
    0.0000    0.0000    0.0000 C   0  0  0  0  0  0  0  0  0  0  0  0
    1.2990    0.7500    0.0000 C   0  0  0  0  0  0  0  0  0  0  0  0
    2.5981   -0.0000    0.0000 C   0  0  0  0  0  0  0  0  0  0  0  0
    3.8971    0.7500    0.0000 N   0  0  0  0  0  0  0  0  0  0  0  0
    5.1962   -0.0000    0.0000 C   0  0  0  0  0  0  0  0  0  0  0  0
    6.4952    0.7500    0.0000 C   0  0  0  0  0  0  0  0  0  0  0  0
    7.7942   -0.0000    0.0000 C   0  0  0  0  0  0  0  0  0  0  0  0
  1  2  1  0
  2  3  2  3
  3  4  1  0
  4  5  1  0
  5  6  1  0
  6  7  1  0
M  END
>  <Title>  (49) 
idAABWgen8

$$$$

     RDKit          2D

  6  6  0  0  0  0  0  0  0  0999 V2000
    2.7760    0.0000    0.0000 O   0  0  0  0  0  0  0  0  0  0  0  0
    1.2760    0.0000    0.0000 C   0  0  0  0  0  0  0  0  0  0  0  0
    0.3943    1.2135    0.0000 C   0  0  0  0  0  0  0  0  0  0  0  0
   -1.0323    0.7500    0.0000 C   0  0  0  0  0  0  0  0  0  0  0  0
   -1.0323   -0.7500    0.0000 C   0  0  0  0  0  0  0  0  0  0  0  0
    0.3943   -1.2135    0.0000 C   0  0  0  0  0  0  0  0  0  0  0  0
  1  2  1  0
  2  3  2  0
  3  4  1  0
  4  5  2  0
  5  6  1  0
  6  2  1  0
M  END
>  <Title>  (50) 
idAABXgen8

$$$$

     RDKit          2D

 25 28  0  0  0  0  0  0  0  0999 V2000
   -0.0000   -6.0850    0.0000 C   0  0  0  0  0  0  0  0  0  0  0  0
   -0.0000   -4.5850    0.0000 C   0  0  0  0  0  0  0  0  0  0  0  0
    1.3515   -3.9342    0.0000 C   0  0  0  0  0  0  0  0  0  0  0  0
    1.6852   -2.4718    0.0000 C   0  0  0  0  0  0  0  0  0  0  0  0
    3.1476   -2.1380    0.0000 C   0  0  0  0  0  0  0  0  0  0  0  0
    3.5898   -0.7046    0.0000 O   0  0  0  0  0  0  0  0  0  0  0  0
    4.1679   -3.2376    0.0000 N   0  0  0  0  0  0  0  0  0  0  0  0
    5.6303   -2.9038    0.0000 C   0  0  0  0  0  0  0  0  0  0  0  0
    6.6505   -4.0034    0.0000 N   0  0  0  0  0  0  0  0  0  0  0  0
    8.1129   -3.6696    0.0000 N   0  0  0  0  0  0  0  0  0  0  0  0
    8.5551   -2.2362    0.0000 N   0  0  0  0  0  0  0  0  0  0  0  0
    7.5348   -1.1367    0.0000 N   0  0  0  0  0  0  0  0  0  0  0  0
    6.0724   -1.4704    0.0000 N   0  0  0  0  0  0  0  0  0  0  0  0
    0.7500   -1.2990    0.0000 C   0  0  0  0  0  0  0  0  0  0  0  0
    1.5000    0.0000    0.0000 C   0  0  0  0  0  0  0  0  0  0  0  0
    0.7500    1.2990    0.0000 C   0  0  0  0  0  0  0  0  0  0  0  0
   -0.7500    1.2990    0.0000 C   0  0  0  0  0  0  0  0  0  0  0  0
   -1.5000    0.0000    0.0000 C   0  0  0  0  0  0  0  0  0  0  0  0
   -0.7500   -1.2990    0.0000 C   0  0  0  0  0  0  0  0  0  0  0  0
   -1.6852   -2.4718    0.0000 C   0  0  0  0  0  0  0  0  0  0  0  0
   -3.1186   -2.0297    0.0000 C   0  0  0  0  0  0  0  0  0  0  0  0
   -4.2182   -3.0499    0.0000 C   0  0  0  0  0  0  0  0  0  0  0  0
   -3.8844   -4.5123    0.0000 C   0  0  0  0  0  0  0  0  0  0  0  0
   -2.4510   -4.9544    0.0000 C   0  0  0  0  0  0  0  0  0  0  0  0
   -1.3515   -3.9342    0.0000 C   0  0  0  0  0  0  0  0  0  0  0  0
  1  2  1  0
  2  3  2  0
  3  4  1  0
  4  5  1  0
  5  6  2  0
  5  7  1  0
  7  8  1  0
  8  9  2  0
  9 10  1  0
 10 11  2  0
 11 12  1  0
 12 13  2  0
  4 14  1  0
 14 15  2  0
 15 16  1  0
 16 17  2  0
 17 18  1  0
 18 19  2  0
 19 20  1  0
 20 21  2  0
 21 22  1  0
 22 23  2  0
 23 24  1  0
 24 25  2  0
 25  2  1  0
 13  8  1  0
 19 14  1  0
 25 20  1  0
M  END
>  <Title>  (51) 
idAAAAgen8

$$$$

     RDKit          2D

  7  7  0  0  0  0  0  0  0  0999 V2000
    3.5260   -1.2990    0.0000 O   0  0  0  0  0  0  0  0  0  0  0  0
    2.7760    0.0000    0.0000 O   0  0  0  0  0  0  0  0  0  0  0  0
    1.2760    0.0000    0.0000 C   0  0  0  0  0  0  0  0  0  0  0  0
    0.3943    1.2135    0.0000 C   0  0  0  0  0  0  0  0  0  0  0  0
   -1.0323    0.7500    0.0000 C   0  0  0  0  0  0  0  0  0  0  0  0
   -1.0323   -0.7500    0.0000 C   0  0  0  0  0  0  0  0  0  0  0  0
    0.3943   -1.2135    0.0000 C   0  0  0  0  0  0  0  0  0  0  0  0
  1  2  1  0
  2  3  1  0
  3  4  2  0
  4  5  1  0
  5  6  2  0
  6  7  1  0
  7  3  1  0
M  END
>  <Title>  (52) 
idAAABgen8

$$$$

     RDKit          2D

  9  9  0  0  0  0  0  0  0  0999 V2000
    4.9320    1.5439    0.0000 C   0  0  0  0  0  0  0  0  0  0  0  0
    3.8173    0.5402    0.0000 C   0  0  0  0  0  0  0  0  0  0  0  0
    2.3907    1.0037    0.0000 C   0  0  0  0  0  0  0  0  0  0  0  0
    1.2760    0.0000    0.0000 C   0  0  0  0  0  0  0  0  0  0  0  0
    2.3907   -1.0037    0.0000 O   0  0  0  0  0  0  0  0  0  0  0  0
    0.3943    1.2135    0.0000 C   0  0  0  0  0  0  0  0  0  0  0  0
   -1.0323    0.7500    0.0000 C   0  0  0  0  0  0  0  0  0  0  0  0
   -1.0323   -0.7500    0.0000 C   0  0  0  0  0  0  0  0  0  0  0  0
    0.3943   -1.2135    0.0000 C   0  0  0  0  0  0  0  0  0  0  0  0
  1  2  1  0
  2  3  1  0
  3  4  1  0
  4  5  1  0
  4  6  1  0
  6  7  1  0
  7  8  2  0
  8  9  1  0
  9  4  1  0
M  END
>  <Title>  (53) 
idAAACgen8

$$$$

     RDKit          2D

104104  0  0  0  0  0  0  0  0999 V2000
   26.0933    0.0000    0.0000 C   0  0  0  0  0  0  0  0  0  0  0  0
   24.5933    0.0000    0.0000 C   0  0  0  0  0  0  0  0  0  0  0  0
   24.5475    1.4993    0.0000 C   0  0  0  0  0  0  0  0  0  0  0  0
   24.4104    2.9930    0.0000 C   0  0  0  0  0  0  0  0  0  0  0  0
   24.1826    4.4756    0.0000 C   0  0  0  0  0  0  0  0  0  0  0  0
   23.8647    5.9416    0.0000 C   0  0  0  0  0  0  0  0  0  0  0  0
   23.4581    7.3854    0.0000 C   0  0  0  0  0  0  0  0  0  0  0  0
   22.9643    8.8018    0.0000 C   0  0  0  0  0  0  0  0  0  0  0  0
   22.3850   10.1854    0.0000 C   0  0  0  0  0  0  0  0  0  0  0  0
   21.7224   11.5311    0.0000 C   0  0  0  0  0  0  0  0  0  0  0  0
   20.9790   12.8339    0.0000 C   0  0  0  0  0  0  0  0  0  0  0  0
   20.1576   14.0890    0.0000 C   0  0  0  0  0  0  0  0  0  0  0  0
   19.2611   15.2917    0.0000 C   0  0  0  0  0  0  0  0  0  0  0  0
   18.2931   16.4375    0.0000 C   0  0  0  0  0  0  0  0  0  0  0  0
   17.2569   17.5222    0.0000 C   0  0  0  0  0  0  0  0  0  0  0  0
   16.1566   18.5416    0.0000 C   0  0  0  0  0  0  0  0  0  0  0  0
   14.9962   19.4921    0.0000 C   0  0  0  0  0  0  0  0  0  0  0  0
   13.7800   20.3701    0.0000 C   0  0  0  0  0  0  0  0  0  0  0  0
   12.5125   21.1723    0.0000 C   0  0  0  0  0  0  0  0  0  0  0  0
   11.1985   21.8957    0.0000 C   0  0  0  0  0  0  0  0  0  0  0  0
    9.8428   22.5377    0.0000 C   0  0  0  0  0  0  0  0  0  0  0  0
    8.4505   23.0958    0.0000 C   0  0  0  0  0  0  0  0  0  0  0  0
    7.0268   23.5680    0.0000 C   0  0  0  0  0  0  0  0  0  0  0  0
    5.5769   23.9526    0.0000 C   0  0  0  0  0  0  0  0  0  0  0  0
    4.1063   24.2480    0.0000 C   0  0  0  0  0  0  0  0  0  0  0  0
    2.6204   24.4532    0.0000 C   0  0  0  0  0  0  0  0  0  0  0  0
    1.1248   24.5675    0.0000 C   0  0  0  0  0  0  0  0  0  0  0  0
   -0.3750   24.5904    0.0000 C   0  0  0  0  0  0  0  0  0  0  0  0
   -1.8735   24.5218    0.0000 C   0  0  0  0  0  0  0  0  0  0  0  0
   -3.3649   24.3620    0.0000 C   0  0  0  0  0  0  0  0  0  0  0  0
   -4.8439   24.1115    0.0000 C   0  0  0  0  0  0  0  0  0  0  0  0
   -6.3048   23.7714    0.0000 C   0  0  0  0  0  0  0  0  0  0  0  0
   -7.7423   23.3428    0.0000 C   0  0  0  0  0  0  0  0  0  0  0  0
   -9.1509   22.8274    0.0000 C   0  0  0  0  0  0  0  0  0  0  0  0
  -10.5256   22.2270    0.0000 C   0  0  0  0  0  0  0  0  0  0  0  0
  -11.8610   21.5440    0.0000 C   0  0  0  0  0  0  0  0  0  0  0  0
  -13.1524   20.7808    0.0000 C   0  0  0  0  0  0  0  0  0  0  0  0
  -14.3948   19.9404    0.0000 C   0  0  0  0  0  0  0  0  0  0  0  0
  -15.5837   19.0257    0.0000 C   0  0  0  0  0  0  0  0  0  0  0  0
  -16.7146   18.0403    0.0000 C   0  0  0  0  0  0  0  0  0  0  0  0
  -17.7833   16.9877    0.0000 C   0  0  0  0  0  0  0  0  0  0  0  0
  -18.7858   15.8720    0.0000 C   0  0  0  0  0  0  0  0  0  0  0  0
  -19.7185   14.6972    0.0000 C   0  0  0  0  0  0  0  0  0  0  0  0
  -20.5778   13.4678    0.0000 C   0  0  0  0  0  0  0  0  0  0  0  0
  -21.3606   12.1882    0.0000 C   0  0  0  0  0  0  0  0  0  0  0  0
  -22.0639   10.8633    0.0000 C   0  0  0  0  0  0  0  0  0  0  0  0
  -22.6852    9.4980    0.0000 C   0  0  0  0  0  0  0  0  0  0  0  0
  -23.2220    8.0973    0.0000 C   0  0  0  0  0  0  0  0  0  0  0  0
  -23.6724    6.6666    0.0000 C   0  0  0  0  0  0  0  0  0  0  0  0
  -24.0348    5.2110    0.0000 C   0  0  0  0  0  0  0  0  0  0  0  0
  -24.3078    3.7361    0.0000 C   0  0  0  0  0  0  0  0  0  0  0  0
  -24.4904    2.2472    0.0000 C   0  0  0  0  0  0  0  0  0  0  0  0
  -24.5818    0.7500    0.0000 C   0  0  0  0  0  0  0  0  0  0  0  0
  -24.5818   -0.7500    0.0000 C   0  0  0  0  0  0  0  0  0  0  0  0
  -24.4904   -2.2472    0.0000 C   0  0  0  0  0  0  0  0  0  0  0  0
  -24.3078   -3.7361    0.0000 C   0  0  0  0  0  0  0  0  0  0  0  0
  -24.0348   -5.2110    0.0000 C   0  0  0  0  0  0  0  0  0  0  0  0
  -23.6724   -6.6666    0.0000 C   0  0  0  0  0  0  0  0  0  0  0  0
  -23.2220   -8.0973    0.0000 C   0  0  0  0  0  0  0  0  0  0  0  0
  -22.6852   -9.4980    0.0000 C   0  0  0  0  0  0  0  0  0  0  0  0
  -22.0639  -10.8633    0.0000 C   0  0  0  0  0  0  0  0  0  0  0  0
  -21.3606  -12.1882    0.0000 C   0  0  0  0  0  0  0  0  0  0  0  0
  -20.5778  -13.4678    0.0000 C   0  0  0  0  0  0  0  0  0  0  0  0
  -19.7185  -14.6972    0.0000 C   0  0  0  0  0  0  0  0  0  0  0  0
  -18.7858  -15.8720    0.0000 C   0  0  0  0  0  0  0  0  0  0  0  0
  -17.7833  -16.9877    0.0000 C   0  0  0  0  0  0  0  0  0  0  0  0
  -16.7146  -18.0403    0.0000 C   0  0  0  0  0  0  0  0  0  0  0  0
  -15.5837  -19.0257    0.0000 C   0  0  0  0  0  0  0  0  0  0  0  0
  -14.3948  -19.9404    0.0000 C   0  0  0  0  0  0  0  0  0  0  0  0
  -13.1524  -20.7808    0.0000 C   0  0  0  0  0  0  0  0  0  0  0  0
  -11.8610  -21.5440    0.0000 C   0  0  0  0  0  0  0  0  0  0  0  0
  -10.5256  -22.2270    0.0000 C   0  0  0  0  0  0  0  0  0  0  0  0
   -9.1509  -22.8274    0.0000 C   0  0  0  0  0  0  0  0  0  0  0  0
   -7.7423  -23.3428    0.0000 C   0  0  0  0  0  0  0  0  0  0  0  0
   -6.3048  -23.7714    0.0000 C   0  0  0  0  0  0  0  0  0  0  0  0
   -4.8439  -24.1115    0.0000 C   0  0  0  0  0  0  0  0  0  0  0  0
   -3.3649  -24.3620    0.0000 C   0  0  0  0  0  0  0  0  0  0  0  0
   -1.8735  -24.5218    0.0000 C   0  0  0  0  0  0  0  0  0  0  0  0
   -0.3750  -24.5904    0.0000 C   0  0  0  0  0  0  0  0  0  0  0  0
    1.1248  -24.5675    0.0000 C   0  0  0  0  0  0  0  0  0  0  0  0
    2.6204  -24.4532    0.0000 C   0  0  0  0  0  0  0  0  0  0  0  0
    4.1063  -24.2480    0.0000 C   0  0  0  0  0  0  0  0  0  0  0  0
    5.5769  -23.9526    0.0000 C   0  0  0  0  0  0  0  0  0  0  0  0
    7.0268  -23.5680    0.0000 C   0  0  0  0  0  0  0  0  0  0  0  0
    8.4505  -23.0958    0.0000 C   0  0  0  0  0  0  0  0  0  0  0  0
    9.8428  -22.5377    0.0000 C   0  0  0  0  0  0  0  0  0  0  0  0
   11.1985  -21.8957    0.0000 C   0  0  0  0  0  0  0  0  0  0  0  0
   12.5125  -21.1723    0.0000 C   0  0  0  0  0  0  0  0  0  0  0  0
   13.7800  -20.3701    0.0000 C   0  0  0  0  0  0  0  0  0  0  0  0
   14.9962  -19.4921    0.0000 C   0  0  0  0  0  0  0  0  0  0  0  0
   16.1566  -18.5416    0.0000 C   0  0  0  0  0  0  0  0  0  0  0  0
   17.2569  -17.5222    0.0000 C   0  0  0  0  0  0  0  0  0  0  0  0
   18.2931  -16.4375    0.0000 C   0  0  0  0  0  0  0  0  0  0  0  0
   19.2611  -15.2917    0.0000 C   0  0  0  0  0  0  0  0  0  0  0  0
   20.1576  -14.0890    0.0000 C   0  0  0  0  0  0  0  0  0  0  0  0
   20.9790  -12.8339    0.0000 C   0  0  0  0  0  0  0  0  0  0  0  0
   21.7224  -11.5311    0.0000 C   0  0  0  0  0  0  0  0  0  0  0  0
   22.3850  -10.1854    0.0000 C   0  0  0  0  0  0  0  0  0  0  0  0
   22.9643   -8.8018    0.0000 C   0  0  0  0  0  0  0  0  0  0  0  0
   23.4581   -7.3854    0.0000 C   0  0  0  0  0  0  0  0  0  0  0  0
   23.8647   -5.9416    0.0000 C   0  0  0  0  0  0  0  0  0  0  0  0
   24.1826   -4.4756    0.0000 C   0  0  0  0  0  0  0  0  0  0  0  0
   24.4104   -2.9930    0.0000 C   0  0  0  0  0  0  0  0  0  0  0  0
   24.5475   -1.4993    0.0000 C   0  0  0  0  0  0  0  0  0  0  0  0
  1  2  1  0
  2  3  1  0
  3  4  2  0
  4  5  1  0
  5  6  2  0
  6  7  1  0
  7  8  2  0
  8  9  1  0
  9 10  1  0
 10 11  1  0
 11 12  1  0
 12 13  1  0
 13 14  1  0
 14 15  1  0
 15 16  1  0
 16 17  1  0
 17 18  1  0
 18 19  1  0
 19 20  1  0
 20 21  1  0
 21 22  1  0
 22 23  1  0
 23 24  1  0
 24 25  1  0
 25 26  1  0
 26 27  1  0
 27 28  1  0
 28 29  1  0
 29 30  1  0
 30 31  1  0
 31 32  1  0
 32 33  1  0
 33 34  1  0
 34 35  1  0
 35 36  1  0
 36 37  1  0
 37 38  1  0
 38 39  1  0
 39 40  1  0
 40 41  1  0
 41 42  1  0
 42 43  1  0
 43 44  1  0
 44 45  1  0
 45 46  1  0
 46 47  1  0
 47 48  1  0
 48 49  1  0
 49 50  1  0
 50 51  1  0
 51 52  1  0
 52 53  1  0
 53 54  1  0
 54 55  1  0
 55 56  1  0
 56 57  1  0
 57 58  1  0
 58 59  1  0
 59 60  1  0
 60 61  1  0
 61 62  1  0
 62 63  1  0
 63 64  1  0
 64 65  1  0
 65 66  1  0
 66 67  1  0
 67 68  1  0
 68 69  1  0
 69 70  1  0
 70 71  1  0
 71 72  1  0
 72 73  1  0
 73 74  1  0
 74 75  1  0
 75 76  1  0
 76 77  1  0
 77 78  1  0
 78 79  1  0
 79 80  1  0
 80 81  1  0
 81 82  1  0
 82 83  1  0
 83 84  1  0
 84 85  1  0
 85 86  1  0
 86 87  1  0
 87 88  1  0
 88 89  1  0
 89 90  1  0
 90 91  1  0
 91 92  1  0
 92 93  1  0
 93 94  1  0
 94 95  1  0
 95 96  1  0
 96 97  1  0
 97 98  1  0
 98 99  1  0
 99100  1  0
100101  1  0
101102  1  0
102103  1  0
103104  1  0
104  2  1  0
M  END
>  <Title>  (54) 
idAAADgen8

$$$$

     RDKit          2D

  9  9  0  0  0  0  0  0  0  0999 V2000
    4.6309    1.7331    0.0000 C   0  0  0  0  0  0  0  0  0  0  0  0
    3.5702    0.6724    0.0000 C   0  0  0  0  0  0  0  0  0  0  0  0
    2.1213    1.0607    0.0000 C   0  0  0  0  0  0  0  0  0  0  0  0
    1.0607    0.0000    0.0000 C   0  0  0  0  0  0  0  0  0  0  0  0
    2.1213   -1.0607    0.0000 O   0  0  0  0  0  0  0  0  0  0  0  0
   -0.0000   -1.0607    0.0000 C   0  0  0  0  0  0  0  0  0  0  0  0
   -1.0607    0.0000    0.0000 C   0  0  0  0  0  0  0  0  0  0  0  0
    0.0000    1.0607    0.0000 C   0  0  0  0  0  0  0  0  0  0  0  0
    0.0000    2.5607    0.0000 C   0  0  0  0  0  0  0  0  0  0  0  0
  1  2  1  0
  2  3  1  0
  3  4  1  0
  4  5  1  0
  4  6  1  0
  6  7  2  0
  7  8  1  0
  8  9  1  0
  8  4  1  0
M  END
>  <Title>  (55) 
idAAAEgen8

$$$$

     RDKit          2D

 50 57  0  0  0  0  0  0  0  0999 V2000
    5.2417   -6.1122    0.0000 C   0  0  0  0  0  0  0  0  0  0  0  0
    3.7705   -5.8195    0.0000 C   0  0  0  0  0  0  0  0  0  0  0  0
    3.7705   -4.3195    0.0000 C   0  0  0  0  0  0  0  0  0  0  0  0
    3.1965   -2.9337    0.0000 C   0  0  0  0  0  0  0  0  0  0  0  0
    2.1358   -1.8731    0.0000 C   0  0  0  0  0  0  0  0  0  0  0  0
    2.9692   -0.6259    0.0000 C   0  0  0  0  0  0  0  0  0  0  0  0
    2.3057    0.7195    0.0000 O   0  0  0  0  0  0  0  0  0  0  0  0
    4.4660   -0.7240    0.0000 N   0  0  0  0  0  0  0  0  0  0  0  0
    5.2993    0.5232    0.0000 C   0  0  0  0  0  0  0  0  0  0  0  0
    6.7961    0.4251    0.0000 N   0  0  0  0  0  0  0  0  0  0  0  0
    7.6295    1.6723    0.0000 N   0  0  0  0  0  0  0  0  0  0  0  0
    6.9660    3.0176    0.0000 N   0  0  0  0  0  0  0  0  0  0  0  0
    5.4692    3.1158    0.0000 N   0  0  0  0  0  0  0  0  0  0  0  0
    4.6359    1.8686    0.0000 N   0  0  0  0  0  0  0  0  0  0  0  0
    0.7500   -1.2990    0.0000 C   0  0  0  0  0  0  0  0  0  0  0  0
    1.5000    0.0000    0.0000 C   0  0  0  0  0  0  0  0  0  0  0  0
    0.7500    1.2990    0.0000 C   0  0  0  0  0  0  0  0  0  0  0  0
   -0.7500    1.2990    0.0000 C   0  0  0  0  0  0  0  0  0  0  0  0
   -1.5000    0.0000    0.0000 C   0  0  0  0  0  0  0  0  0  0  0  0
   -0.7500   -1.2990    0.0000 C   0  0  0  0  0  0  0  0  0  0  0  0
   -2.1358   -1.8731    0.0000 C   0  0  0  0  0  0  0  0  0  0  0  0
   -2.5240   -0.4242    0.0000 C   0  0  0  0  0  0  0  0  0  0  0  0
   -3.9729   -0.0359    0.0000 C   0  0  0  0  0  0  0  0  0  0  0  0
   -5.0336   -1.0966    0.0000 C   0  0  0  0  0  0  0  0  0  0  0  0
   -4.6454   -2.5455    0.0000 C   0  0  0  0  0  0  0  0  0  0  0  0
   -3.1965   -2.9337    0.0000 C   0  0  0  0  0  0  0  0  0  0  0  0
   -3.7705   -4.3195    0.0000 C   0  0  0  0  0  0  0  0  0  0  0  0
   -5.0695   -3.5695    0.0000 C   0  0  0  0  0  0  0  0  0  0  0  0
   -6.3686   -4.3195    0.0000 C   0  0  0  0  0  0  0  0  0  0  0  0
   -6.3686   -5.8195    0.0000 C   0  0  0  0  0  0  0  0  0  0  0  0
   -5.0695   -6.5695    0.0000 C   0  0  0  0  0  0  0  0  0  0  0  0
   -3.7705   -5.8195    0.0000 C   0  0  0  0  0  0  0  0  0  0  0  0
   -3.1965   -7.2054    0.0000 C   0  0  0  0  0  0  0  0  0  0  0  0
   -4.6454   -7.5936    0.0000 C   0  0  0  0  0  0  0  0  0  0  0  0
   -5.0336   -9.0425    0.0000 C   0  0  0  0  0  0  0  0  0  0  0  0
   -3.9729  -10.1031    0.0000 C   0  0  0  0  0  0  0  0  0  0  0  0
   -2.5240   -9.7149    0.0000 C   0  0  0  0  0  0  0  0  0  0  0  0
   -2.1358   -8.2660    0.0000 C   0  0  0  0  0  0  0  0  0  0  0  0
   -0.7500   -8.8400    0.0000 C   0  0  0  0  0  0  0  0  0  0  0  0
   -1.5000  -10.1391    0.0000 C   0  0  0  0  0  0  0  0  0  0  0  0
   -0.7500  -11.4381    0.0000 C   0  0  0  0  0  0  0  0  0  0  0  0
    0.7500  -11.4381    0.0000 C   0  0  0  0  0  0  0  0  0  0  0  0
    1.5000  -10.1391    0.0000 C   0  0  0  0  0  0  0  0  0  0  0  0
    0.7500   -8.8400    0.0000 C   0  0  0  0  0  0  0  0  0  0  0  0
    2.1358   -8.2660    0.0000 C   0  0  0  0  0  0  0  0  0  0  0  0
    2.5240   -9.7149    0.0000 C   0  0  0  0  0  0  0  0  0  0  0  0
    3.9729  -10.1031    0.0000 C   0  0  0  0  0  0  0  0  0  0  0  0
    5.0336   -9.0425    0.0000 C   0  0  0  0  0  0  0  0  0  0  0  0
    4.6454   -7.5936    0.0000 C   0  0  0  0  0  0  0  0  0  0  0  0
    3.1965   -7.2054    0.0000 C   0  0  0  0  0  0  0  0  0  0  0  0
  1  2  1  0
  2  3  2  0
  3  4  1  0
  4  5  1  0
  5  6  1  0
  6  7  2  0
  6  8  1  0
  8  9  1  0
  9 10  2  0
 10 11  1  0
 11 12  2  0
 12 13  1  0
 13 14  2  0
  5 15  1  0
 15 16  2  0
 16 17  1  0
 17 18  2  0
 18 19  1  0
 19 20  2  0
 20 21  1  0
 21 22  2  0
 22 23  1  0
 23 24  1  0
 24 25  1  0
 25 26  2  0
 26 27  1  0
 27 28  2  0
 28 29  1  0
 29 30  2  0
 30 31  1  0
 31 32  2  0
 32 33  1  0
 33 34  2  0
 34 35  1  0
 35 36  2  0
 36 37  1  0
 37 38  2  0
 38 39  1  0
 39 40  2  0
 40 41  1  0
 41 42  2  0
 42 43  1  0
 43 44  2  0
 44 45  1  0
 45 46  2  0
 46 47  1  0
 47 48  2  0
 48 49  1  0
 49 50  2  0
 50  2  1  0
 14  9  1  0
 20 15  1  0
 26 21  1  0
 32 27  1  0
 38 33  1  0
 44 39  1  0
 50 45  1  0
M  END
>  <Title>  (56) 
idAAAFgen8

$$$$

     RDKit          2D

100102  0  0  0  0  0  0  0  0999 V2000
   -5.5591   -0.4611    0.0000 C   0  0  0  0  0  0  0  0  0  0  0  0
   -5.2001   -1.9175    0.0000 C   0  0  0  0  0  0  0  0  0  0  0  0
   -6.6432   -2.3265    0.0000 C   0  0  0  0  0  0  0  0  0  0  0  0
   -8.0547   -2.8341    0.0000 C   0  0  0  0  0  0  0  0  0  0  0  0
   -9.4278   -3.4379    0.0000 C   0  0  0  0  0  0  0  0  0  0  0  0
  -10.7560   -4.1350    0.0000 C   0  0  0  0  0  0  0  0  0  0  0  0
  -12.0330   -4.9221    0.0000 C   0  0  0  0  0  0  0  0  0  0  0  0
  -13.2525   -5.7954    0.0000 C   0  0  0  0  0  0  0  0  0  0  0  0
  -14.4090   -6.7507    0.0000 C   0  0  0  0  0  0  0  0  0  0  0  0
  -15.4967   -7.7835    0.0000 C   0  0  0  0  0  0  0  0  0  0  0  0
  -16.5106   -8.8890    0.0000 C   0  0  0  0  0  0  0  0  0  0  0  0
  -17.4459  -10.0617    0.0000 C   0  0  0  0  0  0  0  0  0  0  0  0
  -18.2980  -11.2962    0.0000 C   0  0  0  0  0  0  0  0  0  0  0  0
  -19.0629  -12.5865    0.0000 C   0  0  0  0  0  0  0  0  0  0  0  0
  -19.7369  -13.9265    0.0000 C   0  0  0  0  0  0  0  0  0  0  0  0
  -20.3169  -15.3099    0.0000 C   0  0  0  0  0  0  0  0  0  0  0  0
  -20.8001  -16.7299    0.0000 C   0  0  0  0  0  0  0  0  0  0  0  0
  -21.1842  -18.1799    0.0000 C   0  0  0  0  0  0  0  0  0  0  0  0
  -21.4673  -19.6529    0.0000 C   0  0  0  0  0  0  0  0  0  0  0  0
  -21.6481  -21.1420    0.0000 C   0  0  0  0  0  0  0  0  0  0  0  0
  -21.7257  -22.6400    0.0000 C   0  0  0  0  0  0  0  0  0  0  0  0
  -21.6998  -24.1398    0.0000 C   0  0  0  0  0  0  0  0  0  0  0  0
  -21.5705  -25.6342    0.0000 C   0  0  0  0  0  0  0  0  0  0  0  0
  -21.3384  -27.1161    0.0000 C   0  0  0  0  0  0  0  0  0  0  0  0
  -21.0047  -28.5785    0.0000 C   0  0  0  0  0  0  0  0  0  0  0  0
  -20.5708  -30.0144    0.0000 C   0  0  0  0  0  0  0  0  0  0  0  0
  -20.0389  -31.4169    0.0000 C   0  0  0  0  0  0  0  0  0  0  0  0
  -19.4115  -32.7794    0.0000 C   0  0  0  0  0  0  0  0  0  0  0  0
  -18.6916  -34.0954    0.0000 C   0  0  0  0  0  0  0  0  0  0  0  0
  -17.8826  -35.3585    0.0000 C   0  0  0  0  0  0  0  0  0  0  0  0
  -16.9884  -36.5628    0.0000 C   0  0  0  0  0  0  0  0  0  0  0  0
  -16.0132  -37.7026    0.0000 C   0  0  0  0  0  0  0  0  0  0  0  0
  -14.9618  -38.7724    0.0000 C   0  0  0  0  0  0  0  0  0  0  0  0
  -13.8390  -39.7671    0.0000 C   0  0  0  0  0  0  0  0  0  0  0  0
  -12.6503  -40.6819    0.0000 C   0  0  0  0  0  0  0  0  0  0  0  0
  -11.4013  -41.5126    0.0000 C   0  0  0  0  0  0  0  0  0  0  0  0
  -10.0980  -42.2551    0.0000 C   0  0  0  0  0  0  0  0  0  0  0  0
   -8.7465  -42.9059    0.0000 C   0  0  0  0  0  0  0  0  0  0  0  0
   -7.3534  -43.4620    0.0000 C   0  0  0  0  0  0  0  0  0  0  0  0
   -5.9252  -43.9206    0.0000 C   0  0  0  0  0  0  0  0  0  0  0  0
   -4.4688  -44.2795    0.0000 C   0  0  0  0  0  0  0  0  0  0  0  0
   -2.9911  -44.5372    0.0000 C   0  0  0  0  0  0  0  0  0  0  0  0
   -1.4991  -44.6922    0.0000 C   0  0  0  0  0  0  0  0  0  0  0  0
    0.0000  -44.7440    0.0000 C   0  0  0  0  0  0  0  0  0  0  0  0
    1.4991  -44.6922    0.0000 C   0  0  0  0  0  0  0  0  0  0  0  0
    2.9911  -44.5372    0.0000 C   0  0  0  0  0  0  0  0  0  0  0  0
    4.4688  -44.2795    0.0000 C   0  0  0  0  0  0  0  0  0  0  0  0
    5.9252  -43.9206    0.0000 C   0  0  0  0  0  0  0  0  0  0  0  0
    7.3534  -43.4620    0.0000 C   0  0  0  0  0  0  0  0  0  0  0  0
    8.7465  -42.9059    0.0000 C   0  0  0  0  0  0  0  0  0  0  0  0
   10.0980  -42.2551    0.0000 C   0  0  0  0  0  0  0  0  0  0  0  0
   11.4013  -41.5126    0.0000 C   0  0  0  0  0  0  0  0  0  0  0  0
   12.6503  -40.6819    0.0000 C   0  0  0  0  0  0  0  0  0  0  0  0
   13.8390  -39.7671    0.0000 C   0  0  0  0  0  0  0  0  0  0  0  0
   14.9618  -38.7724    0.0000 C   0  0  0  0  0  0  0  0  0  0  0  0
   16.0132  -37.7026    0.0000 C   0  0  0  0  0  0  0  0  0  0  0  0
   16.9884  -36.5628    0.0000 C   0  0  0  0  0  0  0  0  0  0  0  0
   17.8826  -35.3585    0.0000 C   0  0  0  0  0  0  0  0  0  0  0  0
   18.6916  -34.0954    0.0000 C   0  0  0  0  0  0  0  0  0  0  0  0
   19.4115  -32.7794    0.0000 C   0  0  0  0  0  0  0  0  0  0  0  0
   20.0389  -31.4169    0.0000 C   0  0  0  0  0  0  0  0  0  0  0  0
   20.5708  -30.0144    0.0000 C   0  0  0  0  0  0  0  0  0  0  0  0
   21.0047  -28.5785    0.0000 C   0  0  0  0  0  0  0  0  0  0  0  0
   21.3384  -27.1161    0.0000 C   0  0  0  0  0  0  0  0  0  0  0  0
   21.5705  -25.6342    0.0000 C   0  0  0  0  0  0  0  0  0  0  0  0
   21.6998  -24.1398    0.0000 C   0  0  0  0  0  0  0  0  0  0  0  0
   21.7257  -22.6400    0.0000 C   0  0  0  0  0  0  0  0  0  0  0  0
   21.6481  -21.1420    0.0000 C   0  0  0  0  0  0  0  0  0  0  0  0
   21.4673  -19.6529    0.0000 C   0  0  0  0  0  0  0  0  0  0  0  0
   21.1842  -18.1799    0.0000 C   0  0  0  0  0  0  0  0  0  0  0  0
   20.8001  -16.7299    0.0000 C   0  0  0  0  0  0  0  0  0  0  0  0
   20.3169  -15.3099    0.0000 C   0  0  0  0  0  0  0  0  0  0  0  0
   19.7369  -13.9265    0.0000 C   0  0  0  0  0  0  0  0  0  0  0  0
   19.0629  -12.5865    0.0000 C   0  0  0  0  0  0  0  0  0  0  0  0
   18.2980  -11.2962    0.0000 C   0  0  0  0  0  0  0  0  0  0  0  0
   17.4459  -10.0617    0.0000 C   0  0  0  0  0  0  0  0  0  0  0  0
   16.5106   -8.8890    0.0000 C   0  0  0  0  0  0  0  0  0  0  0  0
   15.4967   -7.7835    0.0000 C   0  0  0  0  0  0  0  0  0  0  0  0
   14.4090   -6.7507    0.0000 C   0  0  0  0  0  0  0  0  0  0  0  0
   13.2525   -5.7954    0.0000 C   0  0  0  0  0  0  0  0  0  0  0  0
   12.0330   -4.9221    0.0000 C   0  0  0  0  0  0  0  0  0  0  0  0
   10.7560   -4.1350    0.0000 C   0  0  0  0  0  0  0  0  0  0  0  0
    9.4278   -3.4379    0.0000 C   0  0  0  0  0  0  0  0  0  0  0  0
    8.0547   -2.8341    0.0000 C   0  0  0  0  0  0  0  0  0  0  0  0
    6.6432   -2.3265    0.0000 C   0  0  0  0  0  0  0  0  0  0  0  0
    5.2001   -1.9175    0.0000 C   0  0  0  0  0  0  0  0  0  0  0  0
    3.7321   -1.6090    0.0000 C   0  0  0  0  0  0  0  0  0  0  0  0
    2.2464   -1.4025    0.0000 C   0  0  0  0  0  0  0  0  0  0  0  0
    0.7500   -1.2990    0.0000 C   0  0  0  0  0  0  0  0  0  0  0  0
    1.5000    0.0000    0.0000 C   0  0  0  0  0  0  0  0  0  0  0  0
    0.7500    1.2990    0.0000 C   0  0  0  0  0  0  0  0  0  0  0  0
   -0.7500    1.2990    0.0000 C   0  0  0  0  0  0  0  0  0  0  0  0
   -1.5000    0.0000    0.0000 C   0  0  0  0  0  0  0  0  0  0  0  0
   -0.7500   -1.2990    0.0000 C   0  0  0  0  0  0  0  0  0  0  0  0
   -2.2464   -1.4025    0.0000 C   0  0  0  0  0  0  0  0  0  0  0  0
   -1.3247   -2.5860    0.0000 C   0  0  0  0  0  0  0  0  0  0  0  0
   -1.8888   -3.9759    0.0000 C   0  0  0  0  0  0  0  0  0  0  0  0
   -3.3745   -4.1823    0.0000 C   0  0  0  0  0  0  0  0  0  0  0  0
   -4.2962   -2.9989    0.0000 C   0  0  0  0  0  0  0  0  0  0  0  0
   -3.7321   -1.6090    0.0000 C   0  0  0  0  0  0  0  0  0  0  0  0
  1  2  1  0
  2  3  1  0
  3  4  1  0
  4  5  1  0
  5  6  1  0
  6  7  1  0
  7  8  1  0
  8  9  1  0
  9 10  1  0
 10 11  1  0
 11 12  1  0
 12 13  1  0
 13 14  1  0
 14 15  1  0
 15 16  1  0
 16 17  1  0
 17 18  1  0
 18 19  1  0
 19 20  1  0
 20 21  1  0
 21 22  1  0
 22 23  1  0
 23 24  1  0
 24 25  1  0
 25 26  1  0
 26 27  1  0
 27 28  1  0
 28 29  1  0
 29 30  1  0
 30 31  1  0
 31 32  1  0
 32 33  1  0
 33 34  1  0
 34 35  1  0
 35 36  1  0
 36 37  1  0
 37 38  1  0
 38 39  1  0
 39 40  1  0
 40 41  1  0
 41 42  1  0
 42 43  1  0
 43 44  1  0
 44 45  1  0
 45 46  1  0
 46 47  1  0
 47 48  1  0
 48 49  1  0
 49 50  1  0
 50 51  1  0
 51 52  1  0
 52 53  1  0
 53 54  1  0
 54 55  1  0
 55 56  1  0
 56 57  1  0
 57 58  1  0
 58 59  1  0
 59 60  1  0
 60 61  1  0
 61 62  1  0
 62 63  1  0
 63 64  1  0
 64 65  1  0
 65 66  1  0
 66 67  1  0
 67 68  1  0
 68 69  1  0
 69 70  1  0
 70 71  1  0
 71 72  1  0
 72 73  1  0
 73 74  1  0
 74 75  2  0
 75 76  1  0
 76 77  2  0
 77 78  1  0
 78 79  2  0
 79 80  1  0
 80 81  2  0
 81 82  1  0
 82 83  2  0
 83 84  1  0
 84 85  2  0
 85 86  1  0
 86 87  2  0
 87 88  1  0
 88 89  2  0
 89 90  1  0
 90 91  1  0
 91 92  2  0
 92 93  1  0
 93 94  2  0
 94 95  1  0
 95 96  2  0
 96 97  1  0
 97 98  2  0
 98 99  1  0
 99100  2  0
100  2  1  0
 94 89  1  0
100 95  1  0
M  END
>  <Title>  (57) 
idAAAGgen8

$$$$

     RDKit          2D

  9  9  0  0  0  0  0  0  0  0999 V2000
    3.2286   -0.0000    0.0000 C   0  0  0  0  0  0  0  0  0  0  0  0
    1.7286    0.0000    0.0000 C   0  0  0  0  0  0  0  0  0  0  0  0
    1.0777    1.3515    0.0000 C   0  0  0  0  0  0  0  0  0  0  0  0
   -0.3846    1.6852    0.0000 C   0  0  0  0  0  0  0  0  0  0  0  0
   -1.5574    0.7500    0.0000 C   0  0  0  0  0  0  0  0  0  0  0  0
   -1.5574   -0.7500    0.0000 C   0  0  0  0  0  0  0  0  0  0  0  0
   -2.9088   -1.4008    0.0000 O   0  0  0  0  0  0  0  0  0  0  0  0
   -0.3846   -1.6852    0.0000 C   0  0  0  0  0  0  0  0  0  0  0  0
    1.0777   -1.3515    0.0000 C   0  0  0  0  0  0  0  0  0  0  0  0
  1  2  1  0
  2  3  2  0
  3  4  1  0
  4  5  1  0
  5  6  1  0
  6  7  1  0
  6  8  1  0
  8  9  1  0
  9  2  1  0
M  END
>  <Title>  (58) 
idAAAHgen8

$$$$

     RDKit          2D

101101  0  0  0  0  0  0  0  0999 V2000
   26.6385   -0.0000    0.0000 C   0  0  0  0  0  0  0  0  0  0  0  0
   25.1385    0.0000    0.0000 C   0  0  0  0  0  0  0  0  0  0  0  0
   23.6385    0.0000    0.0000 C   0  0  0  0  0  0  0  0  0  0  0  0
   23.5909    1.4992    0.0000 C   0  0  0  0  0  0  0  0  0  0  0  0
   23.4483    2.9925    0.0000 C   0  0  0  0  0  0  0  0  0  0  0  0
   23.2113    4.4736    0.0000 C   0  0  0  0  0  0  0  0  0  0  0  0
   22.8808    5.9368    0.0000 C   0  0  0  0  0  0  0  0  0  0  0  0
   22.4582    7.3760    0.0000 C   0  0  0  0  0  0  0  0  0  0  0  0
   21.9452    8.7855    0.0000 C   0  0  0  0  0  0  0  0  0  0  0  0
   21.3438   10.1597    0.0000 C   0  0  0  0  0  0  0  0  0  0  0  0
   20.6565   11.4929    0.0000 C   0  0  0  0  0  0  0  0  0  0  0  0
   19.8860   12.7799    0.0000 C   0  0  0  0  0  0  0  0  0  0  0  0
   19.0354   14.0154    0.0000 C   0  0  0  0  0  0  0  0  0  0  0  0
   18.1081   15.1945    0.0000 C   0  0  0  0  0  0  0  0  0  0  0  0
   17.1080   16.3124    0.0000 C   0  0  0  0  0  0  0  0  0  0  0  0
   16.0389   17.3646    0.0000 C   0  0  0  0  0  0  0  0  0  0  0  0
   14.9053   18.3469    0.0000 C   0  0  0  0  0  0  0  0  0  0  0  0
   13.7117   19.2553    0.0000 C   0  0  0  0  0  0  0  0  0  0  0  0
   12.4628   20.0862    0.0000 C   0  0  0  0  0  0  0  0  0  0  0  0
   11.1638   20.8362    0.0000 C   0  0  0  0  0  0  0  0  0  0  0  0
    9.8198   21.5023    0.0000 C   0  0  0  0  0  0  0  0  0  0  0  0
    8.4362   22.0818    0.0000 C   0  0  0  0  0  0  0  0  0  0  0  0
    7.0187   22.5724    0.0000 C   0  0  0  0  0  0  0  0  0  0  0  0
    5.5730   22.9721    0.0000 C   0  0  0  0  0  0  0  0  0  0  0  0
    4.1048   23.2794    0.0000 C   0  0  0  0  0  0  0  0  0  0  0  0
    2.6200   23.4928    0.0000 C   0  0  0  0  0  0  0  0  0  0  0  0
    1.1248   23.6117    0.0000 C   0  0  0  0  0  0  0  0  0  0  0  0
   -0.3750   23.6355    0.0000 C   0  0  0  0  0  0  0  0  0  0  0  0
   -1.8733   23.5641    0.0000 C   0  0  0  0  0  0  0  0  0  0  0  0
   -3.3641   23.3979    0.0000 C   0  0  0  0  0  0  0  0  0  0  0  0
   -4.8413   23.1374    0.0000 C   0  0  0  0  0  0  0  0  0  0  0  0
   -6.2990   22.7838    0.0000 C   0  0  0  0  0  0  0  0  0  0  0  0
   -7.7314   22.3384    0.0000 C   0  0  0  0  0  0  0  0  0  0  0  0
   -9.1326   21.8031    0.0000 C   0  0  0  0  0  0  0  0  0  0  0  0
  -10.4971   21.1799    0.0000 C   0  0  0  0  0  0  0  0  0  0  0  0
  -11.8192   20.4715    0.0000 C   0  0  0  0  0  0  0  0  0  0  0  0
  -13.0938   19.6807    0.0000 C   0  0  0  0  0  0  0  0  0  0  0  0
  -14.3157   18.8106    0.0000 C   0  0  0  0  0  0  0  0  0  0  0  0
  -15.4799   17.8648    0.0000 C   0  0  0  0  0  0  0  0  0  0  0  0
  -16.5818   16.8470    0.0000 C   0  0  0  0  0  0  0  0  0  0  0  0
  -17.6169   15.7614    0.0000 C   0  0  0  0  0  0  0  0  0  0  0  0
  -18.5811   14.6123    0.0000 C   0  0  0  0  0  0  0  0  0  0  0  0
  -19.4705   13.4044    0.0000 C   0  0  0  0  0  0  0  0  0  0  0  0
  -20.2814   12.1426    0.0000 C   0  0  0  0  0  0  0  0  0  0  0  0
  -21.0107   10.8318    0.0000 C   0  0  0  0  0  0  0  0  0  0  0  0
  -21.6554    9.4774    0.0000 C   0  0  0  0  0  0  0  0  0  0  0  0
  -22.2129    8.0848    0.0000 C   0  0  0  0  0  0  0  0  0  0  0  0
  -22.6810    6.6597    0.0000 C   0  0  0  0  0  0  0  0  0  0  0  0
  -23.0577    5.2078    0.0000 C   0  0  0  0  0  0  0  0  0  0  0  0
  -23.3416    3.7349    0.0000 C   0  0  0  0  0  0  0  0  0  0  0  0
  -23.5314    2.2470    0.0000 C   0  0  0  0  0  0  0  0  0  0  0  0
  -23.6266    0.7500    0.0000 C   0  0  0  0  0  0  0  0  0  0  0  0
  -23.6266   -0.7500    0.0000 C   0  0  0  0  0  0  0  0  0  0  0  0
  -23.5314   -2.2470    0.0000 C   0  0  0  0  0  0  0  0  0  0  0  0
  -23.3416   -3.7349    0.0000 C   0  0  0  0  0  0  0  0  0  0  0  0
  -23.0577   -5.2078    0.0000 C   0  0  0  0  0  0  0  0  0  0  0  0
  -22.6810   -6.6597    0.0000 C   0  0  0  0  0  0  0  0  0  0  0  0
  -22.2129   -8.0848    0.0000 C   0  0  0  0  0  0  0  0  0  0  0  0
  -21.6554   -9.4774    0.0000 C   0  0  0  0  0  0  0  0  0  0  0  0
  -21.0107  -10.8318    0.0000 C   0  0  0  0  0  0  0  0  0  0  0  0
  -20.2814  -12.1426    0.0000 C   0  0  0  0  0  0  0  0  0  0  0  0
  -19.4705  -13.4044    0.0000 C   0  0  0  0  0  0  0  0  0  0  0  0
  -18.5811  -14.6123    0.0000 C   0  0  0  0  0  0  0  0  0  0  0  0
  -17.6169  -15.7614    0.0000 C   0  0  0  0  0  0  0  0  0  0  0  0
  -16.5818  -16.8470    0.0000 C   0  0  0  0  0  0  0  0  0  0  0  0
  -15.4799  -17.8648    0.0000 C   0  0  0  0  0  0  0  0  0  0  0  0
  -14.3157  -18.8106    0.0000 C   0  0  0  0  0  0  0  0  0  0  0  0
  -13.0938  -19.6807    0.0000 C   0  0  0  0  0  0  0  0  0  0  0  0
  -11.8192  -20.4715    0.0000 C   0  0  0  0  0  0  0  0  0  0  0  0
  -10.4971  -21.1799    0.0000 C   0  0  0  0  0  0  0  0  0  0  0  0
   -9.1326  -21.8031    0.0000 C   0  0  0  0  0  0  0  0  0  0  0  0
   -7.7314  -22.3384    0.0000 C   0  0  0  0  0  0  0  0  0  0  0  0
   -6.2990  -22.7838    0.0000 C   0  0  0  0  0  0  0  0  0  0  0  0
   -4.8413  -23.1374    0.0000 C   0  0  0  0  0  0  0  0  0  0  0  0
   -3.3641  -23.3979    0.0000 C   0  0  0  0  0  0  0  0  0  0  0  0
   -1.8733  -23.5641    0.0000 C   0  0  0  0  0  0  0  0  0  0  0  0
   -0.3750  -23.6355    0.0000 C   0  0  0  0  0  0  0  0  0  0  0  0
    1.1248  -23.6117    0.0000 C   0  0  0  0  0  0  0  0  0  0  0  0
    2.6200  -23.4928    0.0000 C   0  0  0  0  0  0  0  0  0  0  0  0
    4.1048  -23.2794    0.0000 C   0  0  0  0  0  0  0  0  0  0  0  0
    5.5730  -22.9721    0.0000 C   0  0  0  0  0  0  0  0  0  0  0  0
    7.0187  -22.5724    0.0000 C   0  0  0  0  0  0  0  0  0  0  0  0
    8.4362  -22.0818    0.0000 C   0  0  0  0  0  0  0  0  0  0  0  0
    9.8198  -21.5023    0.0000 C   0  0  0  0  0  0  0  0  0  0  0  0
   11.1638  -20.8362    0.0000 C   0  0  0  0  0  0  0  0  0  0  0  0
   12.4628  -20.0862    0.0000 C   0  0  0  0  0  0  0  0  0  0  0  0
   13.7117  -19.2553    0.0000 C   0  0  0  0  0  0  0  0  0  0  0  0
   14.9053  -18.3469    0.0000 C   0  0  0  0  0  0  0  0  0  0  0  0
   16.0389  -17.3646    0.0000 C   0  0  0  0  0  0  0  0  0  0  0  0
   17.1080  -16.3124    0.0000 C   0  0  0  0  0  0  0  0  0  0  0  0
   18.1081  -15.1945    0.0000 C   0  0  0  0  0  0  0  0  0  0  0  0
   19.0354  -14.0154    0.0000 C   0  0  0  0  0  0  0  0  0  0  0  0
   19.8860  -12.7799    0.0000 C   0  0  0  0  0  0  0  0  0  0  0  0
   20.6565  -11.4929    0.0000 C   0  0  0  0  0  0  0  0  0  0  0  0
   21.3438  -10.1597    0.0000 C   0  0  0  0  0  0  0  0  0  0  0  0
   21.9452   -8.7855    0.0000 C   0  0  0  0  0  0  0  0  0  0  0  0
   22.4582   -7.3760    0.0000 C   0  0  0  0  0  0  0  0  0  0  0  0
   22.8808   -5.9368    0.0000 C   0  0  0  0  0  0  0  0  0  0  0  0
   23.2113   -4.4736    0.0000 C   0  0  0  0  0  0  0  0  0  0  0  0
   23.4483   -2.9925    0.0000 C   0  0  0  0  0  0  0  0  0  0  0  0
   23.5909   -1.4992    0.0000 C   0  0  0  0  0  0  0  0  0  0  0  0
  1  2  3  0
  2  3  1  0
  3  4  1  0
  4  5  1  0
  5  6  1  0
  6  7  1  0
  7  8  1  0
  8  9  1  0
  9 10  1  0
 10 11  1  0
 11 12  1  0
 12 13  1  0
 13 14  1  0
 14 15  1  0
 15 16  1  0
 16 17  1  0
 17 18  1  0
 18 19  1  0
 19 20  1  0
 20 21  1  0
 21 22  1  0
 22 23  1  0
 23 24  1  0
 24 25  1  0
 25 26  1  0
 26 27  1  0
 27 28  1  0
 28 29  1  0
 29 30  1  0
 30 31  1  0
 31 32  1  0
 32 33  1  0
 33 34  1  0
 34 35  1  0
 35 36  1  0
 36 37  1  0
 37 38  1  0
 38 39  1  0
 39 40  1  0
 40 41  1  0
 41 42  1  0
 42 43  1  0
 43 44  1  0
 44 45  1  0
 45 46  1  0
 46 47  1  0
 47 48  1  0
 48 49  1  0
 49 50  1  0
 50 51  1  0
 51 52  1  0
 52 53  1  0
 53 54  1  0
 54 55  1  0
 55 56  1  0
 56 57  1  0
 57 58  1  0
 58 59  1  0
 59 60  1  0
 60 61  1  0
 61 62  1  0
 62 63  1  0
 63 64  1  0
 64 65  1  0
 65 66  1  0
 66 67  1  0
 67 68  1  0
 68 69  1  0
 69 70  1  0
 70 71  1  0
 71 72  1  0
 72 73  1  0
 73 74  1  0
 74 75  1  0
 75 76  1  0
 76 77  1  0
 77 78  1  0
 78 79  1  0
 79 80  1  0
 80 81  1  0
 81 82  1  0
 82 83  1  0
 83 84  1  0
 84 85  1  0
 85 86  1  0
 86 87  1  0
 87 88  1  0
 88 89  1  0
 89 90  1  0
 90 91  1  0
 91 92  1  0
 92 93  1  0
 93 94  1  0
 94 95  1  0
 95 96  1  0
 96 97  1  0
 97 98  1  0
 98 99  1  0
 99100  1  0
100101  1  0
101  3  1  0
M  END
>  <Title>  (59) 
idAAAIgen8

$$$$

     RDKit          2D

104104  0  0  0  0  0  0  0  0999 V2000
   26.0933    0.0000    0.0000 C   0  0  0  0  0  0  0  0  0  0  0  0
   24.5933    0.0000    0.0000 C   0  0  0  0  0  0  0  0  0  0  0  0
   24.5475    1.4993    0.0000 C   0  0  0  0  0  0  0  0  0  0  0  0
   24.4104    2.9930    0.0000 C   0  0  0  0  0  0  0  0  0  0  0  0
   24.1826    4.4756    0.0000 C   0  0  0  0  0  0  0  0  0  0  0  0
   23.8647    5.9416    0.0000 C   0  0  0  0  0  0  0  0  0  0  0  0
   23.4581    7.3854    0.0000 C   0  0  0  0  0  0  0  0  0  0  0  0
   22.9643    8.8018    0.0000 C   0  0  0  0  0  0  0  0  0  0  0  0
   22.3850   10.1854    0.0000 C   0  0  0  0  0  0  0  0  0  0  0  0
   21.7224   11.5311    0.0000 C   0  0  0  0  0  0  0  0  0  0  0  0
   20.9790   12.8339    0.0000 C   0  0  0  0  0  0  0  0  0  0  0  0
   20.1576   14.0890    0.0000 C   0  0  0  0  0  0  0  0  0  0  0  0
   19.2611   15.2917    0.0000 C   0  0  0  0  0  0  0  0  0  0  0  0
   18.2931   16.4375    0.0000 C   0  0  0  0  0  0  0  0  0  0  0  0
   17.2569   17.5222    0.0000 C   0  0  0  0  0  0  0  0  0  0  0  0
   16.1566   18.5416    0.0000 C   0  0  0  0  0  0  0  0  0  0  0  0
   14.9962   19.4921    0.0000 C   0  0  0  0  0  0  0  0  0  0  0  0
   13.7800   20.3701    0.0000 C   0  0  0  0  0  0  0  0  0  0  0  0
   12.5125   21.1723    0.0000 C   0  0  0  0  0  0  0  0  0  0  0  0
   11.1985   21.8957    0.0000 C   0  0  0  0  0  0  0  0  0  0  0  0
    9.8428   22.5377    0.0000 C   0  0  0  0  0  0  0  0  0  0  0  0
    8.4505   23.0958    0.0000 C   0  0  0  0  0  0  0  0  0  0  0  0
    7.0268   23.5680    0.0000 C   0  0  0  0  0  0  0  0  0  0  0  0
    5.5769   23.9526    0.0000 C   0  0  0  0  0  0  0  0  0  0  0  0
    4.1063   24.2480    0.0000 C   0  0  0  0  0  0  0  0  0  0  0  0
    2.6204   24.4532    0.0000 C   0  0  0  0  0  0  0  0  0  0  0  0
    1.1248   24.5675    0.0000 C   0  0  0  0  0  0  0  0  0  0  0  0
   -0.3750   24.5904    0.0000 C   0  0  0  0  0  0  0  0  0  0  0  0
   -1.8735   24.5218    0.0000 C   0  0  0  0  0  0  0  0  0  0  0  0
   -3.3649   24.3620    0.0000 C   0  0  0  0  0  0  0  0  0  0  0  0
   -4.8439   24.1115    0.0000 C   0  0  0  0  0  0  0  0  0  0  0  0
   -6.3048   23.7714    0.0000 C   0  0  0  0  0  0  0  0  0  0  0  0
   -7.7423   23.3428    0.0000 C   0  0  0  0  0  0  0  0  0  0  0  0
   -9.1509   22.8274    0.0000 C   0  0  0  0  0  0  0  0  0  0  0  0
  -10.5256   22.2270    0.0000 C   0  0  0  0  0  0  0  0  0  0  0  0
  -11.8610   21.5440    0.0000 C   0  0  0  0  0  0  0  0  0  0  0  0
  -13.1524   20.7808    0.0000 C   0  0  0  0  0  0  0  0  0  0  0  0
  -14.3948   19.9404    0.0000 C   0  0  0  0  0  0  0  0  0  0  0  0
  -15.5837   19.0257    0.0000 C   0  0  0  0  0  0  0  0  0  0  0  0
  -16.7146   18.0403    0.0000 C   0  0  0  0  0  0  0  0  0  0  0  0
  -17.7833   16.9877    0.0000 C   0  0  0  0  0  0  0  0  0  0  0  0
  -18.7858   15.8720    0.0000 C   0  0  0  0  0  0  0  0  0  0  0  0
  -19.7185   14.6972    0.0000 C   0  0  0  0  0  0  0  0  0  0  0  0
  -20.5778   13.4678    0.0000 C   0  0  0  0  0  0  0  0  0  0  0  0
  -21.3606   12.1882    0.0000 C   0  0  0  0  0  0  0  0  0  0  0  0
  -22.0639   10.8633    0.0000 C   0  0  0  0  0  0  0  0  0  0  0  0
  -22.6852    9.4980    0.0000 C   0  0  0  0  0  0  0  0  0  0  0  0
  -23.2220    8.0973    0.0000 C   0  0  0  0  0  0  0  0  0  0  0  0
  -23.6724    6.6666    0.0000 C   0  0  0  0  0  0  0  0  0  0  0  0
  -24.0348    5.2110    0.0000 C   0  0  0  0  0  0  0  0  0  0  0  0
  -24.3078    3.7361    0.0000 C   0  0  0  0  0  0  0  0  0  0  0  0
  -24.4904    2.2472    0.0000 C   0  0  0  0  0  0  0  0  0  0  0  0
  -24.5818    0.7500    0.0000 C   0  0  0  0  0  0  0  0  0  0  0  0
  -24.5818   -0.7500    0.0000 C   0  0  0  0  0  0  0  0  0  0  0  0
  -24.4904   -2.2472    0.0000 C   0  0  0  0  0  0  0  0  0  0  0  0
  -24.3078   -3.7361    0.0000 C   0  0  0  0  0  0  0  0  0  0  0  0
  -24.0348   -5.2110    0.0000 C   0  0  0  0  0  0  0  0  0  0  0  0
  -23.6724   -6.6666    0.0000 C   0  0  0  0  0  0  0  0  0  0  0  0
  -23.2220   -8.0973    0.0000 C   0  0  0  0  0  0  0  0  0  0  0  0
  -22.6852   -9.4980    0.0000 C   0  0  0  0  0  0  0  0  0  0  0  0
  -22.0639  -10.8633    0.0000 C   0  0  0  0  0  0  0  0  0  0  0  0
  -21.3606  -12.1882    0.0000 C   0  0  0  0  0  0  0  0  0  0  0  0
  -20.5778  -13.4678    0.0000 C   0  0  0  0  0  0  0  0  0  0  0  0
  -19.7185  -14.6972    0.0000 C   0  0  0  0  0  0  0  0  0  0  0  0
  -18.7858  -15.8720    0.0000 C   0  0  0  0  0  0  0  0  0  0  0  0
  -17.7833  -16.9877    0.0000 C   0  0  0  0  0  0  0  0  0  0  0  0
  -16.7146  -18.0403    0.0000 C   0  0  0  0  0  0  0  0  0  0  0  0
  -15.5837  -19.0257    0.0000 C   0  0  0  0  0  0  0  0  0  0  0  0
  -14.3948  -19.9404    0.0000 C   0  0  0  0  0  0  0  0  0  0  0  0
  -13.1524  -20.7808    0.0000 C   0  0  0  0  0  0  0  0  0  0  0  0
  -11.8610  -21.5440    0.0000 C   0  0  0  0  0  0  0  0  0  0  0  0
  -10.5256  -22.2270    0.0000 C   0  0  0  0  0  0  0  0  0  0  0  0
   -9.1509  -22.8274    0.0000 C   0  0  0  0  0  0  0  0  0  0  0  0
   -7.7423  -23.3428    0.0000 C   0  0  0  0  0  0  0  0  0  0  0  0
   -6.3048  -23.7714    0.0000 C   0  0  0  0  0  0  0  0  0  0  0  0
   -4.8439  -24.1115    0.0000 C   0  0  0  0  0  0  0  0  0  0  0  0
   -3.3649  -24.3620    0.0000 C   0  0  0  0  0  0  0  0  0  0  0  0
   -1.8735  -24.5218    0.0000 C   0  0  0  0  0  0  0  0  0  0  0  0
   -0.3750  -24.5904    0.0000 C   0  0  0  0  0  0  0  0  0  0  0  0
    1.1248  -24.5675    0.0000 C   0  0  0  0  0  0  0  0  0  0  0  0
    2.6204  -24.4532    0.0000 C   0  0  0  0  0  0  0  0  0  0  0  0
    4.1063  -24.2480    0.0000 C   0  0  0  0  0  0  0  0  0  0  0  0
    5.5769  -23.9526    0.0000 C   0  0  0  0  0  0  0  0  0  0  0  0
    7.0268  -23.5680    0.0000 C   0  0  0  0  0  0  0  0  0  0  0  0
    8.4505  -23.0958    0.0000 C   0  0  0  0  0  0  0  0  0  0  0  0
    9.8428  -22.5377    0.0000 C   0  0  0  0  0  0  0  0  0  0  0  0
   11.1985  -21.8957    0.0000 C   0  0  0  0  0  0  0  0  0  0  0  0
   12.5125  -21.1723    0.0000 C   0  0  0  0  0  0  0  0  0  0  0  0
   13.7800  -20.3701    0.0000 C   0  0  0  0  0  0  0  0  0  0  0  0
   14.9962  -19.4921    0.0000 C   0  0  0  0  0  0  0  0  0  0  0  0
   16.1566  -18.5416    0.0000 C   0  0  0  0  0  0  0  0  0  0  0  0
   17.2569  -17.5222    0.0000 C   0  0  0  0  0  0  0  0  0  0  0  0
   18.2931  -16.4375    0.0000 C   0  0  0  0  0  0  0  0  0  0  0  0
   19.2611  -15.2917    0.0000 C   0  0  0  0  0  0  0  0  0  0  0  0
   20.1576  -14.0890    0.0000 C   0  0  0  0  0  0  0  0  0  0  0  0
   20.9790  -12.8339    0.0000 C   0  0  0  0  0  0  0  0  0  0  0  0
   21.7224  -11.5311    0.0000 C   0  0  0  0  0  0  0  0  0  0  0  0
   22.3850  -10.1854    0.0000 C   0  0  0  0  0  0  0  0  0  0  0  0
   22.9643   -8.8018    0.0000 C   0  0  0  0  0  0  0  0  0  0  0  0
   23.4581   -7.3854    0.0000 C   0  0  0  0  0  0  0  0  0  0  0  0
   23.8647   -5.9416    0.0000 C   0  0  0  0  0  0  0  0  0  0  0  0
   24.1826   -4.4756    0.0000 C   0  0  0  0  0  0  0  0  0  0  0  0
   24.4104   -2.9930    0.0000 C   0  0  0  0  0  0  0  0  0  0  0  0
   24.5475   -1.4993    0.0000 C   0  0  0  0  0  0  0  0  0  0  0  0
  1  2  1  0
  2  3  1  0
  3  4  2  0
  4  5  1  0
  5  6  1  0
  6  7  1  0
  7  8  1  0
  8  9  1  0
  9 10  1  0
 10 11  1  0
 11 12  1  0
 12 13  1  0
 13 14  1  0
 14 15  1  0
 15 16  1  0
 16 17  1  0
 17 18  1  0
 18 19  1  0
 19 20  1  0
 20 21  1  0
 21 22  1  0
 22 23  1  0
 23 24  1  0
 24 25  1  0
 25 26  1  0
 26 27  1  0
 27 28  1  0
 28 29  1  0
 29 30  1  0
 30 31  1  0
 31 32  1  0
 32 33  1  0
 33 34  1  0
 34 35  1  0
 35 36  1  0
 36 37  1  0
 37 38  1  0
 38 39  1  0
 39 40  1  0
 40 41  1  0
 41 42  1  0
 42 43  1  0
 43 44  1  0
 44 45  1  0
 45 46  1  0
 46 47  1  0
 47 48  1  0
 48 49  1  0
 49 50  1  0
 50 51  1  0
 51 52  1  0
 52 53  1  0
 53 54  1  0
 54 55  1  0
 55 56  1  0
 56 57  1  0
 57 58  1  0
 58 59  1  0
 59 60  1  0
 60 61  1  0
 61 62  1  0
 62 63  1  0
 63 64  1  0
 64 65  1  0
 65 66  1  0
 66 67  1  0
 67 68  1  0
 68 69  1  0
 69 70  1  0
 70 71  1  0
 71 72  1  0
 72 73  1  0
 73 74  1  0
 74 75  1  0
 75 76  1  0
 76 77  1  0
 77 78  1  0
 78 79  1  0
 79 80  1  0
 80 81  1  0
 81 82  1  0
 82 83  1  0
 83 84  1  0
 84 85  1  0
 85 86  1  0
 86 87  1  0
 87 88  1  0
 88 89  1  0
 89 90  1  0
 90 91  1  0
 91 92  1  0
 92 93  1  0
 93 94  1  0
 94 95  1  0
 95 96  1  0
 96 97  1  0
 97 98  1  0
 98 99  1  0
 99100  1  0
100101  1  0
101102  1  0
102103  1  0
103104  1  0
104  2  1  0
M  END
>  <Title>  (60) 
idAAAJgen8

$$$$

     RDKit          2D

 82 82  0  0  0  0  0  0  0  0999 V2000
   20.3648    0.0000    0.0000 C   0  0  0  0  0  0  0  0  0  0  0  0
   18.8648    0.0000    0.0000 C   0  0  0  0  0  0  0  0  0  0  0  0
   18.8052    1.4988    0.0000 C   0  0  0  0  0  0  0  0  0  0  0  0
   18.6267    2.9882    0.0000 C   0  0  0  0  0  0  0  0  0  0  0  0
   18.3304    4.4586    0.0000 C   0  0  0  0  0  0  0  0  0  0  0  0
   17.9182    5.9009    0.0000 C   0  0  0  0  0  0  0  0  0  0  0  0
   17.3927    7.3058    0.0000 C   0  0  0  0  0  0  0  0  0  0  0  0
   16.7573    8.6646    0.0000 C   0  0  0  0  0  0  0  0  0  0  0  0
   16.0159    9.9685    0.0000 C   0  0  0  0  0  0  0  0  0  0  0  0
   15.1733   11.2095    0.0000 C   0  0  0  0  0  0  0  0  0  0  0  0
   14.2347   12.3796    0.0000 C   0  0  0  0  0  0  0  0  0  0  0  0
   13.2062   13.4714    0.0000 C   0  0  0  0  0  0  0  0  0  0  0  0
   12.0941   14.4781    0.0000 C   0  0  0  0  0  0  0  0  0  0  0  0
   10.9056   15.3932    0.0000 C   0  0  0  0  0  0  0  0  0  0  0  0
    9.6481   16.2110    0.0000 C   0  0  0  0  0  0  0  0  0  0  0  0
    8.3297   16.9263    0.0000 C   0  0  0  0  0  0  0  0  0  0  0  0
    6.9586   17.5345    0.0000 C   0  0  0  0  0  0  0  0  0  0  0  0
    5.5434   18.0320    0.0000 C   0  0  0  0  0  0  0  0  0  0  0  0
    4.0933   18.4154    0.0000 C   0  0  0  0  0  0  0  0  0  0  0  0
    2.6172   18.6824    0.0000 C   0  0  0  0  0  0  0  0  0  0  0  0
    1.1246   18.8313    0.0000 C   0  0  0  0  0  0  0  0  0  0  0  0
   -0.3751   18.8611    0.0000 C   0  0  0  0  0  0  0  0  0  0  0  0
   -1.8724   18.7717    0.0000 C   0  0  0  0  0  0  0  0  0  0  0  0
   -3.3579   18.5636    0.0000 C   0  0  0  0  0  0  0  0  0  0  0  0
   -4.8222   18.2381    0.0000 C   0  0  0  0  0  0  0  0  0  0  0  0
   -6.2559   17.7973    0.0000 C   0  0  0  0  0  0  0  0  0  0  0  0
   -7.6502   17.2440    0.0000 C   0  0  0  0  0  0  0  0  0  0  0  0
   -8.9960   16.5817    0.0000 C   0  0  0  0  0  0  0  0  0  0  0  0
  -10.2850   15.8146    0.0000 C   0  0  0  0  0  0  0  0  0  0  0  0
  -11.5090   14.9474    0.0000 C   0  0  0  0  0  0  0  0  0  0  0  0
  -12.6602   13.9858    0.0000 C   0  0  0  0  0  0  0  0  0  0  0  0
  -13.7313   12.9357    0.0000 C   0  0  0  0  0  0  0  0  0  0  0  0
  -14.7157   11.8039    0.0000 C   0  0  0  0  0  0  0  0  0  0  0  0
  -15.6070   10.5974    0.0000 C   0  0  0  0  0  0  0  0  0  0  0  0
  -16.3996    9.3239    0.0000 C   0  0  0  0  0  0  0  0  0  0  0  0
  -17.0885    7.9915    0.0000 C   0  0  0  0  0  0  0  0  0  0  0  0
  -17.6694    6.6086    0.0000 C   0  0  0  0  0  0  0  0  0  0  0  0
  -18.1386    5.1838    0.0000 C   0  0  0  0  0  0  0  0  0  0  0  0
  -18.4931    3.7263    0.0000 C   0  0  0  0  0  0  0  0  0  0  0  0
  -18.7307    2.2453    0.0000 C   0  0  0  0  0  0  0  0  0  0  0  0
  -18.8499    0.7500    0.0000 C   0  0  0  0  0  0  0  0  0  0  0  0
  -18.8499   -0.7500    0.0000 C   0  0  0  0  0  0  0  0  0  0  0  0
  -18.7307   -2.2453    0.0000 C   0  0  0  0  0  0  0  0  0  0  0  0
  -18.4931   -3.7263    0.0000 C   0  0  0  0  0  0  0  0  0  0  0  0
  -18.1386   -5.1838    0.0000 C   0  0  0  0  0  0  0  0  0  0  0  0
  -17.6694   -6.6086    0.0000 C   0  0  0  0  0  0  0  0  0  0  0  0
  -17.0885   -7.9915    0.0000 C   0  0  0  0  0  0  0  0  0  0  0  0
  -16.3996   -9.3239    0.0000 C   0  0  0  0  0  0  0  0  0  0  0  0
  -15.6070  -10.5974    0.0000 C   0  0  0  0  0  0  0  0  0  0  0  0
  -14.7157  -11.8039    0.0000 C   0  0  0  0  0  0  0  0  0  0  0  0
  -13.7313  -12.9357    0.0000 C   0  0  0  0  0  0  0  0  0  0  0  0
  -12.6602  -13.9858    0.0000 C   0  0  0  0  0  0  0  0  0  0  0  0
  -11.5090  -14.9474    0.0000 C   0  0  0  0  0  0  0  0  0  0  0  0
  -10.2850  -15.8146    0.0000 C   0  0  0  0  0  0  0  0  0  0  0  0
   -8.9960  -16.5817    0.0000 C   0  0  0  0  0  0  0  0  0  0  0  0
   -7.6502  -17.2440    0.0000 C   0  0  0  0  0  0  0  0  0  0  0  0
   -6.2559  -17.7973    0.0000 C   0  0  0  0  0  0  0  0  0  0  0  0
   -4.8222  -18.2381    0.0000 C   0  0  0  0  0  0  0  0  0  0  0  0
   -3.3579  -18.5636    0.0000 C   0  0  0  0  0  0  0  0  0  0  0  0
   -1.8724  -18.7717    0.0000 C   0  0  0  0  0  0  0  0  0  0  0  0
   -0.3751  -18.8611    0.0000 C   0  0  0  0  0  0  0  0  0  0  0  0
    1.1246  -18.8313    0.0000 C   0  0  0  0  0  0  0  0  0  0  0  0
    2.6172  -18.6824    0.0000 C   0  0  0  0  0  0  0  0  0  0  0  0
    4.0933  -18.4154    0.0000 C   0  0  0  0  0  0  0  0  0  0  0  0
    5.5434  -18.0320    0.0000 C   0  0  0  0  0  0  0  0  0  0  0  0
    6.9586  -17.5345    0.0000 C   0  0  0  0  0  0  0  0  0  0  0  0
    8.3297  -16.9263    0.0000 C   0  0  0  0  0  0  0  0  0  0  0  0
    9.6481  -16.2110    0.0000 C   0  0  0  0  0  0  0  0  0  0  0  0
   10.9056  -15.3932    0.0000 C   0  0  0  0  0  0  0  0  0  0  0  0
   12.0941  -14.4781    0.0000 C   0  0  0  0  0  0  0  0  0  0  0  0
   13.2062  -13.4714    0.0000 C   0  0  0  0  0  0  0  0  0  0  0  0
   14.2347  -12.3796    0.0000 C   0  0  0  0  0  0  0  0  0  0  0  0
   15.1733  -11.2095    0.0000 C   0  0  0  0  0  0  0  0  0  0  0  0
   16.0159   -9.9685    0.0000 C   0  0  0  0  0  0  0  0  0  0  0  0
   16.7573   -8.6646    0.0000 C   0  0  0  0  0  0  0  0  0  0  0  0
   17.3927   -7.3058    0.0000 C   0  0  0  0  0  0  0  0  0  0  0  0
   17.9182   -5.9009    0.0000 C   0  0  0  0  0  0  0  0  0  0  0  0
   18.3304   -4.4586    0.0000 C   0  0  0  0  0  0  0  0  0  0  0  0
   19.7879   -4.8131    0.0000 O   0  0  0  0  0  0  0  0  0  0  0  0
   18.6267   -2.9882    0.0000 C   0  0  0  0  0  0  0  0  0  0  0  0
   18.8052   -1.4988    0.0000 C   0  0  0  0  0  0  0  0  0  0  0  0
   20.3005   -1.6180    0.0000 O   0  0  0  0  0  0  0  0  0  0  0  0
  1  2  1  0
  2  3  1  0
  3  4  1  0
  4  5  1  0
  5  6  1  0
  6  7  1  0
  7  8  1  0
  8  9  1  0
  9 10  1  0
 10 11  1  0
 11 12  1  0
 12 13  1  0
 13 14  1  0
 14 15  1  0
 15 16  1  0
 16 17  1  0
 17 18  1  0
 18 19  1  0
 19 20  1  0
 20 21  1  0
 21 22  1  0
 22 23  1  0
 23 24  1  0
 24 25  1  0
 25 26  1  0
 26 27  1  0
 27 28  1  0
 28 29  1  0
 29 30  1  0
 30 31  1  0
 31 32  1  0
 32 33  1  0
 33 34  1  0
 34 35  1  0
 35 36  1  0
 36 37  1  0
 37 38  1  0
 38 39  1  0
 39 40  1  0
 40 41  1  0
 41 42  1  0
 42 43  1  0
 43 44  1  0
 44 45  1  0
 45 46  1  0
 46 47  1  0
 47 48  1  0
 48 49  1  0
 49 50  1  0
 50 51  1  0
 51 52  1  0
 52 53  1  0
 53 54  1  0
 54 55  1  0
 55 56  1  0
 56 57  1  0
 57 58  1  0
 58 59  1  0
 59 60  1  0
 60 61  1  0
 61 62  2  0
 62 63  1  0
 63 64  2  0
 64 65  1  0
 65 66  2  0
 66 67  1  0
 67 68  2  0
 68 69  1  0
 69 70  2  0
 70 71  1  0
 71 72  2  0
 72 73  1  0
 73 74  2  0
 74 75  1  0
 75 76  2  0
 76 77  1  0
 77 78  2  0
 78 79  1  0
 78 80  1  0
 80 81  2  0
 81 82  1  0
 81  2  1  0
M  END
>  <Title>  (61) 
idAAAKgen8

$$$$

     RDKit          2D

 10 10  0  0  0  0  0  0  0  0999 V2000
    4.5000    0.0000    0.0000 C   0  0  0  0  0  0  0  0  0  0  0  0
    3.0000    0.0000    0.0000 C   0  0  0  0  0  0  0  0  0  0  0  0
    1.5000    0.0000    0.0000 C   0  0  0  0  0  0  0  0  0  0  0  0
    0.7500   -1.2990    0.0000 C   0  0  0  0  0  0  0  0  0  0  0  0
   -0.7500   -1.2990    0.0000 C   0  0  0  0  0  0  0  0  0  0  0  0
   -1.5000   -2.5981    0.0000 O   0  0  0  0  0  0  0  0  0  0  0  0
   -1.5000    0.0000    0.0000 C   0  0  0  0  0  0  0  0  0  0  0  0
   -3.0000    0.0000    0.0000 O   0  0  0  0  0  0  0  0  0  0  0  0
   -0.7500    1.2990    0.0000 C   0  0  0  0  0  0  0  0  0  0  0  0
    0.7500    1.2990    0.0000 C   0  0  0  0  0  0  0  0  0  0  0  0
  1  2  3  0
  2  3  1  0
  3  4  2  0
  4  5  1  0
  5  6  1  0
  5  7  1  0
  7  8  1  0
  7  9  2  0
  9 10  1  0
 10  3  1  0
M  END
>  <Title>  (62) 
idAAALgen8

$$$$

     RDKit          2D

  8  8  0  0  0  0  0  0  0  0999 V2000
    4.5000    0.0000    0.0000 N   0  0  0  0  0  0  0  0  0  0  0  0
    3.0000    0.0000    0.0000 C   0  0  0  0  0  0  0  0  0  0  0  0
    1.5000    0.0000    0.0000 C   0  0  0  0  0  0  0  0  0  0  0  0
    0.7500   -1.2990    0.0000 C   0  0  0  0  0  0  0  0  0  0  0  0
   -0.7500   -1.2990    0.0000 C   0  0  0  0  0  0  0  0  0  0  0  0
   -1.5000    0.0000    0.0000 C   0  0  0  0  0  0  0  0  0  0  0  0
   -0.7500    1.2990    0.0000 C   0  0  0  0  0  0  0  0  0  0  0  0
    0.7500    1.2990    0.0000 C   0  0  0  0  0  0  0  0  0  0  0  0
  1  2  3  0
  2  3  1  0
  3  4  2  0
  4  5  1  0
  5  6  2  0
  6  7  1  0
  7  8  2  0
  8  3  1  0
M  END
>  <Title>  (63) 
idAAAMgen8

$$$$

     RDKit          2D

 13 13  0  0  0  0  0  0  0  0999 V2000
    7.5000   -2.5981    0.0000 C   0  0  0  0  0  0  0  0  0  0  0  0
    6.0000   -2.5981    0.0000 C   0  0  0  0  0  0  0  0  0  0  0  0
    5.2500   -1.2990    0.0000 C   0  0  0  0  0  0  0  0  0  0  0  0
    3.7500   -1.2990    0.0000 C   0  0  0  0  0  0  0  0  0  0  0  0
    3.0000   -2.5981    0.0000 O   0  0  0  0  0  0  0  0  0  0  0  0
    3.0000    0.0000    0.0000 N   0  0  0  0  0  0  0  0  0  0  0  0
    1.5000    0.0000    0.0000 C   0  0  0  0  0  0  0  0  0  0  0  0
    0.7500   -1.2990    0.0000 C   0  0  0  0  0  0  0  0  0  0  0  0
   -0.7500   -1.2990    0.0000 C   0  0  0  0  0  0  0  0  0  0  0  0
   -1.5000    0.0000    0.0000 C   0  0  0  0  0  0  0  0  0  0  0  0
   -3.0000    0.0000    0.0000 O   0  0  0  0  0  0  0  0  0  0  0  0
   -0.7500    1.2990    0.0000 C   0  0  0  0  0  0  0  0  0  0  0  0
    0.7500    1.2990    0.0000 C   0  0  0  0  0  0  0  0  0  0  0  0
  1  2  1  0
  2  3  2  3
  3  4  1  0
  4  5  2  0
  4  6  1  0
  6  7  1  0
  7  8  2  0
  8  9  1  0
  9 10  2  0
 10 11  1  0
 10 12  1  0
 12 13  1  0
 13  7  1  0
M  END
>  <Title>  (64) 
idAAANgen8

$$$$

     RDKit          2D

 13 12  0  0  0  0  0  0  0  0999 V2000
    0.0000    0.0000    0.0000 C   0  0  0  0  0  0  0  0  0  0  0  0
   -0.0000   -1.5000    0.0000 C   0  0  0  0  0  0  0  0  0  0  0  0
   -0.0000   -3.0000    0.0000 C   0  0  0  0  0  0  0  0  0  0  0  0
   -0.0000   -4.5000    0.0000 C   0  0  0  0  0  0  0  0  0  0  0  0
   -0.0000   -6.0000    0.0000 C   0  0  0  0  0  0  0  0  0  0  0  0
   -0.0000   -7.5000    0.0000 C   0  0  0  0  0  0  0  0  0  0  0  0
   -0.0000   -9.0000    0.0000 C   0  0  0  0  0  0  0  0  0  0  0  0
   -0.0000  -10.5000    0.0000 C   0  0  0  0  0  0  0  0  0  0  0  0
   -0.0000  -12.0000    0.0000 C   0  0  0  0  0  0  0  0  0  0  0  0
   -0.0000  -13.5000    0.0000 C   0  0  0  0  0  0  0  0  0  0  0  0
   -0.0000  -15.0000    0.0000 C   0  0  0  0  0  0  0  0  0  0  0  0
    1.2990  -15.7500    0.0000 C   0  0  0  0  0  0  0  0  0  0  0  0
    1.2990  -17.2500    0.0000 C   0  0  0  0  0  0  0  0  0  0  0  0
  1  2  3  0
  2  3  1  0
  3  4  3  0
  4  5  1  0
  5  6  3  0
  6  7  1  0
  7  8  3  0
  8  9  1  0
  9 10  3  0
 10 11  1  0
 11 12  2  3
 12 13  1  0
M  END
>  <Title>  (65) 
idAAAOgen8

$$$$

     RDKit          2D

 15 15  0  0  0  0  0  0  0  0999 V2000
    4.8250    0.5490    0.0000 C   0  0  0  0  0  0  0  0  0  0  0  0
    3.5260    1.2990    0.0000 C   0  0  0  0  0  0  0  0  0  0  0  0
    2.2269    2.0490    0.0000 C   0  0  0  0  0  0  0  0  0  0  0  0
    4.2760    2.5981    0.0000 C   0  0  0  0  0  0  0  0  0  0  0  0
    2.7760    0.0000    0.0000 C   0  0  0  0  0  0  0  0  0  0  0  0
    3.5260   -1.2990    0.0000 O   0  0  0  0  0  0  0  0  0  0  0  0
    1.2760    0.0000    0.0000 N   0  0  0  0  0  0  0  0  0  0  0  0
    0.3943    1.2135    0.0000 C   0  0  0  0  0  0  0  0  0  0  0  0
   -1.0323    0.7500    0.0000 C   0  0  0  0  0  0  0  0  0  0  0  0
   -1.0323   -0.7500    0.0000 C   0  0  0  0  0  0  0  0  0  0  0  0
   -2.2458   -1.6317    0.0000 C   0  0  0  0  0  0  0  0  0  0  0  0
   -2.0890   -3.1235    0.0000 O   0  0  0  0  0  0  0  0  0  0  0  0
   -3.6161   -1.0216    0.0000 O   0  0  0  0  0  0  0  0  0  0  0  0
    0.3943   -1.2135    0.0000 C   0  0  0  0  0  0  0  0  0  0  0  0
    0.8578   -2.6401    0.0000 O   0  0  0  0  0  0  0  0  0  0  0  0
  1  2  1  0
  2  3  1  0
  2  4  1  0
  2  5  1  0
  5  6  2  0
  5  7  1  0
  7  8  1  0
  8  9  1  0
  9 10  1  0
 10 11  1  0
 11 12  2  0
 11 13  1  0
 10 14  1  0
 14 15  2  0
 14  7  1  0
M  END
>  <Title>  (66) 
idAAAPgen8

$$$$

     RDKit          2D

 10 10  0  0  0  0  0  0  0  0999 V2000
    5.0260   -1.2990    0.0000 C   0  0  0  0  0  0  0  0  0  0  0  0
    3.5260   -1.2990    0.0000 N   0  0  0  0  0  0  0  0  0  0  0  0
    2.7760   -2.5981    0.0000 C   0  0  0  0  0  0  0  0  0  0  0  0
    2.7760    0.0000    0.0000 C   0  0  0  0  0  0  0  0  0  0  0  0
    3.5260    1.2990    0.0000 O   0  0  0  0  0  0  0  0  0  0  0  0
    1.2760    0.0000    0.0000 C   0  0  0  0  0  0  0  0  0  0  0  0
    0.3943    1.2135    0.0000 C   0  0  0  0  0  0  0  0  0  0  0  0
   -1.0323    0.7500    0.0000 C   0  0  0  0  0  0  0  0  0  0  0  0
   -1.0323   -0.7500    0.0000 C   0  0  0  0  0  0  0  0  0  0  0  0
    0.3943   -1.2135    0.0000 C   0  0  0  0  0  0  0  0  0  0  0  0
  1  2  1  0
  2  3  1  0
  2  4  1  0
  4  5  2  0
  4  6  1  0
  6  7  2  0
  7  8  1  0
  8  9  2  0
  9 10  1  0
 10  6  1  0
M  END
>  <Title>  (67) 
idAAAQgen8

$$$$

     RDKit          2D

 12 12  0  0  0  0  0  0  0  0999 V2000
    8.2500   -1.2990    0.0000 C   0  0  0  0  0  0  0  0  0  0  0  0
    6.7500   -1.2990    0.0000 C   0  0  0  0  0  0  0  0  0  0  0  0
    5.2500   -1.2990    0.0000 C   0  0  0  0  0  0  0  0  0  0  0  0
    3.7500   -1.2990    0.0000 C   0  0  0  0  0  0  0  0  0  0  0  0
    3.0000   -2.5981    0.0000 O   0  0  0  0  0  0  0  0  0  0  0  0
    3.0000    0.0000    0.0000 N   0  0  0  0  0  0  0  0  0  0  0  0
    1.5000    0.0000    0.0000 C   0  0  0  0  0  0  0  0  0  0  0  0
    0.7500   -1.2990    0.0000 N   0  0  0  0  0  0  0  0  0  0  0  0
   -0.7500   -1.2990    0.0000 N   0  0  0  0  0  0  0  0  0  0  0  0
   -1.5000    0.0000    0.0000 N   0  0  0  0  0  0  0  0  0  0  0  0
   -0.7500    1.2990    0.0000 N   0  0  0  0  0  0  0  0  0  0  0  0
    0.7500    1.2990    0.0000 N   0  0  0  0  0  0  0  0  0  0  0  0
  1  2  1  0
  2  3  3  0
  3  4  1  0
  4  5  2  0
  4  6  1  0
  6  7  1  0
  7  8  2  0
  8  9  1  0
  9 10  2  0
 10 11  1  0
 11 12  2  0
 12  7  1  0
M  END
>  <Title>  (68) 
idAAARgen8

$$$$

     RDKit          2D

 60 68  0  0  0  0  0  0  0  0999 V2000
    7.5038    7.6729    0.0000 C   0  0  0  0  0  0  0  0  0  0  0  0
    6.0493    7.3064    0.0000 C   0  0  0  0  0  0  0  0  0  0  0  0
    6.1837    5.8124    0.0000 C   0  0  0  0  0  0  0  0  0  0  0  0
    5.8500    4.3500    0.0000 C   0  0  0  0  0  0  0  0  0  0  0  0
    5.0806    3.0624    0.0000 C   0  0  0  0  0  0  0  0  0  0  0  0
    3.9510    2.0754    0.0000 C   0  0  0  0  0  0  0  0  0  0  0  0
    2.5717    1.4859    0.0000 C   0  0  0  0  0  0  0  0  0  0  0  0
    2.9382    0.0314    0.0000 N   0  0  0  0  0  0  0  0  0  0  0  0
    4.3811   -0.3785    0.0000 C   0  0  0  0  0  0  0  0  0  0  0  0
    5.4575    0.6662    0.0000 O   0  0  0  0  0  0  0  0  0  0  0  0
    4.7476   -1.8330    0.0000 C   0  0  0  0  0  0  0  0  0  0  0  0
    3.6712   -2.8777    0.0000 C   0  0  0  0  0  0  0  0  0  0  0  0
    4.0378   -4.3322    0.0000 C   0  0  0  0  0  0  0  0  0  0  0  0
    5.4807   -4.7421    0.0000 N   0  0  0  0  0  0  0  0  0  0  0  0
    6.5571   -3.6974    0.0000 N   0  0  0  0  0  0  0  0  0  0  0  0
    6.1906   -2.2429    0.0000 N   0  0  0  0  0  0  0  0  0  0  0  0
    1.0777    1.3515    0.0000 C   0  0  0  0  0  0  0  0  0  0  0  0
    1.7286    0.0000    0.0000 C   0  0  0  0  0  0  0  0  0  0  0  0
    1.0777   -1.3515    0.0000 C   0  0  0  0  0  0  0  0  0  0  0  0
   -0.3846   -1.6852    0.0000 C   0  0  0  0  0  0  0  0  0  0  0  0
   -1.5574   -0.7500    0.0000 C   0  0  0  0  0  0  0  0  0  0  0  0
   -1.5574    0.7500    0.0000 C   0  0  0  0  0  0  0  0  0  0  0  0
   -0.3846    1.6852    0.0000 C   0  0  0  0  0  0  0  0  0  0  0  0
   -1.6723    2.4546    0.0000 C   0  0  0  0  0  0  0  0  0  0  0  0
   -2.5065    1.3901    0.0000 C   0  0  0  0  0  0  0  0  0  0  0  0
   -3.2925    0.9672    0.0000 C   0  0  0  0  0  0  0  0  0  0  0  0
   -4.1132    1.3180    0.0000 C   0  0  0  0  0  0  0  0  0  0  0  0
   -4.3506    2.1784    0.0000 C   0  0  0  0  0  0  0  0  0  0  0  0
   -3.8260    2.9005    0.0000 C   0  0  0  0  0  0  0  0  0  0  0  0
   -2.6592    3.5842    0.0000 C   0  0  0  0  0  0  0  0  0  0  0  0
   -3.2488    4.9635    0.0000 C   0  0  0  0  0  0  0  0  0  0  0  0
   -4.4753    4.1001    0.0000 C   0  0  0  0  0  0  0  0  0  0  0  0
   -5.8364    4.7306    0.0000 C   0  0  0  0  0  0  0  0  0  0  0  0
   -5.9708    6.2246    0.0000 C   0  0  0  0  0  0  0  0  0  0  0  0
   -4.7443    7.0880    0.0000 C   0  0  0  0  0  0  0  0  0  0  0  0
   -3.3832    6.4574    0.0000 C   0  0  0  0  0  0  0  0  0  0  0  0
   -3.0494    7.9198    0.0000 C   0  0  0  0  0  0  0  0  0  0  0  0
   -4.5493    7.9423    0.0000 C   0  0  0  0  0  0  0  0  0  0  0  0
   -5.2798    9.2524    0.0000 C   0  0  0  0  0  0  0  0  0  0  0  0
   -4.5104   10.5401    0.0000 C   0  0  0  0  0  0  0  0  0  0  0  0
   -3.0106   10.5176    0.0000 C   0  0  0  0  0  0  0  0  0  0  0  0
   -2.2801    9.2075    0.0000 C   0  0  0  0  0  0  0  0  0  0  0  0
   -1.1505   10.1944    0.0000 C   0  0  0  0  0  0  0  0  0  0  0  0
   -2.3507   11.0941    0.0000 C   0  0  0  0  0  0  0  0  0  0  0  0
   -2.1716   12.5834    0.0000 C   0  0  0  0  0  0  0  0  0  0  0  0
   -0.7923   13.1730    0.0000 C   0  0  0  0  0  0  0  0  0  0  0  0
    0.4079   12.2732    0.0000 C   0  0  0  0  0  0  0  0  0  0  0  0
    0.2288   10.7840    0.0000 C   0  0  0  0  0  0  0  0  0  0  0  0
    1.7228   10.9184    0.0000 C   0  0  0  0  0  0  0  0  0  0  0  0
    1.2806   12.3518    0.0000 C   0  0  0  0  0  0  0  0  0  0  0  0
    2.3009   13.4514    0.0000 C   0  0  0  0  0  0  0  0  0  0  0  0
    3.7633   13.1176    0.0000 C   0  0  0  0  0  0  0  0  0  0  0  0
    4.2054   11.6842    0.0000 C   0  0  0  0  0  0  0  0  0  0  0  0
    3.1852   10.5846    0.0000 C   0  0  0  0  0  0  0  0  0  0  0  0
    4.4728    9.8153    0.0000 C   0  0  0  0  0  0  0  0  0  0  0  0
    4.9576   11.2348    0.0000 C   0  0  0  0  0  0  0  0  0  0  0  0
    6.4294   11.5247    0.0000 C   0  0  0  0  0  0  0  0  0  0  0  0
    7.4163   10.3951    0.0000 C   0  0  0  0  0  0  0  0  0  0  0  0
    6.9315    8.9756    0.0000 C   0  0  0  0  0  0  0  0  0  0  0  0
    5.4597    8.6857    0.0000 C   0  0  0  0  0  0  0  0  0  0  0  0
  1  2  1  0
  2  3  1  0
  3  4  1  0
  4  5  1  0
  5  6  1  0
  6  7  1  0
  7  8  1  0
  8  9  1  0
  9 10  2  0
  9 11  1  0
 11 12  2  0
 12 13  1  0
 13 14  2  0
 14 15  1  0
 15 16  2  0
  7 17  1  0
 17 18  2  0
 18 19  1  0
 19 20  1  0
 20 21  1  0
 21 22  1  0
 22 23  2  0
 23 24  1  0
 24 25  2  0
 25 26  1  0
 26 27  1  0
 27 28  1  0
 28 29  1  0
 29 30  2  0
 30 31  1  0
 31 32  2  0
 32 33  1  0
 33 34  2  0
 34 35  1  0
 35 36  2  0
 36 37  1  0
 37 38  2  0
 38 39  1  0
 39 40  2  0
 40 41  1  0
 41 42  2  0
 42 43  1  0
 43 44  2  0
 44 45  1  0
 45 46  2  0
 46 47  1  0
 47 48  2  0
 48 49  1  0
 49 50  2  0
 50 51  1  0
 51 52  2  0
 52 53  1  0
 53 54  2  0
 54 55  1  0
 55 56  2  0
 56 57  1  0
 57 58  2  0
 58 59  1  0
 59 60  2  0
 60  2  1  0
 16 11  1  0
 23 17  1  0
 30 24  1  0
 36 31  1  0
 42 37  1  0
 48 43  1  0
 54 49  1  0
 60 55  1  0
M  END
>  <Title>  (69) 
idAAASgen8

$$$$

     RDKit          2D

 92 92  0  0  0  0  0  0  0  0999 V2000
   23.2290   -0.0000    0.0000 O   0  0  0  0  0  0  0  0  0  0  0  0
   21.7290    0.0000    0.0000 C   0  0  0  0  0  0  0  0  0  0  0  0
   21.6772    1.4991    0.0000 C   0  0  0  0  0  0  0  0  0  0  0  0
   21.5221    2.9911    0.0000 C   0  0  0  0  0  0  0  0  0  0  0  0
   21.2645    4.4688    0.0000 C   0  0  0  0  0  0  0  0  0  0  0  0
   20.9055    5.9252    0.0000 C   0  0  0  0  0  0  0  0  0  0  0  0
   20.4469    7.3534    0.0000 C   0  0  0  0  0  0  0  0  0  0  0  0
   19.8909    8.7465    0.0000 C   0  0  0  0  0  0  0  0  0  0  0  0
   19.2400   10.0980    0.0000 C   0  0  0  0  0  0  0  0  0  0  0  0
   18.4975   11.4013    0.0000 C   0  0  0  0  0  0  0  0  0  0  0  0
   17.6669   12.6503    0.0000 C   0  0  0  0  0  0  0  0  0  0  0  0
   16.7520   13.8390    0.0000 C   0  0  0  0  0  0  0  0  0  0  0  0
   15.7573   14.9618    0.0000 C   0  0  0  0  0  0  0  0  0  0  0  0
   14.6876   16.0132    0.0000 C   0  0  0  0  0  0  0  0  0  0  0  0
   13.5478   16.9884    0.0000 C   0  0  0  0  0  0  0  0  0  0  0  0
   12.3435   17.8826    0.0000 C   0  0  0  0  0  0  0  0  0  0  0  0
   11.0803   18.6916    0.0000 C   0  0  0  0  0  0  0  0  0  0  0  0
    9.7644   19.4115    0.0000 C   0  0  0  0  0  0  0  0  0  0  0  0
    8.4019   20.0389    0.0000 C   0  0  0  0  0  0  0  0  0  0  0  0
    6.9993   20.5708    0.0000 C   0  0  0  0  0  0  0  0  0  0  0  0
    5.5635   21.0047    0.0000 C   0  0  0  0  0  0  0  0  0  0  0  0
    4.1011   21.3384    0.0000 C   0  0  0  0  0  0  0  0  0  0  0  0
    2.6191   21.5705    0.0000 C   0  0  0  0  0  0  0  0  0  0  0  0
    1.1247   21.6998    0.0000 C   0  0  0  0  0  0  0  0  0  0  0  0
   -0.3751   21.7257    0.0000 C   0  0  0  0  0  0  0  0  0  0  0  0
   -1.8730   21.6481    0.0000 C   0  0  0  0  0  0  0  0  0  0  0  0
   -3.3621   21.4673    0.0000 C   0  0  0  0  0  0  0  0  0  0  0  0
   -4.8351   21.1842    0.0000 C   0  0  0  0  0  0  0  0  0  0  0  0
   -6.2851   20.8001    0.0000 C   0  0  0  0  0  0  0  0  0  0  0  0
   -7.7052   20.3169    0.0000 C   0  0  0  0  0  0  0  0  0  0  0  0
   -9.0885   19.7369    0.0000 C   0  0  0  0  0  0  0  0  0  0  0  0
  -10.4285   19.0629    0.0000 C   0  0  0  0  0  0  0  0  0  0  0  0
  -11.7189   18.2980    0.0000 C   0  0  0  0  0  0  0  0  0  0  0  0
  -12.9533   17.4459    0.0000 C   0  0  0  0  0  0  0  0  0  0  0  0
  -14.1261   16.5106    0.0000 C   0  0  0  0  0  0  0  0  0  0  0  0
  -15.2315   15.4967    0.0000 C   0  0  0  0  0  0  0  0  0  0  0  0
  -16.2644   14.4090    0.0000 C   0  0  0  0  0  0  0  0  0  0  0  0
  -17.2197   13.2525    0.0000 C   0  0  0  0  0  0  0  0  0  0  0  0
  -18.0930   12.0330    0.0000 C   0  0  0  0  0  0  0  0  0  0  0  0
  -18.8800   10.7560    0.0000 C   0  0  0  0  0  0  0  0  0  0  0  0
  -19.5771    9.4278    0.0000 C   0  0  0  0  0  0  0  0  0  0  0  0
  -20.1809    8.0547    0.0000 C   0  0  0  0  0  0  0  0  0  0  0  0
  -20.6885    6.6432    0.0000 C   0  0  0  0  0  0  0  0  0  0  0  0
  -21.0976    5.2001    0.0000 C   0  0  0  0  0  0  0  0  0  0  0  0
  -21.4061    3.7321    0.0000 C   0  0  0  0  0  0  0  0  0  0  0  0
  -21.6125    2.2464    0.0000 C   0  0  0  0  0  0  0  0  0  0  0  0
  -21.7160    0.7500    0.0000 C   0  0  0  0  0  0  0  0  0  0  0  0
  -21.7160   -0.7500    0.0000 C   0  0  0  0  0  0  0  0  0  0  0  0
  -21.6125   -2.2464    0.0000 C   0  0  0  0  0  0  0  0  0  0  0  0
  -21.4061   -3.7321    0.0000 C   0  0  0  0  0  0  0  0  0  0  0  0
  -21.0976   -5.2001    0.0000 C   0  0  0  0  0  0  0  0  0  0  0  0
  -20.6885   -6.6432    0.0000 C   0  0  0  0  0  0  0  0  0  0  0  0
  -20.1809   -8.0547    0.0000 C   0  0  0  0  0  0  0  0  0  0  0  0
  -19.5771   -9.4278    0.0000 C   0  0  0  0  0  0  0  0  0  0  0  0
  -18.8800  -10.7560    0.0000 C   0  0  0  0  0  0  0  0  0  0  0  0
  -18.0930  -12.0330    0.0000 C   0  0  0  0  0  0  0  0  0  0  0  0
  -17.2197  -13.2525    0.0000 C   0  0  0  0  0  0  0  0  0  0  0  0
  -16.2644  -14.4090    0.0000 C   0  0  0  0  0  0  0  0  0  0  0  0
  -15.2315  -15.4967    0.0000 C   0  0  0  0  0  0  0  0  0  0  0  0
  -14.1261  -16.5106    0.0000 C   0  0  0  0  0  0  0  0  0  0  0  0
  -12.9533  -17.4459    0.0000 C   0  0  0  0  0  0  0  0  0  0  0  0
  -11.7189  -18.2980    0.0000 C   0  0  0  0  0  0  0  0  0  0  0  0
  -10.4285  -19.0629    0.0000 C   0  0  0  0  0  0  0  0  0  0  0  0
   -9.0885  -19.7369    0.0000 C   0  0  0  0  0  0  0  0  0  0  0  0
   -7.7052  -20.3169    0.0000 C   0  0  0  0  0  0  0  0  0  0  0  0
   -6.2851  -20.8001    0.0000 C   0  0  0  0  0  0  0  0  0  0  0  0
   -4.8351  -21.1842    0.0000 C   0  0  0  0  0  0  0  0  0  0  0  0
   -3.3621  -21.4673    0.0000 C   0  0  0  0  0  0  0  0  0  0  0  0
   -1.8730  -21.6481    0.0000 C   0  0  0  0  0  0  0  0  0  0  0  0
   -0.3751  -21.7257    0.0000 C   0  0  0  0  0  0  0  0  0  0  0  0
    1.1247  -21.6998    0.0000 C   0  0  0  0  0  0  0  0  0  0  0  0
    2.6191  -21.5705    0.0000 C   0  0  0  0  0  0  0  0  0  0  0  0
    4.1011  -21.3384    0.0000 C   0  0  0  0  0  0  0  0  0  0  0  0
    5.5635  -21.0047    0.0000 C   0  0  0  0  0  0  0  0  0  0  0  0
    6.9993  -20.5708    0.0000 C   0  0  0  0  0  0  0  0  0  0  0  0
    8.4019  -20.0389    0.0000 C   0  0  0  0  0  0  0  0  0  0  0  0
    9.7644  -19.4115    0.0000 C   0  0  0  0  0  0  0  0  0  0  0  0
   11.0803  -18.6916    0.0000 C   0  0  0  0  0  0  0  0  0  0  0  0
   12.3435  -17.8826    0.0000 C   0  0  0  0  0  0  0  0  0  0  0  0
   13.5478  -16.9884    0.0000 C   0  0  0  0  0  0  0  0  0  0  0  0
   14.6876  -16.0132    0.0000 C   0  0  0  0  0  0  0  0  0  0  0  0
   15.7573  -14.9618    0.0000 C   0  0  0  0  0  0  0  0  0  0  0  0
   16.7520  -13.8390    0.0000 C   0  0  0  0  0  0  0  0  0  0  0  0
   17.6669  -12.6503    0.0000 C   0  0  0  0  0  0  0  0  0  0  0  0
   18.4975  -11.4013    0.0000 C   0  0  0  0  0  0  0  0  0  0  0  0
   19.2400  -10.0980    0.0000 C   0  0  0  0  0  0  0  0  0  0  0  0
   19.8909   -8.7465    0.0000 C   0  0  0  0  0  0  0  0  0  0  0  0
   20.4469   -7.3534    0.0000 C   0  0  0  0  0  0  0  0  0  0  0  0
   20.9055   -5.9252    0.0000 C   0  0  0  0  0  0  0  0  0  0  0  0
   21.2645   -4.4688    0.0000 C   0  0  0  0  0  0  0  0  0  0  0  0
   21.5221   -2.9911    0.0000 C   0  0  0  0  0  0  0  0  0  0  0  0
   21.6772   -1.4991    0.0000 C   0  0  0  0  0  0  0  0  0  0  0  0
  1  2  1  0
  2  3  1  0
  3  4  1  0
  4  5  1  0
  5  6  1  0
  6  7  1  0
  7  8  1  0
  8  9  1  0
  9 10  1  0
 10 11  1  0
 11 12  1  0
 12 13  1  0
 13 14  1  0
 14 15  1  0
 15 16  1  0
 16 17  1  0
 17 18  1  0
 18 19  1  0
 19 20  1  0
 20 21  1  0
 21 22  1  0
 22 23  1  0
 23 24  1  0
 24 25  1  0
 25 26  1  0
 26 27  1  0
 27 28  1  0
 28 29  1  0
 29 30  1  0
 30 31  1  0
 31 32  1  0
 32 33  1  0
 33 34  1  0
 34 35  1  0
 35 36  1  0
 36 37  1  0
 37 38  1  0
 38 39  1  0
 39 40  1  0
 40 41  1  0
 41 42  1  0
 42 43  1  0
 43 44  1  0
 44 45  1  0
 45 46  1  0
 46 47  1  0
 47 48  1  0
 48 49  1  0
 49 50  1  0
 50 51  1  0
 51 52  1  0
 52 53  1  0
 53 54  1  0
 54 55  1  0
 55 56  1  0
 56 57  1  0
 57 58  1  0
 58 59  1  0
 59 60  1  0
 60 61  1  0
 61 62  1  0
 62 63  1  0
 63 64  1  0
 64 65  1  0
 65 66  1  0
 66 67  1  0
 67 68  1  0
 68 69  1  0
 69 70  1  0
 70 71  1  0
 71 72  1  0
 72 73  1  0
 73 74  1  0
 74 75  1  0
 75 76  1  0
 76 77  1  0
 77 78  1  0
 78 79  1  0
 79 80  1  0
 80 81  1  0
 81 82  1  0
 82 83  1  0
 83 84  1  0
 84 85  1  0
 85 86  1  0
 86 87  1  0
 87 88  1  0
 88 89  1  0
 89 90  1  0
 90 91  1  0
 91 92  1  0
 92  2  1  0
M  END
>  <Title>  (70) 
idAAATgen8

$$$$

     RDKit          2D

  3  2  0  0  0  0  0  0  0  0999 V2000
    0.0000    0.0000    0.0000 C   0  0  0  0  0  0  0  0  0  0  0  0
    1.2990    0.7500    0.0000 C   0  0  0  0  0  0  0  0  0  0  0  0
    2.5981   -0.0000    0.0000 C   0  0  0  0  0  0  0  0  0  0  0  0
  1  2  1  0
  2  3  1  0
M  END
>  <Title>  (71) 
idAAAUgen8

$$$$

     RDKit          2D

  8  8  0  0  0  0  0  0  0  0999 V2000
    3.0000    0.0000    0.0000 C   0  0  0  0  0  0  0  0  0  0  0  0
    1.5000    0.0000    0.0000 C   0  0  0  0  0  0  0  0  0  0  0  0
    0.7500   -1.2990    0.0000 C   0  0  0  0  0  0  0  0  0  0  0  0
   -0.7500   -1.2990    0.0000 C   0  0  0  0  0  0  0  0  0  0  0  0
   -1.5000    0.0000    0.0000 C   0  0  0  0  0  0  0  0  0  0  0  0
   -3.0000    0.0000    0.0000 Cl  0  0  0  0  0  0  0  0  0  0  0  0
   -0.7500    1.2990    0.0000 C   0  0  0  0  0  0  0  0  0  0  0  0
    0.7500    1.2990    0.0000 C   0  0  0  0  0  0  0  0  0  0  0  0
  1  2  1  0
  2  3  2  0
  3  4  1  0
  4  5  1  0
  5  6  1  0
  5  7  2  0
  7  8  1  0
  8  2  1  0
M  END
>  <Title>  (72) 
idAAAVgen8

$$$$

     RDKit          2D

 47 53  0  0  0  0  0  0  0  0999 V2000
    4.3881   -6.6982    0.0000 C   0  0  0  0  0  0  0  0  0  0  0  0
    3.0367   -6.0474    0.0000 C   0  0  0  0  0  0  0  0  0  0  0  0
    3.3705   -4.5850    0.0000 C   0  0  0  0  0  0  0  0  0  0  0  0
    3.0367   -3.1226    0.0000 C   0  0  0  0  0  0  0  0  0  0  0  0
    4.3881   -2.4718    0.0000 O   0  0  0  0  0  0  0  0  0  0  0  0
    2.1015   -1.9499    0.0000 C   0  0  0  0  0  0  0  0  0  0  0  0
    3.0367   -0.7771    0.0000 C   0  0  0  0  0  0  0  0  0  0  0  0
    2.4887    0.6192    0.0000 O   0  0  0  0  0  0  0  0  0  0  0  0
    4.5199   -1.0007    0.0000 N   0  0  0  0  0  0  0  0  0  0  0  0
    5.4552    0.1721    0.0000 C   0  0  0  0  0  0  0  0  0  0  0  0
    6.9384   -0.0515    0.0000 N   0  0  0  0  0  0  0  0  0  0  0  0
    7.8736    1.1213    0.0000 N   0  0  0  0  0  0  0  0  0  0  0  0
    7.3256    2.5176    0.0000 N   0  0  0  0  0  0  0  0  0  0  0  0
    5.8424    2.7411    0.0000 N   0  0  0  0  0  0  0  0  0  0  0  0
    4.9072    1.5684    0.0000 N   0  0  0  0  0  0  0  0  0  0  0  0
    0.7500   -1.2990    0.0000 C   0  0  0  0  0  0  0  0  0  0  0  0
    1.5000    0.0000    0.0000 C   0  0  0  0  0  0  0  0  0  0  0  0
    0.7500    1.2990    0.0000 C   0  0  0  0  0  0  0  0  0  0  0  0
   -0.7500    1.2990    0.0000 C   0  0  0  0  0  0  0  0  0  0  0  0
   -1.5000    0.0000    0.0000 C   0  0  0  0  0  0  0  0  0  0  0  0
   -0.7500   -1.2990    0.0000 C   0  0  0  0  0  0  0  0  0  0  0  0
   -2.1015   -1.9499    0.0000 C   0  0  0  0  0  0  0  0  0  0  0  0
   -2.6495   -0.5536    0.0000 C   0  0  0  0  0  0  0  0  0  0  0  0
   -4.1327   -0.3300    0.0000 C   0  0  0  0  0  0  0  0  0  0  0  0
   -5.0679   -1.5027    0.0000 C   0  0  0  0  0  0  0  0  0  0  0  0
   -4.5199   -2.8990    0.0000 C   0  0  0  0  0  0  0  0  0  0  0  0
   -3.0367   -3.1226    0.0000 C   0  0  0  0  0  0  0  0  0  0  0  0
   -3.3705   -4.5850    0.0000 C   0  0  0  0  0  0  0  0  0  0  0  0
   -4.8038   -4.1429    0.0000 C   0  0  0  0  0  0  0  0  0  0  0  0
   -5.9034   -5.1631    0.0000 C   0  0  0  0  0  0  0  0  0  0  0  0
   -5.5696   -6.6255    0.0000 C   0  0  0  0  0  0  0  0  0  0  0  0
   -4.1363   -7.0677    0.0000 C   0  0  0  0  0  0  0  0  0  0  0  0
   -3.0367   -6.0474    0.0000 C   0  0  0  0  0  0  0  0  0  0  0  0
   -2.1015   -7.2201    0.0000 C   0  0  0  0  0  0  0  0  0  0  0  0
   -3.3408   -8.0651    0.0000 C   0  0  0  0  0  0  0  0  0  0  0  0
   -3.2287   -9.5609    0.0000 C   0  0  0  0  0  0  0  0  0  0  0  0
   -1.8773  -10.2118    0.0000 C   0  0  0  0  0  0  0  0  0  0  0  0
   -0.6379   -9.3668    0.0000 C   0  0  0  0  0  0  0  0  0  0  0  0
   -0.7500   -7.8710    0.0000 C   0  0  0  0  0  0  0  0  0  0  0  0
    0.7500   -7.8710    0.0000 C   0  0  0  0  0  0  0  0  0  0  0  0
    0.6379   -9.3668    0.0000 C   0  0  0  0  0  0  0  0  0  0  0  0
    1.8773  -10.2118    0.0000 C   0  0  0  0  0  0  0  0  0  0  0  0
    3.2287   -9.5609    0.0000 C   0  0  0  0  0  0  0  0  0  0  0  0
    4.4681  -10.4059    0.0000 C   0  0  0  0  0  0  0  0  0  0  0  0
    5.7074  -11.2509    0.0000 N   0  0  0  0  0  0  0  0  0  0  0  0
    3.3408   -8.0651    0.0000 C   0  0  0  0  0  0  0  0  0  0  0  0
    2.1015   -7.2201    0.0000 C   0  0  0  0  0  0  0  0  0  0  0  0
  1  2  1  0
  2  3  2  0
  3  4  1  0
  4  5  1  0
  4  6  1  0
  6  7  1  0
  7  8  2  0
  7  9  1  0
  9 10  1  0
 10 11  2  0
 11 12  1  0
 12 13  2  0
 13 14  1  0
 14 15  2  0
  6 16  1  0
 16 17  2  0
 17 18  1  0
 18 19  2  0
 19 20  1  0
 20 21  2  0
 21 22  1  0
 22 23  2  0
 23 24  1  0
 24 25  2  0
 25 26  1  0
 26 27  2  0
 27 28  1  0
 28 29  2  0
 29 30  1  0
 30 31  2  0
 31 32  1  0
 32 33  2  0
 33 34  1  0
 34 35  2  0
 35 36  1  0
 36 37  2  0
 37 38  1  0
 38 39  2  0
 39 40  1  0
 40 41  2  0
 41 42  1  0
 42 43  2  0
 43 44  1  0
 44 45  3  0
 43 46  1  0
 46 47  2  0
 47  2  1  0
 15 10  1  0
 21 16  1  0
 27 22  1  0
 33 28  1  0
 39 34  1  0
 47 40  1  0
M  END
>  <Title>  (73) 
idAAAWgen8

$$$$

     RDKit          2D

  9  9  0  0  0  0  0  0  0  0999 V2000
    4.9320    1.5439    0.0000 C   0  0  0  0  0  0  0  0  0  0  0  0
    3.8173    0.5402    0.0000 C   0  0  0  0  0  0  0  0  0  0  0  0
    2.3907    1.0037    0.0000 C   0  0  0  0  0  0  0  0  0  0  0  0
    1.2760    0.0000    0.0000 C   0  0  0  0  0  0  0  0  0  0  0  0
    2.3907   -1.0037    0.0000 O   0  0  0  0  0  0  0  0  0  0  0  0
    0.3943    1.2135    0.0000 C   0  0  0  0  0  0  0  0  0  0  0  0
   -1.0323    0.7500    0.0000 C   0  0  0  0  0  0  0  0  0  0  0  0
   -1.0323   -0.7500    0.0000 C   0  0  0  0  0  0  0  0  0  0  0  0
    0.3943   -1.2135    0.0000 C   0  0  0  0  0  0  0  0  0  0  0  0
  1  2  1  0
  2  3  1  0
  3  4  1  0
  4  5  1  0
  4  6  1  0
  6  7  2  0
  7  8  1  0
  8  9  2  0
  9  4  1  0
M  END
>  <Title>  (74) 
idAAAXgen8

$$$$

     RDKit          2D

  3  2  0  0  0  0  0  0  0  0999 V2000
    0.0000    0.0000    0.0000 C   0  0  0  0  0  0  0  0  0  0  0  0
    1.2990    0.7500    0.0000 O   0  0  0  0  0  0  0  0  0  0  0  0
    2.5981   -0.0000    0.0000 C   0  0  0  0  0  0  0  0  0  0  0  0
  1  2  1  0
  2  3  1  0
M  END
>  <Title>  (75) 
idAAAYgen8

$$$$

     RDKit          2D

 37 41  0  0  0  0  0  0  0  0999 V2000
   -1.1382   -8.3460    0.0000 C   0  0  0  0  0  0  0  0  0  0  0  0
   -0.7500   -6.8971    0.0000 C   0  0  0  0  0  0  0  0  0  0  0  0
    0.7500   -6.8971    0.0000 C   0  0  0  0  0  0  0  0  0  0  0  0
    2.0490   -6.1471    0.0000 C   0  0  0  0  0  0  0  0  0  0  0  0
    2.7990   -4.8481    0.0000 C   0  0  0  0  0  0  0  0  0  0  0  0
    4.2479   -5.2363    0.0000 O   0  0  0  0  0  0  0  0  0  0  0  0
    2.7990   -3.3481    0.0000 C   0  0  0  0  0  0  0  0  0  0  0  0
    2.0490   -2.0490    0.0000 C   0  0  0  0  0  0  0  0  0  0  0  0
    3.1097   -0.9884    0.0000 O   0  0  0  0  0  0  0  0  0  0  0  0
    4.5586   -1.3766    0.0000 C   0  0  0  0  0  0  0  0  0  0  0  0
    5.6192   -0.3159    0.0000 C   0  0  0  0  0  0  0  0  0  0  0  0
    5.2310    1.1329    0.0000 O   0  0  0  0  0  0  0  0  0  0  0  0
    7.0681   -0.7042    0.0000 N   0  0  0  0  0  0  0  0  0  0  0  0
    8.1288    0.3565    0.0000 C   0  0  0  0  0  0  0  0  0  0  0  0
    9.5777   -0.0317    0.0000 N   0  0  0  0  0  0  0  0  0  0  0  0
   10.6383    1.0289    0.0000 N   0  0  0  0  0  0  0  0  0  0  0  0
   10.2501    2.4778    0.0000 N   0  0  0  0  0  0  0  0  0  0  0  0
    8.8012    2.8660    0.0000 N   0  0  0  0  0  0  0  0  0  0  0  0
    7.7406    1.8054    0.0000 N   0  0  0  0  0  0  0  0  0  0  0  0
    0.7500   -1.2990    0.0000 C   0  0  0  0  0  0  0  0  0  0  0  0
    1.5000    0.0000    0.0000 C   0  0  0  0  0  0  0  0  0  0  0  0
    0.7500    1.2990    0.0000 C   0  0  0  0  0  0  0  0  0  0  0  0
   -0.7500    1.2990    0.0000 C   0  0  0  0  0  0  0  0  0  0  0  0
   -1.5000    0.0000    0.0000 C   0  0  0  0  0  0  0  0  0  0  0  0
   -0.7500   -1.2990    0.0000 C   0  0  0  0  0  0  0  0  0  0  0  0
   -2.0490   -2.0490    0.0000 C   0  0  0  0  0  0  0  0  0  0  0  0
   -2.7990   -0.7500    0.0000 C   0  0  0  0  0  0  0  0  0  0  0  0
   -4.2990   -0.7500    0.0000 C   0  0  0  0  0  0  0  0  0  0  0  0
   -5.0490   -2.0490    0.0000 C   0  0  0  0  0  0  0  0  0  0  0  0
   -4.2990   -3.3481    0.0000 C   0  0  0  0  0  0  0  0  0  0  0  0
   -2.7990   -3.3481    0.0000 C   0  0  0  0  0  0  0  0  0  0  0  0
   -2.7990   -4.8481    0.0000 C   0  0  0  0  0  0  0  0  0  0  0  0
   -4.2990   -4.8481    0.0000 C   0  0  0  0  0  0  0  0  0  0  0  0
   -5.0490   -6.1471    0.0000 C   0  0  0  0  0  0  0  0  0  0  0  0
   -4.2990   -7.4462    0.0000 C   0  0  0  0  0  0  0  0  0  0  0  0
   -2.7990   -7.4462    0.0000 C   0  0  0  0  0  0  0  0  0  0  0  0
   -2.0490   -6.1471    0.0000 C   0  0  0  0  0  0  0  0  0  0  0  0
  1  2  1  0
  2  3  2  0
  3  4  1  0
  4  5  1  0
  5  6  1  0
  5  7  1  0
  7  8  1  0
  8  9  1  0
  9 10  1  0
 10 11  1  0
 11 12  2  0
 11 13  1  0
 13 14  1  0
 14 15  2  0
 15 16  1  0
 16 17  2  0
 17 18  1  0
 18 19  2  0
  8 20  1  0
 20 21  2  0
 21 22  1  0
 22 23  2  0
 23 24  1  0
 24 25  2  0
 25 26  1  0
 26 27  2  0
 27 28  1  0
 28 29  2  0
 29 30  1  0
 30 31  2  0
 31 32  1  0
 32 33  2  0
 33 34  1  0
 34 35  2  0
 35 36  1  0
 36 37  2  0
 37  2  1  0
 19 14  1  0
 25 20  1  0
 31 26  1  0
 37 32  1  0
M  END
>  <Title>  (76) 
idAAAZgen8

$$$$

     RDKit          2D

116116  0  0  0  0  0  0  0  0999 V2000
   28.9576    0.0000    0.0000 C   0  0  0  0  0  0  0  0  0  0  0  0
   27.4576    0.0000    0.0000 C   0  0  0  0  0  0  0  0  0  0  0  0
   27.4167    1.4994    0.0000 C   0  0  0  0  0  0  0  0  0  0  0  0
   27.2939    2.9944    0.0000 C   0  0  0  0  0  0  0  0  0  0  0  0
   27.0896    4.4804    0.0000 C   0  0  0  0  0  0  0  0  0  0  0  0
   26.8045    5.9531    0.0000 C   0  0  0  0  0  0  0  0  0  0  0  0
   26.4394    7.4080    0.0000 C   0  0  0  0  0  0  0  0  0  0  0  0
   25.9954    8.8408    0.0000 C   0  0  0  0  0  0  0  0  0  0  0  0
   25.4739   10.2472    0.0000 C   0  0  0  0  0  0  0  0  0  0  0  0
   24.8763   11.6230    0.0000 C   0  0  0  0  0  0  0  0  0  0  0  0
   24.2044   12.9641    0.0000 C   0  0  0  0  0  0  0  0  0  0  0  0
   23.4603   14.2666    0.0000 C   0  0  0  0  0  0  0  0  0  0  0  0
   22.6463   15.5264    0.0000 C   0  0  0  0  0  0  0  0  0  0  0  0
   21.7646   16.7399    0.0000 C   0  0  0  0  0  0  0  0  0  0  0  0
   20.8179   17.9035    0.0000 C   0  0  0  0  0  0  0  0  0  0  0  0
   19.8092   19.0136    0.0000 C   0  0  0  0  0  0  0  0  0  0  0  0
   18.7413   20.0670    0.0000 C   0  0  0  0  0  0  0  0  0  0  0  0
   17.6175   21.0605    0.0000 C   0  0  0  0  0  0  0  0  0  0  0  0
   16.4411   21.9912    0.0000 C   0  0  0  0  0  0  0  0  0  0  0  0
   15.2156   22.8562    0.0000 C   0  0  0  0  0  0  0  0  0  0  0  0
   13.9448   23.6530    0.0000 C   0  0  0  0  0  0  0  0  0  0  0  0
   12.6323   24.3792    0.0000 C   0  0  0  0  0  0  0  0  0  0  0  0
   11.2821   25.0327    0.0000 C   0  0  0  0  0  0  0  0  0  0  0  0
    9.8983   25.6115    0.0000 C   0  0  0  0  0  0  0  0  0  0  0  0
    8.4849   26.1138    0.0000 C   0  0  0  0  0  0  0  0  0  0  0  0
    7.0462   26.5382    0.0000 C   0  0  0  0  0  0  0  0  0  0  0  0
    5.5864   26.8833    0.0000 C   0  0  0  0  0  0  0  0  0  0  0  0
    4.1100   27.1483    0.0000 C   0  0  0  0  0  0  0  0  0  0  0  0
    2.6213   27.3322    0.0000 C   0  0  0  0  0  0  0  0  0  0  0  0
    1.1248   27.4346    0.0000 C   0  0  0  0  0  0  0  0  0  0  0  0
   -0.3750   27.4551    0.0000 C   0  0  0  0  0  0  0  0  0  0  0  0
   -1.8738   27.3936    0.0000 C   0  0  0  0  0  0  0  0  0  0  0  0
   -3.3669   27.2504    0.0000 C   0  0  0  0  0  0  0  0  0  0  0  0
   -4.8500   27.0259    0.0000 C   0  0  0  0  0  0  0  0  0  0  0  0
   -6.3187   26.7207    0.0000 C   0  0  0  0  0  0  0  0  0  0  0  0
   -7.7684   26.3358    0.0000 C   0  0  0  0  0  0  0  0  0  0  0  0
   -9.1950   25.8723    0.0000 C   0  0  0  0  0  0  0  0  0  0  0  0
  -10.5941   25.3315    0.0000 C   0  0  0  0  0  0  0  0  0  0  0  0
  -11.9617   24.7152    0.0000 C   0  0  0  0  0  0  0  0  0  0  0  0
  -13.2935   24.0251    0.0000 C   0  0  0  0  0  0  0  0  0  0  0  0
  -14.5857   23.2633    0.0000 C   0  0  0  0  0  0  0  0  0  0  0  0
  -15.8343   22.4321    0.0000 C   0  0  0  0  0  0  0  0  0  0  0  0
  -17.0357   21.5339    0.0000 C   0  0  0  0  0  0  0  0  0  0  0  0
  -18.1862   20.5715    0.0000 C   0  0  0  0  0  0  0  0  0  0  0  0
  -19.2824   19.5476    0.0000 C   0  0  0  0  0  0  0  0  0  0  0  0
  -20.3211   18.4655    0.0000 C   0  0  0  0  0  0  0  0  0  0  0  0
  -21.2992   17.3282    0.0000 C   0  0  0  0  0  0  0  0  0  0  0  0
  -22.2137   16.1392    0.0000 C   0  0  0  0  0  0  0  0  0  0  0  0
  -23.0619   14.9020    0.0000 C   0  0  0  0  0  0  0  0  0  0  0  0
  -23.8413   13.6204    0.0000 C   0  0  0  0  0  0  0  0  0  0  0  0
  -24.5495   12.2981    0.0000 C   0  0  0  0  0  0  0  0  0  0  0  0
  -25.1845   10.9392    0.0000 C   0  0  0  0  0  0  0  0  0  0  0  0
  -25.7443    9.5475    0.0000 C   0  0  0  0  0  0  0  0  0  0  0  0
  -26.2272    8.1274    0.0000 C   0  0  0  0  0  0  0  0  0  0  0  0
  -26.6319    6.6830    0.0000 C   0  0  0  0  0  0  0  0  0  0  0  0
  -26.9571    5.2187    0.0000 C   0  0  0  0  0  0  0  0  0  0  0  0
  -27.2019    3.7388    0.0000 C   0  0  0  0  0  0  0  0  0  0  0  0
  -27.3655    2.2478    0.0000 C   0  0  0  0  0  0  0  0  0  0  0  0
  -27.4474    0.7500    0.0000 C   0  0  0  0  0  0  0  0  0  0  0  0
  -27.4474   -0.7500    0.0000 C   0  0  0  0  0  0  0  0  0  0  0  0
  -27.3655   -2.2478    0.0000 C   0  0  0  0  0  0  0  0  0  0  0  0
  -27.2019   -3.7388    0.0000 C   0  0  0  0  0  0  0  0  0  0  0  0
  -26.9571   -5.2187    0.0000 C   0  0  0  0  0  0  0  0  0  0  0  0
  -26.6319   -6.6830    0.0000 C   0  0  0  0  0  0  0  0  0  0  0  0
  -26.2272   -8.1274    0.0000 C   0  0  0  0  0  0  0  0  0  0  0  0
  -25.7443   -9.5475    0.0000 C   0  0  0  0  0  0  0  0  0  0  0  0
  -25.1845  -10.9392    0.0000 C   0  0  0  0  0  0  0  0  0  0  0  0
  -24.5495  -12.2981    0.0000 C   0  0  0  0  0  0  0  0  0  0  0  0
  -23.8413  -13.6204    0.0000 C   0  0  0  0  0  0  0  0  0  0  0  0
  -23.0619  -14.9020    0.0000 C   0  0  0  0  0  0  0  0  0  0  0  0
  -22.2137  -16.1392    0.0000 C   0  0  0  0  0  0  0  0  0  0  0  0
  -21.2992  -17.3282    0.0000 C   0  0  0  0  0  0  0  0  0  0  0  0
  -20.3211  -18.4655    0.0000 C   0  0  0  0  0  0  0  0  0  0  0  0
  -19.2824  -19.5476    0.0000 C   0  0  0  0  0  0  0  0  0  0  0  0
  -18.1862  -20.5715    0.0000 C   0  0  0  0  0  0  0  0  0  0  0  0
  -17.0357  -21.5339    0.0000 C   0  0  0  0  0  0  0  0  0  0  0  0
  -15.8343  -22.4321    0.0000 C   0  0  0  0  0  0  0  0  0  0  0  0
  -14.5857  -23.2633    0.0000 C   0  0  0  0  0  0  0  0  0  0  0  0
  -13.2935  -24.0251    0.0000 C   0  0  0  0  0  0  0  0  0  0  0  0
  -11.9617  -24.7152    0.0000 C   0  0  0  0  0  0  0  0  0  0  0  0
  -10.5941  -25.3315    0.0000 C   0  0  0  0  0  0  0  0  0  0  0  0
   -9.1950  -25.8723    0.0000 C   0  0  0  0  0  0  0  0  0  0  0  0
   -7.7684  -26.3358    0.0000 C   0  0  0  0  0  0  0  0  0  0  0  0
   -6.3187  -26.7207    0.0000 C   0  0  0  0  0  0  0  0  0  0  0  0
   -4.8500  -27.0259    0.0000 C   0  0  0  0  0  0  0  0  0  0  0  0
   -3.3669  -27.2504    0.0000 C   0  0  0  0  0  0  0  0  0  0  0  0
   -1.8738  -27.3936    0.0000 C   0  0  0  0  0  0  0  0  0  0  0  0
   -0.3750  -27.4551    0.0000 C   0  0  0  0  0  0  0  0  0  0  0  0
    1.1248  -27.4346    0.0000 C   0  0  0  0  0  0  0  0  0  0  0  0
    2.6213  -27.3322    0.0000 C   0  0  0  0  0  0  0  0  0  0  0  0
    4.1100  -27.1483    0.0000 C   0  0  0  0  0  0  0  0  0  0  0  0
    5.5864  -26.8833    0.0000 C   0  0  0  0  0  0  0  0  0  0  0  0
    7.0462  -26.5382    0.0000 C   0  0  0  0  0  0  0  0  0  0  0  0
    8.4849  -26.1138    0.0000 C   0  0  0  0  0  0  0  0  0  0  0  0
    9.8983  -25.6115    0.0000 C   0  0  0  0  0  0  0  0  0  0  0  0
   11.2821  -25.0327    0.0000 C   0  0  0  0  0  0  0  0  0  0  0  0
   12.6323  -24.3792    0.0000 C   0  0  0  0  0  0  0  0  0  0  0  0
   13.9448  -23.6530    0.0000 C   0  0  0  0  0  0  0  0  0  0  0  0
   15.2156  -22.8562    0.0000 C   0  0  0  0  0  0  0  0  0  0  0  0
   16.4411  -21.9912    0.0000 C   0  0  0  0  0  0  0  0  0  0  0  0
   17.6175  -21.0605    0.0000 C   0  0  0  0  0  0  0  0  0  0  0  0
   18.7413  -20.0670    0.0000 C   0  0  0  0  0  0  0  0  0  0  0  0
   19.8092  -19.0136    0.0000 C   0  0  0  0  0  0  0  0  0  0  0  0
   20.8179  -17.9035    0.0000 C   0  0  0  0  0  0  0  0  0  0  0  0
   21.7646  -16.7399    0.0000 C   0  0  0  0  0  0  0  0  0  0  0  0
   22.6463  -15.5264    0.0000 C   0  0  0  0  0  0  0  0  0  0  0  0
   23.4603  -14.2666    0.0000 C   0  0  0  0  0  0  0  0  0  0  0  0
   24.2044  -12.9641    0.0000 C   0  0  0  0  0  0  0  0  0  0  0  0
   24.8763  -11.6230    0.0000 C   0  0  0  0  0  0  0  0  0  0  0  0
   25.4739  -10.2472    0.0000 C   0  0  0  0  0  0  0  0  0  0  0  0
   25.9954   -8.8408    0.0000 C   0  0  0  0  0  0  0  0  0  0  0  0
   26.4394   -7.4080    0.0000 C   0  0  0  0  0  0  0  0  0  0  0  0
   26.8045   -5.9531    0.0000 C   0  0  0  0  0  0  0  0  0  0  0  0
   27.0896   -4.4804    0.0000 C   0  0  0  0  0  0  0  0  0  0  0  0
   27.2939   -2.9944    0.0000 C   0  0  0  0  0  0  0  0  0  0  0  0
   27.4167   -1.4994    0.0000 C   0  0  0  0  0  0  0  0  0  0  0  0
  1  2  1  0
  2  3  1  0
  3  4  1  0
  4  5  2  0
  5  6  1  0
  6  7  2  0
  7  8  1  0
  8  9  1  0
  9 10  1  0
 10 11  1  0
 11 12  1  0
 12 13  1  0
 13 14  1  0
 14 15  1  0
 15 16  1  0
 16 17  1  0
 17 18  1  0
 18 19  1  0
 19 20  1  0
 20 21  1  0
 21 22  1  0
 22 23  1  0
 23 24  1  0
 24 25  1  0
 25 26  1  0
 26 27  1  0
 27 28  1  0
 28 29  1  0
 29 30  1  0
 30 31  1  0
 31 32  1  0
 32 33  1  0
 33 34  1  0
 34 35  1  0
 35 36  1  0
 36 37  1  0
 37 38  1  0
 38 39  1  0
 39 40  1  0
 40 41  1  0
 41 42  1  0
 42 43  1  0
 43 44  1  0
 44 45  1  0
 45 46  1  0
 46 47  1  0
 47 48  1  0
 48 49  1  0
 49 50  1  0
 50 51  1  0
 51 52  1  0
 52 53  1  0
 53 54  1  0
 54 55  1  0
 55 56  1  0
 56 57  1  0
 57 58  1  0
 58 59  1  0
 59 60  1  0
 60 61  1  0
 61 62  1  0
 62 63  1  0
 63 64  1  0
 64 65  1  0
 65 66  1  0
 66 67  1  0
 67 68  1  0
 68 69  1  0
 69 70  1  0
 70 71  1  0
 71 72  1  0
 72 73  1  0
 73 74  1  0
 74 75  1  0
 75 76  1  0
 76 77  1  0
 77 78  1  0
 78 79  1  0
 79 80  1  0
 80 81  1  0
 81 82  1  0
 82 83  1  0
 83 84  1  0
 84 85  1  0
 85 86  1  0
 86 87  1  0
 87 88  1  0
 88 89  1  0
 89 90  1  0
 90 91  1  0
 91 92  1  0
 92 93  1  0
 93 94  1  0
 94 95  1  0
 95 96  1  0
 96 97  1  0
 97 98  1  0
 98 99  1  0
 99100  1  0
100101  1  0
101102  1  0
102103  1  0
103104  1  0
104105  1  0
105106  1  0
106107  1  0
107108  1  0
108109  1  0
109110  1  0
110111  1  0
111112  1  0
112113  1  0
113114  1  0
114115  1  0
115116  1  0
116  2  1  0
M  END
>  <Title>  (77) 
idAABAgen8

$$$$

     RDKit          2D

 20 21  0  0  0  0  0  0  0  0999 V2000
   -7.5917   -5.5881    0.0000 C   0  0  0  0  0  0  0  0  0  0  0  0
   -6.2213   -4.9780    0.0000 C   0  0  0  0  0  0  0  0  0  0  0  0
   -5.0078   -5.8597    0.0000 C   0  0  0  0  0  0  0  0  0  0  0  0
   -3.6375   -5.2496    0.0000 C   0  0  0  0  0  0  0  0  0  0  0  0
   -3.4807   -3.7578    0.0000 O   0  0  0  0  0  0  0  0  0  0  0  0
   -2.4240   -6.1312    0.0000 N   0  0  0  0  0  0  0  0  0  0  0  0
   -1.0537   -5.5211    0.0000 C   0  0  0  0  0  0  0  0  0  0  0  0
    0.2454   -6.2711    0.0000 C   0  0  0  0  0  0  0  0  0  0  0  0
    1.3601   -5.2674    0.0000 N   0  0  0  0  0  0  0  0  0  0  0  0
    0.7500   -3.8971    0.0000 N   0  0  0  0  0  0  0  0  0  0  0  0
    1.5000   -2.5981    0.0000 C   0  0  0  0  0  0  0  0  0  0  0  0
    3.0000   -2.5981    0.0000 O   0  0  0  0  0  0  0  0  0  0  0  0
    0.7500   -1.2990    0.0000 C   0  0  0  0  0  0  0  0  0  0  0  0
    1.5000    0.0000    0.0000 C   0  0  0  0  0  0  0  0  0  0  0  0
    0.7500    1.2990    0.0000 C   0  0  0  0  0  0  0  0  0  0  0  0
   -0.7500    1.2990    0.0000 C   0  0  0  0  0  0  0  0  0  0  0  0
   -1.5000    0.0000    0.0000 C   0  0  0  0  0  0  0  0  0  0  0  0
   -0.7500   -1.2990    0.0000 N   0  0  0  0  0  0  0  0  0  0  0  0
   -0.7418   -4.0539    0.0000 C   0  0  0  0  0  0  0  0  0  0  0  0
   -1.7455   -2.9392    0.0000 O   0  0  0  0  0  0  0  0  0  0  0  0
  1  2  1  0
  2  3  2  3
  3  4  1  0
  4  5  2  0
  4  6  1  0
  6  7  1  0
  7  8  1  0
  8  9  1  0
  9 10  1  0
 10 11  1  0
 11 12  2  0
 11 13  1  0
 13 14  2  0
 14 15  1  0
 15 16  2  0
 16 17  1  0
 17 18  2  0
 10 19  1  0
 19 20  2  0
 19  7  1  0
 18 13  1  0
M  END
>  <Title>  (78) 
idAABBgen8

$$$$

     RDKit          2D

  8  8  0  0  0  0  0  0  0  0999 V2000
    3.0000    0.0000    0.0000 O   0  0  0  0  0  0  0  0  0  0  0  0
    1.5000    0.0000    0.0000 C   0  0  0  0  0  0  0  0  0  0  0  0
    0.7500   -1.2990    0.0000 C   0  0  0  0  0  0  0  0  0  0  0  0
   -0.7500   -1.2990    0.0000 C   0  0  0  0  0  0  0  0  0  0  0  0
   -1.5000    0.0000    0.0000 C   0  0  0  0  0  0  0  0  0  0  0  0
   -3.0000    0.0000    0.0000 O   0  0  0  0  0  0  0  0  0  0  0  0
   -0.7500    1.2990    0.0000 C   0  0  0  0  0  0  0  0  0  0  0  0
    0.7500    1.2990    0.0000 C   0  0  0  0  0  0  0  0  0  0  0  0
  1  2  1  0
  2  3  2  0
  3  4  1  0
  4  5  2  0
  5  6  1  0
  5  7  1  0
  7  8  2  0
  8  2  1  0
M  END
>  <Title>  (79) 
idAABCgen8

$$$$

     RDKit          2D

  7  7  0  0  0  0  0  0  0  0999 V2000
    3.0000    0.0000    0.0000 O   0  0  0  0  0  0  0  0  0  0  0  0
    1.5000    0.0000    0.0000 C   0  0  0  0  0  0  0  0  0  0  0  0
    0.7500   -1.2990    0.0000 C   0  0  0  0  0  0  0  0  0  0  0  0
   -0.7500   -1.2990    0.0000 C   0  0  0  0  0  0  0  0  0  0  0  0
   -1.5000    0.0000    0.0000 C   0  0  0  0  0  0  0  0  0  0  0  0
   -0.7500    1.2990    0.0000 C   0  0  0  0  0  0  0  0  0  0  0  0
    0.7500    1.2990    0.0000 N   0  0  0  0  0  0  0  0  0  0  0  0
  1  2  1  0
  2  3  2  0
  3  4  1  0
  4  5  2  0
  5  6  1  0
  6  7  2  0
  7  2  1  0
M  END
>  <Title>  (80) 
idAABDgen8

$$$$

     RDKit          2D

 25 27  0  0  0  0  0  0  0  0999 V2000
    0.7500   -6.4952    0.0000 C   0  0  0  0  0  0  0  0  0  0  0  0
    1.5000   -5.1962    0.0000 C   0  0  0  0  0  0  0  0  0  0  0  0
    0.7500   -3.8971    0.0000 C   0  0  0  0  0  0  0  0  0  0  0  0
    1.5000   -2.5981    0.0000 C   0  0  0  0  0  0  0  0  0  0  0  0
    0.7500   -1.2990    0.0000 C   0  0  0  0  0  0  0  0  0  0  0  0
    1.5000    0.0000    0.0000 C   0  0  0  0  0  0  0  0  0  0  0  0
    0.7500    1.2990    0.0000 C   0  0  0  0  0  0  0  0  0  0  0  0
   -0.7500    1.2990    0.0000 C   0  0  0  0  0  0  0  0  0  0  0  0
   -1.5000    0.0000    0.0000 C   0  0  0  0  0  0  0  0  0  0  0  0
   -0.7500   -1.2990    0.0000 C   0  0  0  0  0  0  0  0  0  0  0  0
   -1.5000   -2.5981    0.0000 C   0  0  0  0  0  0  0  0  0  0  0  0
   -0.7500   -3.8971    0.0000 C   0  0  0  0  0  0  0  0  0  0  0  0
   -1.5000   -5.1962    0.0000 C   0  0  0  0  0  0  0  0  0  0  0  0
   -3.0000   -5.1962    0.0000 C   0  0  0  0  0  0  0  0  0  0  0  0
   -3.7500   -3.8971    0.0000 C   0  0  0  0  0  0  0  0  0  0  0  0
   -3.0000   -2.5981    0.0000 C   0  0  0  0  0  0  0  0  0  0  0  0
   -3.7500   -1.2990    0.0000 O   0  0  0  0  0  0  0  0  0  0  0  0
    3.0000   -5.1962    0.0000 N   0  0  0  0  0  0  0  0  0  0  0  0
    3.7500   -6.4952    0.0000 C   0  0  0  0  0  0  0  0  0  0  0  0
    3.0000   -7.7942    0.0000 O   0  0  0  0  0  0  0  0  0  0  0  0
    5.2500   -6.4952    0.0000 C   0  0  0  0  0  0  0  0  0  0  0  0
    6.1317   -5.2817    0.0000 C   0  0  0  0  0  0  0  0  0  0  0  0
    7.5583   -5.7452    0.0000 C   0  0  0  0  0  0  0  0  0  0  0  0
    7.5583   -7.2452    0.0000 C   0  0  0  0  0  0  0  0  0  0  0  0
    6.1317   -7.7087    0.0000 C   0  0  0  0  0  0  0  0  0  0  0  0
  1  2  1  0
  2  3  1  0
  3  4  1  0
  4  5  1  0
  5  6  2  0
  6  7  1  0
  7  8  1  0
  8  9  1  0
  9 10  2  0
 10 11  1  0
 11 12  2  0
 12 13  1  0
 13 14  2  0
 14 15  1  0
 15 16  2  0
 16 17  1  0
  2 18  1  0
 18 19  1  0
 19 20  2  0
 19 21  1  0
 21 22  2  0
 22 23  1  0
 23 24  1  0
 24 25  2  0
 10  5  1  0
 16 11  1  0
 25 21  1  0
M  END
>  <Title>  (81) 
idAABEgen8

$$$$

     RDKit          2D

  9  9  0  0  0  0  0  0  0  0999 V2000
    3.5260   -1.2990    0.0000 C   0  0  0  0  0  0  0  0  0  0  0  0
    2.7760    0.0000    0.0000 C   0  0  0  0  0  0  0  0  0  0  0  0
    1.2760    0.0000    0.0000 C   0  0  0  0  0  0  0  0  0  0  0  0
    0.3943    1.2135    0.0000 C   0  0  0  0  0  0  0  0  0  0  0  0
   -1.0323    0.7500    0.0000 C   0  0  0  0  0  0  0  0  0  0  0  0
   -2.2458    1.6317    0.0000 C   0  0  0  0  0  0  0  0  0  0  0  0
   -1.0323   -0.7500    0.0000 C   0  0  0  0  0  0  0  0  0  0  0  0
   -2.2458   -1.6317    0.0000 O   0  0  0  0  0  0  0  0  0  0  0  0
    0.3943   -1.2135    0.0000 N   0  0  0  0  0  0  0  0  0  0  0  0
  1  2  2  0
  2  3  1  0
  3  4  2  0
  4  5  1  0
  5  6  1  0
  5  7  1  0
  7  8  2  0
  7  9  1  0
  9  3  1  0
M  END
>  <Title>  (82) 
idAABFgen8

$$$$

     RDKit          2D

  9  9  0  0  0  0  0  0  0  0999 V2000
    5.2500   -1.2990    0.0000 C   0  0  0  0  0  0  0  0  0  0  0  0
    3.7500   -1.2990    0.0000 O   0  0  0  0  0  0  0  0  0  0  0  0
    3.0000    0.0000    0.0000 C   0  0  0  0  0  0  0  0  0  0  0  0
    1.5000    0.0000    0.0000 C   0  0  0  0  0  0  0  0  0  0  0  0
    0.7500   -1.2990    0.0000 C   0  0  0  0  0  0  0  0  0  0  0  0
   -0.7500   -1.2990    0.0000 C   0  0  0  0  0  0  0  0  0  0  0  0
   -1.5000    0.0000    0.0000 C   0  0  0  0  0  0  0  0  0  0  0  0
   -0.7500    1.2990    0.0000 C   0  0  0  0  0  0  0  0  0  0  0  0
    0.7500    1.2990    0.0000 C   0  0  0  0  0  0  0  0  0  0  0  0
  1  2  1  0
  2  3  1  0
  3  4  1  0
  4  5  1  0
  5  6  1  0
  6  7  2  0
  7  8  1  0
  8  9  1  0
  9  4  1  0
M  END
>  <Title>  (83) 
idAABGgen8

$$$$

     RDKit          2D

  9  9  0  0  0  0  0  0  0  0999 V2000
    4.5000    0.0000    0.0000 C   0  0  0  0  0  0  0  0  0  0  0  0
    3.0000    0.0000    0.0000 C   0  0  0  0  0  0  0  0  0  0  0  0
    1.5000    0.0000    0.0000 C   0  0  0  0  0  0  0  0  0  0  0  0
    0.7500   -1.2990    0.0000 C   0  0  0  0  0  0  0  0  0  0  0  0
   -0.7500   -1.2990    0.0000 C   0  0  0  0  0  0  0  0  0  0  0  0
   -1.5000    0.0000    0.0000 C   0  0  0  0  0  0  0  0  0  0  0  0
   -3.0000    0.0000    0.0000 O   0  0  0  0  0  0  0  0  0  0  0  0
   -0.7500    1.2990    0.0000 C   0  0  0  0  0  0  0  0  0  0  0  0
    0.7500    1.2990    0.0000 C   0  0  0  0  0  0  0  0  0  0  0  0
  1  2  3  0
  2  3  1  0
  3  4  2  0
  4  5  1  0
  5  6  1  0
  6  7  1  0
  6  8  1  0
  8  9  1  0
  9  3  1  0
M  END
>  <Title>  (84) 
idAABHgen8

$$$$

     RDKit          2D

  8  8  0  0  0  0  0  0  0  0999 V2000
    3.7500   -1.2990    0.0000 C   0  0  0  0  0  0  0  0  0  0  0  0
    3.0000    0.0000    0.0000 C   0  0  0  0  0  0  0  0  0  0  0  0
    1.5000    0.0000    0.0000 C   0  0  0  0  0  0  0  0  0  0  0  0
    0.7500   -1.2990    0.0000 C   0  0  0  0  0  0  0  0  0  0  0  0
   -0.7500   -1.2990    0.0000 C   0  0  0  0  0  0  0  0  0  0  0  0
   -1.5000    0.0000    0.0000 C   0  0  0  0  0  0  0  0  0  0  0  0
   -0.7500    1.2990    0.0000 C   0  0  0  0  0  0  0  0  0  0  0  0
    0.7500    1.2990    0.0000 C   0  0  0  0  0  0  0  0  0  0  0  0
  1  2  1  0
  2  3  1  0
  3  4  2  0
  4  5  1  0
  5  6  1  0
  6  7  1  0
  7  8  2  0
  8  3  1  0
M  END
>  <Title>  (85) 
idAABIgen8

$$$$

     RDKit          2D

 22 22  0  0  0  0  0  0  0  0999 V2000
    6.5321    0.0000    0.0000 O   0  0  0  0  0  0  0  0  0  0  0  0
    5.0321    0.0000    0.0000 C   0  0  0  0  0  0  0  0  0  0  0  0
    4.8086    1.4832    0.0000 N   0  0  0  0  0  0  0  0  0  0  0  0
    4.1577    2.8347    0.0000 C   0  0  0  0  0  0  0  0  0  0  0  0
    3.1375    3.9343    0.0000 C   0  0  0  0  0  0  0  0  0  0  0  0
    1.8384    4.6843    0.0000 C   0  0  0  0  0  0  0  0  0  0  0  0
    0.3761    5.0181    0.0000 C   0  0  0  0  0  0  0  0  0  0  0  0
   -1.1198    4.9060    0.0000 C   0  0  0  0  0  0  0  0  0  0  0  0
   -2.5161    4.3580    0.0000 C   0  0  0  0  0  0  0  0  0  0  0  0
   -3.6888    3.4227    0.0000 C   0  0  0  0  0  0  0  0  0  0  0  0
   -4.5338    2.1834    0.0000 C   0  0  0  0  0  0  0  0  0  0  0  0
   -4.9759    0.7500    0.0000 C   0  0  0  0  0  0  0  0  0  0  0  0
   -4.9759   -0.7500    0.0000 C   0  0  0  0  0  0  0  0  0  0  0  0
   -4.5338   -2.1834    0.0000 C   0  0  0  0  0  0  0  0  0  0  0  0
   -3.6888   -3.4227    0.0000 C   0  0  0  0  0  0  0  0  0  0  0  0
   -2.5161   -4.3580    0.0000 C   0  0  0  0  0  0  0  0  0  0  0  0
   -1.1198   -4.9060    0.0000 C   0  0  0  0  0  0  0  0  0  0  0  0
    0.3761   -5.0181    0.0000 C   0  0  0  0  0  0  0  0  0  0  0  0
    1.8384   -4.6843    0.0000 C   0  0  0  0  0  0  0  0  0  0  0  0
    3.1375   -3.9343    0.0000 C   0  0  0  0  0  0  0  0  0  0  0  0
    4.1577   -2.8347    0.0000 C   0  0  0  0  0  0  0  0  0  0  0  0
    4.8086   -1.4832    0.0000 C   0  0  0  0  0  0  0  0  0  0  0  0
  1  2  1  0
  2  3  2  0
  3  4  1  0
  4  5  1  0
  5  6  1  0
  6  7  1  0
  7  8  1  0
  8  9  1  0
  9 10  1  0
 10 11  1  0
 11 12  1  0
 12 13  1  0
 13 14  1  0
 14 15  1  0
 15 16  1  0
 16 17  1  0
 17 18  1  0
 18 19  1  0
 19 20  1  0
 20 21  1  0
 21 22  1  0
 22  2  1  0
M  END
>  <Title>  (86) 
idAABJgen8

$$$$

     RDKit          2D

 10 10  0  0  0  0  0  0  0  0999 V2000
    3.2286   -0.0000    0.0000 C   0  0  0  0  0  0  0  0  0  0  0  0
    1.7286    0.0000    0.0000 C   0  0  0  0  0  0  0  0  0  0  0  0
    1.0777    1.3515    0.0000 C   0  0  0  0  0  0  0  0  0  0  0  0
   -0.3846    1.6852    0.0000 C   0  0  0  0  0  0  0  0  0  0  0  0
   -0.7184    3.1476    0.0000 O   0  0  0  0  0  0  0  0  0  0  0  0
   -1.5574    0.7500    0.0000 C   0  0  0  0  0  0  0  0  0  0  0  0
   -2.9088    1.4008    0.0000 O   0  0  0  0  0  0  0  0  0  0  0  0
   -1.5574   -0.7500    0.0000 C   0  0  0  0  0  0  0  0  0  0  0  0
   -0.3846   -1.6852    0.0000 C   0  0  0  0  0  0  0  0  0  0  0  0
    1.0777   -1.3515    0.0000 C   0  0  0  0  0  0  0  0  0  0  0  0
  1  2  1  0
  2  3  2  0
  3  4  1  0
  4  5  1  0
  4  6  1  0
  6  7  1  0
  6  8  1  0
  8  9  1  0
  9 10  2  0
 10  2  1  0
M  END
>  <Title>  (87) 
idAABKgen8

$$$$

     RDKit          2D

 17 18  0  0  0  0  0  0  0  0999 V2000
   -0.7500   -3.8971    0.0000 O   0  0  0  0  0  0  0  0  0  0  0  0
    0.7500   -3.8971    0.0000 C   0  0  0  0  0  0  0  0  0  0  0  0
    1.5000   -2.5981    0.0000 N   0  0  0  0  0  0  0  0  0  0  0  0
    0.7500   -1.2990    0.0000 C   0  0  0  0  0  0  0  0  0  0  0  0
    1.5000    0.0000    0.0000 N   0  0  0  0  0  0  0  0  0  0  0  0
    0.7500    1.2990    0.0000 N   0  0  0  0  0  0  0  0  0  0  0  0
   -0.7500    1.2990    0.0000 N   0  0  0  0  0  0  0  0  0  0  0  0
   -1.5000    0.0000    0.0000 N   0  0  0  0  0  0  0  0  0  0  0  0
   -0.7500   -1.2990    0.0000 N   0  0  0  0  0  0  0  0  0  0  0  0
    1.5000   -5.1962    0.0000 O   0  0  0  0  0  0  0  0  0  0  0  0
    0.7500   -6.4952    0.0000 C   0  0  0  0  0  0  0  0  0  0  0  0
    1.3601   -7.8655    0.0000 C   0  0  0  0  0  0  0  0  0  0  0  0
    0.2454   -8.8692    0.0000 C   0  0  0  0  0  0  0  0  0  0  0  0
   -1.0537   -8.1192    0.0000 C   0  0  0  0  0  0  0  0  0  0  0  0
   -2.4240   -8.7293    0.0000 O   0  0  0  0  0  0  0  0  0  0  0  0
   -0.7418   -6.6520    0.0000 C   0  0  0  0  0  0  0  0  0  0  0  0
   -1.7455   -5.5373    0.0000 O   0  0  0  0  0  0  0  0  0  0  0  0
  1  2  2  0
  2  3  1  0
  3  4  1  0
  4  5  2  0
  5  6  1  0
  6  7  2  0
  7  8  1  0
  8  9  2  0
  2 10  1  0
 10 11  1  0
 11 12  2  0
 12 13  1  0
 13 14  2  0
 14 15  1  0
 14 16  1  0
 16 17  2  0
  9  4  1  0
 16 11  1  0
M  END
>  <Title>  (88) 
idAABLgen8

$$$$

     RDKit          2D

 38 43  0  0  0  0  0  0  0  0999 V2000
    3.1097   -7.2078    0.0000 C   0  0  0  0  0  0  0  0  0  0  0  0
    2.0490   -6.1471    0.0000 C   0  0  0  0  0  0  0  0  0  0  0  0
    2.7990   -4.8481    0.0000 C   0  0  0  0  0  0  0  0  0  0  0  0
    2.7990   -3.3481    0.0000 C   0  0  0  0  0  0  0  0  0  0  0  0
    2.0490   -2.0490    0.0000 C   0  0  0  0  0  0  0  0  0  0  0  0
    3.1097   -0.9884    0.0000 C   0  0  0  0  0  0  0  0  0  0  0  0
    4.5586   -1.3766    0.0000 C   0  0  0  0  0  0  0  0  0  0  0  0
    2.7215    0.4605    0.0000 N   0  0  0  0  0  0  0  0  0  0  0  0
    3.7821    1.5212    0.0000 C   0  0  0  0  0  0  0  0  0  0  0  0
    5.2310    1.1329    0.0000 N   0  0  0  0  0  0  0  0  0  0  0  0
    6.2917    2.1936    0.0000 N   0  0  0  0  0  0  0  0  0  0  0  0
    5.9035    3.6425    0.0000 N   0  0  0  0  0  0  0  0  0  0  0  0
    4.4546    4.0307    0.0000 N   0  0  0  0  0  0  0  0  0  0  0  0
    3.3939    2.9701    0.0000 N   0  0  0  0  0  0  0  0  0  0  0  0
    0.7500   -1.2990    0.0000 C   0  0  0  0  0  0  0  0  0  0  0  0
    1.5000    0.0000    0.0000 C   0  0  0  0  0  0  0  0  0  0  0  0
    0.7500    1.2990    0.0000 C   0  0  0  0  0  0  0  0  0  0  0  0
   -0.7500    1.2990    0.0000 C   0  0  0  0  0  0  0  0  0  0  0  0
   -1.5000    0.0000    0.0000 C   0  0  0  0  0  0  0  0  0  0  0  0
   -0.7500   -1.2990    0.0000 C   0  0  0  0  0  0  0  0  0  0  0  0
   -2.0490   -2.0490    0.0000 C   0  0  0  0  0  0  0  0  0  0  0  0
   -2.7990   -0.7500    0.0000 C   0  0  0  0  0  0  0  0  0  0  0  0
   -4.2990   -0.7500    0.0000 C   0  0  0  0  0  0  0  0  0  0  0  0
   -5.0490   -2.0490    0.0000 C   0  0  0  0  0  0  0  0  0  0  0  0
   -4.2990   -3.3481    0.0000 C   0  0  0  0  0  0  0  0  0  0  0  0
   -2.7990   -3.3481    0.0000 C   0  0  0  0  0  0  0  0  0  0  0  0
   -2.7990   -4.8481    0.0000 C   0  0  0  0  0  0  0  0  0  0  0  0
   -4.2990   -4.8481    0.0000 C   0  0  0  0  0  0  0  0  0  0  0  0
   -5.0490   -6.1471    0.0000 C   0  0  0  0  0  0  0  0  0  0  0  0
   -4.2990   -7.4462    0.0000 C   0  0  0  0  0  0  0  0  0  0  0  0
   -2.7990   -7.4462    0.0000 C   0  0  0  0  0  0  0  0  0  0  0  0
   -2.0490   -6.1471    0.0000 C   0  0  0  0  0  0  0  0  0  0  0  0
   -0.7500   -6.8971    0.0000 C   0  0  0  0  0  0  0  0  0  0  0  0
   -1.5000   -8.1962    0.0000 C   0  0  0  0  0  0  0  0  0  0  0  0
   -0.7500   -9.4952    0.0000 C   0  0  0  0  0  0  0  0  0  0  0  0
    0.7500   -9.4952    0.0000 C   0  0  0  0  0  0  0  0  0  0  0  0
    1.5000   -8.1962    0.0000 C   0  0  0  0  0  0  0  0  0  0  0  0
    0.7500   -6.8971    0.0000 C   0  0  0  0  0  0  0  0  0  0  0  0
  1  2  1  0
  2  3  1  0
  3  4  1  0
  4  5  1  0
  5  6  1  0
  6  7  1  0
  6  8  1  0
  8  9  1  0
  9 10  2  0
 10 11  1  0
 11 12  2  0
 12 13  1  0
 13 14  2  0
  5 15  1  0
 15 16  2  0
 16 17  1  0
 17 18  2  0
 18 19  1  0
 19 20  2  0
 20 21  1  0
 21 22  2  0
 22 23  1  0
 23 24  2  0
 24 25  1  0
 25 26  2  0
 26 27  1  0
 27 28  2  0
 28 29  1  0
 29 30  2  0
 30 31  1  0
 31 32  2  0
 32 33  1  0
 33 34  2  0
 34 35  1  0
 35 36  2  0
 36 37  1  0
 37 38  2  0
 38  2  1  0
 14  9  1  0
 20 15  1  0
 26 21  1  0
 32 27  1  0
 38 33  1  0
M  END
>  <Title>  (89) 
idAABMgen8

$$$$

     RDKit          2D

 70 71  0  0  0  0  0  0  0  0999 V2000
   17.0237    0.0000    0.0000 C   0  0  0  0  0  0  0  0  0  0  0  0
   15.5237    0.0000    0.0000 C   0  0  0  0  0  0  0  0  0  0  0  0
   15.4512    1.4982    0.0000 C   0  0  0  0  0  0  0  0  0  0  0  0
   15.2344    2.9825    0.0000 C   0  0  0  0  0  0  0  0  0  0  0  0
   14.8755    4.4389    0.0000 C   0  0  0  0  0  0  0  0  0  0  0  0
   14.3776    5.8539    0.0000 C   0  0  0  0  0  0  0  0  0  0  0  0
   13.7455    7.2142    0.0000 C   0  0  0  0  0  0  0  0  0  0  0  0
   12.9851    8.5072    0.0000 C   0  0  0  0  0  0  0  0  0  0  0  0
   12.1034    9.7207    0.0000 C   0  0  0  0  0  0  0  0  0  0  0  0
   11.1087   10.8434    0.0000 C   0  0  0  0  0  0  0  0  0  0  0  0
   10.0103   11.8650    0.0000 C   0  0  0  0  0  0  0  0  0  0  0  0
    8.8184   12.7757    0.0000 C   0  0  0  0  0  0  0  0  0  0  0  0
    7.5442   13.5672    0.0000 C   0  0  0  0  0  0  0  0  0  0  0  0
    6.1996   14.2320    0.0000 C   0  0  0  0  0  0  0  0  0  0  0  0
    4.7971   14.7639    0.0000 C   0  0  0  0  0  0  0  0  0  0  0  0
    3.3498   15.1579    0.0000 C   0  0  0  0  0  0  0  0  0  0  0  0
    1.8712   15.4105    0.0000 C   0  0  0  0  0  0  0  0  0  0  0  0
    0.3751   15.5191    0.0000 C   0  0  0  0  0  0  0  0  0  0  0  0
   -1.1245   15.4829    0.0000 C   0  0  0  0  0  0  0  0  0  0  0  0
   -2.6135   15.3021    0.0000 C   0  0  0  0  0  0  0  0  0  0  0  0
   -4.0782   14.9784    0.0000 C   0  0  0  0  0  0  0  0  0  0  0  0
   -5.5048   14.5149    0.0000 C   0  0  0  0  0  0  0  0  0  0  0  0
   -6.8800   13.9158    0.0000 C   0  0  0  0  0  0  0  0  0  0  0  0
   -8.1909   13.1868    0.0000 C   0  0  0  0  0  0  0  0  0  0  0  0
   -9.4254   12.3347    0.0000 C   0  0  0  0  0  0  0  0  0  0  0  0
  -10.5719   11.3675    0.0000 C   0  0  0  0  0  0  0  0  0  0  0  0
  -11.6196   10.2941    0.0000 C   0  0  0  0  0  0  0  0  0  0  0  0
  -12.5589    9.1246    0.0000 C   0  0  0  0  0  0  0  0  0  0  0  0
  -13.3809    7.8699    0.0000 C   0  0  0  0  0  0  0  0  0  0  0  0
  -14.0780    6.5417    0.0000 C   0  0  0  0  0  0  0  0  0  0  0  0
  -14.6436    5.1524    0.0000 C   0  0  0  0  0  0  0  0  0  0  0  0
  -15.0726    3.7151    0.0000 C   0  0  0  0  0  0  0  0  0  0  0  0
  -15.3608    2.2430    0.0000 C   0  0  0  0  0  0  0  0  0  0  0  0
  -15.5055    0.7500    0.0000 C   0  0  0  0  0  0  0  0  0  0  0  0
  -15.5055   -0.7500    0.0000 C   0  0  0  0  0  0  0  0  0  0  0  0
  -15.3608   -2.2430    0.0000 C   0  0  0  0  0  0  0  0  0  0  0  0
  -15.0726   -3.7151    0.0000 C   0  0  0  0  0  0  0  0  0  0  0  0
  -14.6436   -5.1524    0.0000 C   0  0  0  0  0  0  0  0  0  0  0  0
  -14.0780   -6.5417    0.0000 C   0  0  0  0  0  0  0  0  0  0  0  0
  -13.3809   -7.8699    0.0000 C   0  0  0  0  0  0  0  0  0  0  0  0
  -12.5589   -9.1246    0.0000 C   0  0  0  0  0  0  0  0  0  0  0  0
  -11.6196  -10.2941    0.0000 C   0  0  0  0  0  0  0  0  0  0  0  0
  -10.5719  -11.3675    0.0000 C   0  0  0  0  0  0  0  0  0  0  0  0
   -9.4254  -12.3347    0.0000 C   0  0  0  0  0  0  0  0  0  0  0  0
   -8.1909  -13.1868    0.0000 C   0  0  0  0  0  0  0  0  0  0  0  0
   -6.8800  -13.9158    0.0000 C   0  0  0  0  0  0  0  0  0  0  0  0
   -5.5048  -14.5149    0.0000 C   0  0  0  0  0  0  0  0  0  0  0  0
   -4.0782  -14.9784    0.0000 C   0  0  0  0  0  0  0  0  0  0  0  0
   -2.6135  -15.3021    0.0000 C   0  0  0  0  0  0  0  0  0  0  0  0
   -1.1245  -15.4829    0.0000 C   0  0  0  0  0  0  0  0  0  0  0  0
    0.3751  -15.5191    0.0000 C   0  0  0  0  0  0  0  0  0  0  0  0
    1.8712  -15.4105    0.0000 C   0  0  0  0  0  0  0  0  0  0  0  0
    3.3498  -15.1579    0.0000 C   0  0  0  0  0  0  0  0  0  0  0  0
    4.7971  -14.7639    0.0000 C   0  0  0  0  0  0  0  0  0  0  0  0
    6.1996  -14.2320    0.0000 C   0  0  0  0  0  0  0  0  0  0  0  0
    7.5442  -13.5672    0.0000 C   0  0  0  0  0  0  0  0  0  0  0  0
    8.8184  -12.7757    0.0000 C   0  0  0  0  0  0  0  0  0  0  0  0
   10.0103  -11.8650    0.0000 C   0  0  0  0  0  0  0  0  0  0  0  0
   11.1087  -10.8434    0.0000 C   0  0  0  0  0  0  0  0  0  0  0  0
   12.1034   -9.7207    0.0000 C   0  0  0  0  0  0  0  0  0  0  0  0
   12.9851   -8.5072    0.0000 C   0  0  0  0  0  0  0  0  0  0  0  0
   13.7455   -7.2142    0.0000 C   0  0  0  0  0  0  0  0  0  0  0  0
   14.3776   -5.8539    0.0000 C   0  0  0  0  0  0  0  0  0  0  0  0
   15.5695   -6.7646    0.0000 C   0  0  0  0  0  0  0  0  0  0  0  0
   16.8040   -5.9125    0.0000 C   0  0  0  0  0  0  0  0  0  0  0  0
   18.2189   -6.4104    0.0000 O   0  0  0  0  0  0  0  0  0  0  0  0
   16.3750   -4.4752    0.0000 C   0  0  0  0  0  0  0  0  0  0  0  0
   14.8755   -4.4389    0.0000 C   0  0  0  0  0  0  0  0  0  0  0  0
   15.2344   -2.9825    0.0000 C   0  0  0  0  0  0  0  0  0  0  0  0
   15.4512   -1.4982    0.0000 C   0  0  0  0  0  0  0  0  0  0  0  0
  1  2  1  0
  2  3  1  0
  3  4  1  0
  4  5  1  0
  5  6  1  0
  6  7  1  0
  7  8  1  0
  8  9  1  0
  9 10  1  0
 10 11  1  0
 11 12  1  0
 12 13  1  0
 13 14  1  0
 14 15  1  0
 15 16  1  0
 16 17  1  0
 17 18  1  0
 18 19  1  0
 19 20  1  0
 20 21  1  0
 21 22  1  0
 22 23  1  0
 23 24  1  0
 24 25  1  0
 25 26  1  0
 26 27  1  0
 27 28  1  0
 28 29  1  0
 29 30  1  0
 30 31  1  0
 31 32  1  0
 32 33  1  0
 33 34  1  0
 34 35  1  0
 35 36  1  0
 36 37  1  0
 37 38  1  0
 38 39  1  0
 39 40  1  0
 40 41  1  0
 41 42  1  0
 42 43  1  0
 43 44  1  0
 44 45  1  0
 45 46  1  0
 46 47  1  0
 47 48  1  0
 48 49  1  0
 49 50  1  0
 50 51  1  0
 51 52  1  0
 52 53  1  0
 53 54  1  0
 54 55  1  0
 55 56  1  0
 56 57  1  0
 57 58  1  0
 58 59  1  0
 59 60  1  0
 60 61  1  0
 61 62  1  0
 62 63  1  0
 63 64  1  0
 64 65  1  0
 65 66  1  0
 65 67  1  0
 67 68  1  0
 68 69  1  0
 69 70  1  0
 70  2  1  0
 68 63  1  0
M  END
>  <Title>  (90) 
idAABNgen8

$$$$

     RDKit          2D

107107  0  0  0  0  0  0  0  0999 V2000
   26.8093    0.0000    0.0000 C   0  0  0  0  0  0  0  0  0  0  0  0
   25.3093    0.0000    0.0000 C   0  0  0  0  0  0  0  0  0  0  0  0
   25.2649   -1.4993    0.0000 C   0  0  0  0  0  0  0  0  0  0  0  0
   25.1317   -2.9934    0.0000 C   0  0  0  0  0  0  0  0  0  0  0  0
   24.9102   -4.4770    0.0000 C   0  0  0  0  0  0  0  0  0  0  0  0
   24.6013   -5.9448    0.0000 C   0  0  0  0  0  0  0  0  0  0  0  0
   24.2059   -7.3918    0.0000 C   0  0  0  0  0  0  0  0  0  0  0  0
   23.7255   -8.8128    0.0000 C   0  0  0  0  0  0  0  0  0  0  0  0
   23.1617  -10.2028    0.0000 C   0  0  0  0  0  0  0  0  0  0  0  0
   22.5166  -11.5570    0.0000 C   0  0  0  0  0  0  0  0  0  0  0  0
   21.7924  -12.8706    0.0000 C   0  0  0  0  0  0  0  0  0  0  0  0
   20.9917  -14.1390    0.0000 C   0  0  0  0  0  0  0  0  0  0  0  0
   20.1172  -15.3577    0.0000 C   0  0  0  0  0  0  0  0  0  0  0  0
   19.1721  -16.5225    0.0000 C   0  0  0  0  0  0  0  0  0  0  0  0
   18.1596  -17.6292    0.0000 C   0  0  0  0  0  0  0  0  0  0  0  0
   17.0834  -18.6741    0.0000 C   0  0  0  0  0  0  0  0  0  0  0  0
   15.9471  -19.6533    0.0000 C   0  0  0  0  0  0  0  0  0  0  0  0
   14.7548  -20.5635    0.0000 C   0  0  0  0  0  0  0  0  0  0  0  0
   13.5107  -21.4015    0.0000 C   0  0  0  0  0  0  0  0  0  0  0  0
   12.2192  -22.1643    0.0000 C   0  0  0  0  0  0  0  0  0  0  0  0
   10.8847  -22.8492    0.0000 C   0  0  0  0  0  0  0  0  0  0  0  0
    9.5119  -23.4539    0.0000 C   0  0  0  0  0  0  0  0  0  0  0  0
    8.1058  -23.9762    0.0000 C   0  0  0  0  0  0  0  0  0  0  0  0
    6.6712  -24.4143    0.0000 C   0  0  0  0  0  0  0  0  0  0  0  0
    5.2132  -24.7666    0.0000 C   0  0  0  0  0  0  0  0  0  0  0  0
    3.7368  -25.0320    0.0000 C   0  0  0  0  0  0  0  0  0  0  0  0
    2.2474  -25.2094    0.0000 C   0  0  0  0  0  0  0  0  0  0  0  0
    0.7500  -25.2982    0.0000 C   0  0  0  0  0  0  0  0  0  0  0  0
   -0.7500  -25.2982    0.0000 C   0  0  0  0  0  0  0  0  0  0  0  0
   -2.2474  -25.2094    0.0000 C   0  0  0  0  0  0  0  0  0  0  0  0
   -3.7368  -25.0320    0.0000 C   0  0  0  0  0  0  0  0  0  0  0  0
   -5.2132  -24.7666    0.0000 C   0  0  0  0  0  0  0  0  0  0  0  0
   -6.6712  -24.4143    0.0000 C   0  0  0  0  0  0  0  0  0  0  0  0
   -8.1058  -23.9762    0.0000 C   0  0  0  0  0  0  0  0  0  0  0  0
   -9.5119  -23.4539    0.0000 C   0  0  0  0  0  0  0  0  0  0  0  0
  -10.8847  -22.8492    0.0000 C   0  0  0  0  0  0  0  0  0  0  0  0
  -12.2192  -22.1643    0.0000 C   0  0  0  0  0  0  0  0  0  0  0  0
  -13.5107  -21.4015    0.0000 C   0  0  0  0  0  0  0  0  0  0  0  0
  -14.7548  -20.5635    0.0000 C   0  0  0  0  0  0  0  0  0  0  0  0
  -15.9471  -19.6533    0.0000 C   0  0  0  0  0  0  0  0  0  0  0  0
  -17.0834  -18.6741    0.0000 C   0  0  0  0  0  0  0  0  0  0  0  0
  -18.1596  -17.6292    0.0000 C   0  0  0  0  0  0  0  0  0  0  0  0
  -19.1721  -16.5225    0.0000 C   0  0  0  0  0  0  0  0  0  0  0  0
  -20.1172  -15.3577    0.0000 C   0  0  0  0  0  0  0  0  0  0  0  0
  -20.9917  -14.1390    0.0000 C   0  0  0  0  0  0  0  0  0  0  0  0
  -21.7924  -12.8706    0.0000 C   0  0  0  0  0  0  0  0  0  0  0  0
  -22.5166  -11.5570    0.0000 C   0  0  0  0  0  0  0  0  0  0  0  0
  -23.1617  -10.2028    0.0000 C   0  0  0  0  0  0  0  0  0  0  0  0
  -23.7255   -8.8128    0.0000 C   0  0  0  0  0  0  0  0  0  0  0  0
  -24.2059   -7.3918    0.0000 C   0  0  0  0  0  0  0  0  0  0  0  0
  -24.6013   -5.9448    0.0000 C   0  0  0  0  0  0  0  0  0  0  0  0
  -24.9102   -4.4770    0.0000 C   0  0  0  0  0  0  0  0  0  0  0  0
  -25.1317   -2.9934    0.0000 C   0  0  0  0  0  0  0  0  0  0  0  0
  -25.2649   -1.4993    0.0000 C   0  0  0  0  0  0  0  0  0  0  0  0
  -25.3093    0.0000    0.0000 C   0  0  0  0  0  0  0  0  0  0  0  0
  -25.2649    1.4993    0.0000 C   0  0  0  0  0  0  0  0  0  0  0  0
  -25.1317    2.9934    0.0000 C   0  0  0  0  0  0  0  0  0  0  0  0
  -24.9102    4.4770    0.0000 C   0  0  0  0  0  0  0  0  0  0  0  0
  -24.6013    5.9448    0.0000 C   0  0  0  0  0  0  0  0  0  0  0  0
  -24.2059    7.3918    0.0000 C   0  0  0  0  0  0  0  0  0  0  0  0
  -23.7255    8.8128    0.0000 C   0  0  0  0  0  0  0  0  0  0  0  0
  -23.1617   10.2028    0.0000 C   0  0  0  0  0  0  0  0  0  0  0  0
  -22.5166   11.5570    0.0000 C   0  0  0  0  0  0  0  0  0  0  0  0
  -21.7924   12.8706    0.0000 C   0  0  0  0  0  0  0  0  0  0  0  0
  -20.9917   14.1390    0.0000 C   0  0  0  0  0  0  0  0  0  0  0  0
  -20.1172   15.3577    0.0000 C   0  0  0  0  0  0  0  0  0  0  0  0
  -19.1721   16.5225    0.0000 C   0  0  0  0  0  0  0  0  0  0  0  0
  -18.1596   17.6292    0.0000 C   0  0  0  0  0  0  0  0  0  0  0  0
  -17.0834   18.6741    0.0000 C   0  0  0  0  0  0  0  0  0  0  0  0
  -15.9471   19.6533    0.0000 C   0  0  0  0  0  0  0  0  0  0  0  0
  -14.7548   20.5635    0.0000 C   0  0  0  0  0  0  0  0  0  0  0  0
  -13.5107   21.4015    0.0000 C   0  0  0  0  0  0  0  0  0  0  0  0
  -12.2192   22.1643    0.0000 C   0  0  0  0  0  0  0  0  0  0  0  0
  -10.8847   22.8492    0.0000 C   0  0  0  0  0  0  0  0  0  0  0  0
   -9.5119   23.4539    0.0000 C   0  0  0  0  0  0  0  0  0  0  0  0
   -8.1058   23.9762    0.0000 C   0  0  0  0  0  0  0  0  0  0  0  0
   -6.6712   24.4143    0.0000 C   0  0  0  0  0  0  0  0  0  0  0  0
   -5.2132   24.7666    0.0000 C   0  0  0  0  0  0  0  0  0  0  0  0
   -3.7368   25.0320    0.0000 C   0  0  0  0  0  0  0  0  0  0  0  0
   -2.2474   25.2094    0.0000 C   0  0  0  0  0  0  0  0  0  0  0  0
   -0.7500   25.2982    0.0000 C   0  0  0  0  0  0  0  0  0  0  0  0
    0.7500   25.2982    0.0000 C   0  0  0  0  0  0  0  0  0  0  0  0
    2.2474   25.2094    0.0000 C   0  0  0  0  0  0  0  0  0  0  0  0
    3.7368   25.0320    0.0000 C   0  0  0  0  0  0  0  0  0  0  0  0
    5.2132   24.7666    0.0000 C   0  0  0  0  0  0  0  0  0  0  0  0
    6.6712   24.4143    0.0000 C   0  0  0  0  0  0  0  0  0  0  0  0
    8.1058   23.9762    0.0000 C   0  0  0  0  0  0  0  0  0  0  0  0
    9.5119   23.4539    0.0000 C   0  0  0  0  0  0  0  0  0  0  0  0
   10.8847   22.8492    0.0000 C   0  0  0  0  0  0  0  0  0  0  0  0
   12.2192   22.1643    0.0000 C   0  0  0  0  0  0  0  0  0  0  0  0
   13.5107   21.4015    0.0000 C   0  0  0  0  0  0  0  0  0  0  0  0
   14.7548   20.5635    0.0000 C   0  0  0  0  0  0  0  0  0  0  0  0
   15.9471   19.6533    0.0000 C   0  0  0  0  0  0  0  0  0  0  0  0
   17.0834   18.6741    0.0000 C   0  0  0  0  0  0  0  0  0  0  0  0
   18.1596   17.6292    0.0000 C   0  0  0  0  0  0  0  0  0  0  0  0
   19.1721   16.5225    0.0000 C   0  0  0  0  0  0  0  0  0  0  0  0
   20.1172   15.3577    0.0000 C   0  0  0  0  0  0  0  0  0  0  0  0
   20.9917   14.1390    0.0000 C   0  0  0  0  0  0  0  0  0  0  0  0
   21.7924   12.8706    0.0000 C   0  0  0  0  0  0  0  0  0  0  0  0
   22.5166   11.5570    0.0000 C   0  0  0  0  0  0  0  0  0  0  0  0
   23.1617   10.2028    0.0000 C   0  0  0  0  0  0  0  0  0  0  0  0
   23.7255    8.8128    0.0000 C   0  0  0  0  0  0  0  0  0  0  0  0
   24.2059    7.3918    0.0000 C   0  0  0  0  0  0  0  0  0  0  0  0
   24.6013    5.9448    0.0000 C   0  0  0  0  0  0  0  0  0  0  0  0
   24.9102    4.4770    0.0000 C   0  0  0  0  0  0  0  0  0  0  0  0
   25.1317    2.9934    0.0000 C   0  0  0  0  0  0  0  0  0  0  0  0
   25.2649    1.4993    0.0000 C   0  0  0  0  0  0  0  0  0  0  0  0
  1  2  1  0
  2  3  1  0
  3  4  1  0
  4  5  1  0
  5  6  1  0
  6  7  1  0
  7  8  1  0
  8  9  1  0
  9 10  1  0
 10 11  1  0
 11 12  1  0
 12 13  1  0
 13 14  1  0
 14 15  1  0
 15 16  1  0
 16 17  1  0
 17 18  1  0
 18 19  1  0
 19 20  1  0
 20 21  1  0
 21 22  1  0
 22 23  1  0
 23 24  1  0
 24 25  1  0
 25 26  1  0
 26 27  1  0
 27 28  1  0
 28 29  1  0
 29 30  1  0
 30 31  1  0
 31 32  1  0
 32 33  1  0
 33 34  1  0
 34 35  1  0
 35 36  1  0
 36 37  1  0
 37 38  1  0
 38 39  1  0
 39 40  1  0
 40 41  1  0
 41 42  1  0
 42 43  1  0
 43 44  1  0
 44 45  1  0
 45 46  1  0
 46 47  1  0
 47 48  1  0
 48 49  1  0
 49 50  1  0
 50 51  1  0
 51 52  1  0
 52 53  1  0
 53 54  1  0
 54 55  1  0
 55 56  1  0
 56 57  1  0
 57 58  1  0
 58 59  1  0
 59 60  1  0
 60 61  1  0
 61 62  1  0
 62 63  1  0
 63 64  1  0
 64 65  1  0
 65 66  1  0
 66 67  1  0
 67 68  1  0
 68 69  1  0
 69 70  1  0
 70 71  1  0
 71 72  1  0
 72 73  1  0
 73 74  1  0
 74 75  1  0
 75 76  1  0
 76 77  1  0
 77 78  1  0
 78 79  1  0
 79 80  1  0
 80 81  1  0
 81 82  1  0
 82 83  1  0
 83 84  1  0
 84 85  1  0
 85 86  1  0
 86 87  1  0
 87 88  1  0
 88 89  1  0
 89 90  1  0
 90 91  1  0
 91 92  1  0
 92 93  1  0
 93 94  1  0
 94 95  1  0
 95 96  1  0
 96 97  1  0
 97 98  1  0
 98 99  1  0
 99100  1  0
100101  1  0
101102  1  0
102103  1  0
103104  1  0
104105  1  0
105106  1  0
106107  1  0
107  2  1  0
M  END
>  <Title>  (91) 
idAABOgen8

$$$$

     RDKit          2D

  9  9  0  0  0  0  0  0  0  0999 V2000
    5.2500   -1.2990    0.0000 C   0  0  0  0  0  0  0  0  0  0  0  0
    3.7500   -1.2990    0.0000 C   0  0  0  0  0  0  0  0  0  0  0  0
    3.0000    0.0000    0.0000 C   0  0  0  0  0  0  0  0  0  0  0  0
    1.5000    0.0000    0.0000 C   0  0  0  0  0  0  0  0  0  0  0  0
    0.7500   -1.2990    0.0000 C   0  0  0  0  0  0  0  0  0  0  0  0
   -0.7500   -1.2990    0.0000 C   0  0  0  0  0  0  0  0  0  0  0  0
   -1.5000    0.0000    0.0000 C   0  0  0  0  0  0  0  0  0  0  0  0
   -0.7500    1.2990    0.0000 C   0  0  0  0  0  0  0  0  0  0  0  0
    0.7500    1.2990    0.0000 C   0  0  0  0  0  0  0  0  0  0  0  0
  1  2  1  0
  2  3  1  0
  3  4  1  0
  4  5  1  0
  5  6  2  0
  6  7  1  0
  7  8  2  0
  8  9  1  0
  9  4  1  0
M  END
>  <Title>  (92) 
idAABPgen8

$$$$

     RDKit          2D

  6  6  0  0  0  0  0  0  0  0999 V2000
    1.5000    0.0000    0.0000 C   0  0  0  0  0  0  0  0  0  0  0  0
    0.7500   -1.2990    0.0000 C   0  0  0  0  0  0  0  0  0  0  0  0
   -0.7500   -1.2990    0.0000 C   0  0  0  0  0  0  0  0  0  0  0  0
   -1.5000    0.0000    0.0000 C   0  0  0  0  0  0  0  0  0  0  0  0
   -0.7500    1.2990    0.0000 C   0  0  0  0  0  0  0  0  0  0  0  0
    0.7500    1.2990    0.0000 C   0  0  0  0  0  0  0  0  0  0  0  0
  1  2  2  0
  2  3  1  0
  3  4  1  0
  4  5  2  0
  5  6  1  0
  6  1  1  0
M  END
>  <Title>  (93) 
idAABQgen8

$$$$

     RDKit          2D

 51 58  0  0  0  0  0  0  0  0999 V2000
    4.9965   -7.7991    0.0000 C   0  0  0  0  0  0  0  0  0  0  0  0
    3.6537   -7.1305    0.0000 C   0  0  0  0  0  0  0  0  0  0  0  0
    4.0642   -5.6878    0.0000 C   0  0  0  0  0  0  0  0  0  0  0  0
    3.9258   -4.1942    0.0000 C   0  0  0  0  0  0  0  0  0  0  0  0
    3.2572   -2.8514    0.0000 C   0  0  0  0  0  0  0  0  0  0  0  0
    2.1487   -1.8409    0.0000 C   0  0  0  0  0  0  0  0  0  0  0  0
    2.9384   -0.5656    0.0000 C   0  0  0  0  0  0  0  0  0  0  0  0
    2.2287    0.7559    0.0000 O   0  0  0  0  0  0  0  0  0  0  0  0
    4.4376   -0.6118    0.0000 N   0  0  0  0  0  0  0  0  0  0  0  0
    5.2273    0.6636    0.0000 C   0  0  0  0  0  0  0  0  0  0  0  0
    6.7266    0.6174    0.0000 N   0  0  0  0  0  0  0  0  0  0  0  0
    7.5162    1.8927    0.0000 N   0  0  0  0  0  0  0  0  0  0  0  0
    6.8066    3.2142    0.0000 N   0  0  0  0  0  0  0  0  0  0  0  0
    5.3073    3.2604    0.0000 N   0  0  0  0  0  0  0  0  0  0  0  0
    4.5177    1.9851    0.0000 N   0  0  0  0  0  0  0  0  0  0  0  0
    0.7500   -1.2990    0.0000 C   0  0  0  0  0  0  0  0  0  0  0  0
    1.5000    0.0000    0.0000 C   0  0  0  0  0  0  0  0  0  0  0  0
    0.7500    1.2990    0.0000 C   0  0  0  0  0  0  0  0  0  0  0  0
   -0.7500    1.2990    0.0000 C   0  0  0  0  0  0  0  0  0  0  0  0
   -1.5000    0.0000    0.0000 C   0  0  0  0  0  0  0  0  0  0  0  0
   -0.7500   -1.2990    0.0000 C   0  0  0  0  0  0  0  0  0  0  0  0
   -2.1487   -1.8409    0.0000 C   0  0  0  0  0  0  0  0  0  0  0  0
   -2.4696   -0.3756    0.0000 C   0  0  0  0  0  0  0  0  0  0  0  0
   -3.8990    0.0791    0.0000 C   0  0  0  0  0  0  0  0  0  0  0  0
   -5.0075   -0.9314    0.0000 C   0  0  0  0  0  0  0  0  0  0  0  0
   -4.6866   -2.3967    0.0000 C   0  0  0  0  0  0  0  0  0  0  0  0
   -3.2572   -2.8514    0.0000 C   0  0  0  0  0  0  0  0  0  0  0  0
   -3.9258   -4.1942    0.0000 C   0  0  0  0  0  0  0  0  0  0  0  0
   -5.1501   -3.3275    0.0000 C   0  0  0  0  0  0  0  0  0  0  0  0
   -6.5128   -3.9545    0.0000 C   0  0  0  0  0  0  0  0  0  0  0  0
   -6.6512   -5.4481    0.0000 C   0  0  0  0  0  0  0  0  0  0  0  0
   -5.4269   -6.3147    0.0000 C   0  0  0  0  0  0  0  0  0  0  0  0
   -4.0642   -5.6878    0.0000 C   0  0  0  0  0  0  0  0  0  0  0  0
   -3.6537   -7.1305    0.0000 C   0  0  0  0  0  0  0  0  0  0  0  0
   -5.1424   -7.3149    0.0000 C   0  0  0  0  0  0  0  0  0  0  0  0
   -5.7270   -8.6962    0.0000 C   0  0  0  0  0  0  0  0  0  0  0  0
   -4.8231   -9.8932    0.0000 C   0  0  0  0  0  0  0  0  0  0  0  0
   -3.3345   -9.7089    0.0000 C   0  0  0  0  0  0  0  0  0  0  0  0
   -2.7498   -8.3276    0.0000 C   0  0  0  0  0  0  0  0  0  0  0  0
   -1.4745   -9.1172    0.0000 C   0  0  0  0  0  0  0  0  0  0  0  0
   -2.4504  -10.2563    0.0000 C   0  0  0  0  0  0  0  0  0  0  0  0
   -1.9519  -11.6710    0.0000 C   0  0  0  0  0  0  0  0  0  0  0  0
   -0.4774  -11.9467    0.0000 C   0  0  0  0  0  0  0  0  0  0  0  0
    0.4985  -10.8076    0.0000 C   0  0  0  0  0  0  0  0  0  0  0  0
   -0.0000   -9.3928    0.0000 C   0  0  0  0  0  0  0  0  0  0  0  0
    1.4745   -9.1172    0.0000 C   0  0  0  0  0  0  0  0  0  0  0  0
    1.5207  -10.6165    0.0000 C   0  0  0  0  0  0  0  0  0  0  0  0
    2.8422  -11.3261    0.0000 C   0  0  0  0  0  0  0  0  0  0  0  0
    4.1175  -10.5365    0.0000 C   0  0  0  0  0  0  0  0  0  0  0  0
    4.0713   -9.0372    0.0000 C   0  0  0  0  0  0  0  0  0  0  0  0
    2.7498   -8.3276    0.0000 C   0  0  0  0  0  0  0  0  0  0  0  0
  1  2  1  0
  2  3  2  0
  3  4  1  0
  4  5  1  0
  5  6  1  0
  6  7  1  0
  7  8  2  0
  7  9  1  0
  9 10  1  0
 10 11  2  0
 11 12  1  0
 12 13  2  0
 13 14  1  0
 14 15  2  0
  6 16  1  0
 16 17  2  0
 17 18  1  0
 18 19  2  0
 19 20  1  0
 20 21  2  0
 21 22  1  0
 22 23  2  0
 23 24  1  0
 24 25  2  0
 25 26  1  0
 26 27  2  0
 27 28  1  0
 28 29  2  0
 29 30  1  0
 30 31  2  0
 31 32  1  0
 32 33  2  0
 33 34  1  0
 34 35  2  0
 35 36  1  0
 36 37  2  0
 37 38  1  0
 38 39  2  0
 39 40  1  0
 40 41  2  0
 41 42  1  0
 42 43  2  0
 43 44  1  0
 44 45  2  0
 45 46  1  0
 46 47  2  0
 47 48  1  0
 48 49  2  0
 49 50  1  0
 50 51  2  0
 51  2  1  0
 15 10  1  0
 21 16  1  0
 27 22  1  0
 33 28  1  0
 39 34  1  0
 45 40  1  0
 51 46  1  0
M  END
>  <Title>  (94) 
idAABRgen8

$$$$

     RDKit          2D

 34 38  0  0  0  0  0  0  0  0999 V2000
   -3.1771   -5.9156    0.0000 C   0  0  0  0  0  0  0  0  0  0  0  0
   -1.9635   -5.0339    0.0000 C   0  0  0  0  0  0  0  0  0  0  0  0
   -0.7500   -5.9156    0.0000 C   0  0  0  0  0  0  0  0  0  0  0  0
    0.7500   -5.9156    0.0000 C   0  0  0  0  0  0  0  0  0  0  0  0
    1.9635   -5.0339    0.0000 C   0  0  0  0  0  0  0  0  0  0  0  0
    3.1771   -5.9156    0.0000 C   0  0  0  0  0  0  0  0  0  0  0  0
    4.5474   -5.3055    0.0000 O   0  0  0  0  0  0  0  0  0  0  0  0
    3.0203   -7.4073    0.0000 N   0  0  0  0  0  0  0  0  0  0  0  0
    4.2338   -8.2890    0.0000 C   0  0  0  0  0  0  0  0  0  0  0  0
    4.0770   -9.7808    0.0000 N   0  0  0  0  0  0  0  0  0  0  0  0
    5.2905  -10.6625    0.0000 N   0  0  0  0  0  0  0  0  0  0  0  0
    6.6608  -10.0524    0.0000 N   0  0  0  0  0  0  0  0  0  0  0  0
    6.8176   -8.5606    0.0000 N   0  0  0  0  0  0  0  0  0  0  0  0
    5.6041   -7.6789    0.0000 N   0  0  0  0  0  0  0  0  0  0  0  0
    2.4271   -3.6073    0.0000 C   0  0  0  0  0  0  0  0  0  0  0  0
    3.8943   -3.9192    0.0000 C   0  0  0  0  0  0  0  0  0  0  0  0
    4.8980   -2.8045    0.0000 C   0  0  0  0  0  0  0  0  0  0  0  0
    4.4344   -1.3779    0.0000 C   0  0  0  0  0  0  0  0  0  0  0  0
    5.4381   -0.2631    0.0000 C   0  0  0  0  0  0  0  0  0  0  0  0
    6.4418    0.8516    0.0000 N   0  0  0  0  0  0  0  0  0  0  0  0
    2.9672   -1.0660    0.0000 C   0  0  0  0  0  0  0  0  0  0  0  0
    1.9635   -2.1807    0.0000 C   0  0  0  0  0  0  0  0  0  0  0  0
    0.7500   -1.2990    0.0000 C   0  0  0  0  0  0  0  0  0  0  0  0
    1.5000    0.0000    0.0000 C   0  0  0  0  0  0  0  0  0  0  0  0
    0.7500    1.2990    0.0000 C   0  0  0  0  0  0  0  0  0  0  0  0
   -0.7500    1.2990    0.0000 C   0  0  0  0  0  0  0  0  0  0  0  0
   -1.5000    0.0000    0.0000 C   0  0  0  0  0  0  0  0  0  0  0  0
   -0.7500   -1.2990    0.0000 C   0  0  0  0  0  0  0  0  0  0  0  0
   -1.9635   -2.1807    0.0000 C   0  0  0  0  0  0  0  0  0  0  0  0
   -2.9672   -1.0660    0.0000 C   0  0  0  0  0  0  0  0  0  0  0  0
   -4.4344   -1.3779    0.0000 C   0  0  0  0  0  0  0  0  0  0  0  0
   -4.8980   -2.8045    0.0000 C   0  0  0  0  0  0  0  0  0  0  0  0
   -3.8943   -3.9192    0.0000 C   0  0  0  0  0  0  0  0  0  0  0  0
   -2.4271   -3.6073    0.0000 C   0  0  0  0  0  0  0  0  0  0  0  0
  1  2  1  0
  2  3  1  0
  3  4  1  0
  4  5  1  0
  5  6  1  0
  6  7  2  0
  6  8  1  0
  8  9  1  0
  9 10  2  0
 10 11  1  0
 11 12  2  0
 12 13  1  0
 13 14  2  0
  5 15  1  0
 15 16  2  0
 16 17  1  0
 17 18  2  0
 18 19  1  0
 19 20  3  0
 18 21  1  0
 21 22  2  0
 22 23  1  0
 23 24  2  0
 24 25  1  0
 25 26  2  0
 26 27  1  0
 27 28  2  0
 28 29  1  0
 29 30  2  0
 30 31  1  0
 31 32  2  0
 32 33  1  0
 33 34  2  0
 34  2  1  0
 14  9  1  0
 22 15  1  0
 28 23  1  0
 34 29  1  0
M  END
>  <Title>  (95) 
idAABSgen8

$$$$

     RDKit          2D

 23 25  0  0  0  0  0  0  0  0999 V2000
    3.0000    0.0000    0.0000 C   0  0  0  0  0  0  0  0  0  0  0  0
    1.5000    0.0000    0.0000 C   0  0  0  0  0  0  0  0  0  0  0  0
    0.7500   -1.2990    0.0000 C   0  0  0  0  0  0  0  0  0  0  0  0
   -0.7500   -1.2990    0.0000 C   0  0  0  0  0  0  0  0  0  0  0  0
   -1.5000    0.0000    0.0000 C   0  0  0  0  0  0  0  0  0  0  0  0
   -3.0000    0.0000    0.0000 C   0  0  0  0  0  0  0  0  0  0  0  0
   -3.7500   -1.2990    0.0000 O   0  0  0  0  0  0  0  0  0  0  0  0
   -3.7500    1.2990    0.0000 N   0  0  0  0  0  0  0  0  0  0  0  0
   -5.2500    1.2990    0.0000 C   0  0  0  0  0  0  0  0  0  0  0  0
   -6.1317    0.0855    0.0000 N   0  0  0  0  0  0  0  0  0  0  0  0
   -7.5583    0.5490    0.0000 N   0  0  0  0  0  0  0  0  0  0  0  0
   -7.5583    2.0490    0.0000 N   0  0  0  0  0  0  0  0  0  0  0  0
   -6.1317    2.5126    0.0000 N   0  0  0  0  0  0  0  0  0  0  0  0
   -5.6682    3.9391    0.0000 N   0  0  0  0  0  0  0  0  0  0  0  0
   -6.5498    5.1527    0.0000 C   0  0  0  0  0  0  0  0  0  0  0  0
   -5.6682    6.3662    0.0000 C   0  0  0  0  0  0  0  0  0  0  0  0
   -6.1317    7.7928    0.0000 C   0  0  0  0  0  0  0  0  0  0  0  0
   -5.1280    8.9075    0.0000 O   0  0  0  0  0  0  0  0  0  0  0  0
   -4.2416    5.9027    0.0000 C   0  0  0  0  0  0  0  0  0  0  0  0
   -3.0280    6.7844    0.0000 O   0  0  0  0  0  0  0  0  0  0  0  0
   -4.2416    4.4027    0.0000 N   0  0  0  0  0  0  0  0  0  0  0  0
   -0.7500    1.2990    0.0000 C   0  0  0  0  0  0  0  0  0  0  0  0
    0.7500    1.2990    0.0000 C   0  0  0  0  0  0  0  0  0  0  0  0
  1  2  1  0
  2  3  1  0
  3  4  2  0
  4  5  1  0
  5  6  1  0
  6  7  2  0
  6  8  1  0
  8  9  1  0
  9 10  2  0
 10 11  1  0
 11 12  2  0
 12 13  1  0
 13 14  1  0
 14 15  1  0
 15 16  1  0
 16 17  1  0
 17 18  1  0
 16 19  1  0
 19 20  2  0
 19 21  1  0
  5 22  1  0
 22 23  1  0
 23  2  1  0
 13  9  1  0
 21 14  1  0
M  END
>  <Title>  (96) 
idAABTgen8

$$$$

     RDKit          2D

 12 12  0  0  0  0  0  0  0  0999 V2000
    3.4598   -0.0000    0.0000 C   0  0  0  0  0  0  0  0  0  0  0  0
    1.9598    0.0000    0.0000 C   0  0  0  0  0  0  0  0  0  0  0  0
    1.3858   -1.3858    0.0000 C   0  0  0  0  0  0  0  0  0  0  0  0
   -0.0000   -1.9598    0.0000 C   0  0  0  0  0  0  0  0  0  0  0  0
   -0.0000   -3.4598    0.0000 O   0  0  0  0  0  0  0  0  0  0  0  0
   -1.3858   -1.3858    0.0000 C   0  0  0  0  0  0  0  0  0  0  0  0
   -1.9598    0.0000    0.0000 C   0  0  0  0  0  0  0  0  0  0  0  0
   -3.4598    0.0000    0.0000 O   0  0  0  0  0  0  0  0  0  0  0  0
   -1.3858    1.3858    0.0000 C   0  0  0  0  0  0  0  0  0  0  0  0
   -2.4465    2.4465    0.0000 O   0  0  0  0  0  0  0  0  0  0  0  0
    0.0000    1.9598    0.0000 C   0  0  0  0  0  0  0  0  0  0  0  0
    1.3858    1.3858    0.0000 C   0  0  0  0  0  0  0  0  0  0  0  0
  1  2  1  0
  2  3  2  0
  3  4  1  0
  4  5  1  0
  4  6  1  0
  6  7  1  0
  7  8  1  0
  7  9  1  0
  9 10  1  0
  9 11  1  0
 11 12  1  0
 12  2  1  0
M  END
>  <Title>  (97) 
idAABUgen8

$$$$

     RDKit          2D

 72 79  0  0  0  0  0  0  0  0999 V2000
   -5.2387    3.0955    0.0000 C   0  0  0  0  0  0  0  0  0  0  0  0
   -4.1265    4.1020    0.0000 C   0  0  0  0  0  0  0  0  0  0  0  0
   -5.0322    5.2977    0.0000 C   0  0  0  0  0  0  0  0  0  0  0  0
   -5.7165    6.6325    0.0000 C   0  0  0  0  0  0  0  0  0  0  0  0
   -6.1586    8.0658    0.0000 C   0  0  0  0  0  0  0  0  0  0  0  0
   -6.3451    9.5542    0.0000 C   0  0  0  0  0  0  0  0  0  0  0  0
   -6.2704   11.0523    0.0000 C   0  0  0  0  0  0  0  0  0  0  0  0
   -5.9366   12.5147    0.0000 C   0  0  0  0  0  0  0  0  0  0  0  0
   -5.3539   13.8969    0.0000 C   0  0  0  0  0  0  0  0  0  0  0  0
   -4.5401   15.1570    0.0000 C   0  0  0  0  0  0  0  0  0  0  0  0
   -3.5199   16.2565    0.0000 C   0  0  0  0  0  0  0  0  0  0  0  0
   -2.3242   17.1623    0.0000 C   0  0  0  0  0  0  0  0  0  0  0  0
   -0.9894   17.8466    0.0000 C   0  0  0  0  0  0  0  0  0  0  0  0
    0.4440   18.2887    0.0000 C   0  0  0  0  0  0  0  0  0  0  0  0
    1.9324   18.4752    0.0000 C   0  0  0  0  0  0  0  0  0  0  0  0
    3.4305   18.4005    0.0000 C   0  0  0  0  0  0  0  0  0  0  0  0
    4.8929   18.0667    0.0000 C   0  0  0  0  0  0  0  0  0  0  0  0
    6.2751   17.4840    0.0000 C   0  0  0  0  0  0  0  0  0  0  0  0
    7.5351   16.6702    0.0000 C   0  0  0  0  0  0  0  0  0  0  0  0
    8.6347   15.6499    0.0000 C   0  0  0  0  0  0  0  0  0  0  0  0
    9.5404   14.4542    0.0000 C   0  0  0  0  0  0  0  0  0  0  0  0
   10.2247   13.1194    0.0000 C   0  0  0  0  0  0  0  0  0  0  0  0
   10.6669   11.6861    0.0000 C   0  0  0  0  0  0  0  0  0  0  0  0
   10.8534   10.1977    0.0000 C   0  0  0  0  0  0  0  0  0  0  0  0
   10.7786    8.6996    0.0000 C   0  0  0  0  0  0  0  0  0  0  0  0
   12.2645    8.4945    0.0000 C   0  0  0  0  0  0  0  0  0  0  0  0
   13.1851    9.6788    0.0000 C   0  0  0  0  0  0  0  0  0  0  0  0
   12.8299    7.1052    0.0000 N   0  0  0  0  0  0  0  0  0  0  0  0
   14.3158    6.9001    0.0000 C   0  0  0  0  0  0  0  0  0  0  0  0
   14.8812    5.5107    0.0000 C   0  0  0  0  0  0  0  0  0  0  0  0
   13.9607    4.3264    0.0000 N   0  0  0  0  0  0  0  0  0  0  0  0
   14.5260    2.9370    0.0000 N   0  0  0  0  0  0  0  0  0  0  0  0
   16.0120    2.7320    0.0000 N   0  0  0  0  0  0  0  0  0  0  0  0
   16.9325    3.9163    0.0000 N   0  0  0  0  0  0  0  0  0  0  0  0
   16.3671    5.3057    0.0000 N   0  0  0  0  0  0  0  0  0  0  0  0
   10.4448    7.2372    0.0000 C   0  0  0  0  0  0  0  0  0  0  0  0
   11.9332    7.4237    0.0000 C   0  0  0  0  0  0  0  0  0  0  0  0
   12.8389    6.2280    0.0000 C   0  0  0  0  0  0  0  0  0  0  0  0
   12.2563    4.8458    0.0000 C   0  0  0  0  0  0  0  0  0  0  0  0
   10.7679    4.6593    0.0000 C   0  0  0  0  0  0  0  0  0  0  0  0
    9.8622    5.8550    0.0000 C   0  0  0  0  0  0  0  0  0  0  0  0
    9.0484    4.5949    0.0000 C   0  0  0  0  0  0  0  0  0  0  0  0
   10.0346    3.7480    0.0000 C   0  0  0  0  0  0  0  0  0  0  0  0
   10.2704    2.9836    0.0000 C   0  0  0  0  0  0  0  0  0  0  0  0
    9.7263    2.3971    0.0000 C   0  0  0  0  0  0  0  0  0  0  0  0
    8.9464    2.5751    0.0000 C   0  0  0  0  0  0  0  0  0  0  0  0
    8.0281    3.4954    0.0000 C   0  0  0  0  0  0  0  0  0  0  0  0
    6.8324    2.5896    0.0000 C   0  0  0  0  0  0  0  0  0  0  0  0
    8.0924    1.7758    0.0000 C   0  0  0  0  0  0  0  0  0  0  0  0
    8.0177    0.2777    0.0000 C   0  0  0  0  0  0  0  0  0  0  0  0
    6.6829   -0.4066    0.0000 C   0  0  0  0  0  0  0  0  0  0  0  0
    5.4228    0.4072    0.0000 C   0  0  0  0  0  0  0  0  0  0  0  0
    5.4976    1.9053    0.0000 C   0  0  0  0  0  0  0  0  0  0  0  0
    4.0642    1.4632    0.0000 C   0  0  0  0  0  0  0  0  0  0  0  0
    4.6469    2.8454    0.0000 C   0  0  0  0  0  0  0  0  0  0  0  0
    3.7412    4.0411    0.0000 C   0  0  0  0  0  0  0  0  0  0  0  0
    2.2528    3.8546    0.0000 C   0  0  0  0  0  0  0  0  0  0  0  0
    1.6702    2.4724    0.0000 C   0  0  0  0  0  0  0  0  0  0  0  0
    2.5759    1.2767    0.0000 C   0  0  0  0  0  0  0  0  0  0  0  0
    1.0777    1.3515    0.0000 C   0  0  0  0  0  0  0  0  0  0  0  0
    1.7286    0.0000    0.0000 C   0  0  0  0  0  0  0  0  0  0  0  0
    1.0777   -1.3515    0.0000 C   0  0  0  0  0  0  0  0  0  0  0  0
   -0.3846   -1.6852    0.0000 C   0  0  0  0  0  0  0  0  0  0  0  0
   -1.5574   -0.7500    0.0000 C   0  0  0  0  0  0  0  0  0  0  0  0
   -1.5574    0.7500    0.0000 C   0  0  0  0  0  0  0  0  0  0  0  0
   -0.3846    1.6852    0.0000 C   0  0  0  0  0  0  0  0  0  0  0  0
   -1.7669    2.2679    0.0000 C   0  0  0  0  0  0  0  0  0  0  0  0
   -2.4296    1.1495    0.0000 C   0  0  0  0  0  0  0  0  0  0  0  0
   -3.1415    0.7846    0.0000 C   0  0  0  0  0  0  0  0  0  0  0  0
   -3.8136    1.2186    0.0000 C   0  0  0  0  0  0  0  0  0  0  0  0
   -3.7737    2.0176    0.0000 C   0  0  0  0  0  0  0  0  0  0  0  0
   -3.0269    3.0817    0.0000 C   0  0  0  0  0  0  0  0  0  0  0  0
  1  2  1  0
  2  3  1  0
  3  4  1  0
  4  5  1  0
  5  6  1  0
  6  7  1  0
  7  8  1  0
  8  9  1  0
  9 10  1  0
 10 11  1  0
 11 12  1  0
 12 13  1  0
 13 14  1  0
 14 15  1  0
 15 16  1  0
 16 17  1  0
 17 18  1  0
 18 19  1  0
 19 20  1  0
 20 21  1  0
 21 22  1  0
 22 23  1  0
 23 24  1  0
 24 25  1  0
 25 26  1  0
 26 27  1  0
 26 28  1  0
 28 29  1  0
 29 30  1  0
 30 31  2  0
 31 32  1  0
 32 33  2  0
 33 34  1  0
 34 35  2  0
 25 36  1  0
 36 37  2  0
 37 38  1  0
 38 39  2  0
 39 40  1  0
 40 41  2  0
 41 42  1  0
 42 43  2  0
 43 44  1  0
 44 45  2  0
 45 46  1  0
 46 47  2  0
 47 48  1  0
 48 49  2  0
 49 50  1  0
 50 51  2  0
 51 52  1  0
 52 53  2  0
 53 54  1  0
 54 55  2  0
 55 56  1  0
 56 57  2  0
 57 58  1  0
 58 59  2  0
 59 60  1  0
 60 61  2  0
 61 62  1  0
 62 63  1  0
 63 64  1  0
 64 65  1  0
 65 66  2  0
 66 67  1  0
 67 68  2  0
 68 69  1  0
 69 70  2  0
 70 71  1  0
 71 72  2  0
 72  2  1  0
 35 30  1  0
 41 36  1  0
 47 42  1  0
 53 48  1  0
 59 54  1  0
 66 60  1  0
 72 67  1  0
M  END
>  <Title>  (98) 
idAABVgen8

$$$$

     RDKit          2D

  7  6  0  0  0  0  0  0  0  0999 V2000
    0.0000    0.0000    0.0000 C   0  0  0  0  0  0  0  0  0  0  0  0
    1.2990    0.7500    0.0000 C   0  0  0  0  0  0  0  0  0  0  0  0
    2.5981   -0.0000    0.0000 C   0  0  0  0  0  0  0  0  0  0  0  0
    3.8971    0.7500    0.0000 C   0  0  0  0  0  0  0  0  0  0  0  0
    3.8971    2.2500    0.0000 O   0  0  0  0  0  0  0  0  0  0  0  0
    5.1962   -0.0000    0.0000 N   0  0  0  0  0  0  0  0  0  0  0  0
    6.4952    0.7500    0.0000 C   0  0  0  0  0  0  0  0  0  0  0  0
  1  2  1  0
  2  3  2  3
  3  4  1  0
  4  5  2  0
  4  6  1  0
  6  7  1  0
M  END
>  <Title>  (99) 
idAABWgen8

$$$$

     RDKit          2D

 10 10  0  0  0  0  0  0  0  0999 V2000
    3.0000    0.0000    0.0000 C   0  0  0  0  0  0  0  0  0  0  0  0
    1.5000    0.0000    0.0000 C   0  0  0  0  0  0  0  0  0  0  0  0
    0.7500   -1.2990    0.0000 C   0  0  0  0  0  0  0  0  0  0  0  0
   -0.7500   -1.2990    0.0000 C   0  0  0  0  0  0  0  0  0  0  0  0
   -1.5000   -2.5981    0.0000 O   0  0  0  0  0  0  0  0  0  0  0  0
   -1.5000    0.0000    0.0000 C   0  0  0  0  0  0  0  0  0  0  0  0
   -3.0000    0.0000    0.0000 C   0  0  0  0  0  0  0  0  0  0  0  0
   -4.5000    0.0000    0.0000 N   0  0  0  0  0  0  0  0  0  0  0  0
   -0.7500    1.2990    0.0000 C   0  0  0  0  0  0  0  0  0  0  0  0
    0.7500    1.2990    0.0000 C   0  0  0  0  0  0  0  0  0  0  0  0
  1  2  1  0
  2  3  2  0
  3  4  1  0
  4  5  1  0
  4  6  2  0
  6  7  1  0
  7  8  3  0
  6  9  1  0
  9 10  1  0
 10  2  1  0
M  END
>  <Title>  (100) 
idAABXgen8

$$$$

     RDKit          2D

 26 28  0  0  0  0  0  0  0  0999 V2000
    3.0000    0.0000    0.0000 C   0  0  0  0  0  0  0  0  0  0  0  0
    1.5000    0.0000    0.0000 C   0  0  0  0  0  0  0  0  0  0  0  0
    0.7500   -1.2990    0.0000 C   0  0  0  0  0  0  0  0  0  0  0  0
   -0.7500   -1.2990    0.0000 C   0  0  0  0  0  0  0  0  0  0  0  0
   -1.5000    0.0000    0.0000 C   0  0  0  0  0  0  0  0  0  0  0  0
   -3.0000    0.0000    0.0000 C   0  0  0  0  0  0  0  0  0  0  0  0
   -0.7500    1.2990    0.0000 C   0  0  0  0  0  0  0  0  0  0  0  0
   -1.5000    2.5981    0.0000 N   0  0  0  0  0  0  0  0  0  0  0  0
   -0.7500    3.8971    0.0000 N   0  0  0  0  0  0  0  0  0  0  0  0
   -1.5000    5.1962    0.0000 C   0  0  0  0  0  0  0  0  0  0  0  0
   -2.9918    5.3529    0.0000 N   0  0  0  0  0  0  0  0  0  0  0  0
   -3.3037    6.8202    0.0000 N   0  0  0  0  0  0  0  0  0  0  0  0
   -2.0046    7.5702    0.0000 C   0  0  0  0  0  0  0  0  0  0  0  0
   -0.8899    6.5665    0.0000 N   0  0  0  0  0  0  0  0  0  0  0  0
    0.5773    6.8783    0.0000 C   0  0  0  0  0  0  0  0  0  0  0  0
    1.5810    5.7636    0.0000 O   0  0  0  0  0  0  0  0  0  0  0  0
    1.0409    8.3049    0.0000 N   0  0  0  0  0  0  0  0  0  0  0  0
    0.1592    9.5184    0.0000 C   0  0  0  0  0  0  0  0  0  0  0  0
    1.0409   10.7320    0.0000 C   0  0  0  0  0  0  0  0  0  0  0  0
    2.4674   10.2684    0.0000 C   0  0  0  0  0  0  0  0  0  0  0  0
    3.6810   11.1501    0.0000 C   0  0  0  0  0  0  0  0  0  0  0  0
    3.5242   12.6419    0.0000 O   0  0  0  0  0  0  0  0  0  0  0  0
    5.0513   10.5400    0.0000 O   0  0  0  0  0  0  0  0  0  0  0  0
    2.4674    8.7684    0.0000 C   0  0  0  0  0  0  0  0  0  0  0  0
    3.6810    7.8868    0.0000 O   0  0  0  0  0  0  0  0  0  0  0  0
    0.7500    1.2990    0.0000 N   0  0  0  0  0  0  0  0  0  0  0  0
  1  2  1  0
  2  3  1  0
  3  4  2  0
  4  5  1  0
  5  6  1  0
  5  7  1  0
  7  8  2  3
  8  9  1  0
  9 10  1  0
 10 11  2  0
 11 12  1  0
 12 13  2  0
 13 14  1  0
 14 15  1  0
 15 16  2  0
 15 17  1  0
 17 18  1  0
 18 19  1  0
 19 20  1  0
 20 21  1  0
 21 22  2  0
 21 23  1  0
 20 24  1  0
 24 25  2  0
  7 26  1  0
 26  2  1  0
 14 10  1  0
 24 17  1  0
M  END
>  <Title>  (101) 
idAABYgen8

$$$$

     RDKit          2D

 10 10  0  0  0  0  0  0  0  0999 V2000
    5.2500   -1.2990    0.0000 C   0  0  0  0  0  0  0  0  0  0  0  0
    3.7500   -1.2990    0.0000 C   0  0  0  0  0  0  0  0  0  0  0  0
    3.0000    0.0000    0.0000 C   0  0  0  0  0  0  0  0  0  0  0  0
    1.5000    0.0000    0.0000 C   0  0  0  0  0  0  0  0  0  0  0  0
    0.7500   -1.2990    0.0000 C   0  0  0  0  0  0  0  0  0  0  0  0
   -0.7500   -1.2990    0.0000 C   0  0  0  0  0  0  0  0  0  0  0  0
   -1.5000   -2.5981    0.0000 O   0  0  0  0  0  0  0  0  0  0  0  0
   -1.5000    0.0000    0.0000 O   0  0  0  0  0  0  0  0  0  0  0  0
   -0.7500    1.2990    0.0000 C   0  0  0  0  0  0  0  0  0  0  0  0
    0.7500    1.2990    0.0000 C   0  0  0  0  0  0  0  0  0  0  0  0
  1  2  1  0
  2  3  1  0
  3  4  1  0
  4  5  2  0
  5  6  1  0
  6  7  1  0
  6  8  1  0
  8  9  1  0
  9 10  1  0
 10  4  1  0
M  END
>  <Title>  (102) 
idAABZgen8

$$$$

     RDKit          2D

 26 29  0  0  0  0  0  0  0  0999 V2000
   -1.3240   -6.3062    0.0000 C   0  0  0  0  0  0  0  0  0  0  0  0
   -0.7500   -4.9204    0.0000 C   0  0  0  0  0  0  0  0  0  0  0  0
    0.7500   -4.9204    0.0000 C   0  0  0  0  0  0  0  0  0  0  0  0
    1.8107   -3.8597    0.0000 C   0  0  0  0  0  0  0  0  0  0  0  0
    1.8107   -2.3597    0.0000 C   0  0  0  0  0  0  0  0  0  0  0  0
    3.1965   -1.7857    0.0000 C   0  0  0  0  0  0  0  0  0  0  0  0
    3.3923   -0.2985    0.0000 O   0  0  0  0  0  0  0  0  0  0  0  0
    4.3865   -2.6988    0.0000 N   0  0  0  0  0  0  0  0  0  0  0  0
    5.7723   -2.1248    0.0000 C   0  0  0  0  0  0  0  0  0  0  0  0
    6.9624   -3.0379    0.0000 N   0  0  0  0  0  0  0  0  0  0  0  0
    8.3482   -2.4639    0.0000 N   0  0  0  0  0  0  0  0  0  0  0  0
    8.5440   -0.9767    0.0000 N   0  0  0  0  0  0  0  0  0  0  0  0
    7.3539   -0.0636    0.0000 N   0  0  0  0  0  0  0  0  0  0  0  0
    5.9681   -0.6376    0.0000 N   0  0  0  0  0  0  0  0  0  0  0  0
    0.7500   -1.2990    0.0000 C   0  0  0  0  0  0  0  0  0  0  0  0
    1.5000    0.0000    0.0000 C   0  0  0  0  0  0  0  0  0  0  0  0
    0.7500    1.2990    0.0000 C   0  0  0  0  0  0  0  0  0  0  0  0
   -0.7500    1.2990    0.0000 C   0  0  0  0  0  0  0  0  0  0  0  0
   -1.5000    0.0000    0.0000 C   0  0  0  0  0  0  0  0  0  0  0  0
   -0.7500   -1.2990    0.0000 C   0  0  0  0  0  0  0  0  0  0  0  0
   -1.8107   -2.3597    0.0000 C   0  0  0  0  0  0  0  0  0  0  0  0
   -3.1097   -1.6097    0.0000 C   0  0  0  0  0  0  0  0  0  0  0  0
   -4.4087   -2.3597    0.0000 C   0  0  0  0  0  0  0  0  0  0  0  0
   -4.4087   -3.8597    0.0000 C   0  0  0  0  0  0  0  0  0  0  0  0
   -3.1097   -4.6097    0.0000 C   0  0  0  0  0  0  0  0  0  0  0  0
   -1.8107   -3.8597    0.0000 C   0  0  0  0  0  0  0  0  0  0  0  0
  1  2  1  0
  2  3  1  0
  3  4  2  0
  4  5  1  0
  5  6  1  0
  6  7  2  0
  6  8  1  0
  8  9  1  0
  9 10  2  0
 10 11  1  0
 11 12  2  0
 12 13  1  0
 13 14  2  0
  5 15  1  0
 15 16  2  0
 16 17  1  0
 17 18  2  0
 18 19  1  0
 19 20  2  0
 20 21  1  0
 21 22  2  0
 22 23  1  0
 23 24  2  0
 24 25  1  0
 25 26  2  0
 26  2  1  0
 14  9  1  0
 20 15  1  0
 26 21  1  0
M  END
>  <Title>  (103) 
idAACAgen8

$$$$

     RDKit          2D

  9  9  0  0  0  0  0  0  0  0999 V2000
    3.2286   -0.0000    0.0000 C   0  0  0  0  0  0  0  0  0  0  0  0
    1.7286    0.0000    0.0000 C   0  0  0  0  0  0  0  0  0  0  0  0
    1.0777    1.3515    0.0000 C   0  0  0  0  0  0  0  0  0  0  0  0
   -0.3846    1.6852    0.0000 C   0  0  0  0  0  0  0  0  0  0  0  0
   -1.5574    0.7500    0.0000 C   0  0  0  0  0  0  0  0  0  0  0  0
   -1.5574   -0.7500    0.0000 C   0  0  0  0  0  0  0  0  0  0  0  0
   -2.9088   -1.4008    0.0000 O   0  0  0  0  0  0  0  0  0  0  0  0
   -0.3846   -1.6852    0.0000 C   0  0  0  0  0  0  0  0  0  0  0  0
    1.0777   -1.3515    0.0000 C   0  0  0  0  0  0  0  0  0  0  0  0
  1  2  1  0
  2  3  1  0
  3  4  2  0
  4  5  1  0
  5  6  1  0
  6  7  1  0
  6  8  1  0
  8  9  1  0
  9  2  1  0
M  END
>  <Title>  (104) 
idAACBgen8

$$$$

     RDKit          2D

 28 31  0  0  0  0  0  0  0  0999 V2000
    4.5000    0.0000    0.0000 N   0  0  0  0  0  0  0  0  0  0  0  0
    3.0000    0.0000    0.0000 C   0  0  0  0  0  0  0  0  0  0  0  0
    1.5000    0.0000    0.0000 C   0  0  0  0  0  0  0  0  0  0  0  0
    0.7500   -1.2990    0.0000 C   0  0  0  0  0  0  0  0  0  0  0  0
   -0.7500   -1.2990    0.0000 C   0  0  0  0  0  0  0  0  0  0  0  0
   -1.5000    0.0000    0.0000 C   0  0  0  0  0  0  0  0  0  0  0  0
   -3.0000    0.0000    0.0000 O   0  0  0  0  0  0  0  0  0  0  0  0
   -3.7500    1.2990    0.0000 C   0  0  0  0  0  0  0  0  0  0  0  0
   -3.0000    2.5981    0.0000 C   0  0  0  0  0  0  0  0  0  0  0  0
   -1.5000    2.5981    0.0000 O   0  0  0  0  0  0  0  0  0  0  0  0
   -3.7500    3.8971    0.0000 O   0  0  0  0  0  0  0  0  0  0  0  0
   -5.2500    1.2990    0.0000 C   0  0  0  0  0  0  0  0  0  0  0  0
   -6.3107    2.3597    0.0000 C   0  0  0  0  0  0  0  0  0  0  0  0
   -7.3713    1.2990    0.0000 C   0  0  0  0  0  0  0  0  0  0  0  0
   -8.8713    1.2990    0.0000 N   0  0  0  0  0  0  0  0  0  0  0  0
   -9.9320    2.3597    0.0000 C   0  0  0  0  0  0  0  0  0  0  0  0
  -10.9926    1.2990    0.0000 C   0  0  0  0  0  0  0  0  0  0  0  0
   -9.9320    0.2384    0.0000 N   0  0  0  0  0  0  0  0  0  0  0  0
   -9.9320   -1.2616    0.0000 C   0  0  0  0  0  0  0  0  0  0  0  0
  -11.2310   -2.0116    0.0000 N   0  0  0  0  0  0  0  0  0  0  0  0
  -11.2310   -3.5116    0.0000 N   0  0  0  0  0  0  0  0  0  0  0  0
   -9.9320   -4.2616    0.0000 N   0  0  0  0  0  0  0  0  0  0  0  0
   -8.6329   -3.5116    0.0000 N   0  0  0  0  0  0  0  0  0  0  0  0
   -8.6329   -2.0116    0.0000 N   0  0  0  0  0  0  0  0  0  0  0  0
   -6.3107    0.2384    0.0000 C   0  0  0  0  0  0  0  0  0  0  0  0
   -0.7500    1.2990    0.0000 C   0  0  0  0  0  0  0  0  0  0  0  0
    0.7500    1.2990    0.0000 C   0  0  0  0  0  0  0  0  0  0  0  0
    1.5000    2.5981    0.0000 O   0  0  0  0  0  0  0  0  0  0  0  0
  1  2  3  0
  2  3  1  0
  3  4  2  0
  4  5  1  0
  5  6  2  0
  6  7  1  0
  7  8  1  0
  8  9  1  0
  9 10  2  0
  9 11  1  0
  8 12  1  0
 12 13  2  0
 13 14  1  0
 14 15  1  0
 15 16  1  0
 16 17  1  0
 17 18  1  0
 18 19  1  0
 19 20  2  0
 20 21  1  0
 21 22  2  0
 22 23  1  0
 23 24  2  0
 14 25  1  0
  6 26  1  0
 26 27  2  0
 27 28  1  0
 27  3  1  0
 25 12  1  0
 18 15  1  0
 24 19  1  0
M  END
>  <Title>  (105) 
idAACCgen8

$$$$

     RDKit          2D

 12 12  0  0  0  0  0  0  0  0999 V2000
    5.2077    1.4153    0.0000 C   0  0  0  0  0  0  0  0  0  0  0  0
    4.0586    0.4512    0.0000 C   0  0  0  0  0  0  0  0  0  0  0  0
    2.6491    0.9642    0.0000 C   0  0  0  0  0  0  0  0  0  0  0  0
    1.5000    0.0000    0.0000 C   0  0  0  0  0  0  0  0  0  0  0  0
    2.6491   -0.9642    0.0000 O   0  0  0  0  0  0  0  0  0  0  0  0
    0.7500   -1.2990    0.0000 C   0  0  0  0  0  0  0  0  0  0  0  0
   -0.7500   -1.2990    0.0000 C   0  0  0  0  0  0  0  0  0  0  0  0
   -1.5000   -2.5981    0.0000 O   0  0  0  0  0  0  0  0  0  0  0  0
   -1.5000    0.0000    0.0000 C   0  0  0  0  0  0  0  0  0  0  0  0
   -0.7500    1.2990    0.0000 C   0  0  0  0  0  0  0  0  0  0  0  0
    0.7500    1.2990    0.0000 C   0  0  0  0  0  0  0  0  0  0  0  0
    1.5000    2.5981    0.0000 C   0  0  0  0  0  0  0  0  0  0  0  0
  1  2  1  0
  2  3  1  0
  3  4  1  0
  4  5  1  0
  4  6  1  0
  6  7  1  0
  7  8  1  0
  7  9  1  0
  9 10  1  0
 10 11  1  0
 11 12  1  0
 11  4  1  0
M  END
>  <Title>  (106) 
idAACDgen8

$$$$

     RDKit          2D

  8  7  0  0  0  0  0  0  0  0999 V2000
    0.0000    0.0000    0.0000 C   0  0  0  0  0  0  0  0  0  0  0  0
    1.2990    0.7500    0.0000 C   0  0  0  0  0  0  0  0  0  0  0  0
    2.5981   -0.0000    0.0000 C   0  0  0  0  0  0  0  0  0  0  0  0
    3.8971    0.7500    0.0000 C   0  0  0  0  0  0  0  0  0  0  0  0
    3.8971    2.2500    0.0000 O   0  0  0  0  0  0  0  0  0  0  0  0
    5.1962   -0.0000    0.0000 C   0  0  0  0  0  0  0  0  0  0  0  0
    6.4952    0.7500    0.0000 C   0  0  0  0  0  0  0  0  0  0  0  0
    7.7942   -0.0000    0.0000 C   0  0  0  0  0  0  0  0  0  0  0  0
  1  2  1  0
  2  3  2  3
  3  4  1  0
  4  5  2  0
  4  6  1  0
  6  7  2  3
  7  8  1  0
M  END
>  <Title>  (107) 
idAACEgen8

$$$$

     RDKit          2D

 26 28  0  0  0  0  0  0  0  0999 V2000
    3.4598   -0.0000    0.0000 C   0  0  0  0  0  0  0  0  0  0  0  0
    1.9598    0.0000    0.0000 C   0  0  0  0  0  0  0  0  0  0  0  0
    1.3858   -1.3858    0.0000 C   0  0  0  0  0  0  0  0  0  0  0  0
   -0.0000   -1.9598    0.0000 C   0  0  0  0  0  0  0  0  0  0  0  0
   -1.3858   -1.3858    0.0000 C   0  0  0  0  0  0  0  0  0  0  0  0
   -1.9598    0.0000    0.0000 C   0  0  0  0  0  0  0  0  0  0  0  0
   -3.4598    0.0000    0.0000 C   0  0  0  0  0  0  0  0  0  0  0  0
   -4.2098   -1.2990    0.0000 O   0  0  0  0  0  0  0  0  0  0  0  0
   -4.2098    1.2990    0.0000 N   0  0  0  0  0  0  0  0  0  0  0  0
   -5.7098    1.2990    0.0000 C   0  0  0  0  0  0  0  0  0  0  0  0
   -6.5915    0.0855    0.0000 N   0  0  0  0  0  0  0  0  0  0  0  0
   -8.0181    0.5490    0.0000 N   0  0  0  0  0  0  0  0  0  0  0  0
   -8.0181    2.0490    0.0000 N   0  0  0  0  0  0  0  0  0  0  0  0
   -6.5915    2.5126    0.0000 N   0  0  0  0  0  0  0  0  0  0  0  0
   -6.1280    3.9391    0.0000 C   0  0  0  0  0  0  0  0  0  0  0  0
   -4.6608    4.2510    0.0000 C   0  0  0  0  0  0  0  0  0  0  0  0
   -4.1972    5.6776    0.0000 C   0  0  0  0  0  0  0  0  0  0  0  0
   -5.2009    6.7923    0.0000 C   0  0  0  0  0  0  0  0  0  0  0  0
   -4.7374    8.2189    0.0000 C   0  0  0  0  0  0  0  0  0  0  0  0
   -4.2739    9.6455    0.0000 N   0  0  0  0  0  0  0  0  0  0  0  0
   -6.6682    6.4805    0.0000 C   0  0  0  0  0  0  0  0  0  0  0  0
   -7.1317    5.0539    0.0000 C   0  0  0  0  0  0  0  0  0  0  0  0
   -1.3858    1.3858    0.0000 C   0  0  0  0  0  0  0  0  0  0  0  0
    0.0000    1.9598    0.0000 C   0  0  0  0  0  0  0  0  0  0  0  0
    1.3858    1.3858    0.0000 C   0  0  0  0  0  0  0  0  0  0  0  0
    2.4465    2.4465    0.0000 O   0  0  0  0  0  0  0  0  0  0  0  0
  1  2  1  0
  2  3  1  0
  3  4  1  0
  4  5  1  0
  5  6  1  0
  6  7  1  0
  7  8  2  0
  7  9  1  0
  9 10  1  0
 10 11  2  0
 11 12  1  0
 12 13  2  0
 13 14  1  0
 14 15  1  0
 15 16  2  0
 16 17  1  0
 17 18  2  0
 18 19  1  0
 19 20  3  0
 18 21  1  0
 21 22  2  0
  6 23  2  0
 23 24  1  0
 24 25  2  0
 25 26  1  0
 25  2  1  0
 14 10  1  0
 22 15  1  0
M  END
>  <Title>  (108) 
idAACFgen8

$$$$

     RDKit          2D

 68 68  0  0  0  0  0  0  0  0999 V2000
   17.5009   -0.0000    0.0000 C   0  0  0  0  0  0  0  0  0  0  0  0
   16.0009    0.0000    0.0000 C   0  0  0  0  0  0  0  0  0  0  0  0
   15.9306    1.4984    0.0000 C   0  0  0  0  0  0  0  0  0  0  0  0
   15.7203    2.9835    0.0000 C   0  0  0  0  0  0  0  0  0  0  0  0
   15.3719    4.4425    0.0000 C   0  0  0  0  0  0  0  0  0  0  0  0
   14.8883    5.8624    0.0000 C   0  0  0  0  0  0  0  0  0  0  0  0
   14.2739    7.2308    0.0000 C   0  0  0  0  0  0  0  0  0  0  0  0
   13.5341    8.5357    0.0000 C   0  0  0  0  0  0  0  0  0  0  0  0
   12.6753    9.7655    0.0000 C   0  0  0  0  0  0  0  0  0  0  0  0
   11.7052   10.9096    0.0000 C   0  0  0  0  0  0  0  0  0  0  0  0
   10.6322   11.9577    0.0000 C   0  0  0  0  0  0  0  0  0  0  0  0
    9.4657   12.9008    0.0000 C   0  0  0  0  0  0  0  0  0  0  0  0
    8.2161   13.7305    0.0000 C   0  0  0  0  0  0  0  0  0  0  0  0
    6.8942   14.4395    0.0000 C   0  0  0  0  0  0  0  0  0  0  0  0
    5.5118   15.0217    0.0000 C   0  0  0  0  0  0  0  0  0  0  0  0
    4.0809   15.4718    0.0000 C   0  0  0  0  0  0  0  0  0  0  0  0
    2.6142   15.7859    0.0000 C   0  0  0  0  0  0  0  0  0  0  0  0
    1.1245   15.9614    0.0000 C   0  0  0  0  0  0  0  0  0  0  0  0
   -0.3751   15.9965    0.0000 C   0  0  0  0  0  0  0  0  0  0  0  0
   -1.8714   15.8911    0.0000 C   0  0  0  0  0  0  0  0  0  0  0  0
   -3.3512   15.6461    0.0000 C   0  0  0  0  0  0  0  0  0  0  0  0
   -4.8016   15.2635    0.0000 C   0  0  0  0  0  0  0  0  0  0  0  0
   -6.2098   14.7468    0.0000 C   0  0  0  0  0  0  0  0  0  0  0  0
   -7.5635   14.1005    0.0000 C   0  0  0  0  0  0  0  0  0  0  0  0
   -8.8506   13.3303    0.0000 C   0  0  0  0  0  0  0  0  0  0  0  0
  -10.0600   12.4429    0.0000 C   0  0  0  0  0  0  0  0  0  0  0  0
  -11.1810   11.4462    0.0000 C   0  0  0  0  0  0  0  0  0  0  0  0
  -12.2037   10.3489    0.0000 C   0  0  0  0  0  0  0  0  0  0  0  0
  -13.1191    9.1607    0.0000 C   0  0  0  0  0  0  0  0  0  0  0  0
  -13.9193    7.8919    0.0000 C   0  0  0  0  0  0  0  0  0  0  0  0
  -14.5972    6.5538    0.0000 C   0  0  0  0  0  0  0  0  0  0  0  0
  -15.1467    5.1581    0.0000 C   0  0  0  0  0  0  0  0  0  0  0  0
  -15.5632    3.7171    0.0000 C   0  0  0  0  0  0  0  0  0  0  0  0
  -15.8429    2.2434    0.0000 C   0  0  0  0  0  0  0  0  0  0  0  0
  -15.9833    0.7500    0.0000 C   0  0  0  0  0  0  0  0  0  0  0  0
  -15.9833   -0.7500    0.0000 C   0  0  0  0  0  0  0  0  0  0  0  0
  -15.8429   -2.2434    0.0000 C   0  0  0  0  0  0  0  0  0  0  0  0
  -15.5632   -3.7171    0.0000 C   0  0  0  0  0  0  0  0  0  0  0  0
  -15.1467   -5.1581    0.0000 C   0  0  0  0  0  0  0  0  0  0  0  0
  -14.5972   -6.5538    0.0000 C   0  0  0  0  0  0  0  0  0  0  0  0
  -13.9193   -7.8919    0.0000 C   0  0  0  0  0  0  0  0  0  0  0  0
  -13.1191   -9.1607    0.0000 C   0  0  0  0  0  0  0  0  0  0  0  0
  -12.2037  -10.3489    0.0000 C   0  0  0  0  0  0  0  0  0  0  0  0
  -11.1810  -11.4462    0.0000 C   0  0  0  0  0  0  0  0  0  0  0  0
  -10.0600  -12.4429    0.0000 C   0  0  0  0  0  0  0  0  0  0  0  0
   -8.8506  -13.3303    0.0000 C   0  0  0  0  0  0  0  0  0  0  0  0
   -7.5635  -14.1005    0.0000 C   0  0  0  0  0  0  0  0  0  0  0  0
   -6.2098  -14.7468    0.0000 C   0  0  0  0  0  0  0  0  0  0  0  0
   -4.8016  -15.2635    0.0000 C   0  0  0  0  0  0  0  0  0  0  0  0
   -3.3512  -15.6461    0.0000 C   0  0  0  0  0  0  0  0  0  0  0  0
   -1.8714  -15.8911    0.0000 C   0  0  0  0  0  0  0  0  0  0  0  0
   -0.3751  -15.9965    0.0000 C   0  0  0  0  0  0  0  0  0  0  0  0
    1.1245  -15.9614    0.0000 C   0  0  0  0  0  0  0  0  0  0  0  0
    2.6142  -15.7859    0.0000 C   0  0  0  0  0  0  0  0  0  0  0  0
    4.0809  -15.4718    0.0000 C   0  0  0  0  0  0  0  0  0  0  0  0
    5.5118  -15.0217    0.0000 C   0  0  0  0  0  0  0  0  0  0  0  0
    6.8942  -14.4395    0.0000 C   0  0  0  0  0  0  0  0  0  0  0  0
    8.2161  -13.7305    0.0000 C   0  0  0  0  0  0  0  0  0  0  0  0
    9.4657  -12.9008    0.0000 C   0  0  0  0  0  0  0  0  0  0  0  0
   10.6322  -11.9577    0.0000 C   0  0  0  0  0  0  0  0  0  0  0  0
   11.7052  -10.9096    0.0000 C   0  0  0  0  0  0  0  0  0  0  0  0
   12.6753   -9.7655    0.0000 C   0  0  0  0  0  0  0  0  0  0  0  0
   13.5341   -8.5357    0.0000 C   0  0  0  0  0  0  0  0  0  0  0  0
   14.2739   -7.2308    0.0000 C   0  0  0  0  0  0  0  0  0  0  0  0
   14.8883   -5.8624    0.0000 C   0  0  0  0  0  0  0  0  0  0  0  0
   15.3719   -4.4425    0.0000 C   0  0  0  0  0  0  0  0  0  0  0  0
   15.7203   -2.9835    0.0000 C   0  0  0  0  0  0  0  0  0  0  0  0
   15.9306   -1.4984    0.0000 C   0  0  0  0  0  0  0  0  0  0  0  0
  1  2  1  0
  2  3  2  0
  3  4  1  0
  4  5  1  0
  5  6  1  0
  6  7  1  0
  7  8  1  0
  8  9  1  0
  9 10  1  0
 10 11  1  0
 11 12  1  0
 12 13  1  0
 13 14  1  0
 14 15  1  0
 15 16  1  0
 16 17  1  0
 17 18  1  0
 18 19  1  0
 19 20  1  0
 20 21  1  0
 21 22  1  0
 22 23  1  0
 23 24  1  0
 24 25  1  0
 25 26  1  0
 26 27  1  0
 27 28  1  0
 28 29  1  0
 29 30  1  0
 30 31  1  0
 31 32  1  0
 32 33  1  0
 33 34  1  0
 34 35  1  0
 35 36  1  0
 36 37  1  0
 37 38  1  0
 38 39  1  0
 39 40  1  0
 40 41  1  0
 41 42  1  0
 42 43  1  0
 43 44  1  0
 44 45  1  0
 45 46  1  0
 46 47  1  0
 47 48  1  0
 48 49  1  0
 49 50  1  0
 50 51  1  0
 51 52  1  0
 52 53  1  0
 53 54  1  0
 54 55  1  0
 55 56  1  0
 56 57  1  0
 57 58  1  0
 58 59  1  0
 59 60  1  0
 60 61  1  0
 61 62  1  0
 62 63  1  0
 63 64  2  0
 64 65  1  0
 65 66  2  0
 66 67  1  0
 67 68  2  0
 68  2  1  0
M  END
>  <Title>  (109) 
idAACGgen8

$$$$

     RDKit          2D

115115  0  0  0  0  0  0  0  0999 V2000
   28.7189    0.0000    0.0000 C   0  0  0  0  0  0  0  0  0  0  0  0
   27.2189    0.0000    0.0000 C   0  0  0  0  0  0  0  0  0  0  0  0
   27.1776   -1.4994    0.0000 C   0  0  0  0  0  0  0  0  0  0  0  0
   27.0537   -2.9943    0.0000 C   0  0  0  0  0  0  0  0  0  0  0  0
   26.8477   -4.4801    0.0000 C   0  0  0  0  0  0  0  0  0  0  0  0
   26.5601   -5.9523    0.0000 C   0  0  0  0  0  0  0  0  0  0  0  0
   26.1919   -7.4064    0.0000 C   0  0  0  0  0  0  0  0  0  0  0  0
   25.7441   -8.8380    0.0000 C   0  0  0  0  0  0  0  0  0  0  0  0
   25.2182  -10.2427    0.0000 C   0  0  0  0  0  0  0  0  0  0  0  0
   24.6156  -11.6164    0.0000 C   0  0  0  0  0  0  0  0  0  0  0  0
   23.9383  -12.9548    0.0000 C   0  0  0  0  0  0  0  0  0  0  0  0
   23.1883  -14.2538    0.0000 C   0  0  0  0  0  0  0  0  0  0  0  0
   22.3679  -15.5096    0.0000 C   0  0  0  0  0  0  0  0  0  0  0  0
   21.4796  -16.7182    0.0000 C   0  0  0  0  0  0  0  0  0  0  0  0
   20.5260  -17.8761    0.0000 C   0  0  0  0  0  0  0  0  0  0  0  0
   19.5101  -18.9797    0.0000 C   0  0  0  0  0  0  0  0  0  0  0  0
   18.4349  -20.0256    0.0000 C   0  0  0  0  0  0  0  0  0  0  0  0
   17.3037  -21.0108    0.0000 C   0  0  0  0  0  0  0  0  0  0  0  0
   16.1200  -21.9321    0.0000 C   0  0  0  0  0  0  0  0  0  0  0  0
   14.8873  -22.7868    0.0000 C   0  0  0  0  0  0  0  0  0  0  0  0
   13.6095  -23.5723    0.0000 C   0  0  0  0  0  0  0  0  0  0  0  0
   12.2903  -24.2862    0.0000 C   0  0  0  0  0  0  0  0  0  0  0  0
   10.9337  -24.9264    0.0000 C   0  0  0  0  0  0  0  0  0  0  0  0
    9.5440  -25.4908    0.0000 C   0  0  0  0  0  0  0  0  0  0  0  0
    8.1253  -25.9779    0.0000 C   0  0  0  0  0  0  0  0  0  0  0  0
    6.6819  -26.3860    0.0000 C   0  0  0  0  0  0  0  0  0  0  0  0
    5.2182  -26.7141    0.0000 C   0  0  0  0  0  0  0  0  0  0  0  0
    3.7386  -26.9610    0.0000 C   0  0  0  0  0  0  0  0  0  0  0  0
    2.2477  -27.1260    0.0000 C   0  0  0  0  0  0  0  0  0  0  0  0
    0.7500  -27.2086    0.0000 C   0  0  0  0  0  0  0  0  0  0  0  0
   -0.7500  -27.2086    0.0000 C   0  0  0  0  0  0  0  0  0  0  0  0
   -2.2477  -27.1260    0.0000 C   0  0  0  0  0  0  0  0  0  0  0  0
   -3.7386  -26.9610    0.0000 C   0  0  0  0  0  0  0  0  0  0  0  0
   -5.2182  -26.7141    0.0000 C   0  0  0  0  0  0  0  0  0  0  0  0
   -6.6819  -26.3860    0.0000 C   0  0  0  0  0  0  0  0  0  0  0  0
   -8.1253  -25.9779    0.0000 C   0  0  0  0  0  0  0  0  0  0  0  0
   -9.5440  -25.4908    0.0000 C   0  0  0  0  0  0  0  0  0  0  0  0
  -10.9337  -24.9264    0.0000 C   0  0  0  0  0  0  0  0  0  0  0  0
  -12.2903  -24.2862    0.0000 C   0  0  0  0  0  0  0  0  0  0  0  0
  -13.6095  -23.5723    0.0000 C   0  0  0  0  0  0  0  0  0  0  0  0
  -14.8873  -22.7868    0.0000 C   0  0  0  0  0  0  0  0  0  0  0  0
  -16.1200  -21.9321    0.0000 C   0  0  0  0  0  0  0  0  0  0  0  0
  -17.3037  -21.0108    0.0000 C   0  0  0  0  0  0  0  0  0  0  0  0
  -18.4349  -20.0256    0.0000 C   0  0  0  0  0  0  0  0  0  0  0  0
  -19.5101  -18.9797    0.0000 C   0  0  0  0  0  0  0  0  0  0  0  0
  -20.5260  -17.8761    0.0000 C   0  0  0  0  0  0  0  0  0  0  0  0
  -21.4796  -16.7182    0.0000 C   0  0  0  0  0  0  0  0  0  0  0  0
  -22.3679  -15.5096    0.0000 C   0  0  0  0  0  0  0  0  0  0  0  0
  -23.1883  -14.2538    0.0000 C   0  0  0  0  0  0  0  0  0  0  0  0
  -23.9383  -12.9548    0.0000 C   0  0  0  0  0  0  0  0  0  0  0  0
  -24.6156  -11.6164    0.0000 C   0  0  0  0  0  0  0  0  0  0  0  0
  -25.2182  -10.2427    0.0000 C   0  0  0  0  0  0  0  0  0  0  0  0
  -25.7441   -8.8380    0.0000 C   0  0  0  0  0  0  0  0  0  0  0  0
  -26.1919   -7.4064    0.0000 C   0  0  0  0  0  0  0  0  0  0  0  0
  -26.5601   -5.9523    0.0000 C   0  0  0  0  0  0  0  0  0  0  0  0
  -26.8477   -4.4801    0.0000 C   0  0  0  0  0  0  0  0  0  0  0  0
  -27.0537   -2.9943    0.0000 C   0  0  0  0  0  0  0  0  0  0  0  0
  -27.1776   -1.4994    0.0000 C   0  0  0  0  0  0  0  0  0  0  0  0
  -27.2189    0.0000    0.0000 C   0  0  0  0  0  0  0  0  0  0  0  0
  -27.1776    1.4994    0.0000 C   0  0  0  0  0  0  0  0  0  0  0  0
  -27.0537    2.9943    0.0000 C   0  0  0  0  0  0  0  0  0  0  0  0
  -26.8477    4.4801    0.0000 C   0  0  0  0  0  0  0  0  0  0  0  0
  -26.5601    5.9523    0.0000 C   0  0  0  0  0  0  0  0  0  0  0  0
  -26.1919    7.4064    0.0000 C   0  0  0  0  0  0  0  0  0  0  0  0
  -25.7441    8.8380    0.0000 C   0  0  0  0  0  0  0  0  0  0  0  0
  -25.2182   10.2427    0.0000 C   0  0  0  0  0  0  0  0  0  0  0  0
  -24.6156   11.6164    0.0000 C   0  0  0  0  0  0  0  0  0  0  0  0
  -23.9383   12.9548    0.0000 C   0  0  0  0  0  0  0  0  0  0  0  0
  -23.1883   14.2538    0.0000 C   0  0  0  0  0  0  0  0  0  0  0  0
  -22.3679   15.5096    0.0000 C   0  0  0  0  0  0  0  0  0  0  0  0
  -21.4796   16.7182    0.0000 C   0  0  0  0  0  0  0  0  0  0  0  0
  -20.5260   17.8761    0.0000 C   0  0  0  0  0  0  0  0  0  0  0  0
  -19.5101   18.9797    0.0000 C   0  0  0  0  0  0  0  0  0  0  0  0
  -18.4349   20.0256    0.0000 C   0  0  0  0  0  0  0  0  0  0  0  0
  -17.3037   21.0108    0.0000 C   0  0  0  0  0  0  0  0  0  0  0  0
  -16.1200   21.9321    0.0000 C   0  0  0  0  0  0  0  0  0  0  0  0
  -14.8873   22.7868    0.0000 C   0  0  0  0  0  0  0  0  0  0  0  0
  -13.6095   23.5723    0.0000 C   0  0  0  0  0  0  0  0  0  0  0  0
  -12.2903   24.2862    0.0000 C   0  0  0  0  0  0  0  0  0  0  0  0
  -10.9337   24.9264    0.0000 C   0  0  0  0  0  0  0  0  0  0  0  0
   -9.5440   25.4908    0.0000 C   0  0  0  0  0  0  0  0  0  0  0  0
   -8.1253   25.9779    0.0000 C   0  0  0  0  0  0  0  0  0  0  0  0
   -6.6819   26.3860    0.0000 C   0  0  0  0  0  0  0  0  0  0  0  0
   -5.2182   26.7141    0.0000 C   0  0  0  0  0  0  0  0  0  0  0  0
   -3.7386   26.9610    0.0000 C   0  0  0  0  0  0  0  0  0  0  0  0
   -2.2477   27.1260    0.0000 C   0  0  0  0  0  0  0  0  0  0  0  0
   -0.7500   27.2086    0.0000 C   0  0  0  0  0  0  0  0  0  0  0  0
    0.7500   27.2086    0.0000 C   0  0  0  0  0  0  0  0  0  0  0  0
    2.2477   27.1260    0.0000 C   0  0  0  0  0  0  0  0  0  0  0  0
    3.7386   26.9610    0.0000 C   0  0  0  0  0  0  0  0  0  0  0  0
    5.2182   26.7141    0.0000 C   0  0  0  0  0  0  0  0  0  0  0  0
    6.6819   26.3860    0.0000 C   0  0  0  0  0  0  0  0  0  0  0  0
    8.1253   25.9779    0.0000 C   0  0  0  0  0  0  0  0  0  0  0  0
    9.5440   25.4908    0.0000 C   0  0  0  0  0  0  0  0  0  0  0  0
   10.9337   24.9264    0.0000 C   0  0  0  0  0  0  0  0  0  0  0  0
   12.2903   24.2862    0.0000 C   0  0  0  0  0  0  0  0  0  0  0  0
   13.6095   23.5723    0.0000 C   0  0  0  0  0  0  0  0  0  0  0  0
   14.8873   22.7868    0.0000 C   0  0  0  0  0  0  0  0  0  0  0  0
   16.1200   21.9321    0.0000 C   0  0  0  0  0  0  0  0  0  0  0  0
   17.3037   21.0108    0.0000 C   0  0  0  0  0  0  0  0  0  0  0  0
   18.4349   20.0256    0.0000 C   0  0  0  0  0  0  0  0  0  0  0  0
   19.5101   18.9797    0.0000 C   0  0  0  0  0  0  0  0  0  0  0  0
   20.5260   17.8761    0.0000 C   0  0  0  0  0  0  0  0  0  0  0  0
   21.4796   16.7182    0.0000 C   0  0  0  0  0  0  0  0  0  0  0  0
   22.3679   15.5096    0.0000 C   0  0  0  0  0  0  0  0  0  0  0  0
   23.1883   14.2538    0.0000 C   0  0  0  0  0  0  0  0  0  0  0  0
   23.9383   12.9548    0.0000 C   0  0  0  0  0  0  0  0  0  0  0  0
   24.6156   11.6164    0.0000 C   0  0  0  0  0  0  0  0  0  0  0  0
   25.2182   10.2427    0.0000 C   0  0  0  0  0  0  0  0  0  0  0  0
   25.7441    8.8380    0.0000 C   0  0  0  0  0  0  0  0  0  0  0  0
   26.1919    7.4064    0.0000 C   0  0  0  0  0  0  0  0  0  0  0  0
   26.5601    5.9523    0.0000 C   0  0  0  0  0  0  0  0  0  0  0  0
   26.8477    4.4801    0.0000 C   0  0  0  0  0  0  0  0  0  0  0  0
   27.0537    2.9943    0.0000 C   0  0  0  0  0  0  0  0  0  0  0  0
   27.1776    1.4994    0.0000 C   0  0  0  0  0  0  0  0  0  0  0  0
  1  2  1  0
  2  3  1  0
  3  4  2  0
  4  5  1  0
  5  6  2  0
  6  7  1  0
  7  8  2  0
  8  9  1  0
  9 10  2  0
 10 11  1  0
 11 12  2  0
 12 13  1  0
 13 14  2  0
 14 15  1  0
 15 16  2  0
 16 17  1  0
 17 18  2  0
 18 19  1  0
 19 20  2  0
 20 21  1  0
 21 22  1  0
 22 23  1  0
 23 24  1  0
 24 25  1  0
 25 26  1  0
 26 27  1  0
 27 28  1  0
 28 29  1  0
 29 30  1  0
 30 31  1  0
 31 32  1  0
 32 33  1  0
 33 34  1  0
 34 35  1  0
 35 36  1  0
 36 37  1  0
 37 38  1  0
 38 39  1  0
 39 40  1  0
 40 41  1  0
 41 42  1  0
 42 43  1  0
 43 44  1  0
 44 45  1  0
 45 46  1  0
 46 47  1  0
 47 48  1  0
 48 49  1  0
 49 50  1  0
 50 51  1  0
 51 52  1  0
 52 53  1  0
 53 54  1  0
 54 55  1  0
 55 56  1  0
 56 57  1  0
 57 58  1  0
 58 59  1  0
 59 60  1  0
 60 61  1  0
 61 62  1  0
 62 63  1  0
 63 64  1  0
 64 65  1  0
 65 66  1  0
 66 67  1  0
 67 68  1  0
 68 69  1  0
 69 70  1  0
 70 71  1  0
 71 72  1  0
 72 73  1  0
 73 74  1  0
 74 75  1  0
 75 76  1  0
 76 77  1  0
 77 78  1  0
 78 79  1  0
 79 80  1  0
 80 81  1  0
 81 82  1  0
 82 83  1  0
 83 84  1  0
 84 85  1  0
 85 86  1  0
 86 87  1  0
 87 88  1  0
 88 89  1  0
 89 90  1  0
 90 91  1  0
 91 92  1  0
 92 93  1  0
 93 94  1  0
 94 95  1  0
 95 96  1  0
 96 97  1  0
 97 98  1  0
 98 99  1  0
 99100  1  0
100101  1  0
101102  1  0
102103  1  0
103104  1  0
104105  1  0
105106  1  0
106107  1  0
107108  1  0
108109  1  0
109110  1  0
110111  1  0
111112  1  0
112113  1  0
113114  1  0
114115  1  0
115  2  1  0
M  END
>  <Title>  (110) 
idAACHgen8

$$$$

     RDKit          2D

  8  8  0  0  0  0  0  0  0  0999 V2000
    2.7760    0.0000    0.0000 O   0  0  0  0  0  0  0  0  0  0  0  0
    1.2760    0.0000    0.0000 C   0  0  0  0  0  0  0  0  0  0  0  0
    0.3943    1.2135    0.0000 C   0  0  0  0  0  0  0  0  0  0  0  0
   -1.0323    0.7500    0.0000 C   0  0  0  0  0  0  0  0  0  0  0  0
   -1.0323   -0.7500    0.0000 C   0  0  0  0  0  0  0  0  0  0  0  0
   -2.2458   -1.6317    0.0000 O   0  0  0  0  0  0  0  0  0  0  0  0
    0.3943   -1.2135    0.0000 C   0  0  0  0  0  0  0  0  0  0  0  0
    0.8578   -2.6401    0.0000 O   0  0  0  0  0  0  0  0  0  0  0  0
  1  2  2  0
  2  3  1  0
  3  4  1  0
  4  5  1  0
  5  6  1  0
  5  7  1  0
  7  8  2  0
  7  2  1  0
M  END
>  <Title>  (111) 
idAACIgen8

$$$$

     RDKit          2D

 52 59  0  0  0  0  0  0  0  0999 V2000
    3.1097   -7.2078    0.0000 C   0  0  0  0  0  0  0  0  0  0  0  0
    2.0490   -6.1471    0.0000 C   0  0  0  0  0  0  0  0  0  0  0  0
    2.7990   -4.8481    0.0000 C   0  0  0  0  0  0  0  0  0  0  0  0
    2.7990   -3.3481    0.0000 C   0  0  0  0  0  0  0  0  0  0  0  0
    2.0490   -2.0490    0.0000 C   0  0  0  0  0  0  0  0  0  0  0  0
    3.1097   -0.9884    0.0000 C   0  0  0  0  0  0  0  0  0  0  0  0
    2.7215    0.4605    0.0000 O   0  0  0  0  0  0  0  0  0  0  0  0
    4.5586   -1.3766    0.0000 N   0  0  0  0  0  0  0  0  0  0  0  0
    5.6192   -0.3159    0.0000 C   0  0  0  0  0  0  0  0  0  0  0  0
    5.3846    1.1656    0.0000 N   0  0  0  0  0  0  0  0  0  0  0  0
    6.7211    1.8466    0.0000 N   0  0  0  0  0  0  0  0  0  0  0  0
    7.7818    0.7859    0.0000 N   0  0  0  0  0  0  0  0  0  0  0  0
    7.1008   -0.5506    0.0000 N   0  0  0  0  0  0  0  0  0  0  0  0
    7.7818   -1.8871    0.0000 N   0  0  0  0  0  0  0  0  0  0  0  0
    9.2633   -2.1218    0.0000 C   0  0  0  0  0  0  0  0  0  0  0  0
    9.4979   -3.6033    0.0000 C   0  0  0  0  0  0  0  0  0  0  0  0
    8.1614   -4.2843    0.0000 N   0  0  0  0  0  0  0  0  0  0  0  0
    7.9268   -5.7658    0.0000 C   0  0  0  0  0  0  0  0  0  0  0  0
    9.0925   -6.7098    0.0000 O   0  0  0  0  0  0  0  0  0  0  0  0
    6.5264   -6.3034    0.0000 N   0  0  0  0  0  0  0  0  0  0  0  0
    6.2918   -7.7849    0.0000 C   0  0  0  0  0  0  0  0  0  0  0  0
    4.8914   -8.3224    0.0000 N   0  0  0  0  0  0  0  0  0  0  0  0
    4.6567   -9.8040    0.0000 N   0  0  0  0  0  0  0  0  0  0  0  0
    5.8225  -10.7480    0.0000 N   0  0  0  0  0  0  0  0  0  0  0  0
    7.2228  -10.2104    0.0000 N   0  0  0  0  0  0  0  0  0  0  0  0
    7.4575   -8.7289    0.0000 N   0  0  0  0  0  0  0  0  0  0  0  0
    7.1008   -3.2236    0.0000 C   0  0  0  0  0  0  0  0  0  0  0  0
    5.6192   -3.4583    0.0000 O   0  0  0  0  0  0  0  0  0  0  0  0
    0.7500   -1.2990    0.0000 C   0  0  0  0  0  0  0  0  0  0  0  0
    1.5000    0.0000    0.0000 C   0  0  0  0  0  0  0  0  0  0  0  0
    0.7500    1.2990    0.0000 C   0  0  0  0  0  0  0  0  0  0  0  0
   -0.7500    1.2990    0.0000 C   0  0  0  0  0  0  0  0  0  0  0  0
   -1.5000    0.0000    0.0000 C   0  0  0  0  0  0  0  0  0  0  0  0
   -0.7500   -1.2990    0.0000 C   0  0  0  0  0  0  0  0  0  0  0  0
   -2.0490   -2.0490    0.0000 C   0  0  0  0  0  0  0  0  0  0  0  0
   -2.7990   -0.7500    0.0000 C   0  0  0  0  0  0  0  0  0  0  0  0
   -4.2990   -0.7500    0.0000 C   0  0  0  0  0  0  0  0  0  0  0  0
   -5.0490   -2.0490    0.0000 C   0  0  0  0  0  0  0  0  0  0  0  0
   -4.2990   -3.3481    0.0000 C   0  0  0  0  0  0  0  0  0  0  0  0
   -2.7990   -3.3481    0.0000 C   0  0  0  0  0  0  0  0  0  0  0  0
   -2.7990   -4.8481    0.0000 C   0  0  0  0  0  0  0  0  0  0  0  0
   -4.2990   -4.8481    0.0000 C   0  0  0  0  0  0  0  0  0  0  0  0
   -5.0490   -6.1471    0.0000 C   0  0  0  0  0  0  0  0  0  0  0  0
   -4.2990   -7.4462    0.0000 C   0  0  0  0  0  0  0  0  0  0  0  0
   -2.7990   -7.4462    0.0000 C   0  0  0  0  0  0  0  0  0  0  0  0
   -2.0490   -6.1471    0.0000 C   0  0  0  0  0  0  0  0  0  0  0  0
   -0.7500   -6.8971    0.0000 C   0  0  0  0  0  0  0  0  0  0  0  0
   -1.5000   -8.1962    0.0000 C   0  0  0  0  0  0  0  0  0  0  0  0
   -0.7500   -9.4952    0.0000 C   0  0  0  0  0  0  0  0  0  0  0  0
    0.7500   -9.4952    0.0000 C   0  0  0  0  0  0  0  0  0  0  0  0
    1.5000   -8.1962    0.0000 C   0  0  0  0  0  0  0  0  0  0  0  0
    0.7500   -6.8971    0.0000 C   0  0  0  0  0  0  0  0  0  0  0  0
  1  2  1  0
  2  3  1  0
  3  4  1  0
  4  5  1  0
  5  6  1  0
  6  7  2  0
  6  8  1  0
  8  9  1  0
  9 10  2  0
 10 11  1  0
 11 12  2  0
 12 13  1  0
 13 14  1  0
 14 15  1  0
 15 16  1  0
 16 17  1  0
 17 18  1  0
 18 19  2  0
 18 20  1  0
 20 21  1  0
 21 22  2  0
 22 23  1  0
 23 24  2  0
 24 25  1  0
 25 26  2  0
 17 27  1  0
 27 28  2  0
  5 29  1  0
 29 30  2  0
 30 31  1  0
 31 32  2  0
 32 33  1  0
 33 34  2  0
 34 35  1  0
 35 36  2  0
 36 37  1  0
 37 38  2  0
 38 39  1  0
 39 40  2  0
 40 41  1  0
 41 42  2  0
 42 43  1  0
 43 44  2  0
 44 45  1  0
 45 46  2  0
 46 47  1  0
 47 48  2  0
 48 49  1  0
 49 50  2  0
 50 51  1  0
 51 52  2  0
 52  2  1  0
 13  9  1  0
 27 14  1  0
 34 29  1  0
 40 35  1  0
 46 41  1  0
 52 47  1  0
 26 21  1  0
M  END
>  <Title>  (112) 
idAACJgen8

$$$$

     RDKit          2D

  8  7  0  0  0  0  0  0  0  0999 V2000
    0.0000    0.0000    0.0000 C   0  0  0  0  0  0  0  0  0  0  0  0
    1.2990    0.7500    0.0000 C   0  0  0  0  0  0  0  0  0  0  0  0
    2.5981   -0.0000    0.0000 C   0  0  0  0  0  0  0  0  0  0  0  0
    3.8971   -0.7500    0.0000 C   0  0  0  0  0  0  0  0  0  0  0  0
    5.1962   -1.5000    0.0000 C   0  0  0  0  0  0  0  0  0  0  0  0
    6.4952   -0.7500    0.0000 C   0  0  0  0  0  0  0  0  0  0  0  0
    5.1962   -3.0000    0.0000 C   0  0  0  0  0  0  0  0  0  0  0  0
    3.8971   -3.7500    0.0000 C   0  0  0  0  0  0  0  0  0  0  0  0
  1  2  1  0
  2  3  1  0
  3  4  3  0
  4  5  1  0
  5  6  1  0
  5  7  1  0
  7  8  1  0
M  END
>  <Title>  (113) 
idAACKgen8

$$$$

     RDKit          2D

 72 72  0  0  0  0  0  0  0  0999 V2000
   18.4555    0.0000    0.0000 C   0  0  0  0  0  0  0  0  0  0  0  0
   16.9555    0.0000    0.0000 C   0  0  0  0  0  0  0  0  0  0  0  0
   16.8892    1.4985    0.0000 C   0  0  0  0  0  0  0  0  0  0  0  0
   16.6907    2.9853    0.0000 C   0  0  0  0  0  0  0  0  0  0  0  0
   16.3615    4.4488    0.0000 C   0  0  0  0  0  0  0  0  0  0  0  0
   15.9043    5.8774    0.0000 C   0  0  0  0  0  0  0  0  0  0  0  0
   15.3226    7.2600    0.0000 C   0  0  0  0  0  0  0  0  0  0  0  0
   14.6210    8.5858    0.0000 C   0  0  0  0  0  0  0  0  0  0  0  0
   13.8050    9.8444    0.0000 C   0  0  0  0  0  0  0  0  0  0  0  0
   12.8809   11.0260    0.0000 C   0  0  0  0  0  0  0  0  0  0  0  0
   11.8560   12.1213    0.0000 C   0  0  0  0  0  0  0  0  0  0  0  0
   10.7383   13.1217    0.0000 C   0  0  0  0  0  0  0  0  0  0  0  0
    9.5366   14.0194    0.0000 C   0  0  0  0  0  0  0  0  0  0  0  0
    8.2603   14.8074    0.0000 C   0  0  0  0  0  0  0  0  0  0  0  0
    6.9193   15.4795    0.0000 C   0  0  0  0  0  0  0  0  0  0  0  0
    5.5241   16.0304    0.0000 C   0  0  0  0  0  0  0  0  0  0  0  0
    4.0857   16.4559    0.0000 C   0  0  0  0  0  0  0  0  0  0  0  0
    2.6154   16.7526    0.0000 C   0  0  0  0  0  0  0  0  0  0  0  0
    1.1245   16.9182    0.0000 C   0  0  0  0  0  0  0  0  0  0  0  0
   -0.3751   16.9514    0.0000 C   0  0  0  0  0  0  0  0  0  0  0  0
   -1.8718   16.8519    0.0000 C   0  0  0  0  0  0  0  0  0  0  0  0
   -3.3538   16.6205    0.0000 C   0  0  0  0  0  0  0  0  0  0  0  0
   -4.8096   16.2591    0.0000 C   0  0  0  0  0  0  0  0  0  0  0  0
   -6.2278   15.7704    0.0000 C   0  0  0  0  0  0  0  0  0  0  0  0
   -7.5972   15.1582    0.0000 C   0  0  0  0  0  0  0  0  0  0  0  0
   -8.9072   14.4275    0.0000 C   0  0  0  0  0  0  0  0  0  0  0  0
  -10.1474   13.5838    0.0000 C   0  0  0  0  0  0  0  0  0  0  0  0
  -11.3082   12.6338    0.0000 C   0  0  0  0  0  0  0  0  0  0  0  0
  -12.3806   11.5850    0.0000 C   0  0  0  0  0  0  0  0  0  0  0  0
  -13.3560   10.4454    0.0000 C   0  0  0  0  0  0  0  0  0  0  0  0
  -14.2269    9.2242    0.0000 C   0  0  0  0  0  0  0  0  0  0  0  0
  -14.9865    7.9307    0.0000 C   0  0  0  0  0  0  0  0  0  0  0  0
  -15.6287    6.5751    0.0000 C   0  0  0  0  0  0  0  0  0  0  0  0
  -16.1487    5.1681    0.0000 C   0  0  0  0  0  0  0  0  0  0  0  0
  -16.5423    3.7207    0.0000 C   0  0  0  0  0  0  0  0  0  0  0  0
  -16.8064    2.2441    0.0000 C   0  0  0  0  0  0  0  0  0  0  0  0
  -16.9389    0.7500    0.0000 C   0  0  0  0  0  0  0  0  0  0  0  0
  -16.9389   -0.7500    0.0000 C   0  0  0  0  0  0  0  0  0  0  0  0
  -16.8064   -2.2441    0.0000 C   0  0  0  0  0  0  0  0  0  0  0  0
  -16.5423   -3.7207    0.0000 C   0  0  0  0  0  0  0  0  0  0  0  0
  -16.1487   -5.1681    0.0000 C   0  0  0  0  0  0  0  0  0  0  0  0
  -15.6287   -6.5751    0.0000 C   0  0  0  0  0  0  0  0  0  0  0  0
  -14.9865   -7.9307    0.0000 C   0  0  0  0  0  0  0  0  0  0  0  0
  -14.2269   -9.2242    0.0000 C   0  0  0  0  0  0  0  0  0  0  0  0
  -13.3560  -10.4454    0.0000 C   0  0  0  0  0  0  0  0  0  0  0  0
  -12.3806  -11.5850    0.0000 C   0  0  0  0  0  0  0  0  0  0  0  0
  -11.3082  -12.6338    0.0000 C   0  0  0  0  0  0  0  0  0  0  0  0
  -10.1474  -13.5838    0.0000 C   0  0  0  0  0  0  0  0  0  0  0  0
   -8.9072  -14.4275    0.0000 C   0  0  0  0  0  0  0  0  0  0  0  0
   -7.5972  -15.1582    0.0000 C   0  0  0  0  0  0  0  0  0  0  0  0
   -6.2278  -15.7704    0.0000 C   0  0  0  0  0  0  0  0  0  0  0  0
   -4.8096  -16.2591    0.0000 C   0  0  0  0  0  0  0  0  0  0  0  0
   -3.3538  -16.6205    0.0000 C   0  0  0  0  0  0  0  0  0  0  0  0
   -1.8718  -16.8519    0.0000 C   0  0  0  0  0  0  0  0  0  0  0  0
   -0.3751  -16.9514    0.0000 C   0  0  0  0  0  0  0  0  0  0  0  0
    1.1245  -16.9182    0.0000 C   0  0  0  0  0  0  0  0  0  0  0  0
    2.6154  -16.7526    0.0000 C   0  0  0  0  0  0  0  0  0  0  0  0
    4.0857  -16.4559    0.0000 C   0  0  0  0  0  0  0  0  0  0  0  0
    5.5241  -16.0304    0.0000 C   0  0  0  0  0  0  0  0  0  0  0  0
    6.9193  -15.4795    0.0000 C   0  0  0  0  0  0  0  0  0  0  0  0
    8.2603  -14.8074    0.0000 C   0  0  0  0  0  0  0  0  0  0  0  0
    9.5366  -14.0194    0.0000 C   0  0  0  0  0  0  0  0  0  0  0  0
   10.7383  -13.1217    0.0000 C   0  0  0  0  0  0  0  0  0  0  0  0
   11.8560  -12.1213    0.0000 C   0  0  0  0  0  0  0  0  0  0  0  0
   12.8809  -11.0260    0.0000 C   0  0  0  0  0  0  0  0  0  0  0  0
   13.8050   -9.8444    0.0000 C   0  0  0  0  0  0  0  0  0  0  0  0
   14.6210   -8.5858    0.0000 C   0  0  0  0  0  0  0  0  0  0  0  0
   15.3226   -7.2600    0.0000 C   0  0  0  0  0  0  0  0  0  0  0  0
   15.9043   -5.8774    0.0000 C   0  0  0  0  0  0  0  0  0  0  0  0
   16.3615   -4.4488    0.0000 C   0  0  0  0  0  0  0  0  0  0  0  0
   16.6907   -2.9853    0.0000 C   0  0  0  0  0  0  0  0  0  0  0  0
   16.8892   -1.4985    0.0000 C   0  0  0  0  0  0  0  0  0  0  0  0
  1  2  1  0
  2  3  1  0
  3  4  1  0
  4  5  2  0
  5  6  1  0
  6  7  2  0
  7  8  1  0
  8  9  2  0
  9 10  1  0
 10 11  2  0
 11 12  1  0
 12 13  2  0
 13 14  1  0
 14 15  2  0
 15 16  1  0
 16 17  2  0
 17 18  1  0
 18 19  2  0
 19 20  1  0
 20 21  2  0
 21 22  1  0
 22 23  2  0
 23 24  1  0
 24 25  2  0
 25 26  1  0
 26 27  1  0
 27 28  1  0
 28 29  1  0
 29 30  1  0
 30 31  1  0
 31 32  1  0
 32 33  1  0
 33 34  1  0
 34 35  1  0
 35 36  1  0
 36 37  1  0
 37 38  1  0
 38 39  1  0
 39 40  1  0
 40 41  1  0
 41 42  1  0
 42 43  1  0
 43 44  1  0
 44 45  1  0
 45 46  1  0
 46 47  1  0
 47 48  1  0
 48 49  1  0
 49 50  1  0
 50 51  1  0
 51 52  1  0
 52 53  1  0
 53 54  1  0
 54 55  1  0
 55 56  1  0
 56 57  1  0
 57 58  1  0
 58 59  1  0
 59 60  1  0
 60 61  1  0
 61 62  1  0
 62 63  1  0
 63 64  1  0
 64 65  1  0
 65 66  1  0
 66 67  1  0
 67 68  1  0
 68 69  1  0
 69 70  1  0
 70 71  1  0
 71 72  1  0
 72  2  1  0
M  END
>  <Title>  (114) 
idAACLgen8

$$$$

     RDKit          2D

 33 37  0  0  0  0  0  0  0  0999 V2000
    2.1535   -8.4451    0.0000 C   0  0  0  0  0  0  0  0  0  0  0  0
    1.4564   -7.1169    0.0000 C   0  0  0  0  0  0  0  0  0  0  0  0
    2.5792   -6.1222    0.0000 C   0  0  0  0  0  0  0  0  0  0  0  0
    3.1111   -4.7197    0.0000 C   0  0  0  0  0  0  0  0  0  0  0  0
    4.6001   -4.9005    0.0000 O   0  0  0  0  0  0  0  0  0  0  0  0
    2.9303   -3.2306    0.0000 C   0  0  0  0  0  0  0  0  0  0  0  0
    4.3328   -2.6987    0.0000 C   0  0  0  0  0  0  0  0  0  0  0  0
    2.0782   -1.9961    0.0000 C   0  0  0  0  0  0  0  0  0  0  0  0
    3.0729   -0.8734    0.0000 O   0  0  0  0  0  0  0  0  0  0  0  0
    0.7500   -1.2990    0.0000 C   0  0  0  0  0  0  0  0  0  0  0  0
    1.5000    0.0000    0.0000 C   0  0  0  0  0  0  0  0  0  0  0  0
    0.7500    1.2990    0.0000 C   0  0  0  0  0  0  0  0  0  0  0  0
   -0.7500    1.2990    0.0000 C   0  0  0  0  0  0  0  0  0  0  0  0
   -1.5000    0.0000    0.0000 C   0  0  0  0  0  0  0  0  0  0  0  0
   -0.7500   -1.2990    0.0000 C   0  0  0  0  0  0  0  0  0  0  0  0
   -2.0782   -1.9961    0.0000 C   0  0  0  0  0  0  0  0  0  0  0  0
   -2.7212   -0.6409    0.0000 C   0  0  0  0  0  0  0  0  0  0  0  0
   -4.2164   -0.5202    0.0000 C   0  0  0  0  0  0  0  0  0  0  0  0
   -5.0685   -1.7547    0.0000 C   0  0  0  0  0  0  0  0  0  0  0  0
   -4.4254   -3.1099    0.0000 C   0  0  0  0  0  0  0  0  0  0  0  0
   -2.9303   -3.2306    0.0000 C   0  0  0  0  0  0  0  0  0  0  0  0
   -3.1111   -4.7197    0.0000 C   0  0  0  0  0  0  0  0  0  0  0  0
   -4.5917   -4.4790    0.0000 C   0  0  0  0  0  0  0  0  0  0  0  0
   -5.5403   -5.6410    0.0000 C   0  0  0  0  0  0  0  0  0  0  0  0
   -5.0084   -7.0435    0.0000 C   0  0  0  0  0  0  0  0  0  0  0  0
   -3.5278   -7.2841    0.0000 C   0  0  0  0  0  0  0  0  0  0  0  0
   -2.5792   -6.1222    0.0000 C   0  0  0  0  0  0  0  0  0  0  0  0
   -1.4564   -7.1169    0.0000 C   0  0  0  0  0  0  0  0  0  0  0  0
   -2.4955   -8.1987    0.0000 C   0  0  0  0  0  0  0  0  0  0  0  0
   -2.0782   -9.6395    0.0000 C   0  0  0  0  0  0  0  0  0  0  0  0
   -0.6218   -9.9984    0.0000 C   0  0  0  0  0  0  0  0  0  0  0  0
    0.4173   -8.9166    0.0000 C   0  0  0  0  0  0  0  0  0  0  0  0
   -0.0000   -7.4758    0.0000 C   0  0  0  0  0  0  0  0  0  0  0  0
  1  2  1  0
  2  3  2  0
  3  4  1  0
  4  5  1  0
  4  6  2  0
  6  7  1  0
  6  8  1  0
  8  9  2  0
  8 10  1  0
 10 11  2  0
 11 12  1  0
 12 13  2  0
 13 14  1  0
 14 15  2  0
 15 16  1  0
 16 17  2  0
 17 18  1  0
 18 19  2  0
 19 20  1  0
 20 21  2  0
 21 22  1  0
 22 23  2  0
 23 24  1  0
 24 25  2  0
 25 26  1  0
 26 27  2  0
 27 28  1  0
 28 29  2  0
 29 30  1  0
 30 31  2  0
 31 32  1  0
 32 33  2  0
 33  2  1  0
 15 10  1  0
 21 16  1  0
 27 22  1  0
 33 28  1  0
M  END
>  <Title>  (115) 
idAACMgen8

$$$$

     RDKit          2D

  9  9  0  0  0  0  0  0  0  0999 V2000
    3.5260   -1.2990    0.0000 C   0  0  0  0  0  0  0  0  0  0  0  0
    2.7760    0.0000    0.0000 O   0  0  0  0  0  0  0  0  0  0  0  0
    1.2760    0.0000    0.0000 C   0  0  0  0  0  0  0  0  0  0  0  0
    0.3943    1.2135    0.0000 C   0  0  0  0  0  0  0  0  0  0  0  0
   -1.0323    0.7500    0.0000 C   0  0  0  0  0  0  0  0  0  0  0  0
   -1.0323   -0.7500    0.0000 C   0  0  0  0  0  0  0  0  0  0  0  0
   -2.2458   -1.6317    0.0000 C   0  0  0  0  0  0  0  0  0  0  0  0
   -3.4593   -2.5134    0.0000 N   0  0  0  0  0  0  0  0  0  0  0  0
    0.3943   -1.2135    0.0000 C   0  0  0  0  0  0  0  0  0  0  0  0
  1  2  1  0
  2  3  1  0
  3  4  2  0
  4  5  1  0
  5  6  1  0
  6  7  1  0
  7  8  3  0
  6  9  1  0
  9  3  1  0
M  END
>  <Title>  (116) 
idAACNgen8

$$$$

     RDKit          2D

 92 97  0  0  0  0  0  0  0  0999 V2000
   -8.6279   -2.2078    0.0000 C   0  0  0  0  0  0  0  0  0  0  0  0
   -7.8457   -3.4878    0.0000 C   0  0  0  0  0  0  0  0  0  0  0  0
   -9.0851   -4.3328    0.0000 C   0  0  0  0  0  0  0  0  0  0  0  0
  -10.2341   -5.2969    0.0000 C   0  0  0  0  0  0  0  0  0  0  0  0
  -11.2815   -6.3707    0.0000 C   0  0  0  0  0  0  0  0  0  0  0  0
  -12.2167   -7.5435    0.0000 C   0  0  0  0  0  0  0  0  0  0  0  0
  -13.0305   -8.8035    0.0000 C   0  0  0  0  0  0  0  0  0  0  0  0
  -13.7149  -10.1383    0.0000 C   0  0  0  0  0  0  0  0  0  0  0  0
  -14.2629  -11.5346    0.0000 C   0  0  0  0  0  0  0  0  0  0  0  0
  -14.6691  -12.9786    0.0000 C   0  0  0  0  0  0  0  0  0  0  0  0
  -14.9296  -14.4558    0.0000 C   0  0  0  0  0  0  0  0  0  0  0  0
  -15.0417  -15.9516    0.0000 C   0  0  0  0  0  0  0  0  0  0  0  0
  -15.0043  -17.4511    0.0000 C   0  0  0  0  0  0  0  0  0  0  0  0
  -14.8178  -18.9395    0.0000 C   0  0  0  0  0  0  0  0  0  0  0  0
  -14.4840  -20.4019    0.0000 C   0  0  0  0  0  0  0  0  0  0  0  0
  -14.0063  -21.8238    0.0000 C   0  0  0  0  0  0  0  0  0  0  0  0
  -13.3893  -23.1910    0.0000 C   0  0  0  0  0  0  0  0  0  0  0  0
  -12.6393  -24.4901    0.0000 C   0  0  0  0  0  0  0  0  0  0  0  0
  -11.7637  -25.7080    0.0000 C   0  0  0  0  0  0  0  0  0  0  0  0
  -10.7712  -26.8326    0.0000 C   0  0  0  0  0  0  0  0  0  0  0  0
   -9.6716  -27.8529    0.0000 C   0  0  0  0  0  0  0  0  0  0  0  0
   -8.4759  -28.7586    0.0000 C   0  0  0  0  0  0  0  0  0  0  0  0
   -7.1960  -29.5408    0.0000 C   0  0  0  0  0  0  0  0  0  0  0  0
   -5.8445  -30.1916    0.0000 C   0  0  0  0  0  0  0  0  0  0  0  0
   -4.4350  -30.7046    0.0000 C   0  0  0  0  0  0  0  0  0  0  0  0
   -2.9814  -31.0748    0.0000 C   0  0  0  0  0  0  0  0  0  0  0  0
   -1.4981  -31.2983    0.0000 C   0  0  0  0  0  0  0  0  0  0  0  0
   -0.0000  -31.3731    0.0000 C   0  0  0  0  0  0  0  0  0  0  0  0
    1.4981  -31.2983    0.0000 C   0  0  0  0  0  0  0  0  0  0  0  0
    2.9814  -31.0748    0.0000 C   0  0  0  0  0  0  0  0  0  0  0  0
    4.4350  -30.7046    0.0000 C   0  0  0  0  0  0  0  0  0  0  0  0
    5.8445  -30.1916    0.0000 C   0  0  0  0  0  0  0  0  0  0  0  0
    7.1960  -29.5408    0.0000 C   0  0  0  0  0  0  0  0  0  0  0  0
    8.4759  -28.7586    0.0000 C   0  0  0  0  0  0  0  0  0  0  0  0
    9.6716  -27.8529    0.0000 C   0  0  0  0  0  0  0  0  0  0  0  0
   10.7712  -26.8326    0.0000 C   0  0  0  0  0  0  0  0  0  0  0  0
   11.7637  -25.7080    0.0000 C   0  0  0  0  0  0  0  0  0  0  0  0
   12.6393  -24.4901    0.0000 C   0  0  0  0  0  0  0  0  0  0  0  0
   13.3893  -23.1910    0.0000 C   0  0  0  0  0  0  0  0  0  0  0  0
   14.0063  -21.8238    0.0000 C   0  0  0  0  0  0  0  0  0  0  0  0
   14.4840  -20.4019    0.0000 C   0  0  0  0  0  0  0  0  0  0  0  0
   14.8178  -18.9395    0.0000 C   0  0  0  0  0  0  0  0  0  0  0  0
   15.0043  -17.4511    0.0000 C   0  0  0  0  0  0  0  0  0  0  0  0
   15.0417  -15.9516    0.0000 C   0  0  0  0  0  0  0  0  0  0  0  0
   14.9296  -14.4558    0.0000 C   0  0  0  0  0  0  0  0  0  0  0  0
   14.6691  -12.9786    0.0000 C   0  0  0  0  0  0  0  0  0  0  0  0
   14.2629  -11.5346    0.0000 C   0  0  0  0  0  0  0  0  0  0  0  0
   13.7149  -10.1383    0.0000 C   0  0  0  0  0  0  0  0  0  0  0  0
   13.0305   -8.8035    0.0000 C   0  0  0  0  0  0  0  0  0  0  0  0
   12.2167   -7.5435    0.0000 C   0  0  0  0  0  0  0  0  0  0  0  0
   11.2815   -6.3707    0.0000 C   0  0  0  0  0  0  0  0  0  0  0  0
   10.2341   -5.2969    0.0000 C   0  0  0  0  0  0  0  0  0  0  0  0
    9.0851   -4.3328    0.0000 C   0  0  0  0  0  0  0  0  0  0  0  0
    7.8457   -3.4878    0.0000 C   0  0  0  0  0  0  0  0  0  0  0  0
    6.5284   -2.7704    0.0000 C   0  0  0  0  0  0  0  0  0  0  0  0
    5.1462   -2.1877    0.0000 C   0  0  0  0  0  0  0  0  0  0  0  0
    5.6592   -0.7782    0.0000 C   0  0  0  0  0  0  0  0  0  0  0  0
    7.1364   -0.5177    0.0000 C   0  0  0  0  0  0  0  0  0  0  0  0
    8.1006   -1.6668    0.0000 O   0  0  0  0  0  0  0  0  0  0  0  0
    7.6494    0.8918    0.0000 N   0  0  0  0  0  0  0  0  0  0  0  0
    9.1266    1.1523    0.0000 C   0  0  0  0  0  0  0  0  0  0  0  0
   10.0908    0.0032    0.0000 N   0  0  0  0  0  0  0  0  0  0  0  0
   11.5680    0.2637    0.0000 N   0  0  0  0  0  0  0  0  0  0  0  0
   12.0811    1.6732    0.0000 N   0  0  0  0  0  0  0  0  0  0  0  0
   11.1169    2.8223    0.0000 N   0  0  0  0  0  0  0  0  0  0  0  0
    9.6397    2.5618    0.0000 N   0  0  0  0  0  0  0  0  0  0  0  0
    3.7128   -1.7456    0.0000 C   0  0  0  0  0  0  0  0  0  0  0  0
    3.8845   -3.2358    0.0000 C   0  0  0  0  0  0  0  0  0  0  0  0
    2.5203   -3.8595    0.0000 C   0  0  0  0  0  0  0  0  0  0  0  0
    2.2231   -5.3298    0.0000 C   0  0  0  0  0  0  0  0  0  0  0  0
    3.3478   -6.3223    0.0000 O   0  0  0  0  0  0  0  0  0  0  0  0
    0.8012   -5.8075    0.0000 O   0  0  0  0  0  0  0  0  0  0  0  0
    1.5055   -2.7548    0.0000 C   0  0  0  0  0  0  0  0  0  0  0  0
    2.2425   -1.4484    0.0000 C   0  0  0  0  0  0  0  0  0  0  0  0
    0.7500   -1.2990    0.0000 C   0  0  0  0  0  0  0  0  0  0  0  0
    1.5000    0.0000    0.0000 C   0  0  0  0  0  0  0  0  0  0  0  0
    0.7500    1.2990    0.0000 C   0  0  0  0  0  0  0  0  0  0  0  0
   -0.7500    1.2990    0.0000 C   0  0  0  0  0  0  0  0  0  0  0  0
   -1.5000    0.0000    0.0000 C   0  0  0  0  0  0  0  0  0  0  0  0
   -0.7500   -1.2990    0.0000 C   0  0  0  0  0  0  0  0  0  0  0  0
   -2.2425   -1.4484    0.0000 C   0  0  0  0  0  0  0  0  0  0  0  0
   -1.2500   -2.5731    0.0000 C   0  0  0  0  0  0  0  0  0  0  0  0
   -1.7277   -3.9950    0.0000 C   0  0  0  0  0  0  0  0  0  0  0  0
   -3.1980   -4.2922    0.0000 C   0  0  0  0  0  0  0  0  0  0  0  0
   -4.1905   -3.1675    0.0000 C   0  0  0  0  0  0  0  0  0  0  0  0
   -3.7128   -1.7456    0.0000 C   0  0  0  0  0  0  0  0  0  0  0  0
   -5.1462   -2.1877    0.0000 C   0  0  0  0  0  0  0  0  0  0  0  0
   -4.9596   -0.6994    0.0000 C   0  0  0  0  0  0  0  0  0  0  0  0
   -6.1553    0.2063    0.0000 C   0  0  0  0  0  0  0  0  0  0  0  0
   -7.5376   -0.3763    0.0000 C   0  0  0  0  0  0  0  0  0  0  0  0
   -7.7241   -1.8647    0.0000 C   0  0  0  0  0  0  0  0  0  0  0  0
   -6.5284   -2.7704    0.0000 C   0  0  0  0  0  0  0  0  0  0  0  0
  1  2  1  0
  2  3  1  0
  3  4  1  0
  4  5  1  0
  5  6  1  0
  6  7  1  0
  7  8  1  0
  8  9  1  0
  9 10  1  0
 10 11  1  0
 11 12  1  0
 12 13  1  0
 13 14  1  0
 14 15  1  0
 15 16  1  0
 16 17  1  0
 17 18  1  0
 18 19  1  0
 19 20  1  0
 20 21  1  0
 21 22  1  0
 22 23  1  0
 23 24  1  0
 24 25  1  0
 25 26  1  0
 26 27  1  0
 27 28  1  0
 28 29  1  0
 29 30  1  0
 30 31  1  0
 31 32  1  0
 32 33  1  0
 33 34  1  0
 34 35  1  0
 35 36  1  0
 36 37  1  0
 37 38  1  0
 38 39  1  0
 39 40  1  0
 40 41  1  0
 41 42  1  0
 42 43  1  0
 43 44  1  0
 44 45  1  0
 45 46  1  0
 46 47  1  0
 47 48  1  0
 48 49  1  0
 49 50  1  0
 50 51  1  0
 51 52  1  0
 52 53  1  0
 53 54  1  0
 54 55  1  0
 55 56  1  0
 56 57  1  0
 57 58  1  0
 58 59  2  0
 58 60  1  0
 60 61  1  0
 61 62  2  0
 62 63  1  0
 63 64  2  0
 64 65  1  0
 65 66  2  0
 56 67  1  0
 67 68  2  0
 68 69  1  0
 69 70  1  0
 70 71  2  0
 70 72  1  0
 69 73  1  0
 73 74  2  0
 74 75  1  0
 75 76  2  0
 76 77  1  0
 77 78  2  0
 78 79  1  0
 79 80  2  0
 80 81  1  0
 81 82  2  0
 82 83  1  0
 83 84  2  0
 84 85  1  0
 85 86  2  0
 86 87  1  0
 87 88  2  0
 88 89  1  0
 89 90  2  0
 90 91  1  0
 91 92  2  0
 92  2  1  0
 66 61  1  0
 74 67  1  0
 80 75  1  0
 86 81  1  0
 92 87  1  0
M  END
>  <Title>  (117) 
idAACOgen8

$$$$

     RDKit          2D

 61 61  0  0  0  0  0  0  0  0999 V2000
   15.3533    0.0000    0.0000 C   0  0  0  0  0  0  0  0  0  0  0  0
   13.8533    0.0000    0.0000 C   0  0  0  0  0  0  0  0  0  0  0  0
   13.7720   -1.4978    0.0000 C   0  0  0  0  0  0  0  0  0  0  0  0
   13.5294   -2.9780    0.0000 C   0  0  0  0  0  0  0  0  0  0  0  0
   13.1281   -4.4234    0.0000 C   0  0  0  0  0  0  0  0  0  0  0  0
   12.5729   -5.8168    0.0000 C   0  0  0  0  0  0  0  0  0  0  0  0
   11.8703   -7.1421    0.0000 C   0  0  0  0  0  0  0  0  0  0  0  0
   11.0285   -8.3836    0.0000 C   0  0  0  0  0  0  0  0  0  0  0  0
   10.0574   -9.5269    0.0000 C   0  0  0  0  0  0  0  0  0  0  0  0
    8.9684  -10.5584    0.0000 C   0  0  0  0  0  0  0  0  0  0  0  0
    7.7743  -11.4662    0.0000 C   0  0  0  0  0  0  0  0  0  0  0  0
    6.4890  -12.2395    0.0000 C   0  0  0  0  0  0  0  0  0  0  0  0
    5.1276  -12.8693    0.0000 C   0  0  0  0  0  0  0  0  0  0  0  0
    3.7061  -13.3483    0.0000 C   0  0  0  0  0  0  0  0  0  0  0  0
    2.2412  -13.6708    0.0000 C   0  0  0  0  0  0  0  0  0  0  0  0
    0.7500  -13.8329    0.0000 C   0  0  0  0  0  0  0  0  0  0  0  0
   -0.7500  -13.8329    0.0000 C   0  0  0  0  0  0  0  0  0  0  0  0
   -2.2412  -13.6708    0.0000 C   0  0  0  0  0  0  0  0  0  0  0  0
   -3.7061  -13.3483    0.0000 C   0  0  0  0  0  0  0  0  0  0  0  0
   -5.1276  -12.8693    0.0000 C   0  0  0  0  0  0  0  0  0  0  0  0
   -6.4890  -12.2395    0.0000 C   0  0  0  0  0  0  0  0  0  0  0  0
   -7.7743  -11.4662    0.0000 C   0  0  0  0  0  0  0  0  0  0  0  0
   -8.9684  -10.5584    0.0000 C   0  0  0  0  0  0  0  0  0  0  0  0
  -10.0574   -9.5269    0.0000 C   0  0  0  0  0  0  0  0  0  0  0  0
  -11.0285   -8.3836    0.0000 C   0  0  0  0  0  0  0  0  0  0  0  0
  -11.8703   -7.1421    0.0000 C   0  0  0  0  0  0  0  0  0  0  0  0
  -12.5729   -5.8168    0.0000 C   0  0  0  0  0  0  0  0  0  0  0  0
  -13.1281   -4.4234    0.0000 C   0  0  0  0  0  0  0  0  0  0  0  0
  -13.5294   -2.9780    0.0000 C   0  0  0  0  0  0  0  0  0  0  0  0
  -13.7720   -1.4978    0.0000 C   0  0  0  0  0  0  0  0  0  0  0  0
  -13.8533    0.0000    0.0000 C   0  0  0  0  0  0  0  0  0  0  0  0
  -13.7720    1.4978    0.0000 C   0  0  0  0  0  0  0  0  0  0  0  0
  -13.5294    2.9780    0.0000 C   0  0  0  0  0  0  0  0  0  0  0  0
  -13.1281    4.4234    0.0000 C   0  0  0  0  0  0  0  0  0  0  0  0
  -12.5729    5.8168    0.0000 C   0  0  0  0  0  0  0  0  0  0  0  0
  -11.8703    7.1421    0.0000 C   0  0  0  0  0  0  0  0  0  0  0  0
  -11.0285    8.3836    0.0000 C   0  0  0  0  0  0  0  0  0  0  0  0
  -10.0574    9.5269    0.0000 C   0  0  0  0  0  0  0  0  0  0  0  0
   -8.9684   10.5584    0.0000 C   0  0  0  0  0  0  0  0  0  0  0  0
   -7.7743   11.4662    0.0000 C   0  0  0  0  0  0  0  0  0  0  0  0
   -6.4890   12.2395    0.0000 C   0  0  0  0  0  0  0  0  0  0  0  0
   -5.1276   12.8693    0.0000 C   0  0  0  0  0  0  0  0  0  0  0  0
   -3.7061   13.3483    0.0000 C   0  0  0  0  0  0  0  0  0  0  0  0
   -2.2412   13.6708    0.0000 C   0  0  0  0  0  0  0  0  0  0  0  0
   -0.7500   13.8329    0.0000 C   0  0  0  0  0  0  0  0  0  0  0  0
    0.7500   13.8329    0.0000 C   0  0  0  0  0  0  0  0  0  0  0  0
    2.2412   13.6708    0.0000 C   0  0  0  0  0  0  0  0  0  0  0  0
    3.7061   13.3483    0.0000 C   0  0  0  0  0  0  0  0  0  0  0  0
    5.1276   12.8693    0.0000 C   0  0  0  0  0  0  0  0  0  0  0  0
    6.4890   12.2395    0.0000 C   0  0  0  0  0  0  0  0  0  0  0  0
    7.7743   11.4662    0.0000 C   0  0  0  0  0  0  0  0  0  0  0  0
    8.9684   10.5584    0.0000 C   0  0  0  0  0  0  0  0  0  0  0  0
   10.0574    9.5269    0.0000 C   0  0  0  0  0  0  0  0  0  0  0  0
   11.0285    8.3836    0.0000 C   0  0  0  0  0  0  0  0  0  0  0  0
   11.8703    7.1421    0.0000 C   0  0  0  0  0  0  0  0  0  0  0  0
   12.5729    5.8168    0.0000 C   0  0  0  0  0  0  0  0  0  0  0  0
   13.1281    4.4234    0.0000 C   0  0  0  0  0  0  0  0  0  0  0  0
   14.5496    4.9023    0.0000 C   0  0  0  0  0  0  0  0  0  0  0  0
   13.5294    2.9780    0.0000 C   0  0  0  0  0  0  0  0  0  0  0  0
   14.9943    3.3005    0.0000 O   0  0  0  0  0  0  0  0  0  0  0  0
   13.7720    1.4978    0.0000 N   0  0  0  0  0  0  0  0  0  0  0  0
  1  2  1  0
  2  3  1  0
  3  4  1  0
  4  5  1  0
  5  6  1  0
  6  7  1  0
  7  8  1  0
  8  9  1  0
  9 10  1  0
 10 11  1  0
 11 12  1  0
 12 13  1  0
 13 14  1  0
 14 15  1  0
 15 16  1  0
 16 17  1  0
 17 18  1  0
 18 19  1  0
 19 20  1  0
 20 21  1  0
 21 22  1  0
 22 23  1  0
 23 24  1  0
 24 25  1  0
 25 26  1  0
 26 27  1  0
 27 28  1  0
 28 29  1  0
 29 30  1  0
 30 31  1  0
 31 32  1  0
 32 33  1  0
 33 34  1  0
 34 35  1  0
 35 36  1  0
 36 37  1  0
 37 38  1  0
 38 39  1  0
 39 40  1  0
 40 41  1  0
 41 42  1  0
 42 43  1  0
 43 44  1  0
 44 45  1  0
 45 46  1  0
 46 47  1  0
 47 48  1  0
 48 49  1  0
 49 50  1  0
 50 51  1  0
 51 52  1  0
 52 53  1  0
 53 54  1  0
 54 55  1  0
 55 56  1  0
 56 57  1  0
 57 58  1  0
 57 59  1  0
 59 60  2  0
 59 61  1  0
 61  2  1  0
M  END
>  <Title>  (118) 
idAACPgen8

$$$$

     RDKit          2D

 68 78  0  0  0  0  0  0  0  0999 V2000
    6.4958   -4.6081    0.0000 C   0  0  0  0  0  0  0  0  0  0  0  0
    5.0565   -5.0307    0.0000 C   0  0  0  0  0  0  0  0  0  0  0  0
    4.4334   -3.6662    0.0000 C   0  0  0  0  0  0  0  0  0  0  0  0
    3.4511   -2.5326    0.0000 C   0  0  0  0  0  0  0  0  0  0  0  0
    2.1892   -1.7216    0.0000 C   0  0  0  0  0  0  0  0  0  0  0  0
    2.8124   -0.3572    0.0000 C   0  0  0  0  0  0  0  0  0  0  0  0
    1.9423    0.8647    0.0000 O   0  0  0  0  0  0  0  0  0  0  0  0
    4.3056   -0.2146    0.0000 N   0  0  0  0  0  0  0  0  0  0  0  0
    4.9287    1.1498    0.0000 C   0  0  0  0  0  0  0  0  0  0  0  0
    6.4219    1.2924    0.0000 N   0  0  0  0  0  0  0  0  0  0  0  0
    7.0450    2.6569    0.0000 N   0  0  0  0  0  0  0  0  0  0  0  0
    6.1749    3.8787    0.0000 N   0  0  0  0  0  0  0  0  0  0  0  0
    4.6817    3.7362    0.0000 N   0  0  0  0  0  0  0  0  0  0  0  0
    4.0586    2.3717    0.0000 N   0  0  0  0  0  0  0  0  0  0  0  0
    0.7500   -1.2990    0.0000 C   0  0  0  0  0  0  0  0  0  0  0  0
    1.5000    0.0000    0.0000 C   0  0  0  0  0  0  0  0  0  0  0  0
    0.7500    1.2990    0.0000 C   0  0  0  0  0  0  0  0  0  0  0  0
   -0.7500    1.2990    0.0000 C   0  0  0  0  0  0  0  0  0  0  0  0
   -1.5000    0.0000    0.0000 C   0  0  0  0  0  0  0  0  0  0  0  0
   -0.7500   -1.2990    0.0000 C   0  0  0  0  0  0  0  0  0  0  0  0
   -2.1892   -1.7216    0.0000 C   0  0  0  0  0  0  0  0  0  0  0  0
   -2.2606   -0.2233    0.0000 C   0  0  0  0  0  0  0  0  0  0  0  0
   -3.5939    0.4640    0.0000 C   0  0  0  0  0  0  0  0  0  0  0  0
   -4.8557   -0.3470    0.0000 C   0  0  0  0  0  0  0  0  0  0  0  0
   -4.7844   -1.8453    0.0000 C   0  0  0  0  0  0  0  0  0  0  0  0
   -3.4511   -2.5326    0.0000 C   0  0  0  0  0  0  0  0  0  0  0  0
   -4.4334   -3.6662    0.0000 C   0  0  0  0  0  0  0  0  0  0  0  0
   -5.3035   -2.4444    0.0000 C   0  0  0  0  0  0  0  0  0  0  0  0
   -6.7967   -2.5869    0.0000 C   0  0  0  0  0  0  0  0  0  0  0  0
   -7.4198   -3.9514    0.0000 C   0  0  0  0  0  0  0  0  0  0  0  0
   -6.5497   -5.1733    0.0000 C   0  0  0  0  0  0  0  0  0  0  0  0
   -5.0565   -5.0307    0.0000 C   0  0  0  0  0  0  0  0  0  0  0  0
   -5.2700   -6.5154    0.0000 C   0  0  0  0  0  0  0  0  0  0  0  0
   -6.6626   -5.9579    0.0000 C   0  0  0  0  0  0  0  0  0  0  0  0
   -7.8416   -6.8851    0.0000 C   0  0  0  0  0  0  0  0  0  0  0  0
   -7.6282   -8.3699    0.0000 C   0  0  0  0  0  0  0  0  0  0  0  0
   -6.2356   -8.9274    0.0000 C   0  0  0  0  0  0  0  0  0  0  0  0
   -5.0565   -8.0001    0.0000 C   0  0  0  0  0  0  0  0  0  0  0  0
   -4.4334   -9.3646    0.0000 C   0  0  0  0  0  0  0  0  0  0  0  0
   -5.9063   -9.6485    0.0000 C   0  0  0  0  0  0  0  0  0  0  0  0
   -6.3969  -11.0660    0.0000 C   0  0  0  0  0  0  0  0  0  0  0  0
   -5.4146  -12.1996    0.0000 C   0  0  0  0  0  0  0  0  0  0  0  0
   -3.9417  -11.9157    0.0000 C   0  0  0  0  0  0  0  0  0  0  0  0
   -3.4511  -10.4982    0.0000 C   0  0  0  0  0  0  0  0  0  0  0  0
   -2.1892  -11.3092    0.0000 C   0  0  0  0  0  0  0  0  0  0  0  0
   -3.2748  -12.3443    0.0000 C   0  0  0  0  0  0  0  0  0  0  0  0
   -2.9212  -13.8020    0.0000 C   0  0  0  0  0  0  0  0  0  0  0  0
   -1.4820  -14.2246    0.0000 C   0  0  0  0  0  0  0  0  0  0  0  0
   -0.3964  -13.1895    0.0000 C   0  0  0  0  0  0  0  0  0  0  0  0
   -0.7500  -11.7318    0.0000 C   0  0  0  0  0  0  0  0  0  0  0  0
    0.7500  -11.7318    0.0000 C   0  0  0  0  0  0  0  0  0  0  0  0
    0.3964  -13.1895    0.0000 C   0  0  0  0  0  0  0  0  0  0  0  0
    1.4820  -14.2246    0.0000 C   0  0  0  0  0  0  0  0  0  0  0  0
    2.9212  -13.8020    0.0000 C   0  0  0  0  0  0  0  0  0  0  0  0
    3.2748  -12.3443    0.0000 C   0  0  0  0  0  0  0  0  0  0  0  0
    2.1892  -11.3092    0.0000 C   0  0  0  0  0  0  0  0  0  0  0  0
    3.4511  -10.4982    0.0000 C   0  0  0  0  0  0  0  0  0  0  0  0
    3.9417  -11.9157    0.0000 C   0  0  0  0  0  0  0  0  0  0  0  0
    5.4146  -12.1996    0.0000 C   0  0  0  0  0  0  0  0  0  0  0  0
    6.3969  -11.0660    0.0000 C   0  0  0  0  0  0  0  0  0  0  0  0
    5.9063   -9.6485    0.0000 C   0  0  0  0  0  0  0  0  0  0  0  0
    4.4334   -9.3646    0.0000 C   0  0  0  0  0  0  0  0  0  0  0  0
    5.0565   -8.0001    0.0000 C   0  0  0  0  0  0  0  0  0  0  0  0
    6.2356   -8.9274    0.0000 C   0  0  0  0  0  0  0  0  0  0  0  0
    7.6282   -8.3699    0.0000 C   0  0  0  0  0  0  0  0  0  0  0  0
    7.8416   -6.8851    0.0000 C   0  0  0  0  0  0  0  0  0  0  0  0
    6.6626   -5.9579    0.0000 C   0  0  0  0  0  0  0  0  0  0  0  0
    5.2700   -6.5154    0.0000 C   0  0  0  0  0  0  0  0  0  0  0  0
  1  2  1  0
  2  3  1  0
  3  4  1  0
  4  5  1  0
  5  6  1  0
  6  7  2  0
  6  8  1  0
  8  9  1  0
  9 10  2  0
 10 11  1  0
 11 12  2  0
 12 13  1  0
 13 14  2  0
  5 15  1  0
 15 16  2  0
 16 17  1  0
 17 18  2  0
 18 19  1  0
 19 20  2  0
 20 21  1  0
 21 22  2  0
 22 23  1  0
 23 24  2  0
 24 25  1  0
 25 26  2  0
 26 27  1  0
 27 28  2  0
 28 29  1  0
 29 30  2  0
 30 31  1  0
 31 32  2  0
 32 33  1  0
 33 34  2  0
 34 35  1  0
 35 36  2  0
 36 37  1  0
 37 38  2  0
 38 39  1  0
 39 40  2  0
 40 41  1  0
 41 42  2  0
 42 43  1  0
 43 44  2  0
 44 45  1  0
 45 46  2  0
 46 47  1  0
 47 48  2  0
 48 49  1  0
 49 50  2  0
 50 51  1  0
 51 52  2  0
 52 53  1  0
 53 54  2  0
 54 55  1  0
 55 56  2  0
 56 57  1  0
 57 58  2  0
 58 59  1  0
 59 60  2  0
 60 61  1  0
 61 62  2  0
 62 63  1  0
 63 64  2  0
 64 65  1  0
 65 66  2  0
 66 67  1  0
 67 68  2  0
 68  2  1  0
 14  9  1  0
 20 15  1  0
 26 21  1  0
 32 27  1  0
 38 33  1  0
 44 39  1  0
 50 45  1  0
 56 51  1  0
 62 57  1  0
 68 63  1  0
M  END
>  <Title>  (119) 
idAACQgen8

$$$$

     RDKit          2D

  8  8  0  0  0  0  0  0  0  0999 V2000
    3.0000    0.0000    0.0000 C   0  0  0  0  0  0  0  0  0  0  0  0
    1.5000    0.0000    0.0000 C   0  0  0  0  0  0  0  0  0  0  0  0
    0.7500   -1.2990    0.0000 C   0  0  0  0  0  0  0  0  0  0  0  0
   -0.7500   -1.2990    0.0000 C   0  0  0  0  0  0  0  0  0  0  0  0
   -1.5000    0.0000    0.0000 C   0  0  0  0  0  0  0  0  0  0  0  0
   -3.0000    0.0000    0.0000 O   0  0  0  0  0  0  0  0  0  0  0  0
   -0.7500    1.2990    0.0000 C   0  0  0  0  0  0  0  0  0  0  0  0
    0.7500    1.2990    0.0000 C   0  0  0  0  0  0  0  0  0  0  0  0
  1  2  1  0
  2  3  2  0
  3  4  1  0
  4  5  1  0
  5  6  1  0
  5  7  2  0
  7  8  1  0
  8  2  1  0
M  END
>  <Title>  (120) 
idAACRgen8

$$$$

     RDKit          2D

 10 10  0  0  0  0  0  0  0  0999 V2000
    3.2286   -0.0000    0.0000 C   0  0  0  0  0  0  0  0  0  0  0  0
    1.7286    0.0000    0.0000 C   0  0  0  0  0  0  0  0  0  0  0  0
    1.0777    1.3515    0.0000 C   0  0  0  0  0  0  0  0  0  0  0  0
   -0.3846    1.6852    0.0000 C   0  0  0  0  0  0  0  0  0  0  0  0
   -1.5574    0.7500    0.0000 C   0  0  0  0  0  0  0  0  0  0  0  0
   -2.9088    1.4008    0.0000 O   0  0  0  0  0  0  0  0  0  0  0  0
   -1.5574   -0.7500    0.0000 C   0  0  0  0  0  0  0  0  0  0  0  0
   -2.9088   -1.4008    0.0000 O   0  0  0  0  0  0  0  0  0  0  0  0
   -0.3846   -1.6852    0.0000 C   0  0  0  0  0  0  0  0  0  0  0  0
    1.0777   -1.3515    0.0000 C   0  0  0  0  0  0  0  0  0  0  0  0
  1  2  1  0
  2  3  2  0
  3  4  1  0
  4  5  1  0
  5  6  1  0
  5  7  1  0
  7  8  1  0
  7  9  1  0
  9 10  1  0
 10  2  1  0
M  END
>  <Title>  (121) 
idAACSgen8

$$$$

     RDKit          2D

 10 10  0  0  0  0  0  0  0  0999 V2000
    3.1935   -3.4746    0.0000 C   0  0  0  0  0  0  0  0  0  0  0  0
    2.0788   -2.4709    0.0000 C   0  0  0  0  0  0  0  0  0  0  0  0
    2.3907   -1.0037    0.0000 C   0  0  0  0  0  0  0  0  0  0  0  0
    1.2760    0.0000    0.0000 C   0  0  0  0  0  0  0  0  0  0  0  0
    2.3907    1.0037    0.0000 C   0  0  0  0  0  0  0  0  0  0  0  0
    0.3943    1.2135    0.0000 C   0  0  0  0  0  0  0  0  0  0  0  0
   -1.0323    0.7500    0.0000 C   0  0  0  0  0  0  0  0  0  0  0  0
   -1.0323   -0.7500    0.0000 C   0  0  0  0  0  0  0  0  0  0  0  0
   -2.2458   -1.6317    0.0000 O   0  0  0  0  0  0  0  0  0  0  0  0
    0.3943   -1.2135    0.0000 C   0  0  0  0  0  0  0  0  0  0  0  0
  1  2  1  0
  2  3  1  0
  3  4  1  0
  4  5  1  0
  4  6  1  0
  6  7  1  0
  7  8  1  0
  8  9  1  0
  8 10  1  0
 10  4  1  0
M  END
>  <Title>  (122) 
idAACTgen8

$$$$

     RDKit          2D

  8  8  0  0  0  0  0  0  0  0999 V2000
    4.5000    0.0000    0.0000 C   0  0  0  0  0  0  0  0  0  0  0  0
    3.0000    0.0000    0.0000 C   0  0  0  0  0  0  0  0  0  0  0  0
    1.5000    0.0000    0.0000 C   0  0  0  0  0  0  0  0  0  0  0  0
    0.7500   -1.2990    0.0000 C   0  0  0  0  0  0  0  0  0  0  0  0
   -0.7500   -1.2990    0.0000 C   0  0  0  0  0  0  0  0  0  0  0  0
   -1.5000    0.0000    0.0000 C   0  0  0  0  0  0  0  0  0  0  0  0
   -0.7500    1.2990    0.0000 C   0  0  0  0  0  0  0  0  0  0  0  0
    0.7500    1.2990    0.0000 C   0  0  0  0  0  0  0  0  0  0  0  0
  1  2  3  0
  2  3  1  0
  3  4  2  0
  4  5  1  0
  5  6  1  0
  6  7  1  0
  7  8  2  0
  8  3  1  0
M  END
>  <Title>  (123) 
idAACUgen8

$$$$

     RDKit          2D

 30 33  0  0  0  0  0  0  0  0999 V2000
    3.0000    0.0000    0.0000 C   0  0  0  0  0  0  0  0  0  0  0  0
    1.5000    0.0000    0.0000 C   0  0  0  0  0  0  0  0  0  0  0  0
    0.7500   -1.2990    0.0000 C   0  0  0  0  0  0  0  0  0  0  0  0
   -0.7500   -1.2990    0.0000 C   0  0  0  0  0  0  0  0  0  0  0  0
   -1.5000    0.0000    0.0000 C   0  0  0  0  0  0  0  0  0  0  0  0
   -3.0000    0.0000    0.0000 C   0  0  0  0  0  0  0  0  0  0  0  0
   -3.7500   -1.2990    0.0000 O   0  0  0  0  0  0  0  0  0  0  0  0
   -3.7500    1.2990    0.0000 N   0  0  0  0  0  0  0  0  0  0  0  0
   -5.2500    1.2990    0.0000 C   0  0  0  0  0  0  0  0  0  0  0  0
   -6.1317    0.0855    0.0000 N   0  0  0  0  0  0  0  0  0  0  0  0
   -7.5583    0.5490    0.0000 N   0  0  0  0  0  0  0  0  0  0  0  0
   -7.5583    2.0490    0.0000 N   0  0  0  0  0  0  0  0  0  0  0  0
   -6.1317    2.5126    0.0000 N   0  0  0  0  0  0  0  0  0  0  0  0
   -5.6682    3.9391    0.0000 N   0  0  0  0  0  0  0  0  0  0  0  0
   -6.5498    5.1527    0.0000 C   0  0  0  0  0  0  0  0  0  0  0  0
   -5.6682    6.3662    0.0000 C   0  0  0  0  0  0  0  0  0  0  0  0
   -4.2416    5.9027    0.0000 C   0  0  0  0  0  0  0  0  0  0  0  0
   -3.0280    6.7844    0.0000 C   0  0  0  0  0  0  0  0  0  0  0  0
   -3.1848    8.2761    0.0000 O   0  0  0  0  0  0  0  0  0  0  0  0
   -1.6577    6.1742    0.0000 N   0  0  0  0  0  0  0  0  0  0  0  0
   -0.4442    7.0559    0.0000 C   0  0  0  0  0  0  0  0  0  0  0  0
    0.9261    6.4458    0.0000 N   0  0  0  0  0  0  0  0  0  0  0  0
    2.1396    7.3275    0.0000 N   0  0  0  0  0  0  0  0  0  0  0  0
    1.9829    8.8193    0.0000 N   0  0  0  0  0  0  0  0  0  0  0  0
    0.6125    9.4294    0.0000 N   0  0  0  0  0  0  0  0  0  0  0  0
   -0.6010    8.5477    0.0000 N   0  0  0  0  0  0  0  0  0  0  0  0
   -4.2416    4.4027    0.0000 C   0  0  0  0  0  0  0  0  0  0  0  0
   -0.7500    1.2990    0.0000 O   0  0  0  0  0  0  0  0  0  0  0  0
    0.7500    1.2990    0.0000 C   0  0  0  0  0  0  0  0  0  0  0  0
    1.5000    2.5981    0.0000 O   0  0  0  0  0  0  0  0  0  0  0  0
  1  2  1  0
  2  3  1  0
  3  4  1  0
  4  5  1  0
  5  6  1  0
  6  7  2  0
  6  8  1  0
  8  9  1  0
  9 10  2  0
 10 11  1  0
 11 12  2  0
 12 13  1  0
 13 14  1  0
 14 15  1  0
 15 16  1  0
 16 17  1  0
 17 18  1  0
 18 19  2  0
 18 20  1  0
 20 21  1  0
 21 22  2  0
 22 23  1  0
 23 24  2  0
 24 25  1  0
 25 26  2  0
 17 27  1  0
  5 28  1  0
 28 29  1  0
 29 30  2  0
 29  2  1  0
 13  9  1  0
 27 14  1  0
 26 21  1  0
M  END
>  <Title>  (124) 
idAACVgen8

$$$$

     RDKit          2D

 15 16  0  0  0  0  0  0  0  0999 V2000
    1.8478   -9.0619    0.0000 C   0  0  0  0  0  0  0  0  0  0  0  0
    2.0046   -7.5702    0.0000 N   0  0  0  0  0  0  0  0  0  0  0  0
    3.3037   -6.8202    0.0000 C   0  0  0  0  0  0  0  0  0  0  0  0
    2.9918   -5.3529    0.0000 C   0  0  0  0  0  0  0  0  0  0  0  0
    1.5000   -5.1962    0.0000 C   0  0  0  0  0  0  0  0  0  0  0  0
    0.7500   -3.8971    0.0000 C   0  0  0  0  0  0  0  0  0  0  0  0
   -0.7500   -3.8971    0.0000 O   0  0  0  0  0  0  0  0  0  0  0  0
    1.5000   -2.5981    0.0000 N   0  0  0  0  0  0  0  0  0  0  0  0
    0.7500   -1.2990    0.0000 C   0  0  0  0  0  0  0  0  0  0  0  0
    1.5000    0.0000    0.0000 N   0  0  0  0  0  0  0  0  0  0  0  0
    0.7500    1.2990    0.0000 N   0  0  0  0  0  0  0  0  0  0  0  0
   -0.7500    1.2990    0.0000 N   0  0  0  0  0  0  0  0  0  0  0  0
   -1.5000    0.0000    0.0000 N   0  0  0  0  0  0  0  0  0  0  0  0
   -0.7500   -1.2990    0.0000 N   0  0  0  0  0  0  0  0  0  0  0  0
    0.8899   -6.5665    0.0000 C   0  0  0  0  0  0  0  0  0  0  0  0
  1  2  1  0
  2  3  1  0
  3  4  1  0
  4  5  1  0
  5  6  1  0
  6  7  2  0
  6  8  1  0
  8  9  1  0
  9 10  2  0
 10 11  1  0
 11 12  2  0
 12 13  1  0
 13 14  2  0
  5 15  1  0
 15  2  1  0
 14  9  1  0
M  END
>  <Title>  (125) 
idAACWgen8

$$$$

     RDKit          2D

  6  5  0  0  0  0  0  0  0  0999 V2000
    0.0000    0.0000    0.0000 C   0  0  0  0  0  0  0  0  0  0  0  0
    1.2990    0.7500    0.0000 C   0  0  0  0  0  0  0  0  0  0  0  0
    2.5981   -0.0000    0.0000 C   0  0  0  0  0  0  0  0  0  0  0  0
    3.8971    0.7500    0.0000 C   0  0  0  0  0  0  0  0  0  0  0  0
    5.1962   -0.0000    0.0000 C   0  0  0  0  0  0  0  0  0  0  0  0
    3.8971    2.2500    0.0000 C   0  0  0  0  0  0  0  0  0  0  0  0
  1  2  1  0
  2  3  2  3
  3  4  1  0
  4  5  1  0
  4  6  1  0
M  END
>  <Title>  (126) 
idAACXgen8

$$$$

     RDKit          2D

 11 11  0  0  0  0  0  0  0  0999 V2000
    8.0260   -1.2990    0.0000 C   0  0  0  0  0  0  0  0  0  0  0  0
    6.5260   -1.2990    0.0000 C   0  0  0  0  0  0  0  0  0  0  0  0
    5.0260   -1.2990    0.0000 C   0  0  0  0  0  0  0  0  0  0  0  0
    3.5260   -1.2990    0.0000 C   0  0  0  0  0  0  0  0  0  0  0  0
    2.7760   -2.5981    0.0000 O   0  0  0  0  0  0  0  0  0  0  0  0
    2.7760    0.0000    0.0000 N   0  0  0  0  0  0  0  0  0  0  0  0
    1.2760    0.0000    0.0000 C   0  0  0  0  0  0  0  0  0  0  0  0
    0.3943    1.2135    0.0000 C   0  0  0  0  0  0  0  0  0  0  0  0
   -1.0323    0.7500    0.0000 C   0  0  0  0  0  0  0  0  0  0  0  0
   -1.0323   -0.7500    0.0000 C   0  0  0  0  0  0  0  0  0  0  0  0
    0.3943   -1.2135    0.0000 C   0  0  0  0  0  0  0  0  0  0  0  0
  1  2  1  0
  2  3  3  0
  3  4  1  0
  4  5  2  0
  4  6  1  0
  6  7  1  0
  7  8  2  0
  8  9  1  0
  9 10  1  0
 10 11  2  0
 11  7  1  0
M  END
>  <Title>  (127) 
idAACYgen8

$$$$

     RDKit          2D

  8  8  0  0  0  0  0  0  0  0999 V2000
    4.5000    0.0000    0.0000 N   0  0  0  0  0  0  0  0  0  0  0  0
    3.0000    0.0000    0.0000 C   0  0  0  0  0  0  0  0  0  0  0  0
    1.5000    0.0000    0.0000 C   0  0  0  0  0  0  0  0  0  0  0  0
    0.7500   -1.2990    0.0000 C   0  0  0  0  0  0  0  0  0  0  0  0
   -0.7500   -1.2990    0.0000 C   0  0  0  0  0  0  0  0  0  0  0  0
   -1.5000    0.0000    0.0000 C   0  0  0  0  0  0  0  0  0  0  0  0
   -0.7500    1.2990    0.0000 C   0  0  0  0  0  0  0  0  0  0  0  0
    0.7500    1.2990    0.0000 C   0  0  0  0  0  0  0  0  0  0  0  0
  1  2  3  0
  2  3  1  0
  3  4  2  0
  4  5  1  0
  5  6  1  0
  6  7  1  0
  7  8  1  0
  8  3  1  0
M  END
>  <Title>  (128) 
idAACZgen8

$$$$

     RDKit          2D

 15 16  0  0  0  0  0  0  0  0999 V2000
    2.7760    0.0000    0.0000 C   0  0  0  0  0  0  0  0  0  0  0  0
    1.2760    0.0000    0.0000 C   0  0  0  0  0  0  0  0  0  0  0  0
    0.3943    1.2135    0.0000 C   0  0  0  0  0  0  0  0  0  0  0  0
   -1.0323    0.7500    0.0000 C   0  0  0  0  0  0  0  0  0  0  0  0
   -2.2458    1.6317    0.0000 O   0  0  0  0  0  0  0  0  0  0  0  0
   -1.0323   -0.7500    0.0000 C   0  0  0  0  0  0  0  0  0  0  0  0
    0.3943   -1.2135    0.0000 C   0  0  0  0  0  0  0  0  0  0  0  0
    0.8578   -2.6401    0.0000 O   0  0  0  0  0  0  0  0  0  0  0  0
   -0.1459   -3.7548    0.0000 C   0  0  0  0  0  0  0  0  0  0  0  0
   -1.6131   -3.4430    0.0000 O   0  0  0  0  0  0  0  0  0  0  0  0
    0.3177   -5.1814    0.0000 C   0  0  0  0  0  0  0  0  0  0  0  0
    1.7442   -5.6449    0.0000 C   0  0  0  0  0  0  0  0  0  0  0  0
    1.7442   -7.1449    0.0000 C   0  0  0  0  0  0  0  0  0  0  0  0
    0.3177   -7.6085    0.0000 C   0  0  0  0  0  0  0  0  0  0  0  0
   -0.5640   -6.3949    0.0000 C   0  0  0  0  0  0  0  0  0  0  0  0
  1  2  1  0
  2  3  2  0
  3  4  1  0
  4  5  1  0
  4  6  1  0
  6  7  1  0
  7  8  1  0
  8  9  1  0
  9 10  2  0
  9 11  1  0
 11 12  2  0
 12 13  1  0
 13 14  1  0
 14 15  2  0
  7  2  1  0
 15 11  1  0
M  END
>  <Title>  (129) 
idAADAgen8

$$$$

     RDKit          2D

  8  8  0  0  0  0  0  0  0  0999 V2000
    3.7500   -1.2990    0.0000 C   0  0  0  0  0  0  0  0  0  0  0  0
    3.0000    0.0000    0.0000 C   0  0  0  0  0  0  0  0  0  0  0  0
    1.5000    0.0000    0.0000 C   0  0  0  0  0  0  0  0  0  0  0  0
    0.7500   -1.2990    0.0000 C   0  0  0  0  0  0  0  0  0  0  0  0
   -0.7500   -1.2990    0.0000 C   0  0  0  0  0  0  0  0  0  0  0  0
   -1.5000    0.0000    0.0000 C   0  0  0  0  0  0  0  0  0  0  0  0
   -0.7500    1.2990    0.0000 C   0  0  0  0  0  0  0  0  0  0  0  0
    0.7500    1.2990    0.0000 C   0  0  0  0  0  0  0  0  0  0  0  0
  1  2  1  0
  2  3  1  0
  3  4  2  0
  4  5  1  0
  5  6  1  0
  6  7  2  0
  7  8  1  0
  8  3  1  0
M  END
>  <Title>  (130) 
idAADBgen8

$$$$

     RDKit          2D

 32 36  0  0  0  0  0  0  0  0999 V2000
    1.2135   -7.3421    0.0000 C   0  0  0  0  0  0  0  0  0  0  0  0
    0.7500   -5.9156    0.0000 C   0  0  0  0  0  0  0  0  0  0  0  0
    1.9635   -5.0339    0.0000 C   0  0  0  0  0  0  0  0  0  0  0  0
    2.4271   -3.6073    0.0000 C   0  0  0  0  0  0  0  0  0  0  0  0
    1.9635   -2.1807    0.0000 C   0  0  0  0  0  0  0  0  0  0  0  0
    3.1771   -1.2990    0.0000 C   0  0  0  0  0  0  0  0  0  0  0  0
    3.0203    0.1927    0.0000 O   0  0  0  0  0  0  0  0  0  0  0  0
    4.5474   -1.9091    0.0000 N   0  0  0  0  0  0  0  0  0  0  0  0
    5.7609   -1.0275    0.0000 C   0  0  0  0  0  0  0  0  0  0  0  0
    7.1312   -1.6376    0.0000 N   0  0  0  0  0  0  0  0  0  0  0  0
    8.3447   -0.7559    0.0000 N   0  0  0  0  0  0  0  0  0  0  0  0
    8.1879    0.7359    0.0000 N   0  0  0  0  0  0  0  0  0  0  0  0
    6.8176    1.3460    0.0000 N   0  0  0  0  0  0  0  0  0  0  0  0
    5.6041    0.4643    0.0000 N   0  0  0  0  0  0  0  0  0  0  0  0
    0.7500   -1.2990    0.0000 C   0  0  0  0  0  0  0  0  0  0  0  0
    1.5000    0.0000    0.0000 C   0  0  0  0  0  0  0  0  0  0  0  0
    0.7500    1.2990    0.0000 C   0  0  0  0  0  0  0  0  0  0  0  0
   -0.7500    1.2990    0.0000 C   0  0  0  0  0  0  0  0  0  0  0  0
   -1.5000    0.0000    0.0000 C   0  0  0  0  0  0  0  0  0  0  0  0
   -0.7500   -1.2990    0.0000 C   0  0  0  0  0  0  0  0  0  0  0  0
   -1.9635   -2.1807    0.0000 C   0  0  0  0  0  0  0  0  0  0  0  0
   -2.9672   -1.0660    0.0000 C   0  0  0  0  0  0  0  0  0  0  0  0
   -4.4344   -1.3779    0.0000 C   0  0  0  0  0  0  0  0  0  0  0  0
   -4.8980   -2.8045    0.0000 C   0  0  0  0  0  0  0  0  0  0  0  0
   -3.8943   -3.9192    0.0000 C   0  0  0  0  0  0  0  0  0  0  0  0
   -2.4271   -3.6073    0.0000 C   0  0  0  0  0  0  0  0  0  0  0  0
   -1.9635   -5.0339    0.0000 C   0  0  0  0  0  0  0  0  0  0  0  0
   -3.3338   -5.6440    0.0000 C   0  0  0  0  0  0  0  0  0  0  0  0
   -3.4906   -7.1358    0.0000 C   0  0  0  0  0  0  0  0  0  0  0  0
   -2.2771   -8.0175    0.0000 C   0  0  0  0  0  0  0  0  0  0  0  0
   -0.9068   -7.4073    0.0000 C   0  0  0  0  0  0  0  0  0  0  0  0
   -0.7500   -5.9156    0.0000 C   0  0  0  0  0  0  0  0  0  0  0  0
  1  2  1  0
  2  3  2  0
  3  4  1  0
  4  5  1  0
  5  6  1  0
  6  7  2  0
  6  8  1  0
  8  9  1  0
  9 10  2  0
 10 11  1  0
 11 12  2  0
 12 13  1  0
 13 14  2  0
  5 15  1  0
 15 16  2  0
 16 17  1  0
 17 18  2  0
 18 19  1  0
 19 20  2  0
 20 21  1  0
 21 22  2  0
 22 23  1  0
 23 24  2  0
 24 25  1  0
 25 26  2  0
 26 27  1  0
 27 28  2  0
 28 29  1  0
 29 30  2  0
 30 31  1  0
 31 32  2  0
 32  2  1  0
 14  9  1  0
 20 15  1  0
 26 21  1  0
 32 27  1  0
M  END
>  <Title>  (131) 
idAADCgen8

$$$$

     RDKit          2D

 39 44  0  0  0  0  0  0  0  0999 V2000
    2.1535   -8.4451    0.0000 C   0  0  0  0  0  0  0  0  0  0  0  0
    1.4564   -7.1169    0.0000 C   0  0  0  0  0  0  0  0  0  0  0  0
    2.5792   -6.1222    0.0000 C   0  0  0  0  0  0  0  0  0  0  0  0
    3.1111   -4.7197    0.0000 C   0  0  0  0  0  0  0  0  0  0  0  0
    2.9303   -3.2306    0.0000 C   0  0  0  0  0  0  0  0  0  0  0  0
    2.0782   -1.9961    0.0000 C   0  0  0  0  0  0  0  0  0  0  0  0
    3.0729   -0.8734    0.0000 C   0  0  0  0  0  0  0  0  0  0  0  0
    2.5979    0.5494    0.0000 O   0  0  0  0  0  0  0  0  0  0  0  0
    4.5426   -1.1734    0.0000 N   0  0  0  0  0  0  0  0  0  0  0  0
    5.5372   -0.0506    0.0000 C   0  0  0  0  0  0  0  0  0  0  0  0
    7.0069   -0.3507    0.0000 N   0  0  0  0  0  0  0  0  0  0  0  0
    8.0016    0.7721    0.0000 N   0  0  0  0  0  0  0  0  0  0  0  0
    7.5266    2.1949    0.0000 N   0  0  0  0  0  0  0  0  0  0  0  0
    6.0569    2.4949    0.0000 N   0  0  0  0  0  0  0  0  0  0  0  0
    5.0622    1.3722    0.0000 N   0  0  0  0  0  0  0  0  0  0  0  0
    0.7500   -1.2990    0.0000 C   0  0  0  0  0  0  0  0  0  0  0  0
    1.5000    0.0000    0.0000 C   0  0  0  0  0  0  0  0  0  0  0  0
    0.7500    1.2990    0.0000 C   0  0  0  0  0  0  0  0  0  0  0  0
   -0.7500    1.2990    0.0000 C   0  0  0  0  0  0  0  0  0  0  0  0
   -1.5000    0.0000    0.0000 C   0  0  0  0  0  0  0  0  0  0  0  0
   -0.7500   -1.2990    0.0000 C   0  0  0  0  0  0  0  0  0  0  0  0
   -2.0782   -1.9961    0.0000 C   0  0  0  0  0  0  0  0  0  0  0  0
   -2.7212   -0.6409    0.0000 C   0  0  0  0  0  0  0  0  0  0  0  0
   -4.2164   -0.5202    0.0000 C   0  0  0  0  0  0  0  0  0  0  0  0
   -5.0685   -1.7547    0.0000 C   0  0  0  0  0  0  0  0  0  0  0  0
   -4.4254   -3.1099    0.0000 C   0  0  0  0  0  0  0  0  0  0  0  0
   -2.9303   -3.2306    0.0000 C   0  0  0  0  0  0  0  0  0  0  0  0
   -3.1111   -4.7197    0.0000 C   0  0  0  0  0  0  0  0  0  0  0  0
   -4.5917   -4.4790    0.0000 C   0  0  0  0  0  0  0  0  0  0  0  0
   -5.5403   -5.6410    0.0000 C   0  0  0  0  0  0  0  0  0  0  0  0
   -5.0084   -7.0435    0.0000 C   0  0  0  0  0  0  0  0  0  0  0  0
   -3.5278   -7.2841    0.0000 C   0  0  0  0  0  0  0  0  0  0  0  0
   -2.5792   -6.1222    0.0000 C   0  0  0  0  0  0  0  0  0  0  0  0
   -1.4564   -7.1169    0.0000 C   0  0  0  0  0  0  0  0  0  0  0  0
   -2.4955   -8.1987    0.0000 C   0  0  0  0  0  0  0  0  0  0  0  0
   -2.0782   -9.6395    0.0000 C   0  0  0  0  0  0  0  0  0  0  0  0
   -0.6218   -9.9984    0.0000 C   0  0  0  0  0  0  0  0  0  0  0  0
    0.4173   -8.9166    0.0000 C   0  0  0  0  0  0  0  0  0  0  0  0
   -0.0000   -7.4758    0.0000 C   0  0  0  0  0  0  0  0  0  0  0  0
  1  2  1  0
  2  3  2  0
  3  4  1  0
  4  5  1  0
  5  6  1  0
  6  7  1  0
  7  8  2  0
  7  9  1  0
  9 10  1  0
 10 11  2  0
 11 12  1  0
 12 13  2  0
 13 14  1  0
 14 15  2  0
  6 16  1  0
 16 17  2  0
 17 18  1  0
 18 19  2  0
 19 20  1  0
 20 21  2  0
 21 22  1  0
 22 23  2  0
 23 24  1  0
 24 25  2  0
 25 26  1  0
 26 27  2  0
 27 28  1  0
 28 29  2  0
 29 30  1  0
 30 31  2  0
 31 32  1  0
 32 33  2  0
 33 34  1  0
 34 35  2  0
 35 36  1  0
 36 37  2  0
 37 38  1  0
 38 39  2  0
 39  2  1  0
 15 10  1  0
 21 16  1  0
 27 22  1  0
 33 28  1  0
 39 34  1  0
M  END
>  <Title>  (132) 
idAADDgen8

$$$$

     RDKit          2D

 20 21  0  0  0  0  0  0  0  0999 V2000
    3.0000    0.0000    0.0000 C   0  0  0  0  0  0  0  0  0  0  0  0
    1.5000    0.0000    0.0000 C   0  0  0  0  0  0  0  0  0  0  0  0
    0.7500   -1.2990    0.0000 C   0  0  0  0  0  0  0  0  0  0  0  0
   -0.7500   -1.2990    0.0000 C   0  0  0  0  0  0  0  0  0  0  0  0
   -1.5000    0.0000    0.0000 C   0  0  0  0  0  0  0  0  0  0  0  0
   -3.0000    0.0000    0.0000 N   0  0  0  0  0  0  0  0  0  0  0  0
   -3.7500    1.2990    0.0000 C   0  0  0  0  0  0  0  0  0  0  0  0
   -3.0000    2.5981    0.0000 O   0  0  0  0  0  0  0  0  0  0  0  0
   -5.2500    1.2990    0.0000 C   0  0  0  0  0  0  0  0  0  0  0  0
   -6.0000    2.5981    0.0000 C   0  0  0  0  0  0  0  0  0  0  0  0
   -7.5000    2.5981    0.0000 C   0  0  0  0  0  0  0  0  0  0  0  0
   -8.2500    1.2990    0.0000 C   0  0  0  0  0  0  0  0  0  0  0  0
   -9.7500    1.2990    0.0000 C   0  0  0  0  0  0  0  0  0  0  0  0
  -10.5000    0.0000    0.0000 O   0  0  0  0  0  0  0  0  0  0  0  0
  -10.5000    2.5981    0.0000 O   0  0  0  0  0  0  0  0  0  0  0  0
   -7.5000    0.0000    0.0000 C   0  0  0  0  0  0  0  0  0  0  0  0
   -8.2500   -1.2990    0.0000 O   0  0  0  0  0  0  0  0  0  0  0  0
   -6.0000    0.0000    0.0000 C   0  0  0  0  0  0  0  0  0  0  0  0
   -0.7500    1.2990    0.0000 N   0  0  0  0  0  0  0  0  0  0  0  0
    0.7500    1.2990    0.0000 N   0  0  0  0  0  0  0  0  0  0  0  0
  1  2  1  0
  2  3  2  0
  3  4  1  0
  4  5  2  0
  5  6  1  0
  6  7  1  0
  7  8  2  0
  7  9  1  0
  9 10  2  0
 10 11  1  0
 11 12  2  0
 12 13  1  0
 13 14  2  0
 13 15  1  0
 12 16  1  0
 16 17  2  0
 16 18  1  0
  5 19  1  0
 19 20  2  0
 20  2  1  0
 18  9  1  0
M  END
>  <Title>  (133) 
idAADEgen8

$$$$

     RDKit          2D

 11 10  0  0  0  0  0  0  0  0999 V2000
    0.0000    0.0000    0.0000 C   0  0  0  0  0  0  0  0  0  0  0  0
   -0.0000   -1.5000    0.0000 C   0  0  0  0  0  0  0  0  0  0  0  0
   -0.0000   -3.0000    0.0000 C   0  0  0  0  0  0  0  0  0  0  0  0
   -0.0000   -4.5000    0.0000 C   0  0  0  0  0  0  0  0  0  0  0  0
   -0.0000   -6.0000    0.0000 C   0  0  0  0  0  0  0  0  0  0  0  0
   -0.0000   -7.5000    0.0000 C   0  0  0  0  0  0  0  0  0  0  0  0
   -0.0000   -9.0000    0.0000 C   0  0  0  0  0  0  0  0  0  0  0  0
   -0.0000  -10.5000    0.0000 C   0  0  0  0  0  0  0  0  0  0  0  0
   -0.0000  -12.0000    0.0000 C   0  0  0  0  0  0  0  0  0  0  0  0
   -0.0000  -13.5000    0.0000 C   0  0  0  0  0  0  0  0  0  0  0  0
   -0.0000  -15.0000    0.0000 C   0  0  0  0  0  0  0  0  0  0  0  0
  1  2  3  0
  2  3  1  0
  3  4  3  0
  4  5  1  0
  5  6  3  0
  6  7  1  0
  7  8  3  0
  8  9  1  0
  9 10  3  0
 10 11  1  0
M  END
>  <Title>  (134) 
idAADFgen8

$$$$

     RDKit          2D

 14 14  0  0  0  0  0  0  0  0999 V2000
    5.0260    3.8971    0.0000 C   0  0  0  0  0  0  0  0  0  0  0  0
    4.2760    2.5981    0.0000 C   0  0  0  0  0  0  0  0  0  0  0  0
    3.5260    1.2990    0.0000 C   0  0  0  0  0  0  0  0  0  0  0  0
    2.7760    0.0000    0.0000 C   0  0  0  0  0  0  0  0  0  0  0  0
    3.5260   -1.2990    0.0000 O   0  0  0  0  0  0  0  0  0  0  0  0
    1.2760    0.0000    0.0000 N   0  0  0  0  0  0  0  0  0  0  0  0
    0.3943    1.2135    0.0000 C   0  0  0  0  0  0  0  0  0  0  0  0
   -1.0323    0.7500    0.0000 C   0  0  0  0  0  0  0  0  0  0  0  0
   -1.0323   -0.7500    0.0000 C   0  0  0  0  0  0  0  0  0  0  0  0
   -2.2458   -1.6317    0.0000 C   0  0  0  0  0  0  0  0  0  0  0  0
   -2.0890   -3.1235    0.0000 O   0  0  0  0  0  0  0  0  0  0  0  0
   -3.6161   -1.0216    0.0000 O   0  0  0  0  0  0  0  0  0  0  0  0
    0.3943   -1.2135    0.0000 C   0  0  0  0  0  0  0  0  0  0  0  0
    0.8578   -2.6401    0.0000 O   0  0  0  0  0  0  0  0  0  0  0  0
  1  2  1  0
  2  3  3  0
  3  4  1  0
  4  5  2  0
  4  6  1  0
  6  7  1  0
  7  8  1  0
  8  9  1  0
  9 10  1  0
 10 11  2  0
 10 12  1  0
  9 13  1  0
 13 14  2  0
 13  6  1  0
M  END
>  <Title>  (135) 
idAADGgen8

$$$$

     RDKit          2D

 97 97  0  0  0  0  0  0  0  0999 V2000
   24.4224   -0.0000    0.0000 C   0  0  0  0  0  0  0  0  0  0  0  0
   22.9224    0.0000    0.0000 C   0  0  0  0  0  0  0  0  0  0  0  0
   22.8733   -1.4992    0.0000 C   0  0  0  0  0  0  0  0  0  0  0  0
   22.7263   -2.9920    0.0000 C   0  0  0  0  0  0  0  0  0  0  0  0
   22.4820   -4.4719    0.0000 C   0  0  0  0  0  0  0  0  0  0  0  0
   22.1413   -5.9328    0.0000 C   0  0  0  0  0  0  0  0  0  0  0  0
   21.7059   -7.3682    0.0000 C   0  0  0  0  0  0  0  0  0  0  0  0
   21.1775   -8.7720    0.0000 C   0  0  0  0  0  0  0  0  0  0  0  0
   20.5585  -10.1383    0.0000 C   0  0  0  0  0  0  0  0  0  0  0  0
   19.8514  -11.4612    0.0000 C   0  0  0  0  0  0  0  0  0  0  0  0
   19.0593  -12.7350    0.0000 C   0  0  0  0  0  0  0  0  0  0  0  0
   18.1856  -13.9543    0.0000 C   0  0  0  0  0  0  0  0  0  0  0  0
   17.2340  -15.1138    0.0000 C   0  0  0  0  0  0  0  0  0  0  0  0
   16.2086  -16.2086    0.0000 C   0  0  0  0  0  0  0  0  0  0  0  0
   15.1138  -17.2340    0.0000 C   0  0  0  0  0  0  0  0  0  0  0  0
   13.9543  -18.1856    0.0000 C   0  0  0  0  0  0  0  0  0  0  0  0
   12.7350  -19.0593    0.0000 C   0  0  0  0  0  0  0  0  0  0  0  0
   11.4612  -19.8514    0.0000 C   0  0  0  0  0  0  0  0  0  0  0  0
   10.1383  -20.5585    0.0000 C   0  0  0  0  0  0  0  0  0  0  0  0
    8.7720  -21.1775    0.0000 C   0  0  0  0  0  0  0  0  0  0  0  0
    7.3682  -21.7059    0.0000 C   0  0  0  0  0  0  0  0  0  0  0  0
    5.9328  -22.1413    0.0000 C   0  0  0  0  0  0  0  0  0  0  0  0
    4.4719  -22.4820    0.0000 C   0  0  0  0  0  0  0  0  0  0  0  0
    2.9920  -22.7263    0.0000 C   0  0  0  0  0  0  0  0  0  0  0  0
    1.4992  -22.8733    0.0000 C   0  0  0  0  0  0  0  0  0  0  0  0
   -0.0000  -22.9224    0.0000 C   0  0  0  0  0  0  0  0  0  0  0  0
   -1.4992  -22.8733    0.0000 C   0  0  0  0  0  0  0  0  0  0  0  0
   -2.9920  -22.7263    0.0000 C   0  0  0  0  0  0  0  0  0  0  0  0
   -4.4719  -22.4820    0.0000 C   0  0  0  0  0  0  0  0  0  0  0  0
   -5.9328  -22.1413    0.0000 C   0  0  0  0  0  0  0  0  0  0  0  0
   -7.3682  -21.7059    0.0000 C   0  0  0  0  0  0  0  0  0  0  0  0
   -8.7720  -21.1775    0.0000 C   0  0  0  0  0  0  0  0  0  0  0  0
  -10.1383  -20.5585    0.0000 C   0  0  0  0  0  0  0  0  0  0  0  0
  -11.4612  -19.8514    0.0000 C   0  0  0  0  0  0  0  0  0  0  0  0
  -12.7350  -19.0593    0.0000 C   0  0  0  0  0  0  0  0  0  0  0  0
  -13.9543  -18.1856    0.0000 C   0  0  0  0  0  0  0  0  0  0  0  0
  -15.1138  -17.2340    0.0000 C   0  0  0  0  0  0  0  0  0  0  0  0
  -16.2086  -16.2086    0.0000 C   0  0  0  0  0  0  0  0  0  0  0  0
  -17.2340  -15.1138    0.0000 C   0  0  0  0  0  0  0  0  0  0  0  0
  -18.1856  -13.9543    0.0000 C   0  0  0  0  0  0  0  0  0  0  0  0
  -19.0593  -12.7350    0.0000 C   0  0  0  0  0  0  0  0  0  0  0  0
  -19.8514  -11.4612    0.0000 C   0  0  0  0  0  0  0  0  0  0  0  0
  -20.5585  -10.1383    0.0000 C   0  0  0  0  0  0  0  0  0  0  0  0
  -21.1775   -8.7720    0.0000 C   0  0  0  0  0  0  0  0  0  0  0  0
  -21.7059   -7.3682    0.0000 C   0  0  0  0  0  0  0  0  0  0  0  0
  -22.1413   -5.9328    0.0000 C   0  0  0  0  0  0  0  0  0  0  0  0
  -22.4820   -4.4719    0.0000 C   0  0  0  0  0  0  0  0  0  0  0  0
  -22.7263   -2.9920    0.0000 C   0  0  0  0  0  0  0  0  0  0  0  0
  -22.8733   -1.4992    0.0000 C   0  0  0  0  0  0  0  0  0  0  0  0
  -22.9224    0.0000    0.0000 C   0  0  0  0  0  0  0  0  0  0  0  0
  -22.8733    1.4992    0.0000 C   0  0  0  0  0  0  0  0  0  0  0  0
  -22.7263    2.9920    0.0000 C   0  0  0  0  0  0  0  0  0  0  0  0
  -22.4820    4.4719    0.0000 C   0  0  0  0  0  0  0  0  0  0  0  0
  -22.1413    5.9328    0.0000 C   0  0  0  0  0  0  0  0  0  0  0  0
  -21.7059    7.3682    0.0000 C   0  0  0  0  0  0  0  0  0  0  0  0
  -21.1775    8.7720    0.0000 C   0  0  0  0  0  0  0  0  0  0  0  0
  -20.5585   10.1383    0.0000 C   0  0  0  0  0  0  0  0  0  0  0  0
  -19.8514   11.4612    0.0000 C   0  0  0  0  0  0  0  0  0  0  0  0
  -19.0593   12.7350    0.0000 C   0  0  0  0  0  0  0  0  0  0  0  0
  -18.1856   13.9543    0.0000 C   0  0  0  0  0  0  0  0  0  0  0  0
  -17.2340   15.1138    0.0000 C   0  0  0  0  0  0  0  0  0  0  0  0
  -16.2086   16.2086    0.0000 C   0  0  0  0  0  0  0  0  0  0  0  0
  -15.1138   17.2340    0.0000 C   0  0  0  0  0  0  0  0  0  0  0  0
  -13.9543   18.1856    0.0000 C   0  0  0  0  0  0  0  0  0  0  0  0
  -12.7350   19.0593    0.0000 C   0  0  0  0  0  0  0  0  0  0  0  0
  -11.4612   19.8514    0.0000 C   0  0  0  0  0  0  0  0  0  0  0  0
  -10.1383   20.5585    0.0000 C   0  0  0  0  0  0  0  0  0  0  0  0
   -8.7720   21.1775    0.0000 C   0  0  0  0  0  0  0  0  0  0  0  0
   -7.3682   21.7059    0.0000 C   0  0  0  0  0  0  0  0  0  0  0  0
   -5.9328   22.1413    0.0000 C   0  0  0  0  0  0  0  0  0  0  0  0
   -4.4719   22.4820    0.0000 C   0  0  0  0  0  0  0  0  0  0  0  0
   -2.9920   22.7263    0.0000 C   0  0  0  0  0  0  0  0  0  0  0  0
   -1.4992   22.8733    0.0000 C   0  0  0  0  0  0  0  0  0  0  0  0
    0.0000   22.9224    0.0000 C   0  0  0  0  0  0  0  0  0  0  0  0
    1.4992   22.8733    0.0000 C   0  0  0  0  0  0  0  0  0  0  0  0
    2.9920   22.7263    0.0000 C   0  0  0  0  0  0  0  0  0  0  0  0
    4.4719   22.4820    0.0000 C   0  0  0  0  0  0  0  0  0  0  0  0
    5.9328   22.1413    0.0000 C   0  0  0  0  0  0  0  0  0  0  0  0
    7.3682   21.7059    0.0000 C   0  0  0  0  0  0  0  0  0  0  0  0
    8.7720   21.1775    0.0000 C   0  0  0  0  0  0  0  0  0  0  0  0
   10.1383   20.5585    0.0000 C   0  0  0  0  0  0  0  0  0  0  0  0
   11.4612   19.8514    0.0000 C   0  0  0  0  0  0  0  0  0  0  0  0
   12.7350   19.0593    0.0000 C   0  0  0  0  0  0  0  0  0  0  0  0
   13.9543   18.1856    0.0000 C   0  0  0  0  0  0  0  0  0  0  0  0
   15.1138   17.2340    0.0000 C   0  0  0  0  0  0  0  0  0  0  0  0
   16.2086   16.2086    0.0000 C   0  0  0  0  0  0  0  0  0  0  0  0
   17.2340   15.1138    0.0000 C   0  0  0  0  0  0  0  0  0  0  0  0
   18.1856   13.9543    0.0000 C   0  0  0  0  0  0  0  0  0  0  0  0
   19.0593   12.7350    0.0000 C   0  0  0  0  0  0  0  0  0  0  0  0
   19.8514   11.4612    0.0000 C   0  0  0  0  0  0  0  0  0  0  0  0
   20.5585   10.1383    0.0000 C   0  0  0  0  0  0  0  0  0  0  0  0
   21.1775    8.7720    0.0000 C   0  0  0  0  0  0  0  0  0  0  0  0
   21.7059    7.3682    0.0000 C   0  0  0  0  0  0  0  0  0  0  0  0
   22.1413    5.9328    0.0000 C   0  0  0  0  0  0  0  0  0  0  0  0
   22.4820    4.4719    0.0000 C   0  0  0  0  0  0  0  0  0  0  0  0
   22.7263    2.9920    0.0000 C   0  0  0  0  0  0  0  0  0  0  0  0
   22.8733    1.4992    0.0000 C   0  0  0  0  0  0  0  0  0  0  0  0
  1  2  1  0
  2  3  1  0
  3  4  2  0
  4  5  1  0
  5  6  2  0
  6  7  1  0
  7  8  2  0
  8  9  1  0
  9 10  2  0
 10 11  1  0
 11 12  2  0
 12 13  1  0
 13 14  2  0
 14 15  1  0
 15 16  2  0
 16 17  1  0
 17 18  2  0
 18 19  1  0
 19 20  2  0
 20 21  1  0
 21 22  2  0
 22 23  1  0
 23 24  2  0
 24 25  1  0
 25 26  2  0
 26 27  1  0
 27 28  2  0
 28 29  1  0
 29 30  1  0
 30 31  1  0
 31 32  1  0
 32 33  1  0
 33 34  1  0
 34 35  1  0
 35 36  1  0
 36 37  1  0
 37 38  1  0
 38 39  1  0
 39 40  1  0
 40 41  1  0
 41 42  1  0
 42 43  1  0
 43 44  1  0
 44 45  1  0
 45 46  1  0
 46 47  1  0
 47 48  1  0
 48 49  1  0
 49 50  1  0
 50 51  1  0
 51 52  1  0
 52 53  1  0
 53 54  1  0
 54 55  1  0
 55 56  1  0
 56 57  1  0
 57 58  1  0
 58 59  1  0
 59 60  1  0
 60 61  1  0
 61 62  1  0
 62 63  1  0
 63 64  1  0
 64 65  1  0
 65 66  1  0
 66 67  1  0
 67 68  1  0
 68 69  1  0
 69 70  1  0
 70 71  1  0
 71 72  1  0
 72 73  1  0
 73 74  1  0
 74 75  1  0
 75 76  1  0
 76 77  1  0
 77 78  1  0
 78 79  1  0
 79 80  1  0
 80 81  1  0
 81 82  1  0
 82 83  1  0
 83 84  1  0
 84 85  1  0
 85 86  1  0
 86 87  1  0
 87 88  1  0
 88 89  1  0
 89 90  1  0
 90 91  1  0
 91 92  1  0
 92 93  1  0
 93 94  1  0
 94 95  1  0
 95 96  1  0
 96 97  1  0
 97  2  1  0
M  END
>  <Title>  (136) 
idAADHgen8

$$$$

     RDKit          2D

 64 64  0  0  0  0  0  0  0  0999 V2000
   17.8077   -0.0000    0.0000 C   0  0  0  0  0  0  0  0  0  0  0  0
   16.3077   -0.0000    0.0000 C   0  0  0  0  0  0  0  0  0  0  0  0
   14.8077    0.0000    0.0000 C   0  0  0  0  0  0  0  0  0  0  0  0
   14.7318   -1.4981    0.0000 C   0  0  0  0  0  0  0  0  0  0  0  0
   14.5046   -2.9808    0.0000 C   0  0  0  0  0  0  0  0  0  0  0  0
   14.1287   -4.4329    0.0000 C   0  0  0  0  0  0  0  0  0  0  0  0
   13.6077   -5.8395    0.0000 C   0  0  0  0  0  0  0  0  0  0  0  0
   12.9471   -7.1862    0.0000 C   0  0  0  0  0  0  0  0  0  0  0  0
   12.1537   -8.4592    0.0000 C   0  0  0  0  0  0  0  0  0  0  0  0
   11.2355   -9.6454    0.0000 C   0  0  0  0  0  0  0  0  0  0  0  0
   10.2020  -10.7325    0.0000 C   0  0  0  0  0  0  0  0  0  0  0  0
    9.0639  -11.7096    0.0000 C   0  0  0  0  0  0  0  0  0  0  0  0
    7.8328  -12.5665    0.0000 C   0  0  0  0  0  0  0  0  0  0  0  0
    6.5212  -13.2945    0.0000 C   0  0  0  0  0  0  0  0  0  0  0  0
    5.1428  -13.8860    0.0000 C   0  0  0  0  0  0  0  0  0  0  0  0
    3.7116  -14.3350    0.0000 C   0  0  0  0  0  0  0  0  0  0  0  0
    2.2423  -14.6370    0.0000 C   0  0  0  0  0  0  0  0  0  0  0  0
    0.7500  -14.7887    0.0000 C   0  0  0  0  0  0  0  0  0  0  0  0
   -0.7500  -14.7887    0.0000 C   0  0  0  0  0  0  0  0  0  0  0  0
   -2.2423  -14.6370    0.0000 C   0  0  0  0  0  0  0  0  0  0  0  0
   -3.7116  -14.3350    0.0000 C   0  0  0  0  0  0  0  0  0  0  0  0
   -5.1428  -13.8860    0.0000 C   0  0  0  0  0  0  0  0  0  0  0  0
   -6.5212  -13.2945    0.0000 C   0  0  0  0  0  0  0  0  0  0  0  0
   -7.8328  -12.5665    0.0000 C   0  0  0  0  0  0  0  0  0  0  0  0
   -9.0639  -11.7096    0.0000 C   0  0  0  0  0  0  0  0  0  0  0  0
  -10.2020  -10.7325    0.0000 C   0  0  0  0  0  0  0  0  0  0  0  0
  -11.2355   -9.6454    0.0000 C   0  0  0  0  0  0  0  0  0  0  0  0
  -12.1537   -8.4592    0.0000 C   0  0  0  0  0  0  0  0  0  0  0  0
  -12.9471   -7.1862    0.0000 C   0  0  0  0  0  0  0  0  0  0  0  0
  -13.6077   -5.8395    0.0000 C   0  0  0  0  0  0  0  0  0  0  0  0
  -14.1287   -4.4329    0.0000 C   0  0  0  0  0  0  0  0  0  0  0  0
  -14.5046   -2.9808    0.0000 C   0  0  0  0  0  0  0  0  0  0  0  0
  -14.7318   -1.4981    0.0000 C   0  0  0  0  0  0  0  0  0  0  0  0
  -14.8077    0.0000    0.0000 C   0  0  0  0  0  0  0  0  0  0  0  0
  -14.7318    1.4981    0.0000 C   0  0  0  0  0  0  0  0  0  0  0  0
  -14.5046    2.9808    0.0000 C   0  0  0  0  0  0  0  0  0  0  0  0
  -14.1287    4.4329    0.0000 C   0  0  0  0  0  0  0  0  0  0  0  0
  -13.6077    5.8395    0.0000 C   0  0  0  0  0  0  0  0  0  0  0  0
  -12.9471    7.1862    0.0000 C   0  0  0  0  0  0  0  0  0  0  0  0
  -12.1537    8.4592    0.0000 C   0  0  0  0  0  0  0  0  0  0  0  0
  -11.2355    9.6454    0.0000 C   0  0  0  0  0  0  0  0  0  0  0  0
  -10.2020   10.7325    0.0000 C   0  0  0  0  0  0  0  0  0  0  0  0
   -9.0639   11.7096    0.0000 C   0  0  0  0  0  0  0  0  0  0  0  0
   -7.8328   12.5665    0.0000 C   0  0  0  0  0  0  0  0  0  0  0  0
   -6.5212   13.2945    0.0000 C   0  0  0  0  0  0  0  0  0  0  0  0
   -5.1428   13.8860    0.0000 C   0  0  0  0  0  0  0  0  0  0  0  0
   -3.7116   14.3350    0.0000 C   0  0  0  0  0  0  0  0  0  0  0  0
   -2.2423   14.6370    0.0000 C   0  0  0  0  0  0  0  0  0  0  0  0
   -0.7500   14.7887    0.0000 C   0  0  0  0  0  0  0  0  0  0  0  0
    0.7500   14.7887    0.0000 C   0  0  0  0  0  0  0  0  0  0  0  0
    2.2423   14.6370    0.0000 C   0  0  0  0  0  0  0  0  0  0  0  0
    3.7116   14.3350    0.0000 C   0  0  0  0  0  0  0  0  0  0  0  0
    5.1428   13.8860    0.0000 C   0  0  0  0  0  0  0  0  0  0  0  0
    6.5212   13.2945    0.0000 C   0  0  0  0  0  0  0  0  0  0  0  0
    7.8328   12.5665    0.0000 C   0  0  0  0  0  0  0  0  0  0  0  0
    9.0639   11.7096    0.0000 C   0  0  0  0  0  0  0  0  0  0  0  0
   10.2020   10.7325    0.0000 C   0  0  0  0  0  0  0  0  0  0  0  0
   11.2355    9.6454    0.0000 C   0  0  0  0  0  0  0  0  0  0  0  0
   12.1537    8.4592    0.0000 C   0  0  0  0  0  0  0  0  0  0  0  0
   12.9471    7.1862    0.0000 C   0  0  0  0  0  0  0  0  0  0  0  0
   13.6077    5.8395    0.0000 C   0  0  0  0  0  0  0  0  0  0  0  0
   14.1287    4.4329    0.0000 C   0  0  0  0  0  0  0  0  0  0  0  0
   14.5046    2.9808    0.0000 C   0  0  0  0  0  0  0  0  0  0  0  0
   14.7318    1.4981    0.0000 C   0  0  0  0  0  0  0  0  0  0  0  0
  1  2  3  0
  2  3  1  0
  3  4  1  0
  4  5  1  0
  5  6  1  0
  6  7  1  0
  7  8  1  0
  8  9  1  0
  9 10  1  0
 10 11  2  0
 11 12  1  0
 12 13  2  0
 13 14  1  0
 14 15  2  0
 15 16  1  0
 16 17  2  0
 17 18  1  0
 18 19  2  0
 19 20  1  0
 20 21  2  0
 21 22  1  0
 22 23  2  0
 23 24  1  0
 24 25  2  0
 25 26  1  0
 26 27  1  0
 27 28  1  0
 28 29  1  0
 29 30  1  0
 30 31  1  0
 31 32  1  0
 32 33  1  0
 33 34  1  0
 34 35  1  0
 35 36  1  0
 36 37  1  0
 37 38  1  0
 38 39  1  0
 39 40  1  0
 40 41  1  0
 41 42  1  0
 42 43  1  0
 43 44  1  0
 44 45  1  0
 45 46  1  0
 46 47  1  0
 47 48  1  0
 48 49  1  0
 49 50  1  0
 50 51  1  0
 51 52  1  0
 52 53  1  0
 53 54  1  0
 54 55  1  0
 55 56  1  0
 56 57  1  0
 57 58  1  0
 58 59  1  0
 59 60  1  0
 60 61  1  0
 61 62  1  0
 62 63  1  0
 63 64  1  0
 64  3  1  0
M  END
>  <Title>  (137) 
idAADIgen8

$$$$

     RDKit          2D

  7  7  0  0  0  0  0  0  0  0999 V2000
    3.0000    0.0000    0.0000 C   0  0  0  0  0  0  0  0  0  0  0  0
    1.5000    0.0000    0.0000 C   0  0  0  0  0  0  0  0  0  0  0  0
    0.7500   -1.2990    0.0000 C   0  0  0  0  0  0  0  0  0  0  0  0
   -0.7500   -1.2990    0.0000 C   0  0  0  0  0  0  0  0  0  0  0  0
   -1.5000    0.0000    0.0000 C   0  0  0  0  0  0  0  0  0  0  0  0
   -0.7500    1.2990    0.0000 C   0  0  0  0  0  0  0  0  0  0  0  0
    0.7500    1.2990    0.0000 C   0  0  0  0  0  0  0  0  0  0  0  0
  1  2  1  0
  2  3  2  0
  3  4  1  0
  4  5  1  0
  5  6  1  0
  6  7  1  0
  7  2  1  0
M  END
>  <Title>  (138) 
idAADJgen8

$$$$

     RDKit          2D

 59 67  0  0  0  0  0  0  0  0999 V2000
    5.8191   -4.0525    0.0000 C   0  0  0  0  0  0  0  0  0  0  0  0
    5.8191   -5.5525    0.0000 C   0  0  0  0  0  0  0  0  0  0  0  0
    6.0572   -6.5074    0.0000 C   0  0  0  0  0  0  0  0  0  0  0  0
    7.3191   -5.5525    0.0000 C   0  0  0  0  0  0  0  0  0  0  0  0
    4.3191   -5.5525    0.0000 C   0  0  0  0  0  0  0  0  0  0  0  0
    4.0586   -4.0753    0.0000 C   0  0  0  0  0  0  0  0  0  0  0  0
    3.3086   -2.7762    0.0000 C   0  0  0  0  0  0  0  0  0  0  0  0
    2.1595   -1.8121    0.0000 C   0  0  0  0  0  0  0  0  0  0  0  0
    2.9095   -0.5130    0.0000 C   0  0  0  0  0  0  0  0  0  0  0  0
    2.1595    0.7860    0.0000 O   0  0  0  0  0  0  0  0  0  0  0  0
    4.4095   -0.5130    0.0000 N   0  0  0  0  0  0  0  0  0  0  0  0
    5.1595    0.7860    0.0000 C   0  0  0  0  0  0  0  0  0  0  0  0
    6.6595    0.7860    0.0000 N   0  0  0  0  0  0  0  0  0  0  0  0
    7.4095    2.0850    0.0000 N   0  0  0  0  0  0  0  0  0  0  0  0
    6.6595    3.3841    0.0000 N   0  0  0  0  0  0  0  0  0  0  0  0
    5.1595    3.3841    0.0000 N   0  0  0  0  0  0  0  0  0  0  0  0
    4.4095    2.0850    0.0000 N   0  0  0  0  0  0  0  0  0  0  0  0
    0.7500   -1.2990    0.0000 C   0  0  0  0  0  0  0  0  0  0  0  0
    1.5000    0.0000    0.0000 C   0  0  0  0  0  0  0  0  0  0  0  0
    0.7500    1.2990    0.0000 C   0  0  0  0  0  0  0  0  0  0  0  0
   -0.7500    1.2990    0.0000 C   0  0  0  0  0  0  0  0  0  0  0  0
   -1.5000    0.0000    0.0000 C   0  0  0  0  0  0  0  0  0  0  0  0
   -0.7500   -1.2990    0.0000 C   0  0  0  0  0  0  0  0  0  0  0  0
   -2.1595   -1.8121    0.0000 C   0  0  0  0  0  0  0  0  0  0  0  0
   -2.4200   -0.3349    0.0000 C   0  0  0  0  0  0  0  0  0  0  0  0
   -3.8296    0.1782    0.0000 C   0  0  0  0  0  0  0  0  0  0  0  0
   -4.9786   -0.7860    0.0000 C   0  0  0  0  0  0  0  0  0  0  0  0
   -4.7181   -2.2632    0.0000 C   0  0  0  0  0  0  0  0  0  0  0  0
   -3.3086   -2.7762    0.0000 C   0  0  0  0  0  0  0  0  0  0  0  0
   -4.0586   -4.0753    0.0000 C   0  0  0  0  0  0  0  0  0  0  0  0
   -5.2077   -3.1111    0.0000 C   0  0  0  0  0  0  0  0  0  0  0  0
   -6.6172   -3.6241    0.0000 C   0  0  0  0  0  0  0  0  0  0  0  0
   -6.8777   -5.1013    0.0000 C   0  0  0  0  0  0  0  0  0  0  0  0
   -5.7286   -6.0655    0.0000 C   0  0  0  0  0  0  0  0  0  0  0  0
   -4.3191   -5.5525    0.0000 C   0  0  0  0  0  0  0  0  0  0  0  0
   -4.0586   -7.0297    0.0000 C   0  0  0  0  0  0  0  0  0  0  0  0
   -5.5586   -7.0297    0.0000 C   0  0  0  0  0  0  0  0  0  0  0  0
   -6.3086   -8.3287    0.0000 C   0  0  0  0  0  0  0  0  0  0  0  0
   -5.5586   -9.6278    0.0000 C   0  0  0  0  0  0  0  0  0  0  0  0
   -4.0586   -9.6278    0.0000 C   0  0  0  0  0  0  0  0  0  0  0  0
   -3.3086   -8.3287    0.0000 C   0  0  0  0  0  0  0  0  0  0  0  0
   -2.1595   -9.2929    0.0000 C   0  0  0  0  0  0  0  0  0  0  0  0
   -3.3086  -10.2571    0.0000 C   0  0  0  0  0  0  0  0  0  0  0  0
   -3.0481  -11.7343    0.0000 C   0  0  0  0  0  0  0  0  0  0  0  0
   -1.6386  -12.2474    0.0000 C   0  0  0  0  0  0  0  0  0  0  0  0
   -0.4895  -11.2832    0.0000 C   0  0  0  0  0  0  0  0  0  0  0  0
   -0.7500   -9.8060    0.0000 C   0  0  0  0  0  0  0  0  0  0  0  0
    0.7500   -9.8060    0.0000 C   0  0  0  0  0  0  0  0  0  0  0  0
    0.4895  -11.2832    0.0000 C   0  0  0  0  0  0  0  0  0  0  0  0
    1.6386  -12.2474    0.0000 C   0  0  0  0  0  0  0  0  0  0  0  0
    3.0481  -11.7343    0.0000 C   0  0  0  0  0  0  0  0  0  0  0  0
    3.3086  -10.2571    0.0000 C   0  0  0  0  0  0  0  0  0  0  0  0
    2.1595   -9.2929    0.0000 C   0  0  0  0  0  0  0  0  0  0  0  0
    3.3086   -8.3287    0.0000 C   0  0  0  0  0  0  0  0  0  0  0  0
    4.0586   -9.6278    0.0000 C   0  0  0  0  0  0  0  0  0  0  0  0
    5.5586   -9.6278    0.0000 C   0  0  0  0  0  0  0  0  0  0  0  0
    6.3086   -8.3287    0.0000 C   0  0  0  0  0  0  0  0  0  0  0  0
    5.5586   -7.0297    0.0000 C   0  0  0  0  0  0  0  0  0  0  0  0
    4.0586   -7.0297    0.0000 C   0  0  0  0  0  0  0  0  0  0  0  0
  1  2  1  0
  2  3  1  0
  2  4  1  0
  2  5  1  0
  5  6  2  0
  6  7  1  0
  7  8  1  0
  8  9  1  0
  9 10  2  0
  9 11  1  0
 11 12  1  0
 12 13  2  0
 13 14  1  0
 14 15  2  0
 15 16  1  0
 16 17  2  0
  8 18  1  0
 18 19  2  0
 19 20  1  0
 20 21  2  0
 21 22  1  0
 22 23  2  0
 23 24  1  0
 24 25  2  0
 25 26  1  0
 26 27  2  0
 27 28  1  0
 28 29  2  0
 29 30  1  0
 30 31  2  0
 31 32  1  0
 32 33  2  0
 33 34  1  0
 34 35  2  0
 35 36  1  0
 36 37  2  0
 37 38  1  0
 38 39  2  0
 39 40  1  0
 40 41  2  0
 41 42  1  0
 42 43  2  0
 43 44  1  0
 44 45  2  0
 45 46  1  0
 46 47  2  0
 47 48  1  0
 48 49  2  0
 49 50  1  0
 50 51  2  0
 51 52  1  0
 52 53  2  0
 53 54  1  0
 54 55  2  0
 55 56  1  0
 56 57  2  0
 57 58  1  0
 58 59  2  0
 59  5  1  0
 17 12  1  0
 23 18  1  0
 29 24  1  0
 35 30  1  0
 41 36  1  0
 47 42  1  0
 53 48  1  0
 59 54  1  0
M  END
>  <Title>  (139) 
idAADKgen8

$$$$

     RDKit          2D

  9  9  0  0  0  0  0  0  0  0999 V2000
    3.0000    0.0000    0.0000 C   0  0  0  0  0  0  0  0  0  0  0  0
    1.5000    0.0000    0.0000 C   0  0  0  0  0  0  0  0  0  0  0  0
    0.7500   -1.2990    0.0000 C   0  0  0  0  0  0  0  0  0  0  0  0
   -0.7500   -1.2990    0.0000 C   0  0  0  0  0  0  0  0  0  0  0  0
   -1.5000   -2.5981    0.0000 O   0  0  0  0  0  0  0  0  0  0  0  0
   -1.5000    0.0000    0.0000 C   0  0  0  0  0  0  0  0  0  0  0  0
   -0.7500    1.2990    0.0000 C   0  0  0  0  0  0  0  0  0  0  0  0
    0.7500    1.2990    0.0000 C   0  0  0  0  0  0  0  0  0  0  0  0
    1.5000    2.5981    0.0000 C   0  0  0  0  0  0  0  0  0  0  0  0
  1  2  1  0
  2  3  2  0
  3  4  1  0
  4  5  1  0
  4  6  1  0
  6  7  1  0
  7  8  1  0
  8  9  1  0
  8  2  1  0
M  END
>  <Title>  (140) 
idAADLgen8

$$$$

     RDKit          2D

  8  8  0  0  0  0  0  0  0  0999 V2000
    3.0000    0.0000    0.0000 C   0  0  0  0  0  0  0  0  0  0  0  0
    1.5000    0.0000    0.0000 C   0  0  0  0  0  0  0  0  0  0  0  0
    0.7500   -1.2990    0.0000 C   0  0  0  0  0  0  0  0  0  0  0  0
   -0.7500   -1.2990    0.0000 C   0  0  0  0  0  0  0  0  0  0  0  0
   -1.5000   -2.5981    0.0000 O   0  0  0  0  0  0  0  0  0  0  0  0
   -1.5000    0.0000    0.0000 C   0  0  0  0  0  0  0  0  0  0  0  0
   -0.7500    1.2990    0.0000 C   0  0  0  0  0  0  0  0  0  0  0  0
    0.7500    1.2990    0.0000 C   0  0  0  0  0  0  0  0  0  0  0  0
  1  2  1  0
  2  3  2  0
  3  4  1  0
  4  5  1  0
  4  6  1  0
  6  7  1  0
  7  8  1  0
  8  2  1  0
M  END
>  <Title>  (141) 
idAADMgen8

$$$$

     RDKit          2D

 83 84  0  0  0  0  0  0  0  0999 V2000
   -1.9152   -2.5413    0.0000 C   0  0  0  0  0  0  0  0  0  0  0  0
   -2.2034   -1.0693    0.0000 C   0  0  0  0  0  0  0  0  0  0  0  0
   -2.4915    0.4028    0.0000 C   0  0  0  0  0  0  0  0  0  0  0  0
   -3.9740    0.1741    0.0000 C   0  0  0  0  0  0  0  0  0  0  0  0
   -5.4701    0.0654    0.0000 C   0  0  0  0  0  0  0  0  0  0  0  0
   -6.9700    0.0775    0.0000 C   0  0  0  0  0  0  0  0  0  0  0  0
   -8.4641    0.2103    0.0000 C   0  0  0  0  0  0  0  0  0  0  0  0
   -9.9427    0.4628    0.0000 C   0  0  0  0  0  0  0  0  0  0  0  0
  -11.3962    0.8335    0.0000 C   0  0  0  0  0  0  0  0  0  0  0  0
  -12.8151    1.3199    0.0000 C   0  0  0  0  0  0  0  0  0  0  0  0
  -14.1903    1.9190    0.0000 C   0  0  0  0  0  0  0  0  0  0  0  0
  -15.5128    2.6267    0.0000 C   0  0  0  0  0  0  0  0  0  0  0  0
  -16.7741    3.4386    0.0000 C   0  0  0  0  0  0  0  0  0  0  0  0
  -17.9660    4.3494    0.0000 C   0  0  0  0  0  0  0  0  0  0  0  0
  -19.0807    5.3531    0.0000 C   0  0  0  0  0  0  0  0  0  0  0  0
  -20.1111    6.4432    0.0000 C   0  0  0  0  0  0  0  0  0  0  0  0
  -21.0503    7.6127    0.0000 C   0  0  0  0  0  0  0  0  0  0  0  0
  -21.8925    8.8540    0.0000 C   0  0  0  0  0  0  0  0  0  0  0  0
  -22.6320   10.1591    0.0000 C   0  0  0  0  0  0  0  0  0  0  0  0
  -23.2641   11.5194    0.0000 C   0  0  0  0  0  0  0  0  0  0  0  0
  -23.7847   12.9261    0.0000 C   0  0  0  0  0  0  0  0  0  0  0  0
  -24.1904   14.3702    0.0000 C   0  0  0  0  0  0  0  0  0  0  0  0
  -24.4786   15.8423    0.0000 C   0  0  0  0  0  0  0  0  0  0  0  0
  -24.6474   17.3327    0.0000 C   0  0  0  0  0  0  0  0  0  0  0  0
  -24.6957   18.8320    0.0000 C   0  0  0  0  0  0  0  0  0  0  0  0
  -24.6232   20.3302    0.0000 C   0  0  0  0  0  0  0  0  0  0  0  0
  -24.4304   21.8178    0.0000 C   0  0  0  0  0  0  0  0  0  0  0  0
  -24.1186   23.2850    0.0000 C   0  0  0  0  0  0  0  0  0  0  0  0
  -23.6896   24.7224    0.0000 C   0  0  0  0  0  0  0  0  0  0  0  0
  -23.1464   26.1206    0.0000 C   0  0  0  0  0  0  0  0  0  0  0  0
  -22.4925   27.4705    0.0000 C   0  0  0  0  0  0  0  0  0  0  0  0
  -21.7321   28.7635    0.0000 C   0  0  0  0  0  0  0  0  0  0  0  0
  -20.8701   29.9910    0.0000 C   0  0  0  0  0  0  0  0  0  0  0  0
  -19.9121   31.1453    0.0000 C   0  0  0  0  0  0  0  0  0  0  0  0
  -18.8643   32.2187    0.0000 C   0  0  0  0  0  0  0  0  0  0  0  0
  -17.7336   33.2043    0.0000 C   0  0  0  0  0  0  0  0  0  0  0  0
  -16.5272   34.0957    0.0000 C   0  0  0  0  0  0  0  0  0  0  0  0
  -15.2530   34.8872    0.0000 C   0  0  0  0  0  0  0  0  0  0  0  0
  -13.9192   35.5735    0.0000 C   0  0  0  0  0  0  0  0  0  0  0  0
  -12.5346   36.1503    0.0000 C   0  0  0  0  0  0  0  0  0  0  0  0
  -11.1080   36.6139    0.0000 C   0  0  0  0  0  0  0  0  0  0  0  0
   -9.6487   36.9611    0.0000 C   0  0  0  0  0  0  0  0  0  0  0  0
   -8.1662   37.1898    0.0000 C   0  0  0  0  0  0  0  0  0  0  0  0
   -6.6702   37.2984    0.0000 C   0  0  0  0  0  0  0  0  0  0  0  0
   -5.1702   37.2863    0.0000 C   0  0  0  0  0  0  0  0  0  0  0  0
   -3.6761   37.1536    0.0000 C   0  0  0  0  0  0  0  0  0  0  0  0
   -2.1975   36.9011    0.0000 C   0  0  0  0  0  0  0  0  0  0  0  0
   -0.7441   36.5304    0.0000 C   0  0  0  0  0  0  0  0  0  0  0  0
    0.6749   36.0439    0.0000 C   0  0  0  0  0  0  0  0  0  0  0  0
    2.0501   35.4449    0.0000 C   0  0  0  0  0  0  0  0  0  0  0  0
    3.3726   34.7371    0.0000 C   0  0  0  0  0  0  0  0  0  0  0  0
    4.6339   33.9252    0.0000 C   0  0  0  0  0  0  0  0  0  0  0  0
    5.8257   33.0145    0.0000 C   0  0  0  0  0  0  0  0  0  0  0  0
    6.9405   32.0108    0.0000 C   0  0  0  0  0  0  0  0  0  0  0  0
    7.9708   30.9207    0.0000 C   0  0  0  0  0  0  0  0  0  0  0  0
    8.9101   29.7511    0.0000 C   0  0  0  0  0  0  0  0  0  0  0  0
    9.7522   28.5098    0.0000 C   0  0  0  0  0  0  0  0  0  0  0  0
   10.4917   27.2048    0.0000 C   0  0  0  0  0  0  0  0  0  0  0  0
   11.1238   25.8445    0.0000 C   0  0  0  0  0  0  0  0  0  0  0  0
   11.6444   24.4377    0.0000 C   0  0  0  0  0  0  0  0  0  0  0  0
   12.0501   22.9936    0.0000 C   0  0  0  0  0  0  0  0  0  0  0  0
   12.3383   21.5216    0.0000 C   0  0  0  0  0  0  0  0  0  0  0  0
   12.5071   20.0311    0.0000 C   0  0  0  0  0  0  0  0  0  0  0  0
   12.5554   18.5319    0.0000 C   0  0  0  0  0  0  0  0  0  0  0  0
   12.4830   17.0336    0.0000 C   0  0  0  0  0  0  0  0  0  0  0  0
   12.2902   15.5461    0.0000 C   0  0  0  0  0  0  0  0  0  0  0  0
   11.9783   14.0789    0.0000 C   0  0  0  0  0  0  0  0  0  0  0  0
   11.5494   12.6415    0.0000 C   0  0  0  0  0  0  0  0  0  0  0  0
   11.0062   11.2433    0.0000 C   0  0  0  0  0  0  0  0  0  0  0  0
   10.3523    9.8933    0.0000 C   0  0  0  0  0  0  0  0  0  0  0  0
    9.5918    8.6004    0.0000 C   0  0  0  0  0  0  0  0  0  0  0  0
    8.7298    7.3728    0.0000 C   0  0  0  0  0  0  0  0  0  0  0  0
    7.7718    6.2186    0.0000 C   0  0  0  0  0  0  0  0  0  0  0  0
    6.7240    5.1452    0.0000 C   0  0  0  0  0  0  0  0  0  0  0  0
    5.5933    4.1596    0.0000 C   0  0  0  0  0  0  0  0  0  0  0  0
    4.3869    3.2682    0.0000 C   0  0  0  0  0  0  0  0  0  0  0  0
    3.1127    2.4767    0.0000 C   0  0  0  0  0  0  0  0  0  0  0  0
    1.7790    1.7903    0.0000 C   0  0  0  0  0  0  0  0  0  0  0  0
    0.3943    1.2135    0.0000 C   0  0  0  0  0  0  0  0  0  0  0  0
    1.2760    0.0000    0.0000 C   0  0  0  0  0  0  0  0  0  0  0  0
    0.3943   -1.2135    0.0000 C   0  0  0  0  0  0  0  0  0  0  0  0
   -1.0323   -0.7500    0.0000 C   0  0  0  0  0  0  0  0  0  0  0  0
   -1.0323    0.7500    0.0000 C   0  0  0  0  0  0  0  0  0  0  0  0
  1  2  3  0
  2  3  1  0
  3  4  1  0
  4  5  1  0
  5  6  1  0
  6  7  1  0
  7  8  1  0
  8  9  1  0
  9 10  1  0
 10 11  1  0
 11 12  1  0
 12 13  1  0
 13 14  1  0
 14 15  1  0
 15 16  1  0
 16 17  1  0
 17 18  1  0
 18 19  1  0
 19 20  1  0
 20 21  1  0
 21 22  1  0
 22 23  1  0
 23 24  1  0
 24 25  1  0
 25 26  1  0
 26 27  1  0
 27 28  1  0
 28 29  1  0
 29 30  1  0
 30 31  1  0
 31 32  1  0
 32 33  1  0
 33 34  1  0
 34 35  1  0
 35 36  1  0
 36 37  1  0
 37 38  1  0
 38 39  1  0
 39 40  1  0
 40 41  1  0
 41 42  1  0
 42 43  1  0
 43 44  1  0
 44 45  1  0
 45 46  1  0
 46 47  1  0
 47 48  1  0
 48 49  1  0
 49 50  1  0
 50 51  1  0
 51 52  1  0
 52 53  1  0
 53 54  1  0
 54 55  1  0
 55 56  1  0
 56 57  2  0
 57 58  1  0
 58 59  2  0
 59 60  1  0
 60 61  2  0
 61 62  1  0
 62 63  2  0
 63 64  1  0
 64 65  2  0
 65 66  1  0
 66 67  2  0
 67 68  1  0
 68 69  2  0
 69 70  1  0
 70 71  2  0
 71 72  1  0
 72 73  2  0
 73 74  1  0
 74 75  2  0
 75 76  1  0
 76 77  2  0
 77 78  1  0
 78 79  2  0
 79 80  1  0
 80 81  2  0
 81 82  1  0
 82 83  2  0
 83  3  1  0
 83 79  1  0
M  END
>  <Title>  (142) 
idAADNgen8

$$$$

     RDKit          2D

  7  7  0  0  0  0  0  0  0  0999 V2000
    3.5260   -1.2990    0.0000 C   0  0  0  0  0  0  0  0  0  0  0  0
    2.7760    0.0000    0.0000 C   0  0  0  0  0  0  0  0  0  0  0  0
    1.2760    0.0000    0.0000 C   0  0  0  0  0  0  0  0  0  0  0  0
    0.3943    1.2135    0.0000 C   0  0  0  0  0  0  0  0  0  0  0  0
   -1.0323    0.7500    0.0000 C   0  0  0  0  0  0  0  0  0  0  0  0
   -1.0323   -0.7500    0.0000 C   0  0  0  0  0  0  0  0  0  0  0  0
    0.3943   -1.2135    0.0000 C   0  0  0  0  0  0  0  0  0  0  0  0
  1  2  1  0
  2  3  1  0
  3  4  2  0
  4  5  1  0
  5  6  1  0
  6  7  2  0
  7  3  1  0
M  END
>  <Title>  (143) 
idAADOgen8

$$$$

     RDKit          2D

100101  0  0  0  0  0  0  0  0999 V2000
   -2.1647   -1.0844    0.0000 C   0  0  0  0  0  0  0  0  0  0  0  0
   -2.4861    0.3808    0.0000 C   0  0  0  0  0  0  0  0  0  0  0  0
   -3.9610    0.1074    0.0000 C   0  0  0  0  0  0  0  0  0  0  0  0
   -5.4506   -0.0689    0.0000 C   0  0  0  0  0  0  0  0  0  0  0  0
   -6.9486   -0.1474    0.0000 C   0  0  0  0  0  0  0  0  0  0  0  0
   -8.4484   -0.1278    0.0000 C   0  0  0  0  0  0  0  0  0  0  0  0
   -9.9438   -0.0101    0.0000 C   0  0  0  0  0  0  0  0  0  0  0  0
  -11.4283    0.2052    0.0000 C   0  0  0  0  0  0  0  0  0  0  0  0
  -12.8955    0.5170    0.0000 C   0  0  0  0  0  0  0  0  0  0  0  0
  -14.3392    0.9242    0.0000 C   0  0  0  0  0  0  0  0  0  0  0  0
  -15.7532    1.4249    0.0000 C   0  0  0  0  0  0  0  0  0  0  0  0
  -17.1313    2.0170    0.0000 C   0  0  0  0  0  0  0  0  0  0  0  0
  -18.4678    2.6980    0.0000 C   0  0  0  0  0  0  0  0  0  0  0  0
  -19.7570    3.4649    0.0000 C   0  0  0  0  0  0  0  0  0  0  0  0
  -20.9931    4.3146    0.0000 C   0  0  0  0  0  0  0  0  0  0  0  0
  -22.1711    5.2432    0.0000 C   0  0  0  0  0  0  0  0  0  0  0  0
  -23.2858    6.2469    0.0000 C   0  0  0  0  0  0  0  0  0  0  0  0
  -24.3325    7.3213    0.0000 C   0  0  0  0  0  0  0  0  0  0  0  0
  -25.3067    8.4620    0.0000 C   0  0  0  0  0  0  0  0  0  0  0  0
  -26.2042    9.6638    0.0000 C   0  0  0  0  0  0  0  0  0  0  0  0
  -27.0211   10.9218    0.0000 C   0  0  0  0  0  0  0  0  0  0  0  0
  -27.7541   12.2306    0.0000 C   0  0  0  0  0  0  0  0  0  0  0  0
  -28.3998   13.5845    0.0000 C   0  0  0  0  0  0  0  0  0  0  0  0
  -28.9557   14.9777    0.0000 C   0  0  0  0  0  0  0  0  0  0  0  0
  -29.4192   16.4043    0.0000 C   0  0  0  0  0  0  0  0  0  0  0  0
  -29.7884   17.8581    0.0000 C   0  0  0  0  0  0  0  0  0  0  0  0
  -30.0618   19.3330    0.0000 C   0  0  0  0  0  0  0  0  0  0  0  0
  -30.2381   20.8226    0.0000 C   0  0  0  0  0  0  0  0  0  0  0  0
  -30.3166   22.3205    0.0000 C   0  0  0  0  0  0  0  0  0  0  0  0
  -30.2970   23.8204    0.0000 C   0  0  0  0  0  0  0  0  0  0  0  0
  -30.1793   25.3158    0.0000 C   0  0  0  0  0  0  0  0  0  0  0  0
  -29.9640   26.8003    0.0000 C   0  0  0  0  0  0  0  0  0  0  0  0
  -29.6522   28.2675    0.0000 C   0  0  0  0  0  0  0  0  0  0  0  0
  -29.2450   29.7112    0.0000 C   0  0  0  0  0  0  0  0  0  0  0  0
  -28.7443   31.1251    0.0000 C   0  0  0  0  0  0  0  0  0  0  0  0
  -28.1522   32.5033    0.0000 C   0  0  0  0  0  0  0  0  0  0  0  0
  -27.4712   33.8398    0.0000 C   0  0  0  0  0  0  0  0  0  0  0  0
  -26.7043   35.1289    0.0000 C   0  0  0  0  0  0  0  0  0  0  0  0
  -25.8546   36.3651    0.0000 C   0  0  0  0  0  0  0  0  0  0  0  0
  -24.9260   37.5431    0.0000 C   0  0  0  0  0  0  0  0  0  0  0  0
  -23.9223   38.6578    0.0000 C   0  0  0  0  0  0  0  0  0  0  0  0
  -22.8479   39.7045    0.0000 C   0  0  0  0  0  0  0  0  0  0  0  0
  -21.7072   40.6787    0.0000 C   0  0  0  0  0  0  0  0  0  0  0  0
  -20.5054   41.5762    0.0000 C   0  0  0  0  0  0  0  0  0  0  0  0
  -19.2474   42.3931    0.0000 C   0  0  0  0  0  0  0  0  0  0  0  0
  -17.9386   43.1261    0.0000 C   0  0  0  0  0  0  0  0  0  0  0  0
  -16.5847   43.7718    0.0000 C   0  0  0  0  0  0  0  0  0  0  0  0
  -15.1915   44.3277    0.0000 C   0  0  0  0  0  0  0  0  0  0  0  0
  -13.7649   44.7912    0.0000 C   0  0  0  0  0  0  0  0  0  0  0  0
  -12.3111   45.1604    0.0000 C   0  0  0  0  0  0  0  0  0  0  0  0
  -10.8362   45.4338    0.0000 C   0  0  0  0  0  0  0  0  0  0  0  0
   -9.3466   45.6101    0.0000 C   0  0  0  0  0  0  0  0  0  0  0  0
   -7.8487   45.6886    0.0000 C   0  0  0  0  0  0  0  0  0  0  0  0
   -6.3488   45.6689    0.0000 C   0  0  0  0  0  0  0  0  0  0  0  0
   -4.8534   45.5513    0.0000 C   0  0  0  0  0  0  0  0  0  0  0  0
   -3.3689   45.3360    0.0000 C   0  0  0  0  0  0  0  0  0  0  0  0
   -1.9017   45.0241    0.0000 C   0  0  0  0  0  0  0  0  0  0  0  0
   -0.4580   44.6170    0.0000 C   0  0  0  0  0  0  0  0  0  0  0  0
    0.9559   44.1163    0.0000 C   0  0  0  0  0  0  0  0  0  0  0  0
    2.3341   43.5242    0.0000 C   0  0  0  0  0  0  0  0  0  0  0  0
    3.6706   42.8432    0.0000 C   0  0  0  0  0  0  0  0  0  0  0  0
    4.9597   42.0762    0.0000 C   0  0  0  0  0  0  0  0  0  0  0  0
    6.1959   41.2266    0.0000 C   0  0  0  0  0  0  0  0  0  0  0  0
    7.3739   40.2980    0.0000 C   0  0  0  0  0  0  0  0  0  0  0  0
    8.4886   39.2943    0.0000 C   0  0  0  0  0  0  0  0  0  0  0  0
    9.5353   38.2198    0.0000 C   0  0  0  0  0  0  0  0  0  0  0  0
   10.5095   37.0792    0.0000 C   0  0  0  0  0  0  0  0  0  0  0  0
   11.4070   35.8773    0.0000 C   0  0  0  0  0  0  0  0  0  0  0  0
   12.2239   34.6193    0.0000 C   0  0  0  0  0  0  0  0  0  0  0  0
   12.9568   33.3106    0.0000 C   0  0  0  0  0  0  0  0  0  0  0  0
   13.6026   31.9567    0.0000 C   0  0  0  0  0  0  0  0  0  0  0  0
   14.1585   30.5635    0.0000 C   0  0  0  0  0  0  0  0  0  0  0  0
   14.6220   29.1369    0.0000 C   0  0  0  0  0  0  0  0  0  0  0  0
   14.9912   27.6831    0.0000 C   0  0  0  0  0  0  0  0  0  0  0  0
   15.2646   26.2082    0.0000 C   0  0  0  0  0  0  0  0  0  0  0  0
   15.4409   24.7186    0.0000 C   0  0  0  0  0  0  0  0  0  0  0  0
   15.5194   23.2206    0.0000 C   0  0  0  0  0  0  0  0  0  0  0  0
   15.4997   21.7208    0.0000 C   0  0  0  0  0  0  0  0  0  0  0  0
   15.3820   20.2254    0.0000 C   0  0  0  0  0  0  0  0  0  0  0  0
   15.1668   18.7409    0.0000 C   0  0  0  0  0  0  0  0  0  0  0  0
   14.8549   17.2737    0.0000 C   0  0  0  0  0  0  0  0  0  0  0  0
   14.4478   15.8300    0.0000 C   0  0  0  0  0  0  0  0  0  0  0  0
   13.9471   14.4161    0.0000 C   0  0  0  0  0  0  0  0  0  0  0  0
   13.3550   13.0379    0.0000 C   0  0  0  0  0  0  0  0  0  0  0  0
   12.6740   11.7014    0.0000 C   0  0  0  0  0  0  0  0  0  0  0  0
   11.9070   10.4122    0.0000 C   0  0  0  0  0  0  0  0  0  0  0  0
   11.0574    9.1761    0.0000 C   0  0  0  0  0  0  0  0  0  0  0  0
   10.1288    7.9981    0.0000 C   0  0  0  0  0  0  0  0  0  0  0  0
    9.1251    6.8834    0.0000 C   0  0  0  0  0  0  0  0  0  0  0  0
    8.0506    5.8367    0.0000 C   0  0  0  0  0  0  0  0  0  0  0  0
    6.9100    4.8625    0.0000 C   0  0  0  0  0  0  0  0  0  0  0  0
    5.7081    3.9650    0.0000 C   0  0  0  0  0  0  0  0  0  0  0  0
    4.4501    3.1481    0.0000 C   0  0  0  0  0  0  0  0  0  0  0  0
    3.1414    2.4151    0.0000 C   0  0  0  0  0  0  0  0  0  0  0  0
    1.7875    1.7694    0.0000 C   0  0  0  0  0  0  0  0  0  0  0  0
    0.3943    1.2135    0.0000 C   0  0  0  0  0  0  0  0  0  0  0  0
    1.2760    0.0000    0.0000 C   0  0  0  0  0  0  0  0  0  0  0  0
    0.3943   -1.2135    0.0000 C   0  0  0  0  0  0  0  0  0  0  0  0
   -1.0323   -0.7500    0.0000 C   0  0  0  0  0  0  0  0  0  0  0  0
   -1.0323    0.7500    0.0000 C   0  0  0  0  0  0  0  0  0  0  0  0
  1  2  1  0
  2  3  1  0
  3  4  1  0
  4  5  1  0
  5  6  1  0
  6  7  1  0
  7  8  1  0
  8  9  1  0
  9 10  1  0
 10 11  1  0
 11 12  1  0
 12 13  1  0
 13 14  1  0
 14 15  1  0
 15 16  1  0
 16 17  1  0
 17 18  1  0
 18 19  1  0
 19 20  1  0
 20 21  1  0
 21 22  1  0
 22 23  1  0
 23 24  1  0
 24 25  1  0
 25 26  1  0
 26 27  1  0
 27 28  1  0
 28 29  1  0
 29 30  1  0
 30 31  1  0
 31 32  1  0
 32 33  1  0
 33 34  1  0
 34 35  1  0
 35 36  1  0
 36 37  1  0
 37 38  1  0
 38 39  1  0
 39 40  1  0
 40 41  1  0
 41 42  1  0
 42 43  1  0
 43 44  1  0
 44 45  1  0
 45 46  1  0
 46 47  1  0
 47 48  1  0
 48 49  1  0
 49 50  1  0
 50 51  1  0
 51 52  1  0
 52 53  1  0
 53 54  1  0
 54 55  1  0
 55 56  1  0
 56 57  1  0
 57 58  1  0
 58 59  1  0
 59 60  1  0
 60 61  1  0
 61 62  1  0
 62 63  1  0
 63 64  1  0
 64 65  1  0
 65 66  1  0
 66 67  2  0
 67 68  1  0
 68 69  2  0
 69 70  1  0
 70 71  2  0
 71 72  1  0
 72 73  2  0
 73 74  1  0
 74 75  1  0
 75 76  1  0
 76 77  1  0
 77 78  2  0
 78 79  1  0
 79 80  2  0
 80 81  1  0
 81 82  2  0
 82 83  1  0
 83 84  2  0
 84 85  1  0
 85 86  2  0
 86 87  1  0
 87 88  2  0
 88 89  1  0
 89 90  2  0
 90 91  1  0
 91 92  2  0
 92 93  1  0
 93 94  2  0
 94 95  1  0
 95 96  2  0
 96 97  1  0
 97 98  2  0
 98 99  1  0
 99100  2  0
100  2  1  0
100 96  1  0
M  END
>  <Title>  (144) 
idAADPgen8

$$$$

     RDKit          2D

 27 30  0  0  0  0  0  0  0  0999 V2000
   -2.3737   -6.1885    0.0000 C   0  0  0  0  0  0  0  0  0  0  0  0
   -1.4095   -5.0395    0.0000 C   0  0  0  0  0  0  0  0  0  0  0  0
   -0.0000   -5.5525    0.0000 C   0  0  0  0  0  0  0  0  0  0  0  0
    1.4095   -5.0395    0.0000 C   0  0  0  0  0  0  0  0  0  0  0  0
    2.1595   -3.7404    0.0000 C   0  0  0  0  0  0  0  0  0  0  0  0
    1.8991   -2.2632    0.0000 C   0  0  0  0  0  0  0  0  0  0  0  0
    3.1981   -1.5132    0.0000 C   0  0  0  0  0  0  0  0  0  0  0  0
    3.1981   -0.0132    0.0000 O   0  0  0  0  0  0  0  0  0  0  0  0
    4.4971   -2.2632    0.0000 N   0  0  0  0  0  0  0  0  0  0  0  0
    5.7962   -1.5132    0.0000 C   0  0  0  0  0  0  0  0  0  0  0  0
    7.0952   -2.2632    0.0000 N   0  0  0  0  0  0  0  0  0  0  0  0
    8.3943   -1.5132    0.0000 N   0  0  0  0  0  0  0  0  0  0  0  0
    8.3943   -0.0132    0.0000 N   0  0  0  0  0  0  0  0  0  0  0  0
    7.0952    0.7368    0.0000 N   0  0  0  0  0  0  0  0  0  0  0  0
    5.7962   -0.0132    0.0000 N   0  0  0  0  0  0  0  0  0  0  0  0
    0.7500   -1.2990    0.0000 C   0  0  0  0  0  0  0  0  0  0  0  0
    1.5000    0.0000    0.0000 C   0  0  0  0  0  0  0  0  0  0  0  0
    0.7500    1.2990    0.0000 C   0  0  0  0  0  0  0  0  0  0  0  0
   -0.7500    1.2990    0.0000 C   0  0  0  0  0  0  0  0  0  0  0  0
   -1.5000    0.0000    0.0000 C   0  0  0  0  0  0  0  0  0  0  0  0
   -0.7500   -1.2990    0.0000 C   0  0  0  0  0  0  0  0  0  0  0  0
   -1.8991   -2.2632    0.0000 C   0  0  0  0  0  0  0  0  0  0  0  0
   -3.0481   -1.2990    0.0000 C   0  0  0  0  0  0  0  0  0  0  0  0
   -4.4577   -1.8121    0.0000 C   0  0  0  0  0  0  0  0  0  0  0  0
   -4.7181   -3.2893    0.0000 C   0  0  0  0  0  0  0  0  0  0  0  0
   -3.5691   -4.2535    0.0000 C   0  0  0  0  0  0  0  0  0  0  0  0
   -2.1595   -3.7404    0.0000 C   0  0  0  0  0  0  0  0  0  0  0  0
  1  2  1  0
  2  3  2  0
  3  4  1  0
  4  5  1  0
  5  6  1  0
  6  7  1  0
  7  8  2  0
  7  9  1  0
  9 10  1  0
 10 11  2  0
 11 12  1  0
 12 13  2  0
 13 14  1  0
 14 15  2  0
  6 16  1  0
 16 17  2  0
 17 18  1  0
 18 19  2  0
 19 20  1  0
 20 21  2  0
 21 22  1  0
 22 23  2  0
 23 24  1  0
 24 25  2  0
 25 26  1  0
 26 27  2  0
 27  2  1  0
 15 10  1  0
 21 16  1  0
 27 22  1  0
M  END
>  <Title>  (145) 
idAADQgen8

$$$$

     RDKit          2D

 68 78  0  0  0  0  0  0  0  0999 V2000
    6.6944   -4.2229    0.0000 C   0  0  0  0  0  0  0  0  0  0  0  0
    5.3086   -4.7970    0.0000 C   0  0  0  0  0  0  0  0  0  0  0  0
    4.5586   -3.4979    0.0000 C   0  0  0  0  0  0  0  0  0  0  0  0
    3.4979   -2.4373    0.0000 C   0  0  0  0  0  0  0  0  0  0  0  0
    2.1989   -1.6873    0.0000 C   0  0  0  0  0  0  0  0  0  0  0  0
    2.7729   -0.3014    0.0000 O   0  0  0  0  0  0  0  0  0  0  0  0
    0.7500   -1.2990    0.0000 C   0  0  0  0  0  0  0  0  0  0  0  0
    1.5000    0.0000    0.0000 C   0  0  0  0  0  0  0  0  0  0  0  0
    0.7500    1.2990    0.0000 C   0  0  0  0  0  0  0  0  0  0  0  0
   -0.7500    1.2990    0.0000 C   0  0  0  0  0  0  0  0  0  0  0  0
   -1.5000    0.0000    0.0000 C   0  0  0  0  0  0  0  0  0  0  0  0
   -0.7500   -1.2990    0.0000 C   0  0  0  0  0  0  0  0  0  0  0  0
   -2.1989   -1.6873    0.0000 C   0  0  0  0  0  0  0  0  0  0  0  0
   -2.1989   -0.1873    0.0000 C   0  0  0  0  0  0  0  0  0  0  0  0
   -3.4979    0.5627    0.0000 C   0  0  0  0  0  0  0  0  0  0  0  0
   -4.7970   -0.1873    0.0000 C   0  0  0  0  0  0  0  0  0  0  0  0
   -4.7970   -1.6873    0.0000 C   0  0  0  0  0  0  0  0  0  0  0  0
   -3.4979   -2.4373    0.0000 C   0  0  0  0  0  0  0  0  0  0  0  0
   -4.5586   -3.4979    0.0000 C   0  0  0  0  0  0  0  0  0  0  0  0
   -5.3086   -2.1989    0.0000 C   0  0  0  0  0  0  0  0  0  0  0  0
   -6.8086   -2.1989    0.0000 C   0  0  0  0  0  0  0  0  0  0  0  0
   -7.5586   -3.4979    0.0000 C   0  0  0  0  0  0  0  0  0  0  0  0
   -9.0586   -3.4979    0.0000 C   0  0  0  0  0  0  0  0  0  0  0  0
  -10.5586   -3.4979    0.0000 N   0  0  0  0  0  0  0  0  0  0  0  0
   -6.8086   -4.7970    0.0000 C   0  0  0  0  0  0  0  0  0  0  0  0
   -5.3086   -4.7970    0.0000 C   0  0  0  0  0  0  0  0  0  0  0  0
   -5.6968   -6.2459    0.0000 C   0  0  0  0  0  0  0  0  0  0  0  0
   -6.9959   -5.4959    0.0000 C   0  0  0  0  0  0  0  0  0  0  0  0
   -8.2949   -6.2459    0.0000 C   0  0  0  0  0  0  0  0  0  0  0  0
   -8.2949   -7.7459    0.0000 C   0  0  0  0  0  0  0  0  0  0  0  0
   -6.9959   -8.4959    0.0000 C   0  0  0  0  0  0  0  0  0  0  0  0
   -5.6968   -7.7459    0.0000 C   0  0  0  0  0  0  0  0  0  0  0  0
   -5.3086   -9.1947    0.0000 C   0  0  0  0  0  0  0  0  0  0  0  0
   -6.8086   -9.1947    0.0000 C   0  0  0  0  0  0  0  0  0  0  0  0
   -7.5586  -10.4938    0.0000 C   0  0  0  0  0  0  0  0  0  0  0  0
   -6.8086  -11.7928    0.0000 C   0  0  0  0  0  0  0  0  0  0  0  0
   -5.3086  -11.7928    0.0000 C   0  0  0  0  0  0  0  0  0  0  0  0
   -4.5586  -10.4938    0.0000 C   0  0  0  0  0  0  0  0  0  0  0  0
   -3.4979  -11.5544    0.0000 C   0  0  0  0  0  0  0  0  0  0  0  0
   -4.7970  -12.3044    0.0000 C   0  0  0  0  0  0  0  0  0  0  0  0
   -4.7970  -13.8044    0.0000 C   0  0  0  0  0  0  0  0  0  0  0  0
   -3.4979  -14.5544    0.0000 C   0  0  0  0  0  0  0  0  0  0  0  0
   -2.1989  -13.8044    0.0000 C   0  0  0  0  0  0  0  0  0  0  0  0
   -2.1989  -12.3044    0.0000 C   0  0  0  0  0  0  0  0  0  0  0  0
   -0.7500  -12.6927    0.0000 C   0  0  0  0  0  0  0  0  0  0  0  0
   -1.5000  -13.9917    0.0000 C   0  0  0  0  0  0  0  0  0  0  0  0
   -0.7500  -15.2907    0.0000 C   0  0  0  0  0  0  0  0  0  0  0  0
    0.7500  -15.2907    0.0000 C   0  0  0  0  0  0  0  0  0  0  0  0
    1.5000  -13.9917    0.0000 C   0  0  0  0  0  0  0  0  0  0  0  0
    0.7500  -12.6927    0.0000 C   0  0  0  0  0  0  0  0  0  0  0  0
    2.1989  -12.3044    0.0000 C   0  0  0  0  0  0  0  0  0  0  0  0
    2.1989  -13.8044    0.0000 C   0  0  0  0  0  0  0  0  0  0  0  0
    3.4979  -14.5544    0.0000 C   0  0  0  0  0  0  0  0  0  0  0  0
    4.7970  -13.8044    0.0000 C   0  0  0  0  0  0  0  0  0  0  0  0
    4.7970  -12.3044    0.0000 C   0  0  0  0  0  0  0  0  0  0  0  0
    3.4979  -11.5544    0.0000 C   0  0  0  0  0  0  0  0  0  0  0  0
    4.5586  -10.4938    0.0000 C   0  0  0  0  0  0  0  0  0  0  0  0
    5.3086  -11.7928    0.0000 C   0  0  0  0  0  0  0  0  0  0  0  0
    6.8086  -11.7928    0.0000 C   0  0  0  0  0  0  0  0  0  0  0  0
    7.5586  -10.4938    0.0000 C   0  0  0  0  0  0  0  0  0  0  0  0
    6.8086   -9.1947    0.0000 C   0  0  0  0  0  0  0  0  0  0  0  0
    5.3086   -9.1947    0.0000 C   0  0  0  0  0  0  0  0  0  0  0  0
    5.6968   -7.7459    0.0000 C   0  0  0  0  0  0  0  0  0  0  0  0
    6.9959   -8.4959    0.0000 C   0  0  0  0  0  0  0  0  0  0  0  0
    8.2949   -7.7459    0.0000 C   0  0  0  0  0  0  0  0  0  0  0  0
    8.2949   -6.2459    0.0000 C   0  0  0  0  0  0  0  0  0  0  0  0
    6.9959   -5.4959    0.0000 C   0  0  0  0  0  0  0  0  0  0  0  0
    5.6968   -6.2459    0.0000 C   0  0  0  0  0  0  0  0  0  0  0  0
  1  2  1  0
  2  3  1  0
  3  4  2  0
  4  5  1  0
  5  6  2  0
  5  7  1  0
  7  8  2  0
  8  9  1  0
  9 10  2  0
 10 11  1  0
 11 12  2  0
 12 13  1  0
 13 14  2  0
 14 15  1  0
 15 16  2  0
 16 17  1  0
 17 18  2  0
 18 19  1  0
 19 20  2  0
 20 21  1  0
 21 22  2  0
 22 23  1  0
 23 24  3  0
 22 25  1  0
 25 26  2  0
 26 27  1  0
 27 28  2  0
 28 29  1  0
 29 30  2  0
 30 31  1  0
 31 32  2  0
 32 33  1  0
 33 34  2  0
 34 35  1  0
 35 36  2  0
 36 37  1  0
 37 38  2  0
 38 39  1  0
 39 40  2  0
 40 41  1  0
 41 42  2  0
 42 43  1  0
 43 44  2  0
 44 45  1  0
 45 46  2  0
 46 47  1  0
 47 48  2  0
 48 49  1  0
 49 50  2  0
 50 51  1  0
 51 52  2  0
 52 53  1  0
 53 54  2  0
 54 55  1  0
 55 56  2  0
 56 57  1  0
 57 58  2  0
 58 59  1  0
 59 60  2  0
 60 61  1  0
 61 62  2  0
 62 63  1  0
 63 64  2  0
 64 65  1  0
 65 66  2  0
 66 67  1  0
 67 68  2  0
 68  2  1  0
 12  7  1  0
 18 13  1  0
 26 19  1  0
 32 27  1  0
 38 33  1  0
 44 39  1  0
 50 45  1  0
 56 51  1  0
 62 57  1  0
 68 63  1  0
M  END
>  <Title>  (146) 
idAADRgen8

$$$$

     RDKit          2D

 11 11  0  0  0  0  0  0  0  0999 V2000
    3.4598   -0.0000    0.0000 C   0  0  0  0  0  0  0  0  0  0  0  0
    1.9598    0.0000    0.0000 C   0  0  0  0  0  0  0  0  0  0  0  0
    1.3858   -1.3858    0.0000 C   0  0  0  0  0  0  0  0  0  0  0  0
   -0.0000   -1.9598    0.0000 C   0  0  0  0  0  0  0  0  0  0  0  0
   -0.0000   -3.4598    0.0000 O   0  0  0  0  0  0  0  0  0  0  0  0
   -1.3858   -1.3858    0.0000 C   0  0  0  0  0  0  0  0  0  0  0  0
   -1.9598    0.0000    0.0000 C   0  0  0  0  0  0  0  0  0  0  0  0
   -3.4598    0.0000    0.0000 O   0  0  0  0  0  0  0  0  0  0  0  0
   -1.3858    1.3858    0.0000 C   0  0  0  0  0  0  0  0  0  0  0  0
    0.0000    1.9598    0.0000 C   0  0  0  0  0  0  0  0  0  0  0  0
    1.3858    1.3858    0.0000 C   0  0  0  0  0  0  0  0  0  0  0  0
  1  2  1  0
  2  3  2  0
  3  4  1  0
  4  5  1  0
  4  6  1  0
  6  7  1  0
  7  8  1  0
  7  9  1  0
  9 10  1  0
 10 11  1  0
 11  2  1  0
M  END
>  <Title>  (147) 
idAADSgen8

$$$$

     RDKit          2D

  8  8  0  0  0  0  0  0  0  0999 V2000
    2.7760    0.0000    0.0000 C   0  0  0  0  0  0  0  0  0  0  0  0
    1.2760    0.0000    0.0000 C   0  0  0  0  0  0  0  0  0  0  0  0
    0.3943    1.2135    0.0000 C   0  0  0  0  0  0  0  0  0  0  0  0
   -1.0323    0.7500    0.0000 C   0  0  0  0  0  0  0  0  0  0  0  0
   -2.2458    1.6317    0.0000 O   0  0  0  0  0  0  0  0  0  0  0  0
   -1.0323   -0.7500    0.0000 C   0  0  0  0  0  0  0  0  0  0  0  0
    0.3943   -1.2135    0.0000 C   0  0  0  0  0  0  0  0  0  0  0  0
    0.8578   -2.6401    0.0000 O   0  0  0  0  0  0  0  0  0  0  0  0
  1  2  1  0
  2  3  2  0
  3  4  1  0
  4  5  1  0
  4  6  1  0
  6  7  1  0
  7  8  1  0
  7  2  1  0
M  END
>  <Title>  (148) 
idAADTgen8

$$$$

     RDKit          2D

  7  6  0  0  0  0  0  0  0  0999 V2000
    0.0000    0.0000    0.0000 C   0  0  0  0  0  0  0  0  0  0  0  0
    1.2990    0.7500    0.0000 C   0  0  0  0  0  0  0  0  0  0  0  0
    2.5981   -0.0000    0.0000 C   0  0  0  0  0  0  0  0  0  0  0  0
    3.8971    0.7500    0.0000 C   0  0  0  0  0  0  0  0  0  0  0  0
    5.1962    1.5000    0.0000 C   0  0  0  0  0  0  0  0  0  0  0  0
    6.4952    2.2500    0.0000 C   0  0  0  0  0  0  0  0  0  0  0  0
    7.7942    1.5000    0.0000 C   0  0  0  0  0  0  0  0  0  0  0  0
  1  2  1  0
  2  3  2  3
  3  4  1  0
  4  5  3  0
  5  6  1  0
  6  7  1  0
M  END
>  <Title>  (149) 
idAADUgen8

$$$$

     RDKit          2D

  9  9  0  0  0  0  0  0  0  0999 V2000
    2.6491    0.9642    0.0000 C   0  0  0  0  0  0  0  0  0  0  0  0
    1.5000    0.0000    0.0000 C   0  0  0  0  0  0  0  0  0  0  0  0
    2.6491   -0.9642    0.0000 O   0  0  0  0  0  0  0  0  0  0  0  0
    0.7500   -1.2990    0.0000 C   0  0  0  0  0  0  0  0  0  0  0  0
   -0.7500   -1.2990    0.0000 C   0  0  0  0  0  0  0  0  0  0  0  0
   -1.5000    0.0000    0.0000 C   0  0  0  0  0  0  0  0  0  0  0  0
   -3.0000    0.0000    0.0000 O   0  0  0  0  0  0  0  0  0  0  0  0
   -0.7500    1.2990    0.0000 C   0  0  0  0  0  0  0  0  0  0  0  0
    0.7500    1.2990    0.0000 C   0  0  0  0  0  0  0  0  0  0  0  0
  1  2  1  0
  2  3  1  0
  2  4  1  0
  4  5  1  0
  5  6  1  0
  6  7  1  0
  6  8  1  0
  8  9  1  0
  9  2  1  0
M  END
>  <Title>  (150) 
idAADVgen8

$$$$

     RDKit          2D

  8  8  0  0  0  0  0  0  0  0999 V2000
    2.7938   -3.5702    0.0000 C   0  0  0  0  0  0  0  0  0  0  0  0
    1.7331   -2.5095    0.0000 C   0  0  0  0  0  0  0  0  0  0  0  0
    2.1213   -1.0607    0.0000 C   0  0  0  0  0  0  0  0  0  0  0  0
    1.0607    0.0000    0.0000 C   0  0  0  0  0  0  0  0  0  0  0  0
    2.1213    1.0607    0.0000 C   0  0  0  0  0  0  0  0  0  0  0  0
   -0.0000   -1.0607    0.0000 C   0  0  0  0  0  0  0  0  0  0  0  0
   -1.0607    0.0000    0.0000 C   0  0  0  0  0  0  0  0  0  0  0  0
    0.0000    1.0607    0.0000 O   0  0  0  0  0  0  0  0  0  0  0  0
  1  2  1  0
  2  3  1  0
  3  4  1  0
  4  5  1  0
  4  6  1  0
  6  7  1  0
  7  8  1  0
  8  4  1  0
M  END
>  <Title>  (151) 
idAADWgen8

$$$$

     RDKit          2D

 92 92  0  0  0  0  0  0  0  0999 V2000
   22.7516    0.0000    0.0000 C   0  0  0  0  0  0  0  0  0  0  0  0
   21.2516    0.0000    0.0000 C   0  0  0  0  0  0  0  0  0  0  0  0
   21.1987    1.4991    0.0000 C   0  0  0  0  0  0  0  0  0  0  0  0
   21.0401    2.9907    0.0000 C   0  0  0  0  0  0  0  0  0  0  0  0
   20.7767    4.4674    0.0000 C   0  0  0  0  0  0  0  0  0  0  0  0
   20.4099    5.9218    0.0000 C   0  0  0  0  0  0  0  0  0  0  0  0
   19.9413    7.3467    0.0000 C   0  0  0  0  0  0  0  0  0  0  0  0
   19.3734    8.7351    0.0000 C   0  0  0  0  0  0  0  0  0  0  0  0
   18.7090   10.0799    0.0000 C   0  0  0  0  0  0  0  0  0  0  0  0
   17.9514   11.3745    0.0000 C   0  0  0  0  0  0  0  0  0  0  0  0
   17.1043   12.6124    0.0000 C   0  0  0  0  0  0  0  0  0  0  0  0
   16.1720   13.7875    0.0000 C   0  0  0  0  0  0  0  0  0  0  0  0
   15.1592   14.8940    0.0000 C   0  0  0  0  0  0  0  0  0  0  0  0
   14.0708   15.9262    0.0000 C   0  0  0  0  0  0  0  0  0  0  0  0
   12.9123   16.8790    0.0000 C   0  0  0  0  0  0  0  0  0  0  0  0
   11.6895   17.7478    0.0000 C   0  0  0  0  0  0  0  0  0  0  0  0
   10.4085   18.5282    0.0000 C   0  0  0  0  0  0  0  0  0  0  0  0
    9.0756   19.2162    0.0000 C   0  0  0  0  0  0  0  0  0  0  0  0
    7.6975   19.8085    0.0000 C   0  0  0  0  0  0  0  0  0  0  0  0
    6.2811   20.3022    0.0000 C   0  0  0  0  0  0  0  0  0  0  0  0
    4.8333   20.6947    0.0000 C   0  0  0  0  0  0  0  0  0  0  0  0
    3.3615   20.9841    0.0000 C   0  0  0  0  0  0  0  0  0  0  0  0
    1.8730   21.1689    0.0000 C   0  0  0  0  0  0  0  0  0  0  0  0
    0.3751   21.2483    0.0000 C   0  0  0  0  0  0  0  0  0  0  0  0
   -1.1247   21.2218    0.0000 C   0  0  0  0  0  0  0  0  0  0  0  0
   -2.6189   21.0896    0.0000 C   0  0  0  0  0  0  0  0  0  0  0  0
   -4.1000   20.8524    0.0000 C   0  0  0  0  0  0  0  0  0  0  0  0
   -5.5607   20.5112    0.0000 C   0  0  0  0  0  0  0  0  0  0  0  0
   -6.9937   20.0679    0.0000 C   0  0  0  0  0  0  0  0  0  0  0  0
   -8.3918   19.5245    0.0000 C   0  0  0  0  0  0  0  0  0  0  0  0
   -9.7481   18.8840    0.0000 C   0  0  0  0  0  0  0  0  0  0  0  0
  -11.0559   18.1493    0.0000 C   0  0  0  0  0  0  0  0  0  0  0  0
  -12.3086   17.3242    0.0000 C   0  0  0  0  0  0  0  0  0  0  0  0
  -13.5000   16.4128    0.0000 C   0  0  0  0  0  0  0  0  0  0  0  0
  -14.6241   15.4197    0.0000 C   0  0  0  0  0  0  0  0  0  0  0  0
  -15.6754   14.3497    0.0000 C   0  0  0  0  0  0  0  0  0  0  0  0
  -16.6485   13.2082    0.0000 C   0  0  0  0  0  0  0  0  0  0  0  0
  -17.5387   12.0009    0.0000 C   0  0  0  0  0  0  0  0  0  0  0  0
  -18.3416   10.7339    0.0000 C   0  0  0  0  0  0  0  0  0  0  0  0
  -19.0531    9.4134    0.0000 C   0  0  0  0  0  0  0  0  0  0  0  0
  -19.6696    8.0459    0.0000 C   0  0  0  0  0  0  0  0  0  0  0  0
  -20.1882    6.6384    0.0000 C   0  0  0  0  0  0  0  0  0  0  0  0
  -20.6061    5.1978    0.0000 C   0  0  0  0  0  0  0  0  0  0  0  0
  -20.9215    3.7313    0.0000 C   0  0  0  0  0  0  0  0  0  0  0  0
  -21.1326    2.2463    0.0000 C   0  0  0  0  0  0  0  0  0  0  0  0
  -21.2384    0.7500    0.0000 C   0  0  0  0  0  0  0  0  0  0  0  0
  -21.2384   -0.7500    0.0000 C   0  0  0  0  0  0  0  0  0  0  0  0
  -21.1326   -2.2463    0.0000 C   0  0  0  0  0  0  0  0  0  0  0  0
  -20.9215   -3.7313    0.0000 C   0  0  0  0  0  0  0  0  0  0  0  0
  -20.6061   -5.1978    0.0000 C   0  0  0  0  0  0  0  0  0  0  0  0
  -20.1882   -6.6384    0.0000 C   0  0  0  0  0  0  0  0  0  0  0  0
  -19.6696   -8.0459    0.0000 C   0  0  0  0  0  0  0  0  0  0  0  0
  -19.0531   -9.4134    0.0000 C   0  0  0  0  0  0  0  0  0  0  0  0
  -18.3416  -10.7339    0.0000 C   0  0  0  0  0  0  0  0  0  0  0  0
  -17.5387  -12.0009    0.0000 C   0  0  0  0  0  0  0  0  0  0  0  0
  -16.6485  -13.2082    0.0000 C   0  0  0  0  0  0  0  0  0  0  0  0
  -15.6754  -14.3497    0.0000 C   0  0  0  0  0  0  0  0  0  0  0  0
  -14.6241  -15.4197    0.0000 C   0  0  0  0  0  0  0  0  0  0  0  0
  -13.5000  -16.4128    0.0000 C   0  0  0  0  0  0  0  0  0  0  0  0
  -12.3086  -17.3242    0.0000 C   0  0  0  0  0  0  0  0  0  0  0  0
  -11.0559  -18.1493    0.0000 C   0  0  0  0  0  0  0  0  0  0  0  0
   -9.7481  -18.8840    0.0000 C   0  0  0  0  0  0  0  0  0  0  0  0
   -8.3918  -19.5245    0.0000 C   0  0  0  0  0  0  0  0  0  0  0  0
   -6.9937  -20.0679    0.0000 C   0  0  0  0  0  0  0  0  0  0  0  0
   -5.5607  -20.5112    0.0000 C   0  0  0  0  0  0  0  0  0  0  0  0
   -4.1000  -20.8524    0.0000 C   0  0  0  0  0  0  0  0  0  0  0  0
   -2.6189  -21.0896    0.0000 C   0  0  0  0  0  0  0  0  0  0  0  0
   -1.1247  -21.2218    0.0000 C   0  0  0  0  0  0  0  0  0  0  0  0
    0.3751  -21.2483    0.0000 C   0  0  0  0  0  0  0  0  0  0  0  0
    1.8730  -21.1689    0.0000 C   0  0  0  0  0  0  0  0  0  0  0  0
    3.3615  -20.9841    0.0000 C   0  0  0  0  0  0  0  0  0  0  0  0
    4.8333  -20.6947    0.0000 C   0  0  0  0  0  0  0  0  0  0  0  0
    6.2811  -20.3022    0.0000 C   0  0  0  0  0  0  0  0  0  0  0  0
    7.6975  -19.8085    0.0000 C   0  0  0  0  0  0  0  0  0  0  0  0
    9.0756  -19.2162    0.0000 C   0  0  0  0  0  0  0  0  0  0  0  0
   10.4085  -18.5282    0.0000 C   0  0  0  0  0  0  0  0  0  0  0  0
   11.6895  -17.7478    0.0000 C   0  0  0  0  0  0  0  0  0  0  0  0
   12.9123  -16.8790    0.0000 C   0  0  0  0  0  0  0  0  0  0  0  0
   14.0708  -15.9262    0.0000 C   0  0  0  0  0  0  0  0  0  0  0  0
   15.1592  -14.8940    0.0000 C   0  0  0  0  0  0  0  0  0  0  0  0
   16.1720  -13.7875    0.0000 C   0  0  0  0  0  0  0  0  0  0  0  0
   17.1043  -12.6124    0.0000 C   0  0  0  0  0  0  0  0  0  0  0  0
   17.9514  -11.3745    0.0000 C   0  0  0  0  0  0  0  0  0  0  0  0
   18.7090  -10.0799    0.0000 C   0  0  0  0  0  0  0  0  0  0  0  0
   19.3734   -8.7351    0.0000 C   0  0  0  0  0  0  0  0  0  0  0  0
   19.9413   -7.3467    0.0000 C   0  0  0  0  0  0  0  0  0  0  0  0
   20.4099   -5.9218    0.0000 C   0  0  0  0  0  0  0  0  0  0  0  0
   20.7767   -4.4674    0.0000 C   0  0  0  0  0  0  0  0  0  0  0  0
   22.2432   -4.7827    0.0000 C   0  0  0  0  0  0  0  0  0  0  0  0
   21.0401   -2.9907    0.0000 C   0  0  0  0  0  0  0  0  0  0  0  0
   22.5252   -3.2018    0.0000 O   0  0  0  0  0  0  0  0  0  0  0  0
   21.1987   -1.4991    0.0000 N   0  0  0  0  0  0  0  0  0  0  0  0
  1  2  1  0
  2  3  2  0
  3  4  1  0
  4  5  1  0
  5  6  1  0
  6  7  1  0
  7  8  1  0
  8  9  1  0
  9 10  1  0
 10 11  1  0
 11 12  1  0
 12 13  1  0
 13 14  1  0
 14 15  1  0
 15 16  1  0
 16 17  1  0
 17 18  1  0
 18 19  1  0
 19 20  1  0
 20 21  1  0
 21 22  1  0
 22 23  1  0
 23 24  1  0
 24 25  1  0
 25 26  1  0
 26 27  1  0
 27 28  1  0
 28 29  1  0
 29 30  1  0
 30 31  1  0
 31 32  1  0
 32 33  1  0
 33 34  1  0
 34 35  1  0
 35 36  1  0
 36 37  1  0
 37 38  1  0
 38 39  1  0
 39 40  1  0
 40 41  1  0
 41 42  1  0
 42 43  1  0
 43 44  1  0
 44 45  1  0
 45 46  1  0
 46 47  1  0
 47 48  1  0
 48 49  1  0
 49 50  1  0
 50 51  1  0
 51 52  1  0
 52 53  1  0
 53 54  1  0
 54 55  1  0
 55 56  1  0
 56 57  1  0
 57 58  1  0
 58 59  1  0
 59 60  1  0
 60 61  1  0
 61 62  1  0
 62 63  1  0
 63 64  1  0
 64 65  1  0
 65 66  1  0
 66 67  1  0
 67 68  1  0
 68 69  1  0
 69 70  1  0
 70 71  1  0
 71 72  1  0
 72 73  1  0
 73 74  1  0
 74 75  1  0
 75 76  1  0
 76 77  1  0
 77 78  1  0
 78 79  1  0
 79 80  1  0
 80 81  1  0
 81 82  1  0
 82 83  1  0
 83 84  1  0
 84 85  1  0
 85 86  2  0
 86 87  1  0
 87 88  2  0
 88 89  1  0
 88 90  1  0
 90 91  2  0
 90 92  1  0
 92  2  1  0
M  END
>  <Title>  (152) 
idAADXgen8

$$$$

     RDKit          2D

  8  8  0  0  0  0  0  0  0  0999 V2000
    3.7500   -1.2990    0.0000 C   0  0  0  0  0  0  0  0  0  0  0  0
    3.0000    0.0000    0.0000 O   0  0  0  0  0  0  0  0  0  0  0  0
    1.5000    0.0000    0.0000 C   0  0  0  0  0  0  0  0  0  0  0  0
    0.7500   -1.2990    0.0000 C   0  0  0  0  0  0  0  0  0  0  0  0
   -0.7500   -1.2990    0.0000 C   0  0  0  0  0  0  0  0  0  0  0  0
   -1.5000    0.0000    0.0000 C   0  0  0  0  0  0  0  0  0  0  0  0
   -0.7500    1.2990    0.0000 C   0  0  0  0  0  0  0  0  0  0  0  0
    0.7500    1.2990    0.0000 C   0  0  0  0  0  0  0  0  0  0  0  0
  1  2  1  0
  2  3  1  0
  3  4  2  0
  4  5  1  0
  5  6  1  0
  6  7  2  0
  7  8  1  0
  8  3  1  0
M  END
>  <Title>  (153) 
idAADYgen8

$$$$

     RDKit          2D

 14 14  0  0  0  0  0  0  0  0999 V2000
   13.5000    0.0000    0.0000 C   0  0  0  0  0  0  0  0  0  0  0  0
   12.0000    0.0000    0.0000 C   0  0  0  0  0  0  0  0  0  0  0  0
   10.5000    0.0000    0.0000 C   0  0  0  0  0  0  0  0  0  0  0  0
    9.0000    0.0000    0.0000 C   0  0  0  0  0  0  0  0  0  0  0  0
    7.5000    0.0000    0.0000 C   0  0  0  0  0  0  0  0  0  0  0  0
    6.0000    0.0000    0.0000 C   0  0  0  0  0  0  0  0  0  0  0  0
    4.5000    0.0000    0.0000 C   0  0  0  0  0  0  0  0  0  0  0  0
    3.0000    0.0000    0.0000 C   0  0  0  0  0  0  0  0  0  0  0  0
    1.5000    0.0000    0.0000 C   0  0  0  0  0  0  0  0  0  0  0  0
    0.7500   -1.2990    0.0000 C   0  0  0  0  0  0  0  0  0  0  0  0
   -0.7500   -1.2990    0.0000 C   0  0  0  0  0  0  0  0  0  0  0  0
   -1.5000    0.0000    0.0000 C   0  0  0  0  0  0  0  0  0  0  0  0
   -0.7500    1.2990    0.0000 C   0  0  0  0  0  0  0  0  0  0  0  0
    0.7500    1.2990    0.0000 C   0  0  0  0  0  0  0  0  0  0  0  0
  1  2  3  0
  2  3  1  0
  3  4  3  0
  4  5  1  0
  5  6  3  0
  6  7  1  0
  7  8  3  0
  8  9  1  0
  9 10  1  0
 10 11  2  0
 11 12  1  0
 12 13  2  0
 13 14  1  0
 14  9  1  0
M  END
>  <Title>  (154) 
idAADZgen8

$$$$

     RDKit          2D

  7  6  0  0  0  0  0  0  0  0999 V2000
    0.0000    0.0000    0.0000 C   0  0  0  0  0  0  0  0  0  0  0  0
    1.2990    0.7500    0.0000 C   0  0  0  0  0  0  0  0  0  0  0  0
    2.5981   -0.0000    0.0000 C   0  0  0  0  0  0  0  0  0  0  0  0
    3.8971    0.7500    0.0000 C   0  0  0  0  0  0  0  0  0  0  0  0
    5.1962   -0.0000    0.0000 C   0  0  0  0  0  0  0  0  0  0  0  0
    3.8971    2.2500    0.0000 C   0  0  0  0  0  0  0  0  0  0  0  0
    5.1962    3.0000    0.0000 C   0  0  0  0  0  0  0  0  0  0  0  0
  1  2  1  0
  2  3  2  3
  3  4  1  0
  4  5  1  0
  4  6  1  0
  6  7  1  0
M  END
>  <Title>  (155) 
idAAEAgen8

$$$$

     RDKit          2D

 11 11  0  0  0  0  0  0  0  0999 V2000
    3.4598   -0.0000    0.0000 C   0  0  0  0  0  0  0  0  0  0  0  0
    1.9598    0.0000    0.0000 C   0  0  0  0  0  0  0  0  0  0  0  0
    1.3858   -1.3858    0.0000 C   0  0  0  0  0  0  0  0  0  0  0  0
   -0.0000   -1.9598    0.0000 C   0  0  0  0  0  0  0  0  0  0  0  0
   -0.0000   -3.4598    0.0000 O   0  0  0  0  0  0  0  0  0  0  0  0
   -1.3858   -1.3858    0.0000 C   0  0  0  0  0  0  0  0  0  0  0  0
   -1.9598    0.0000    0.0000 C   0  0  0  0  0  0  0  0  0  0  0  0
   -1.3858    1.3858    0.0000 C   0  0  0  0  0  0  0  0  0  0  0  0
   -2.4465    2.4465    0.0000 O   0  0  0  0  0  0  0  0  0  0  0  0
    0.0000    1.9598    0.0000 C   0  0  0  0  0  0  0  0  0  0  0  0
    1.3858    1.3858    0.0000 C   0  0  0  0  0  0  0  0  0  0  0  0
  1  2  1  0
  2  3  2  0
  3  4  1  0
  4  5  1  0
  4  6  1  0
  6  7  1  0
  7  8  1  0
  8  9  1  0
  8 10  1  0
 10 11  1  0
 11  2  1  0
M  END
>  <Title>  (156) 
idAAEBgen8

$$$$

     RDKit          2D

 10  9  0  0  0  0  0  0  0  0999 V2000
    0.0000    0.0000    0.0000 C   0  0  0  0  0  0  0  0  0  0  0  0
    1.2990    0.7500    0.0000 C   0  0  0  0  0  0  0  0  0  0  0  0
    2.5981   -0.0000    0.0000 C   0  0  0  0  0  0  0  0  0  0  0  0
    3.8971   -0.7500    0.0000 C   0  0  0  0  0  0  0  0  0  0  0  0
    5.1962   -1.5000    0.0000 C   0  0  0  0  0  0  0  0  0  0  0  0
    6.4952   -2.2500    0.0000 C   0  0  0  0  0  0  0  0  0  0  0  0
    7.7942   -3.0000    0.0000 C   0  0  0  0  0  0  0  0  0  0  0  0
    9.0933   -3.7500    0.0000 C   0  0  0  0  0  0  0  0  0  0  0  0
   10.3923   -4.5000    0.0000 C   0  0  0  0  0  0  0  0  0  0  0  0
   11.6913   -5.2500    0.0000 N   0  0  0  0  0  0  0  0  0  0  0  0
  1  2  2  0
  2  3  1  0
  3  4  3  0
  4  5  1  0
  5  6  3  0
  6  7  1  0
  7  8  3  0
  8  9  1  0
  9 10  3  0
M  END
>  <Title>  (157) 
idAAECgen8

$$$$

     RDKit          2D

  7  6  0  0  0  0  0  0  0  0999 V2000
    0.0000    0.0000    0.0000 C   0  0  0  0  0  0  0  0  0  0  0  0
    1.2990    0.7500    0.0000 C   0  0  0  0  0  0  0  0  0  0  0  0
    2.5981   -0.0000    0.0000 C   0  0  0  0  0  0  0  0  0  0  0  0
    3.8971    0.7500    0.0000 C   0  0  0  0  0  0  0  0  0  0  0  0
    4.6471   -0.5490    0.0000 C   0  0  0  0  0  0  0  0  0  0  0  0
    3.1471    2.0490    0.0000 C   0  0  0  0  0  0  0  0  0  0  0  0
    5.1962    1.5000    0.0000 C   0  0  0  0  0  0  0  0  0  0  0  0
  1  2  1  0
  2  3  1  0
  3  4  1  0
  4  5  1  0
  4  6  1  0
  4  7  1  0
M  END
>  <Title>  (158) 
idAAEDgen8

$$$$

     RDKit          2D

 16 16  0  0  0  0  0  0  0  0999 V2000
    5.4704    1.3225    0.0000 C   0  0  0  0  0  0  0  0  0  0  0  0
    4.2976    0.3872    0.0000 C   0  0  0  0  0  0  0  0  0  0  0  0
    4.5212   -1.0960    0.0000 C   0  0  0  0  0  0  0  0  0  0  0  0
    2.9013    0.9352    0.0000 C   0  0  0  0  0  0  0  0  0  0  0  0
    1.7286    0.0000    0.0000 C   0  0  0  0  0  0  0  0  0  0  0  0
    2.9013   -0.9352    0.0000 O   0  0  0  0  0  0  0  0  0  0  0  0
    1.0777    1.3515    0.0000 C   0  0  0  0  0  0  0  0  0  0  0  0
   -0.3846    1.6852    0.0000 C   0  0  0  0  0  0  0  0  0  0  0  0
   -0.7184    3.1476    0.0000 O   0  0  0  0  0  0  0  0  0  0  0  0
   -1.5574    0.7500    0.0000 C   0  0  0  0  0  0  0  0  0  0  0  0
   -2.9088    1.4008    0.0000 O   0  0  0  0  0  0  0  0  0  0  0  0
   -1.5574   -0.7500    0.0000 C   0  0  0  0  0  0  0  0  0  0  0  0
   -2.9088   -1.4008    0.0000 O   0  0  0  0  0  0  0  0  0  0  0  0
   -0.3846   -1.6852    0.0000 C   0  0  0  0  0  0  0  0  0  0  0  0
   -0.7184   -3.1476    0.0000 O   0  0  0  0  0  0  0  0  0  0  0  0
    1.0777   -1.3515    0.0000 C   0  0  0  0  0  0  0  0  0  0  0  0
  1  2  1  0
  2  3  1  0
  2  4  1  0
  4  5  1  0
  5  6  1  0
  5  7  1  0
  7  8  1  0
  8  9  1  0
  8 10  1  0
 10 11  1  0
 10 12  1  0
 12 13  1  0
 12 14  1  0
 14 15  1  0
 14 16  1  0
 16  5  1  0
M  END
>  <Title>  (159) 
idAAEEgen8

$$$$

     RDKit          2D

 10 10  0  0  0  0  0  0  0  0999 V2000
    4.5000    0.0000    0.0000 C   0  0  0  0  0  0  0  0  0  0  0  0
    3.0000    0.0000    0.0000 C   0  0  0  0  0  0  0  0  0  0  0  0
    1.5000    0.0000    0.0000 C   0  0  0  0  0  0  0  0  0  0  0  0
    0.7500   -1.2990    0.0000 C   0  0  0  0  0  0  0  0  0  0  0  0
   -0.7500   -1.2990    0.0000 C   0  0  0  0  0  0  0  0  0  0  0  0
   -1.5000    0.0000    0.0000 C   0  0  0  0  0  0  0  0  0  0  0  0
   -0.7500    1.2990    0.0000 C   0  0  0  0  0  0  0  0  0  0  0  0
   -1.5000    2.5981    0.0000 C   0  0  0  0  0  0  0  0  0  0  0  0
   -2.2500    3.8971    0.0000 N   0  0  0  0  0  0  0  0  0  0  0  0
    0.7500    1.2990    0.0000 C   0  0  0  0  0  0  0  0  0  0  0  0
  1  2  3  0
  2  3  1  0
  3  4  2  0
  4  5  1  0
  5  6  1  0
  6  7  1  0
  7  8  1  0
  8  9  3  0
  7 10  1  0
 10  3  1  0
M  END
>  <Title>  (160) 
idAAEFgen8

$$$$

     RDKit          2D

 15 14  0  0  0  0  0  0  0  0999 V2000
    0.0000    0.0000    0.0000 C   0  0  0  0  0  0  0  0  0  0  0  0
   -0.0000   -1.5000    0.0000 C   0  0  0  0  0  0  0  0  0  0  0  0
   -0.0000   -3.0000    0.0000 C   0  0  0  0  0  0  0  0  0  0  0  0
   -0.0000   -4.5000    0.0000 C   0  0  0  0  0  0  0  0  0  0  0  0
   -0.0000   -6.0000    0.0000 C   0  0  0  0  0  0  0  0  0  0  0  0
   -0.0000   -7.5000    0.0000 C   0  0  0  0  0  0  0  0  0  0  0  0
   -0.0000   -9.0000    0.0000 C   0  0  0  0  0  0  0  0  0  0  0  0
   -0.0000  -10.5000    0.0000 C   0  0  0  0  0  0  0  0  0  0  0  0
   -0.0000  -12.0000    0.0000 C   0  0  0  0  0  0  0  0  0  0  0  0
   -0.0000  -13.5000    0.0000 C   0  0  0  0  0  0  0  0  0  0  0  0
   -0.0000  -15.0000    0.0000 C   0  0  0  0  0  0  0  0  0  0  0  0
   -0.0000  -16.5000    0.0000 C   0  0  0  0  0  0  0  0  0  0  0  0
   -0.0000  -18.0000    0.0000 C   0  0  0  0  0  0  0  0  0  0  0  0
    1.2990  -18.7500    0.0000 C   0  0  0  0  0  0  0  0  0  0  0  0
    1.2990  -20.2500    0.0000 C   0  0  0  0  0  0  0  0  0  0  0  0
  1  2  3  0
  2  3  1  0
  3  4  3  0
  4  5  1  0
  5  6  3  0
  6  7  1  0
  7  8  3  0
  8  9  1  0
  9 10  3  0
 10 11  1  0
 11 12  3  0
 12 13  1  0
 13 14  2  3
 14 15  1  0
M  END
>  <Title>  (161) 
idAAEGgen8

$$$$

     RDKit          2D

  8  8  0  0  0  0  0  0  0  0999 V2000
    3.0000    0.0000    0.0000 O   0  0  0  0  0  0  0  0  0  0  0  0
    1.5000    0.0000    0.0000 C   0  0  0  0  0  0  0  0  0  0  0  0
    0.7500   -1.2990    0.0000 C   0  0  0  0  0  0  0  0  0  0  0  0
   -0.7500   -1.2990    0.0000 C   0  0  0  0  0  0  0  0  0  0  0  0
   -1.5000    0.0000    0.0000 C   0  0  0  0  0  0  0  0  0  0  0  0
   -3.0000    0.0000    0.0000 O   0  0  0  0  0  0  0  0  0  0  0  0
   -0.7500    1.2990    0.0000 C   0  0  0  0  0  0  0  0  0  0  0  0
    0.7500    1.2990    0.0000 C   0  0  0  0  0  0  0  0  0  0  0  0
  1  2  1  0
  2  3  2  0
  3  4  1  0
  4  5  1  0
  5  6  1  0
  5  7  2  0
  7  8  1  0
  8  2  1  0
M  END
>  <Title>  (162) 
idAAEHgen8

$$$$

     RDKit          2D

 71 71  0  0  0  0  0  0  0  0999 V2000
   18.2169    0.0000    0.0000 C   0  0  0  0  0  0  0  0  0  0  0  0
   16.7169    0.0000    0.0000 C   0  0  0  0  0  0  0  0  0  0  0  0
   16.6496   -1.4985    0.0000 C   0  0  0  0  0  0  0  0  0  0  0  0
   16.4482   -2.9849    0.0000 C   0  0  0  0  0  0  0  0  0  0  0  0
   16.1145   -4.4473    0.0000 C   0  0  0  0  0  0  0  0  0  0  0  0
   15.6509   -5.8739    0.0000 C   0  0  0  0  0  0  0  0  0  0  0  0
   15.0614   -7.2532    0.0000 C   0  0  0  0  0  0  0  0  0  0  0  0
   14.3506   -8.5741    0.0000 C   0  0  0  0  0  0  0  0  0  0  0  0
   13.5242   -9.8259    0.0000 C   0  0  0  0  0  0  0  0  0  0  0  0
   12.5890  -10.9987    0.0000 C   0  0  0  0  0  0  0  0  0  0  0  0
   11.5524  -12.0829    0.0000 C   0  0  0  0  0  0  0  0  0  0  0  0
   10.4228  -13.0698    0.0000 C   0  0  0  0  0  0  0  0  0  0  0  0
    9.2093  -13.9515    0.0000 C   0  0  0  0  0  0  0  0  0  0  0  0
    7.9216  -14.7208    0.0000 C   0  0  0  0  0  0  0  0  0  0  0  0
    6.5702  -15.3716    0.0000 C   0  0  0  0  0  0  0  0  0  0  0  0
    5.1658  -15.8987    0.0000 C   0  0  0  0  0  0  0  0  0  0  0  0
    3.7199  -16.2978    0.0000 C   0  0  0  0  0  0  0  0  0  0  0  0
    2.2440  -16.5656    0.0000 C   0  0  0  0  0  0  0  0  0  0  0  0
    0.7500  -16.7000    0.0000 C   0  0  0  0  0  0  0  0  0  0  0  0
   -0.7500  -16.7000    0.0000 C   0  0  0  0  0  0  0  0  0  0  0  0
   -2.2440  -16.5656    0.0000 C   0  0  0  0  0  0  0  0  0  0  0  0
   -3.7199  -16.2978    0.0000 C   0  0  0  0  0  0  0  0  0  0  0  0
   -5.1658  -15.8987    0.0000 C   0  0  0  0  0  0  0  0  0  0  0  0
   -6.5702  -15.3716    0.0000 C   0  0  0  0  0  0  0  0  0  0  0  0
   -7.9216  -14.7208    0.0000 C   0  0  0  0  0  0  0  0  0  0  0  0
   -9.2093  -13.9515    0.0000 C   0  0  0  0  0  0  0  0  0  0  0  0
  -10.4228  -13.0698    0.0000 C   0  0  0  0  0  0  0  0  0  0  0  0
  -11.5524  -12.0829    0.0000 C   0  0  0  0  0  0  0  0  0  0  0  0
  -12.5890  -10.9987    0.0000 C   0  0  0  0  0  0  0  0  0  0  0  0
  -13.5242   -9.8259    0.0000 C   0  0  0  0  0  0  0  0  0  0  0  0
  -14.3506   -8.5741    0.0000 C   0  0  0  0  0  0  0  0  0  0  0  0
  -15.0614   -7.2532    0.0000 C   0  0  0  0  0  0  0  0  0  0  0  0
  -15.6509   -5.8739    0.0000 C   0  0  0  0  0  0  0  0  0  0  0  0
  -16.1145   -4.4473    0.0000 C   0  0  0  0  0  0  0  0  0  0  0  0
  -16.4482   -2.9849    0.0000 C   0  0  0  0  0  0  0  0  0  0  0  0
  -16.6496   -1.4985    0.0000 C   0  0  0  0  0  0  0  0  0  0  0  0
  -16.7169    0.0000    0.0000 C   0  0  0  0  0  0  0  0  0  0  0  0
  -16.6496    1.4985    0.0000 C   0  0  0  0  0  0  0  0  0  0  0  0
  -16.4482    2.9849    0.0000 C   0  0  0  0  0  0  0  0  0  0  0  0
  -16.1145    4.4473    0.0000 C   0  0  0  0  0  0  0  0  0  0  0  0
  -15.6509    5.8739    0.0000 C   0  0  0  0  0  0  0  0  0  0  0  0
  -15.0614    7.2532    0.0000 C   0  0  0  0  0  0  0  0  0  0  0  0
  -14.3506    8.5741    0.0000 C   0  0  0  0  0  0  0  0  0  0  0  0
  -13.5242    9.8259    0.0000 C   0  0  0  0  0  0  0  0  0  0  0  0
  -12.5890   10.9987    0.0000 C   0  0  0  0  0  0  0  0  0  0  0  0
  -11.5524   12.0829    0.0000 C   0  0  0  0  0  0  0  0  0  0  0  0
  -10.4228   13.0698    0.0000 C   0  0  0  0  0  0  0  0  0  0  0  0
   -9.2093   13.9515    0.0000 C   0  0  0  0  0  0  0  0  0  0  0  0
   -7.9216   14.7208    0.0000 C   0  0  0  0  0  0  0  0  0  0  0  0
   -6.5702   15.3716    0.0000 C   0  0  0  0  0  0  0  0  0  0  0  0
   -5.1658   15.8987    0.0000 C   0  0  0  0  0  0  0  0  0  0  0  0
   -3.7199   16.2978    0.0000 C   0  0  0  0  0  0  0  0  0  0  0  0
   -2.2440   16.5656    0.0000 C   0  0  0  0  0  0  0  0  0  0  0  0
   -0.7500   16.7000    0.0000 C   0  0  0  0  0  0  0  0  0  0  0  0
    0.7500   16.7000    0.0000 C   0  0  0  0  0  0  0  0  0  0  0  0
    2.2440   16.5656    0.0000 C   0  0  0  0  0  0  0  0  0  0  0  0
    3.7199   16.2978    0.0000 C   0  0  0  0  0  0  0  0  0  0  0  0
    5.1658   15.8987    0.0000 C   0  0  0  0  0  0  0  0  0  0  0  0
    6.5702   15.3716    0.0000 C   0  0  0  0  0  0  0  0  0  0  0  0
    7.9216   14.7208    0.0000 C   0  0  0  0  0  0  0  0  0  0  0  0
    9.2093   13.9515    0.0000 C   0  0  0  0  0  0  0  0  0  0  0  0
   10.4228   13.0698    0.0000 C   0  0  0  0  0  0  0  0  0  0  0  0
   11.5524   12.0829    0.0000 C   0  0  0  0  0  0  0  0  0  0  0  0
   12.5890   10.9987    0.0000 C   0  0  0  0  0  0  0  0  0  0  0  0
   13.5242    9.8259    0.0000 C   0  0  0  0  0  0  0  0  0  0  0  0
   14.3506    8.5741    0.0000 C   0  0  0  0  0  0  0  0  0  0  0  0
   15.0614    7.2532    0.0000 C   0  0  0  0  0  0  0  0  0  0  0  0
   15.6509    5.8739    0.0000 C   0  0  0  0  0  0  0  0  0  0  0  0
   16.1145    4.4473    0.0000 C   0  0  0  0  0  0  0  0  0  0  0  0
   16.4482    2.9849    0.0000 C   0  0  0  0  0  0  0  0  0  0  0  0
   16.6496    1.4985    0.0000 C   0  0  0  0  0  0  0  0  0  0  0  0
  1  2  1  0
  2  3  1  0
  3  4  1  0
  4  5  1  0
  5  6  1  0
  6  7  1  0
  7  8  1  0
  8  9  1  0
  9 10  1  0
 10 11  1  0
 11 12  1  0
 12 13  1  0
 13 14  1  0
 14 15  1  0
 15 16  1  0
 16 17  1  0
 17 18  1  0
 18 19  1  0
 19 20  1  0
 20 21  1  0
 21 22  1  0
 22 23  1  0
 23 24  1  0
 24 25  1  0
 25 26  1  0
 26 27  1  0
 27 28  1  0
 28 29  1  0
 29 30  1  0
 30 31  1  0
 31 32  1  0
 32 33  1  0
 33 34  1  0
 34 35  1  0
 35 36  1  0
 36 37  1  0
 37 38  1  0
 38 39  1  0
 39 40  1  0
 40 41  1  0
 41 42  1  0
 42 43  1  0
 43 44  1  0
 44 45  1  0
 45 46  1  0
 46 47  1  0
 47 48  1  0
 48 49  1  0
 49 50  1  0
 50 51  1  0
 51 52  1  0
 52 53  1  0
 53 54  1  0
 54 55  1  0
 55 56  1  0
 56 57  1  0
 57 58  1  0
 58 59  1  0
 59 60  1  0
 60 61  1  0
 61 62  1  0
 62 63  1  0
 63 64  1  0
 64 65  1  0
 65 66  1  0
 66 67  1  0
 67 68  1  0
 68 69  1  0
 69 70  1  0
 70 71  1  0
 71  2  1  0
M  END
>  <Title>  (163) 
idAAEIgen8

$$$$

     RDKit          2D

 10 10  0  0  0  0  0  0  0  0999 V2000
    3.2286   -0.0000    0.0000 C   0  0  0  0  0  0  0  0  0  0  0  0
    1.7286    0.0000    0.0000 C   0  0  0  0  0  0  0  0  0  0  0  0
    1.0777    1.3515    0.0000 C   0  0  0  0  0  0  0  0  0  0  0  0
   -0.3846    1.6852    0.0000 C   0  0  0  0  0  0  0  0  0  0  0  0
   -1.5574    0.7500    0.0000 C   0  0  0  0  0  0  0  0  0  0  0  0
   -1.5574   -0.7500    0.0000 C   0  0  0  0  0  0  0  0  0  0  0  0
   -2.9088   -1.4008    0.0000 C   0  0  0  0  0  0  0  0  0  0  0  0
   -0.3846   -1.6852    0.0000 C   0  0  0  0  0  0  0  0  0  0  0  0
   -0.7184   -3.1476    0.0000 O   0  0  0  0  0  0  0  0  0  0  0  0
    1.0777   -1.3515    0.0000 N   0  0  0  0  0  0  0  0  0  0  0  0
  1  2  1  0
  2  3  2  0
  3  4  1  0
  4  5  1  0
  5  6  1  0
  6  7  1  0
  6  8  1  0
  8  9  2  0
  8 10  1  0
 10  2  1  0
M  END
>  <Title>  (164) 
idAAEJgen8

$$$$

     RDKit          2D

  8  8  0  0  0  0  0  0  0  0999 V2000
    3.2286   -0.0000    0.0000 C   0  0  0  0  0  0  0  0  0  0  0  0
    1.7286    0.0000    0.0000 C   0  0  0  0  0  0  0  0  0  0  0  0
    1.0777    1.3515    0.0000 C   0  0  0  0  0  0  0  0  0  0  0  0
   -0.3846    1.6852    0.0000 C   0  0  0  0  0  0  0  0  0  0  0  0
   -1.5574    0.7500    0.0000 C   0  0  0  0  0  0  0  0  0  0  0  0
   -1.5574   -0.7500    0.0000 C   0  0  0  0  0  0  0  0  0  0  0  0
   -0.3846   -1.6852    0.0000 C   0  0  0  0  0  0  0  0  0  0  0  0
    1.0777   -1.3515    0.0000 C   0  0  0  0  0  0  0  0  0  0  0  0
  1  2  1  0
  2  3  2  0
  3  4  1  0
  4  5  1  0
  5  6  1  0
  6  7  2  0
  7  8  1  0
  8  2  1  0
M  END
>  <Title>  (165) 
idAAEKgen8

$$$$

     RDKit          2D

 62 71  0  0  0  0  0  0  0  0999 V2000
    4.9965   -7.7991    0.0000 C   0  0  0  0  0  0  0  0  0  0  0  0
    3.6537   -7.1305    0.0000 C   0  0  0  0  0  0  0  0  0  0  0  0
    4.0642   -5.6878    0.0000 C   0  0  0  0  0  0  0  0  0  0  0  0
    3.9258   -4.1942    0.0000 C   0  0  0  0  0  0  0  0  0  0  0  0
    3.2572   -2.8514    0.0000 N   0  0  0  0  0  0  0  0  0  0  0  0
    2.1487   -1.8409    0.0000 C   0  0  0  0  0  0  0  0  0  0  0  0
    2.9384   -0.5656    0.0000 C   0  0  0  0  0  0  0  0  0  0  0  0
    2.2287    0.7559    0.0000 O   0  0  0  0  0  0  0  0  0  0  0  0
    4.4376   -0.6118    0.0000 N   0  0  0  0  0  0  0  0  0  0  0  0
    5.2273    0.6636    0.0000 C   0  0  0  0  0  0  0  0  0  0  0  0
    4.6597    2.0520    0.0000 N   0  0  0  0  0  0  0  0  0  0  0  0
    5.8048    3.0209    0.0000 N   0  0  0  0  0  0  0  0  0  0  0  0
    7.0801    2.2313    0.0000 N   0  0  0  0  0  0  0  0  0  0  0  0
    6.7232    0.7743    0.0000 N   0  0  0  0  0  0  0  0  0  0  0  0
    7.6921   -0.3708    0.0000 C   0  0  0  0  0  0  0  0  0  0  0  0
    7.1849   -1.7824    0.0000 C   0  0  0  0  0  0  0  0  0  0  0  0
    8.1537   -2.9275    0.0000 C   0  0  0  0  0  0  0  0  0  0  0  0
    9.6299   -2.6610    0.0000 C   0  0  0  0  0  0  0  0  0  0  0  0
   10.1371   -1.2493    0.0000 C   0  0  0  0  0  0  0  0  0  0  0  0
    9.1682   -0.1042    0.0000 C   0  0  0  0  0  0  0  0  0  0  0  0
    9.6755    1.3074    0.0000 C   0  0  0  0  0  0  0  0  0  0  0  0
   11.1516    1.5739    0.0000 C   0  0  0  0  0  0  0  0  0  0  0  0
   11.6588    2.9856    0.0000 C   0  0  0  0  0  0  0  0  0  0  0  0
   10.6899    4.1307    0.0000 C   0  0  0  0  0  0  0  0  0  0  0  0
    9.2138    3.8641    0.0000 C   0  0  0  0  0  0  0  0  0  0  0  0
    8.7066    2.4525    0.0000 C   0  0  0  0  0  0  0  0  0  0  0  0
    0.7500   -1.2990    0.0000 C   0  0  0  0  0  0  0  0  0  0  0  0
    1.5000    0.0000    0.0000 C   0  0  0  0  0  0  0  0  0  0  0  0
    0.7500    1.2990    0.0000 C   0  0  0  0  0  0  0  0  0  0  0  0
   -0.7500    1.2990    0.0000 C   0  0  0  0  0  0  0  0  0  0  0  0
   -1.5000    0.0000    0.0000 C   0  0  0  0  0  0  0  0  0  0  0  0
   -0.7500   -1.2990    0.0000 C   0  0  0  0  0  0  0  0  0  0  0  0
   -2.1487   -1.8409    0.0000 C   0  0  0  0  0  0  0  0  0  0  0  0
   -2.4696   -0.3756    0.0000 C   0  0  0  0  0  0  0  0  0  0  0  0
   -3.8990    0.0791    0.0000 C   0  0  0  0  0  0  0  0  0  0  0  0
   -5.0075   -0.9314    0.0000 C   0  0  0  0  0  0  0  0  0  0  0  0
   -4.6866   -2.3967    0.0000 C   0  0  0  0  0  0  0  0  0  0  0  0
   -3.2572   -2.8514    0.0000 C   0  0  0  0  0  0  0  0  0  0  0  0
   -3.9258   -4.1942    0.0000 C   0  0  0  0  0  0  0  0  0  0  0  0
   -5.1501   -3.3275    0.0000 C   0  0  0  0  0  0  0  0  0  0  0  0
   -6.5128   -3.9545    0.0000 C   0  0  0  0  0  0  0  0  0  0  0  0
   -6.6512   -5.4481    0.0000 C   0  0  0  0  0  0  0  0  0  0  0  0
   -5.4269   -6.3147    0.0000 C   0  0  0  0  0  0  0  0  0  0  0  0
   -4.0642   -5.6878    0.0000 C   0  0  0  0  0  0  0  0  0  0  0  0
   -3.6537   -7.1305    0.0000 C   0  0  0  0  0  0  0  0  0  0  0  0
   -5.1424   -7.3149    0.0000 C   0  0  0  0  0  0  0  0  0  0  0  0
   -5.7270   -8.6962    0.0000 C   0  0  0  0  0  0  0  0  0  0  0  0
   -4.8231   -9.8932    0.0000 C   0  0  0  0  0  0  0  0  0  0  0  0
   -3.3345   -9.7089    0.0000 C   0  0  0  0  0  0  0  0  0  0  0  0
   -2.7498   -8.3276    0.0000 C   0  0  0  0  0  0  0  0  0  0  0  0
   -1.4745   -9.1172    0.0000 C   0  0  0  0  0  0  0  0  0  0  0  0
   -2.4504  -10.2563    0.0000 C   0  0  0  0  0  0  0  0  0  0  0  0
   -1.9519  -11.6710    0.0000 C   0  0  0  0  0  0  0  0  0  0  0  0
   -0.4774  -11.9467    0.0000 C   0  0  0  0  0  0  0  0  0  0  0  0
    0.4985  -10.8076    0.0000 C   0  0  0  0  0  0  0  0  0  0  0  0
   -0.0000   -9.3928    0.0000 C   0  0  0  0  0  0  0  0  0  0  0  0
    1.4745   -9.1172    0.0000 C   0  0  0  0  0  0  0  0  0  0  0  0
    1.5207  -10.6165    0.0000 C   0  0  0  0  0  0  0  0  0  0  0  0
    2.8422  -11.3261    0.0000 C   0  0  0  0  0  0  0  0  0  0  0  0
    4.1175  -10.5365    0.0000 C   0  0  0  0  0  0  0  0  0  0  0  0
    4.0713   -9.0372    0.0000 C   0  0  0  0  0  0  0  0  0  0  0  0
    2.7498   -8.3276    0.0000 C   0  0  0  0  0  0  0  0  0  0  0  0
  1  2  1  0
  2  3  1  0
  3  4  1  0
  4  5  1  0
  5  6  1  0
  6  7  1  0
  7  8  2  0
  7  9  1  0
  9 10  1  0
 10 11  2  0
 11 12  1  0
 12 13  2  0
 13 14  1  0
 14 15  1  0
 15 16  2  0
 16 17  1  0
 17 18  2  0
 18 19  1  0
 19 20  2  0
 20 21  1  0
 21 22  2  0
 22 23  1  0
 23 24  2  0
 24 25  1  0
 25 26  2  0
  6 27  1  0
 27 28  2  0
 28 29  1  0
 29 30  2  0
 30 31  1  0
 31 32  2  0
 32 33  1  0
 33 34  2  0
 34 35  1  0
 35 36  2  0
 36 37  1  0
 37 38  2  0
 38 39  1  0
 39 40  2  0
 40 41  1  0
 41 42  1  0
 42 43  1  0
 43 44  2  0
 44 45  1  0
 45 46  2  0
 46 47  1  0
 47 48  2  0
 48 49  1  0
 49 50  2  0
 50 51  1  0
 51 52  2  0
 52 53  1  0
 53 54  2  0
 54 55  1  0
 55 56  2  0
 56 57  1  0
 57 58  2  0
 58 59  1  0
 59 60  2  0
 60 61  1  0
 61 62  2  0
 62  2  1  0
 14 10  1  0
 20 15  1  0
 26 21  1  0
 32 27  1  0
 38 33  1  0
 44 39  1  0
 50 45  1  0
 56 51  1  0
 62 57  1  0
M  END
>  <Title>  (166) 
idAAELgen8

$$$$

     RDKit          2D

 75 75  0  0  0  0  0  0  0  0999 V2000
   19.1715    0.0000    0.0000 C   0  0  0  0  0  0  0  0  0  0  0  0
   17.6715    0.0000    0.0000 C   0  0  0  0  0  0  0  0  0  0  0  0
   17.6078   -1.4986    0.0000 C   0  0  0  0  0  0  0  0  0  0  0  0
   17.4173   -2.9865    0.0000 C   0  0  0  0  0  0  0  0  0  0  0  0
   17.1013   -4.4528    0.0000 C   0  0  0  0  0  0  0  0  0  0  0  0
   16.6621   -5.8871    0.0000 C   0  0  0  0  0  0  0  0  0  0  0  0
   16.1028   -7.2789    0.0000 C   0  0  0  0  0  0  0  0  0  0  0  0
   15.4275   -8.6183    0.0000 C   0  0  0  0  0  0  0  0  0  0  0  0
   14.6410   -9.8956    0.0000 C   0  0  0  0  0  0  0  0  0  0  0  0
   13.7491  -11.1016    0.0000 C   0  0  0  0  0  0  0  0  0  0  0  0
   12.7581  -12.2276    0.0000 C   0  0  0  0  0  0  0  0  0  0  0  0
   11.6751  -13.2655    0.0000 C   0  0  0  0  0  0  0  0  0  0  0  0
   10.5081  -14.2078    0.0000 C   0  0  0  0  0  0  0  0  0  0  0  0
    9.2653  -15.0478    0.0000 C   0  0  0  0  0  0  0  0  0  0  0  0
    7.9558  -15.7793    0.0000 C   0  0  0  0  0  0  0  0  0  0  0  0
    6.5889  -16.3972    0.0000 C   0  0  0  0  0  0  0  0  0  0  0  0
    5.1746  -16.8969    0.0000 C   0  0  0  0  0  0  0  0  0  0  0  0
    3.7230  -17.2749    0.0000 C   0  0  0  0  0  0  0  0  0  0  0  0
    2.2446  -17.5284    0.0000 C   0  0  0  0  0  0  0  0  0  0  0  0
    0.7500  -17.6556    0.0000 C   0  0  0  0  0  0  0  0  0  0  0  0
   -0.7500  -17.6556    0.0000 C   0  0  0  0  0  0  0  0  0  0  0  0
   -2.2446  -17.5284    0.0000 C   0  0  0  0  0  0  0  0  0  0  0  0
   -3.7230  -17.2749    0.0000 C   0  0  0  0  0  0  0  0  0  0  0  0
   -5.1746  -16.8969    0.0000 C   0  0  0  0  0  0  0  0  0  0  0  0
   -6.5889  -16.3972    0.0000 C   0  0  0  0  0  0  0  0  0  0  0  0
   -7.9558  -15.7793    0.0000 C   0  0  0  0  0  0  0  0  0  0  0  0
   -9.2653  -15.0478    0.0000 C   0  0  0  0  0  0  0  0  0  0  0  0
  -10.5081  -14.2078    0.0000 C   0  0  0  0  0  0  0  0  0  0  0  0
  -11.6751  -13.2655    0.0000 C   0  0  0  0  0  0  0  0  0  0  0  0
  -12.7581  -12.2276    0.0000 C   0  0  0  0  0  0  0  0  0  0  0  0
  -13.7491  -11.1016    0.0000 C   0  0  0  0  0  0  0  0  0  0  0  0
  -14.6410   -9.8956    0.0000 C   0  0  0  0  0  0  0  0  0  0  0  0
  -15.4275   -8.6183    0.0000 C   0  0  0  0  0  0  0  0  0  0  0  0
  -16.1028   -7.2789    0.0000 C   0  0  0  0  0  0  0  0  0  0  0  0
  -16.6621   -5.8871    0.0000 C   0  0  0  0  0  0  0  0  0  0  0  0
  -17.1013   -4.4528    0.0000 C   0  0  0  0  0  0  0  0  0  0  0  0
  -17.4173   -2.9865    0.0000 C   0  0  0  0  0  0  0  0  0  0  0  0
  -17.6078   -1.4986    0.0000 C   0  0  0  0  0  0  0  0  0  0  0  0
  -17.6715    0.0000    0.0000 C   0  0  0  0  0  0  0  0  0  0  0  0
  -17.6078    1.4986    0.0000 C   0  0  0  0  0  0  0  0  0  0  0  0
  -17.4173    2.9865    0.0000 C   0  0  0  0  0  0  0  0  0  0  0  0
  -17.1013    4.4528    0.0000 C   0  0  0  0  0  0  0  0  0  0  0  0
  -16.6621    5.8871    0.0000 C   0  0  0  0  0  0  0  0  0  0  0  0
  -16.1028    7.2789    0.0000 C   0  0  0  0  0  0  0  0  0  0  0  0
  -15.4275    8.6183    0.0000 C   0  0  0  0  0  0  0  0  0  0  0  0
  -14.6410    9.8956    0.0000 C   0  0  0  0  0  0  0  0  0  0  0  0
  -13.7491   11.1016    0.0000 C   0  0  0  0  0  0  0  0  0  0  0  0
  -12.7581   12.2276    0.0000 C   0  0  0  0  0  0  0  0  0  0  0  0
  -11.6751   13.2655    0.0000 C   0  0  0  0  0  0  0  0  0  0  0  0
  -10.5081   14.2078    0.0000 C   0  0  0  0  0  0  0  0  0  0  0  0
   -9.2653   15.0478    0.0000 C   0  0  0  0  0  0  0  0  0  0  0  0
   -7.9558   15.7793    0.0000 C   0  0  0  0  0  0  0  0  0  0  0  0
   -6.5889   16.3972    0.0000 C   0  0  0  0  0  0  0  0  0  0  0  0
   -5.1746   16.8969    0.0000 C   0  0  0  0  0  0  0  0  0  0  0  0
   -3.7230   17.2749    0.0000 C   0  0  0  0  0  0  0  0  0  0  0  0
   -2.2446   17.5284    0.0000 C   0  0  0  0  0  0  0  0  0  0  0  0
   -0.7500   17.6556    0.0000 C   0  0  0  0  0  0  0  0  0  0  0  0
    0.7500   17.6556    0.0000 C   0  0  0  0  0  0  0  0  0  0  0  0
    2.2446   17.5284    0.0000 C   0  0  0  0  0  0  0  0  0  0  0  0
    3.7230   17.2749    0.0000 C   0  0  0  0  0  0  0  0  0  0  0  0
    5.1746   16.8969    0.0000 C   0  0  0  0  0  0  0  0  0  0  0  0
    6.5889   16.3972    0.0000 C   0  0  0  0  0  0  0  0  0  0  0  0
    7.9558   15.7793    0.0000 C   0  0  0  0  0  0  0  0  0  0  0  0
    9.2653   15.0478    0.0000 C   0  0  0  0  0  0  0  0  0  0  0  0
   10.5081   14.2078    0.0000 C   0  0  0  0  0  0  0  0  0  0  0  0
   11.6751   13.2655    0.0000 C   0  0  0  0  0  0  0  0  0  0  0  0
   12.7581   12.2276    0.0000 C   0  0  0  0  0  0  0  0  0  0  0  0
   13.7491   11.1016    0.0000 C   0  0  0  0  0  0  0  0  0  0  0  0
   14.6410    9.8956    0.0000 C   0  0  0  0  0  0  0  0  0  0  0  0
   15.4275    8.6183    0.0000 C   0  0  0  0  0  0  0  0  0  0  0  0
   16.1028    7.2789    0.0000 C   0  0  0  0  0  0  0  0  0  0  0  0
   16.6621    5.8871    0.0000 C   0  0  0  0  0  0  0  0  0  0  0  0
   17.1013    4.4528    0.0000 C   0  0  0  0  0  0  0  0  0  0  0  0
   17.4173    2.9865    0.0000 C   0  0  0  0  0  0  0  0  0  0  0  0
   17.6078    1.4986    0.0000 C   0  0  0  0  0  0  0  0  0  0  0  0
  1  2  1  0
  2  3  1  0
  3  4  1  0
  4  5  1  0
  5  6  1  0
  6  7  1  0
  7  8  1  0
  8  9  1  0
  9 10  1  0
 10 11  1  0
 11 12  1  0
 12 13  1  0
 13 14  1  0
 14 15  1  0
 15 16  1  0
 16 17  1  0
 17 18  1  0
 18 19  1  0
 19 20  1  0
 20 21  1  0
 21 22  1  0
 22 23  1  0
 23 24  1  0
 24 25  1  0
 25 26  1  0
 26 27  1  0
 27 28  1  0
 28 29  1  0
 29 30  1  0
 30 31  1  0
 31 32  1  0
 32 33  1  0
 33 34  1  0
 34 35  1  0
 35 36  1  0
 36 37  1  0
 37 38  1  0
 38 39  1  0
 39 40  1  0
 40 41  1  0
 41 42  1  0
 42 43  1  0
 43 44  1  0
 44 45  1  0
 45 46  1  0
 46 47  1  0
 47 48  1  0
 48 49  1  0
 49 50  1  0
 50 51  1  0
 51 52  1  0
 52 53  1  0
 53 54  1  0
 54 55  1  0
 55 56  1  0
 56 57  1  0
 57 58  1  0
 58 59  1  0
 59 60  1  0
 60 61  1  0
 61 62  1  0
 62 63  1  0
 63 64  1  0
 64 65  1  0
 65 66  1  0
 66 67  1  0
 67 68  1  0
 68 69  1  0
 69 70  1  0
 70 71  1  0
 71 72  1  0
 72 73  1  0
 73 74  1  0
 74 75  1  0
 75  2  1  0
M  END
>  <Title>  (167) 
idAAEMgen8

$$$$

     RDKit          2D

  7  7  0  0  0  0  0  0  0  0999 V2000
    2.7760    0.0000    0.0000 C   0  0  0  0  0  0  0  0  0  0  0  0
    1.2760    0.0000    0.0000 C   0  0  0  0  0  0  0  0  0  0  0  0
    0.3943    1.2135    0.0000 C   0  0  0  0  0  0  0  0  0  0  0  0
   -1.0323    0.7500    0.0000 C   0  0  0  0  0  0  0  0  0  0  0  0
   -2.2458    1.6317    0.0000 O   0  0  0  0  0  0  0  0  0  0  0  0
   -1.0323   -0.7500    0.0000 C   0  0  0  0  0  0  0  0  0  0  0  0
    0.3943   -1.2135    0.0000 C   0  0  0  0  0  0  0  0  0  0  0  0
  1  2  1  0
  2  3  2  0
  3  4  1  0
  4  5  1  0
  4  6  1  0
  6  7  2  0
  7  2  1  0
M  END
>  <Title>  (168) 
idAAENgen8

$$$$

     RDKit          2D

 11 11  0  0  0  0  0  0  0  0999 V2000
    4.7286   -0.0000    0.0000 N   0  0  0  0  0  0  0  0  0  0  0  0
    3.2286   -0.0000    0.0000 C   0  0  0  0  0  0  0  0  0  0  0  0
    1.7286    0.0000    0.0000 C   0  0  0  0  0  0  0  0  0  0  0  0
    1.0777    1.3515    0.0000 C   0  0  0  0  0  0  0  0  0  0  0  0
   -0.3846    1.6852    0.0000 C   0  0  0  0  0  0  0  0  0  0  0  0
   -1.5574    0.7500    0.0000 C   0  0  0  0  0  0  0  0  0  0  0  0
   -2.9088    1.4008    0.0000 O   0  0  0  0  0  0  0  0  0  0  0  0
   -1.5574   -0.7500    0.0000 C   0  0  0  0  0  0  0  0  0  0  0  0
   -2.9088   -1.4008    0.0000 O   0  0  0  0  0  0  0  0  0  0  0  0
   -0.3846   -1.6852    0.0000 C   0  0  0  0  0  0  0  0  0  0  0  0
    1.0777   -1.3515    0.0000 C   0  0  0  0  0  0  0  0  0  0  0  0
  1  2  3  0
  2  3  1  0
  3  4  2  0
  4  5  1  0
  5  6  1  0
  6  7  1  0
  6  8  2  0
  8  9  1  0
  8 10  1  0
 10 11  1  0
 11  3  1  0
M  END
>  <Title>  (169) 
idAAEOgen8

$$$$

     RDKit          2D

  8  7  0  0  0  0  0  0  0  0999 V2000
    0.0000    0.0000    0.0000 C   0  0  0  0  0  0  0  0  0  0  0  0
    1.2990    0.7500    0.0000 C   0  0  0  0  0  0  0  0  0  0  0  0
    2.5981   -0.0000    0.0000 C   0  0  0  0  0  0  0  0  0  0  0  0
    3.8971    0.7500    0.0000 C   0  0  0  0  0  0  0  0  0  0  0  0
    5.1962   -0.0000    0.0000 C   0  0  0  0  0  0  0  0  0  0  0  0
    6.4952   -0.7500    0.0000 C   0  0  0  0  0  0  0  0  0  0  0  0
    7.7942   -1.5000    0.0000 C   0  0  0  0  0  0  0  0  0  0  0  0
    9.0933   -0.7500    0.0000 C   0  0  0  0  0  0  0  0  0  0  0  0
  1  2  1  0
  2  3  2  3
  3  4  1  0
  4  5  1  0
  5  6  3  0
  6  7  1  0
  7  8  1  0
M  END
>  <Title>  (170) 
idAAEPgen8

$$$$

     RDKit          2D

 82 86  0  0  0  0  0  0  0  0999 V2000
   -8.6219   -2.3333    0.0000 C   0  0  0  0  0  0  0  0  0  0  0  0
   -7.8049   -3.5913    0.0000 C   0  0  0  0  0  0  0  0  0  0  0  0
   -9.0185   -4.4730    0.0000 C   0  0  0  0  0  0  0  0  0  0  0  0
  -10.1332   -5.4767    0.0000 C   0  0  0  0  0  0  0  0  0  0  0  0
  -11.1369   -6.5914    0.0000 C   0  0  0  0  0  0  0  0  0  0  0  0
  -12.0186   -7.8049    0.0000 C   0  0  0  0  0  0  0  0  0  0  0  0
  -12.7686   -9.1040    0.0000 C   0  0  0  0  0  0  0  0  0  0  0  0
  -13.3787  -10.4743    0.0000 C   0  0  0  0  0  0  0  0  0  0  0  0
  -13.8422  -11.9009    0.0000 C   0  0  0  0  0  0  0  0  0  0  0  0
  -14.1541  -13.3681    0.0000 C   0  0  0  0  0  0  0  0  0  0  0  0
  -14.3109  -14.8599    0.0000 C   0  0  0  0  0  0  0  0  0  0  0  0
  -14.3109  -16.3599    0.0000 C   0  0  0  0  0  0  0  0  0  0  0  0
  -14.1541  -17.8517    0.0000 C   0  0  0  0  0  0  0  0  0  0  0  0
  -13.8422  -19.3189    0.0000 C   0  0  0  0  0  0  0  0  0  0  0  0
  -13.3787  -20.7455    0.0000 C   0  0  0  0  0  0  0  0  0  0  0  0
  -12.7686  -22.1158    0.0000 C   0  0  0  0  0  0  0  0  0  0  0  0
  -12.0186  -23.4148    0.0000 C   0  0  0  0  0  0  0  0  0  0  0  0
  -11.1369  -24.6284    0.0000 C   0  0  0  0  0  0  0  0  0  0  0  0
  -10.1332  -25.7431    0.0000 C   0  0  0  0  0  0  0  0  0  0  0  0
   -9.0185  -26.7468    0.0000 C   0  0  0  0  0  0  0  0  0  0  0  0
   -7.8049  -27.6285    0.0000 C   0  0  0  0  0  0  0  0  0  0  0  0
   -6.5059  -28.3785    0.0000 C   0  0  0  0  0  0  0  0  0  0  0  0
   -5.1356  -28.9886    0.0000 C   0  0  0  0  0  0  0  0  0  0  0  0
   -3.7090  -29.4521    0.0000 C   0  0  0  0  0  0  0  0  0  0  0  0
   -2.2418  -29.7640    0.0000 C   0  0  0  0  0  0  0  0  0  0  0  0
   -0.7500  -29.9207    0.0000 C   0  0  0  0  0  0  0  0  0  0  0  0
    0.7500  -29.9207    0.0000 C   0  0  0  0  0  0  0  0  0  0  0  0
    2.2418  -29.7640    0.0000 C   0  0  0  0  0  0  0  0  0  0  0  0
    3.7090  -29.4521    0.0000 C   0  0  0  0  0  0  0  0  0  0  0  0
    5.1356  -28.9886    0.0000 C   0  0  0  0  0  0  0  0  0  0  0  0
    6.5059  -28.3785    0.0000 C   0  0  0  0  0  0  0  0  0  0  0  0
    7.8049  -27.6285    0.0000 C   0  0  0  0  0  0  0  0  0  0  0  0
    9.0185  -26.7468    0.0000 C   0  0  0  0  0  0  0  0  0  0  0  0
   10.1332  -25.7431    0.0000 C   0  0  0  0  0  0  0  0  0  0  0  0
   11.1369  -24.6284    0.0000 C   0  0  0  0  0  0  0  0  0  0  0  0
   12.0186  -23.4148    0.0000 C   0  0  0  0  0  0  0  0  0  0  0  0
   12.7686  -22.1158    0.0000 C   0  0  0  0  0  0  0  0  0  0  0  0
   13.3787  -20.7455    0.0000 C   0  0  0  0  0  0  0  0  0  0  0  0
   13.8422  -19.3189    0.0000 C   0  0  0  0  0  0  0  0  0  0  0  0
   14.1541  -17.8517    0.0000 C   0  0  0  0  0  0  0  0  0  0  0  0
   14.3109  -16.3599    0.0000 C   0  0  0  0  0  0  0  0  0  0  0  0
   14.3109  -14.8599    0.0000 C   0  0  0  0  0  0  0  0  0  0  0  0
   14.1541  -13.3681    0.0000 C   0  0  0  0  0  0  0  0  0  0  0  0
   13.8422  -11.9009    0.0000 C   0  0  0  0  0  0  0  0  0  0  0  0
   13.3787  -10.4743    0.0000 C   0  0  0  0  0  0  0  0  0  0  0  0
   12.7686   -9.1040    0.0000 C   0  0  0  0  0  0  0  0  0  0  0  0
   12.0186   -7.8049    0.0000 C   0  0  0  0  0  0  0  0  0  0  0  0
   11.1369   -6.5914    0.0000 C   0  0  0  0  0  0  0  0  0  0  0  0
   10.1332   -5.4767    0.0000 C   0  0  0  0  0  0  0  0  0  0  0  0
    9.0185   -4.4730    0.0000 C   0  0  0  0  0  0  0  0  0  0  0  0
    7.8049   -3.5913    0.0000 C   0  0  0  0  0  0  0  0  0  0  0  0
    6.5059   -2.8413    0.0000 C   0  0  0  0  0  0  0  0  0  0  0  0
    5.1356   -2.2312    0.0000 C   0  0  0  0  0  0  0  0  0  0  0  0
    3.7090   -1.7677    0.0000 C   0  0  0  0  0  0  0  0  0  0  0  0
    2.2418   -1.4558    0.0000 C   0  0  0  0  0  0  0  0  0  0  0  0
    2.4764    0.0257    0.0000 C   0  0  0  0  0  0  0  0  0  0  0  0
    1.5738    1.2237    0.0000 O   0  0  0  0  0  0  0  0  0  0  0  0
    3.8768    0.5633    0.0000 N   0  0  0  0  0  0  0  0  0  0  0  0
    4.1115    2.0448    0.0000 C   0  0  0  0  0  0  0  0  0  0  0  0
    5.5118    2.5823    0.0000 N   0  0  0  0  0  0  0  0  0  0  0  0
    5.7465    4.0639    0.0000 N   0  0  0  0  0  0  0  0  0  0  0  0
    4.5808    5.0079    0.0000 N   0  0  0  0  0  0  0  0  0  0  0  0
    3.1804    4.4703    0.0000 N   0  0  0  0  0  0  0  0  0  0  0  0
    2.9457    2.9888    0.0000 N   0  0  0  0  0  0  0  0  0  0  0  0
    0.7500   -1.2990    0.0000 C   0  0  0  0  0  0  0  0  0  0  0  0
    1.5000    0.0000    0.0000 C   0  0  0  0  0  0  0  0  0  0  0  0
    0.7500    1.2990    0.0000 C   0  0  0  0  0  0  0  0  0  0  0  0
   -0.7500    1.2990    0.0000 C   0  0  0  0  0  0  0  0  0  0  0  0
   -1.5000    0.0000    0.0000 C   0  0  0  0  0  0  0  0  0  0  0  0
   -0.7500   -1.2990    0.0000 C   0  0  0  0  0  0  0  0  0  0  0  0
   -2.2418   -1.4558    0.0000 C   0  0  0  0  0  0  0  0  0  0  0  0
   -1.2381   -2.5705    0.0000 C   0  0  0  0  0  0  0  0  0  0  0  0
   -1.7016   -3.9971    0.0000 C   0  0  0  0  0  0  0  0  0  0  0  0
   -3.1688   -4.3090    0.0000 C   0  0  0  0  0  0  0  0  0  0  0  0
   -4.1725   -3.1943    0.0000 C   0  0  0  0  0  0  0  0  0  0  0  0
   -3.7090   -1.7677    0.0000 C   0  0  0  0  0  0  0  0  0  0  0  0
   -5.1356   -2.2312    0.0000 C   0  0  0  0  0  0  0  0  0  0  0  0
   -4.9788   -0.7394    0.0000 C   0  0  0  0  0  0  0  0  0  0  0  0
   -6.1923    0.1422    0.0000 C   0  0  0  0  0  0  0  0  0  0  0  0
   -7.5626   -0.4679    0.0000 C   0  0  0  0  0  0  0  0  0  0  0  0
   -7.7194   -1.9597    0.0000 C   0  0  0  0  0  0  0  0  0  0  0  0
   -6.5059   -2.8413    0.0000 C   0  0  0  0  0  0  0  0  0  0  0  0
  1  2  1  0
  2  3  1  0
  3  4  2  0
  4  5  1  0
  5  6  1  0
  6  7  1  0
  7  8  1  0
  8  9  1  0
  9 10  1  0
 10 11  1  0
 11 12  1  0
 12 13  1  0
 13 14  1  0
 14 15  1  0
 15 16  1  0
 16 17  1  0
 17 18  1  0
 18 19  1  0
 19 20  1  0
 20 21  1  0
 21 22  1  0
 22 23  1  0
 23 24  1  0
 24 25  1  0
 25 26  1  0
 26 27  1  0
 27 28  1  0
 28 29  1  0
 29 30  1  0
 30 31  1  0
 31 32  1  0
 32 33  1  0
 33 34  1  0
 34 35  1  0
 35 36  1  0
 36 37  1  0
 37 38  1  0
 38 39  1  0
 39 40  1  0
 40 41  1  0
 41 42  1  0
 42 43  1  0
 43 44  1  0
 44 45  1  0
 45 46  1  0
 46 47  2  0
 47 48  1  0
 48 49  2  0
 49 50  1  0
 50 51  2  0
 51 52  1  0
 52 53  2  0
 53 54  1  0
 54 55  2  0
 55 56  1  0
 56 57  2  0
 56 58  1  0
 58 59  1  0
 59 60  2  0
 60 61  1  0
 61 62  2  0
 62 63  1  0
 63 64  2  0
 55 65  1  0
 65 66  2  0
 66 67  1  0
 67 68  2  0
 68 69  1  0
 69 70  2  0
 70 71  1  0
 71 72  2  0
 72 73  1  0
 73 74  2  0
 74 75  1  0
 75 76  2  0
 76 77  1  0
 77 78  2  0
 78 79  1  0
 79 80  2  0
 80 81  1  0
 81 82  2  0
 82  2  1  0
 64 59  1  0
 70 65  1  0
 76 71  1  0
 82 77  1  0
M  END
>  <Title>  (171) 
idAAEQgen8

$$$$

     RDKit          2D

108108  0  0  0  0  0  0  0  0999 V2000
   26.8093    0.0000    0.0000 C   0  0  0  0  0  0  0  0  0  0  0  0
   25.3093    0.0000    0.0000 C   0  0  0  0  0  0  0  0  0  0  0  0
   25.2649   -1.4993    0.0000 C   0  0  0  0  0  0  0  0  0  0  0  0
   25.1317   -2.9934    0.0000 C   0  0  0  0  0  0  0  0  0  0  0  0
   24.9102   -4.4770    0.0000 C   0  0  0  0  0  0  0  0  0  0  0  0
   24.6013   -5.9448    0.0000 C   0  0  0  0  0  0  0  0  0  0  0  0
   24.2059   -7.3918    0.0000 C   0  0  0  0  0  0  0  0  0  0  0  0
   23.7255   -8.8128    0.0000 C   0  0  0  0  0  0  0  0  0  0  0  0
   23.1617  -10.2028    0.0000 C   0  0  0  0  0  0  0  0  0  0  0  0
   22.5166  -11.5570    0.0000 C   0  0  0  0  0  0  0  0  0  0  0  0
   21.7924  -12.8706    0.0000 C   0  0  0  0  0  0  0  0  0  0  0  0
   20.9917  -14.1390    0.0000 C   0  0  0  0  0  0  0  0  0  0  0  0
   20.1172  -15.3577    0.0000 C   0  0  0  0  0  0  0  0  0  0  0  0
   19.1721  -16.5225    0.0000 C   0  0  0  0  0  0  0  0  0  0  0  0
   18.1596  -17.6292    0.0000 C   0  0  0  0  0  0  0  0  0  0  0  0
   17.0834  -18.6741    0.0000 C   0  0  0  0  0  0  0  0  0  0  0  0
   15.9471  -19.6533    0.0000 C   0  0  0  0  0  0  0  0  0  0  0  0
   14.7548  -20.5635    0.0000 C   0  0  0  0  0  0  0  0  0  0  0  0
   13.5107  -21.4015    0.0000 C   0  0  0  0  0  0  0  0  0  0  0  0
   12.2192  -22.1643    0.0000 C   0  0  0  0  0  0  0  0  0  0  0  0
   10.8847  -22.8492    0.0000 C   0  0  0  0  0  0  0  0  0  0  0  0
    9.5119  -23.4539    0.0000 C   0  0  0  0  0  0  0  0  0  0  0  0
    8.1058  -23.9762    0.0000 C   0  0  0  0  0  0  0  0  0  0  0  0
    6.6712  -24.4143    0.0000 C   0  0  0  0  0  0  0  0  0  0  0  0
    5.2132  -24.7666    0.0000 C   0  0  0  0  0  0  0  0  0  0  0  0
    3.7368  -25.0320    0.0000 C   0  0  0  0  0  0  0  0  0  0  0  0
    2.2474  -25.2094    0.0000 C   0  0  0  0  0  0  0  0  0  0  0  0
    0.7500  -25.2982    0.0000 C   0  0  0  0  0  0  0  0  0  0  0  0
   -0.7500  -25.2982    0.0000 C   0  0  0  0  0  0  0  0  0  0  0  0
   -2.2474  -25.2094    0.0000 C   0  0  0  0  0  0  0  0  0  0  0  0
   -3.7368  -25.0320    0.0000 C   0  0  0  0  0  0  0  0  0  0  0  0
   -5.2132  -24.7666    0.0000 C   0  0  0  0  0  0  0  0  0  0  0  0
   -6.6712  -24.4143    0.0000 C   0  0  0  0  0  0  0  0  0  0  0  0
   -8.1058  -23.9762    0.0000 C   0  0  0  0  0  0  0  0  0  0  0  0
   -9.5119  -23.4539    0.0000 C   0  0  0  0  0  0  0  0  0  0  0  0
  -10.8847  -22.8492    0.0000 C   0  0  0  0  0  0  0  0  0  0  0  0
  -12.2192  -22.1643    0.0000 C   0  0  0  0  0  0  0  0  0  0  0  0
  -13.5107  -21.4015    0.0000 C   0  0  0  0  0  0  0  0  0  0  0  0
  -14.7548  -20.5635    0.0000 C   0  0  0  0  0  0  0  0  0  0  0  0
  -15.9471  -19.6533    0.0000 C   0  0  0  0  0  0  0  0  0  0  0  0
  -17.0834  -18.6741    0.0000 C   0  0  0  0  0  0  0  0  0  0  0  0
  -18.1596  -17.6292    0.0000 C   0  0  0  0  0  0  0  0  0  0  0  0
  -19.1721  -16.5225    0.0000 C   0  0  0  0  0  0  0  0  0  0  0  0
  -20.1172  -15.3577    0.0000 C   0  0  0  0  0  0  0  0  0  0  0  0
  -20.9917  -14.1390    0.0000 C   0  0  0  0  0  0  0  0  0  0  0  0
  -21.7924  -12.8706    0.0000 C   0  0  0  0  0  0  0  0  0  0  0  0
  -22.5166  -11.5570    0.0000 C   0  0  0  0  0  0  0  0  0  0  0  0
  -23.1617  -10.2028    0.0000 C   0  0  0  0  0  0  0  0  0  0  0  0
  -23.7255   -8.8128    0.0000 C   0  0  0  0  0  0  0  0  0  0  0  0
  -24.2059   -7.3918    0.0000 C   0  0  0  0  0  0  0  0  0  0  0  0
  -24.6013   -5.9448    0.0000 C   0  0  0  0  0  0  0  0  0  0  0  0
  -24.9102   -4.4770    0.0000 C   0  0  0  0  0  0  0  0  0  0  0  0
  -25.1317   -2.9934    0.0000 C   0  0  0  0  0  0  0  0  0  0  0  0
  -25.2649   -1.4993    0.0000 C   0  0  0  0  0  0  0  0  0  0  0  0
  -25.3093    0.0000    0.0000 C   0  0  0  0  0  0  0  0  0  0  0  0
  -25.2649    1.4993    0.0000 C   0  0  0  0  0  0  0  0  0  0  0  0
  -25.1317    2.9934    0.0000 C   0  0  0  0  0  0  0  0  0  0  0  0
  -24.9102    4.4770    0.0000 C   0  0  0  0  0  0  0  0  0  0  0  0
  -24.6013    5.9448    0.0000 C   0  0  0  0  0  0  0  0  0  0  0  0
  -24.2059    7.3918    0.0000 C   0  0  0  0  0  0  0  0  0  0  0  0
  -23.7255    8.8128    0.0000 C   0  0  0  0  0  0  0  0  0  0  0  0
  -23.1617   10.2028    0.0000 C   0  0  0  0  0  0  0  0  0  0  0  0
  -22.5166   11.5570    0.0000 C   0  0  0  0  0  0  0  0  0  0  0  0
  -21.7924   12.8706    0.0000 C   0  0  0  0  0  0  0  0  0  0  0  0
  -20.9917   14.1390    0.0000 C   0  0  0  0  0  0  0  0  0  0  0  0
  -20.1172   15.3577    0.0000 C   0  0  0  0  0  0  0  0  0  0  0  0
  -19.1721   16.5225    0.0000 C   0  0  0  0  0  0  0  0  0  0  0  0
  -18.1596   17.6292    0.0000 C   0  0  0  0  0  0  0  0  0  0  0  0
  -17.0834   18.6741    0.0000 C   0  0  0  0  0  0  0  0  0  0  0  0
  -15.9471   19.6533    0.0000 C   0  0  0  0  0  0  0  0  0  0  0  0
  -14.7548   20.5635    0.0000 C   0  0  0  0  0  0  0  0  0  0  0  0
  -13.5107   21.4015    0.0000 C   0  0  0  0  0  0  0  0  0  0  0  0
  -12.2192   22.1643    0.0000 C   0  0  0  0  0  0  0  0  0  0  0  0
  -10.8847   22.8492    0.0000 C   0  0  0  0  0  0  0  0  0  0  0  0
   -9.5119   23.4539    0.0000 C   0  0  0  0  0  0  0  0  0  0  0  0
   -8.1058   23.9762    0.0000 C   0  0  0  0  0  0  0  0  0  0  0  0
   -6.6712   24.4143    0.0000 C   0  0  0  0  0  0  0  0  0  0  0  0
   -5.2132   24.7666    0.0000 C   0  0  0  0  0  0  0  0  0  0  0  0
   -3.7368   25.0320    0.0000 C   0  0  0  0  0  0  0  0  0  0  0  0
   -2.2474   25.2094    0.0000 C   0  0  0  0  0  0  0  0  0  0  0  0
   -0.7500   25.2982    0.0000 C   0  0  0  0  0  0  0  0  0  0  0  0
    0.7500   25.2982    0.0000 C   0  0  0  0  0  0  0  0  0  0  0  0
    2.2474   25.2094    0.0000 C   0  0  0  0  0  0  0  0  0  0  0  0
    3.7368   25.0320    0.0000 C   0  0  0  0  0  0  0  0  0  0  0  0
    5.2132   24.7666    0.0000 C   0  0  0  0  0  0  0  0  0  0  0  0
    6.6712   24.4143    0.0000 C   0  0  0  0  0  0  0  0  0  0  0  0
    8.1058   23.9762    0.0000 C   0  0  0  0  0  0  0  0  0  0  0  0
    9.5119   23.4539    0.0000 C   0  0  0  0  0  0  0  0  0  0  0  0
   10.8847   22.8492    0.0000 C   0  0  0  0  0  0  0  0  0  0  0  0
   12.2192   22.1643    0.0000 C   0  0  0  0  0  0  0  0  0  0  0  0
   13.5107   21.4015    0.0000 C   0  0  0  0  0  0  0  0  0  0  0  0
   14.7548   20.5635    0.0000 C   0  0  0  0  0  0  0  0  0  0  0  0
   15.9471   19.6533    0.0000 C   0  0  0  0  0  0  0  0  0  0  0  0
   17.0834   18.6741    0.0000 C   0  0  0  0  0  0  0  0  0  0  0  0
   18.1596   17.6292    0.0000 C   0  0  0  0  0  0  0  0  0  0  0  0
   19.1721   16.5225    0.0000 C   0  0  0  0  0  0  0  0  0  0  0  0
   20.1172   15.3577    0.0000 C   0  0  0  0  0  0  0  0  0  0  0  0
   20.9917   14.1390    0.0000 C   0  0  0  0  0  0  0  0  0  0  0  0
   21.7924   12.8706    0.0000 C   0  0  0  0  0  0  0  0  0  0  0  0
   22.5166   11.5570    0.0000 C   0  0  0  0  0  0  0  0  0  0  0  0
   23.1617   10.2028    0.0000 C   0  0  0  0  0  0  0  0  0  0  0  0
   23.7255    8.8128    0.0000 C   0  0  0  0  0  0  0  0  0  0  0  0
   24.2059    7.3918    0.0000 C   0  0  0  0  0  0  0  0  0  0  0  0
   24.6013    5.9448    0.0000 C   0  0  0  0  0  0  0  0  0  0  0  0
   24.9102    4.4770    0.0000 C   0  0  0  0  0  0  0  0  0  0  0  0
   25.1317    2.9934    0.0000 C   0  0  0  0  0  0  0  0  0  0  0  0
   25.2649    1.4993    0.0000 C   0  0  0  0  0  0  0  0  0  0  0  0
   26.7623    1.5882    0.0000 O   0  0  0  0  0  0  0  0  0  0  0  0
  1  2  1  0
  2  3  1  0
  3  4  1  0
  4  5  1  0
  5  6  1  0
  6  7  1  0
  7  8  1  0
  8  9  1  0
  9 10  1  0
 10 11  1  0
 11 12  1  0
 12 13  1  0
 13 14  1  0
 14 15  1  0
 15 16  1  0
 16 17  1  0
 17 18  1  0
 18 19  1  0
 19 20  1  0
 20 21  1  0
 21 22  1  0
 22 23  1  0
 23 24  1  0
 24 25  1  0
 25 26  1  0
 26 27  1  0
 27 28  1  0
 28 29  1  0
 29 30  1  0
 30 31  1  0
 31 32  1  0
 32 33  1  0
 33 34  1  0
 34 35  1  0
 35 36  1  0
 36 37  1  0
 37 38  1  0
 38 39  1  0
 39 40  1  0
 40 41  1  0
 41 42  1  0
 42 43  1  0
 43 44  1  0
 44 45  1  0
 45 46  1  0
 46 47  1  0
 47 48  1  0
 48 49  1  0
 49 50  1  0
 50 51  1  0
 51 52  1  0
 52 53  1  0
 53 54  1  0
 54 55  1  0
 55 56  1  0
 56 57  1  0
 57 58  1  0
 58 59  1  0
 59 60  1  0
 60 61  1  0
 61 62  1  0
 62 63  1  0
 63 64  1  0
 64 65  1  0
 65 66  1  0
 66 67  1  0
 67 68  1  0
 68 69  1  0
 69 70  1  0
 70 71  1  0
 71 72  1  0
 72 73  1  0
 73 74  1  0
 74 75  1  0
 75 76  1  0
 76 77  1  0
 77 78  1  0
 78 79  1  0
 79 80  1  0
 80 81  1  0
 81 82  1  0
 82 83  1  0
 83 84  1  0
 84 85  1  0
 85 86  1  0
 86 87  1  0
 87 88  1  0
 88 89  1  0
 89 90  1  0
 90 91  1  0
 91 92  1  0
 92 93  1  0
 93 94  1  0
 94 95  1  0
 95 96  1  0
 96 97  2  0
 97 98  1  0
 98 99  2  0
 99100  1  0
100101  2  0
101102  1  0
102103  2  0
103104  1  0
104105  2  0
105106  1  0
106107  2  0
107108  1  0
107  2  1  0
M  END
>  <Title>  (172) 
idAAERgen8

$$$$

     RDKit          2D

  8  7  0  0  0  0  0  0  0  0999 V2000
    0.0000    0.0000    0.0000 C   0  0  0  0  0  0  0  0  0  0  0  0
    1.2990    0.7500    0.0000 C   0  0  0  0  0  0  0  0  0  0  0  0
    2.5981   -0.0000    0.0000 C   0  0  0  0  0  0  0  0  0  0  0  0
    3.8971    0.7500    0.0000 C   0  0  0  0  0  0  0  0  0  0  0  0
    5.1962   -0.0000    0.0000 C   0  0  0  0  0  0  0  0  0  0  0  0
    5.9462    1.2990    0.0000 C   0  0  0  0  0  0  0  0  0  0  0  0
    4.4462   -1.2990    0.0000 C   0  0  0  0  0  0  0  0  0  0  0  0
    6.4952   -0.7500    0.0000 C   0  0  0  0  0  0  0  0  0  0  0  0
  1  2  1  0
  2  3  2  3
  3  4  1  0
  4  5  1  0
  5  6  1  0
  5  7  1  0
  5  8  1  0
M  END
>  <Title>  (173) 
idAAESgen8

$$$$

     RDKit          2D

 25 27  0  0  0  0  0  0  0  0999 V2000
    5.5093  -12.1141    0.0000 O   0  0  0  0  0  0  0  0  0  0  0  0
    6.5129  -10.9994    0.0000 C   0  0  0  0  0  0  0  0  0  0  0  0
    8.0047  -11.1562    0.0000 C   0  0  0  0  0  0  0  0  0  0  0  0
    8.7547  -12.4552    0.0000 O   0  0  0  0  0  0  0  0  0  0  0  0
    8.6148   -9.7859    0.0000 C   0  0  0  0  0  0  0  0  0  0  0  0
    7.5001   -8.7822    0.0000 C   0  0  0  0  0  0  0  0  0  0  0  0
    6.2011   -9.5322    0.0000 C   0  0  0  0  0  0  0  0  0  0  0  0
    4.8308   -8.9221    0.0000 O   0  0  0  0  0  0  0  0  0  0  0  0
    4.6740   -7.4303    0.0000 C   0  0  0  0  0  0  0  0  0  0  0  0
    5.8875   -6.5486    0.0000 O   0  0  0  0  0  0  0  0  0  0  0  0
    3.3037   -6.8202    0.0000 C   0  0  0  0  0  0  0  0  0  0  0  0
    2.0046   -7.5702    0.0000 C   0  0  0  0  0  0  0  0  0  0  0  0
    0.8899   -6.5665    0.0000 C   0  0  0  0  0  0  0  0  0  0  0  0
    1.5000   -5.1962    0.0000 C   0  0  0  0  0  0  0  0  0  0  0  0
    0.7500   -3.8971    0.0000 C   0  0  0  0  0  0  0  0  0  0  0  0
   -0.7500   -3.8971    0.0000 O   0  0  0  0  0  0  0  0  0  0  0  0
    1.5000   -2.5981    0.0000 N   0  0  0  0  0  0  0  0  0  0  0  0
    0.7500   -1.2990    0.0000 C   0  0  0  0  0  0  0  0  0  0  0  0
    1.5000    0.0000    0.0000 N   0  0  0  0  0  0  0  0  0  0  0  0
    0.7500    1.2990    0.0000 N   0  0  0  0  0  0  0  0  0  0  0  0
   -0.7500    1.2990    0.0000 N   0  0  0  0  0  0  0  0  0  0  0  0
   -1.5000    0.0000    0.0000 N   0  0  0  0  0  0  0  0  0  0  0  0
   -0.7500   -1.2990    0.0000 N   0  0  0  0  0  0  0  0  0  0  0  0
    2.9918   -5.3529    0.0000 C   0  0  0  0  0  0  0  0  0  0  0  0
    3.9955   -4.2382    0.0000 O   0  0  0  0  0  0  0  0  0  0  0  0
  1  2  2  0
  2  3  1  0
  3  4  1  0
  3  5  2  0
  5  6  1  0
  6  7  2  0
  7  8  1  0
  8  9  1  0
  9 10  2  0
  9 11  1  0
 11 12  1  0
 12 13  1  0
 13 14  1  0
 14 15  1  0
 15 16  2  0
 15 17  1  0
 17 18  1  0
 18 19  2  0
 19 20  1  0
 20 21  2  0
 21 22  1  0
 22 23  2  0
 14 24  1  0
 24 25  2  0
  7  2  1  0
 24 11  1  0
 23 18  1  0
M  END
>  <Title>  (174) 
idAAETgen8

$$$$

     RDKit          2D

 58 67  0  0  0  0  0  0  0  0999 V2000
    5.6570   -3.0089    0.0000 C   0  0  0  0  0  0  0  0  0  0  0  0
    4.3580   -3.7589    0.0000 C   0  0  0  0  0  0  0  0  0  0  0  0
    3.4227   -2.5862    0.0000 C   0  0  0  0  0  0  0  0  0  0  0  0
    2.1834   -1.7412    0.0000 C   0  0  0  0  0  0  0  0  0  0  0  0
    0.7500   -1.2990    0.0000 C   0  0  0  0  0  0  0  0  0  0  0  0
    1.5000    0.0000    0.0000 C   0  0  0  0  0  0  0  0  0  0  0  0
    0.7500    1.2990    0.0000 C   0  0  0  0  0  0  0  0  0  0  0  0
   -0.7500    1.2990    0.0000 C   0  0  0  0  0  0  0  0  0  0  0  0
   -1.5000    0.0000    0.0000 C   0  0  0  0  0  0  0  0  0  0  0  0
   -0.7500   -1.2990    0.0000 C   0  0  0  0  0  0  0  0  0  0  0  0
   -2.1834   -1.7412    0.0000 C   0  0  0  0  0  0  0  0  0  0  0  0
   -2.2955   -0.2454    0.0000 C   0  0  0  0  0  0  0  0  0  0  0  0
   -3.6469    0.4055    0.0000 C   0  0  0  0  0  0  0  0  0  0  0  0
   -4.8863   -0.4395    0.0000 C   0  0  0  0  0  0  0  0  0  0  0  0
   -4.7742   -1.9353    0.0000 C   0  0  0  0  0  0  0  0  0  0  0  0
   -3.4227   -2.5862    0.0000 C   0  0  0  0  0  0  0  0  0  0  0  0
   -4.3580   -3.7589    0.0000 C   0  0  0  0  0  0  0  0  0  0  0  0
   -5.2932   -2.5862    0.0000 C   0  0  0  0  0  0  0  0  0  0  0  0
   -6.7764   -2.8097    0.0000 C   0  0  0  0  0  0  0  0  0  0  0  0
   -7.3244   -4.2060    0.0000 C   0  0  0  0  0  0  0  0  0  0  0  0
   -6.3892   -5.3788    0.0000 C   0  0  0  0  0  0  0  0  0  0  0  0
   -4.9060   -5.1552    0.0000 C   0  0  0  0  0  0  0  0  0  0  0  0
   -5.0181   -6.6510    0.0000 C   0  0  0  0  0  0  0  0  0  0  0  0
   -6.4514   -6.2089    0.0000 C   0  0  0  0  0  0  0  0  0  0  0  0
   -7.5510   -7.2291    0.0000 C   0  0  0  0  0  0  0  0  0  0  0  0
   -7.2172   -8.6915    0.0000 C   0  0  0  0  0  0  0  0  0  0  0  0
   -5.7839   -9.1337    0.0000 C   0  0  0  0  0  0  0  0  0  0  0  0
   -4.6843   -8.1134    0.0000 C   0  0  0  0  0  0  0  0  0  0  0  0
   -3.9343   -9.4124    0.0000 C   0  0  0  0  0  0  0  0  0  0  0  0
   -5.3676   -9.8546    0.0000 C   0  0  0  0  0  0  0  0  0  0  0  0
   -5.7014  -11.3170    0.0000 C   0  0  0  0  0  0  0  0  0  0  0  0
   -4.6018  -12.3372    0.0000 C   0  0  0  0  0  0  0  0  0  0  0  0
   -3.1685  -11.8951    0.0000 C   0  0  0  0  0  0  0  0  0  0  0  0
   -2.8347  -10.4327    0.0000 C   0  0  0  0  0  0  0  0  0  0  0  0
   -1.4832  -11.0835    0.0000 C   0  0  0  0  0  0  0  0  0  0  0  0
   -2.4185  -12.2563    0.0000 C   0  0  0  0  0  0  0  0  0  0  0  0
   -1.8705  -13.6526    0.0000 C   0  0  0  0  0  0  0  0  0  0  0  0
   -0.3872  -13.8762    0.0000 C   0  0  0  0  0  0  0  0  0  0  0  0
    0.5480  -12.7034    0.0000 C   0  0  0  0  0  0  0  0  0  0  0  0
   -0.0000  -11.3071    0.0000 C   0  0  0  0  0  0  0  0  0  0  0  0
    1.4832  -11.0835    0.0000 C   0  0  0  0  0  0  0  0  0  0  0  0
    1.3712  -12.5793    0.0000 C   0  0  0  0  0  0  0  0  0  0  0  0
    2.6105  -13.4243    0.0000 C   0  0  0  0  0  0  0  0  0  0  0  0
    3.9620  -12.7735    0.0000 C   0  0  0  0  0  0  0  0  0  0  0  0
    4.0741  -11.2777    0.0000 C   0  0  0  0  0  0  0  0  0  0  0  0
    2.8347  -10.4327    0.0000 C   0  0  0  0  0  0  0  0  0  0  0  0
    3.9343   -9.4124    0.0000 C   0  0  0  0  0  0  0  0  0  0  0  0
    4.6843  -10.7115    0.0000 C   0  0  0  0  0  0  0  0  0  0  0  0
    6.1843  -10.7115    0.0000 C   0  0  0  0  0  0  0  0  0  0  0  0
    6.9343   -9.4124    0.0000 C   0  0  0  0  0  0  0  0  0  0  0  0
    6.1843   -8.1134    0.0000 C   0  0  0  0  0  0  0  0  0  0  0  0
    4.6843   -8.1134    0.0000 C   0  0  0  0  0  0  0  0  0  0  0  0
    5.0181   -6.6510    0.0000 C   0  0  0  0  0  0  0  0  0  0  0  0
    6.3695   -7.3018    0.0000 C   0  0  0  0  0  0  0  0  0  0  0  0
    7.6089   -6.4569    0.0000 C   0  0  0  0  0  0  0  0  0  0  0  0
    7.4968   -4.9611    0.0000 C   0  0  0  0  0  0  0  0  0  0  0  0
    6.1453   -4.3102    0.0000 C   0  0  0  0  0  0  0  0  0  0  0  0
    4.9060   -5.1552    0.0000 C   0  0  0  0  0  0  0  0  0  0  0  0
  1  2  1  0
  2  3  1  0
  3  4  2  0
  4  5  1  0
  5  6  2  0
  6  7  1  0
  7  8  2  0
  8  9  1  0
  9 10  2  0
 10 11  1  0
 11 12  2  0
 12 13  1  0
 13 14  2  0
 14 15  1  0
 15 16  2  0
 16 17  1  0
 17 18  2  0
 18 19  1  0
 19 20  2  0
 20 21  1  0
 21 22  2  0
 22 23  1  0
 23 24  2  0
 24 25  1  0
 25 26  2  0
 26 27  1  0
 27 28  2  0
 28 29  1  0
 29 30  2  0
 30 31  1  0
 31 32  2  0
 32 33  1  0
 33 34  2  0
 34 35  1  0
 35 36  2  0
 36 37  1  0
 37 38  2  0
 38 39  1  0
 39 40  2  0
 40 41  1  0
 41 42  2  0
 42 43  1  0
 43 44  2  0
 44 45  1  0
 45 46  2  0
 46 47  1  0
 47 48  2  0
 48 49  1  0
 49 50  2  0
 50 51  1  0
 51 52  2  0
 52 53  1  0
 53 54  2  0
 54 55  1  0
 55 56  2  0
 56 57  1  0
 57 58  2  0
 58  2  1  0
 10  5  1  0
 16 11  1  0
 22 17  1  0
 28 23  1  0
 34 29  1  0
 40 35  1  0
 46 41  1  0
 52 47  1  0
 58 53  1  0
M  END
>  <Title>  (175) 
idAAEUgen8

$$$$

     RDKit          2D

114114  0  0  0  0  0  0  0  0999 V2000
    2.7760    0.0000    0.0000 C   0  0  0  0  0  0  0  0  0  0  0  0
    1.2760    0.0000    0.0000 C   0  0  0  0  0  0  0  0  0  0  0  0
    0.3943    1.2135    0.0000 C   0  0  0  0  0  0  0  0  0  0  0  0
   -1.0323    0.7500    0.0000 C   0  0  0  0  0  0  0  0  0  0  0  0
   -1.0323   -0.7500    0.0000 C   0  0  0  0  0  0  0  0  0  0  0  0
    0.3943   -1.2135    0.0000 C   0  0  0  0  0  0  0  0  0  0  0  0
    0.8578   -2.6401    0.0000 C   0  0  0  0  0  0  0  0  0  0  0  0
   -0.1459   -3.7548    0.0000 C   0  0  0  0  0  0  0  0  0  0  0  0
    0.3177   -5.1814    0.0000 C   0  0  0  0  0  0  0  0  0  0  0  0
   -0.6860   -6.2961    0.0000 C   0  0  0  0  0  0  0  0  0  0  0  0
   -0.2225   -7.7227    0.0000 C   0  0  0  0  0  0  0  0  0  0  0  0
   -1.2262   -8.8374    0.0000 C   0  0  0  0  0  0  0  0  0  0  0  0
   -0.7627  -10.2640    0.0000 C   0  0  0  0  0  0  0  0  0  0  0  0
   -1.7664  -11.3787    0.0000 C   0  0  0  0  0  0  0  0  0  0  0  0
   -1.3029  -12.8053    0.0000 C   0  0  0  0  0  0  0  0  0  0  0  0
   -2.3066  -13.9200    0.0000 C   0  0  0  0  0  0  0  0  0  0  0  0
   -1.8430  -15.3466    0.0000 C   0  0  0  0  0  0  0  0  0  0  0  0
   -2.8467  -16.4613    0.0000 C   0  0  0  0  0  0  0  0  0  0  0  0
   -2.3832  -17.8879    0.0000 N   0  0  0  0  0  0  0  0  0  0  0  0
   -3.3869  -19.0026    0.0000 C   0  0  0  0  0  0  0  0  0  0  0  0
   -2.9234  -20.4292    0.0000 C   0  0  0  0  0  0  0  0  0  0  0  0
   -3.9271  -21.5439    0.0000 C   0  0  0  0  0  0  0  0  0  0  0  0
   -3.4635  -22.9705    0.0000 C   0  0  0  0  0  0  0  0  0  0  0  0
   -4.4672  -24.0852    0.0000 C   0  0  0  0  0  0  0  0  0  0  0  0
   -4.0037  -25.5118    0.0000 C   0  0  0  0  0  0  0  0  0  0  0  0
   -5.0074  -26.6265    0.0000 C   0  0  0  0  0  0  0  0  0  0  0  0
   -4.5439  -28.0531    0.0000 C   0  0  0  0  0  0  0  0  0  0  0  0
   -5.5476  -29.1678    0.0000 C   0  0  0  0  0  0  0  0  0  0  0  0
   -5.0841  -30.5944    0.0000 C   0  0  0  0  0  0  0  0  0  0  0  0
   -6.0877  -31.7091    0.0000 C   0  0  0  0  0  0  0  0  0  0  0  0
   -5.6242  -33.1357    0.0000 C   0  0  0  0  0  0  0  0  0  0  0  0
   -6.6279  -34.2505    0.0000 C   0  0  0  0  0  0  0  0  0  0  0  0
   -6.1644  -35.6770    0.0000 C   0  0  0  0  0  0  0  0  0  0  0  0
   -7.1681  -36.7918    0.0000 C   0  0  0  0  0  0  0  0  0  0  0  0
   -6.7046  -38.2183    0.0000 C   0  0  0  0  0  0  0  0  0  0  0  0
   -7.7083  -39.3331    0.0000 C   0  0  0  0  0  0  0  0  0  0  0  0
   -7.2447  -40.7596    0.0000 C   0  0  0  0  0  0  0  0  0  0  0  0
   -8.2484  -41.8744    0.0000 C   0  0  0  0  0  0  0  0  0  0  0  0
   -7.7849  -43.3009    0.0000 C   0  0  0  0  0  0  0  0  0  0  0  0
   -8.7886  -44.4157    0.0000 C   0  0  0  0  0  0  0  0  0  0  0  0
   -8.3251  -45.8422    0.0000 C   0  0  0  0  0  0  0  0  0  0  0  0
   -9.3288  -46.9570    0.0000 C   0  0  0  0  0  0  0  0  0  0  0  0
   -8.8652  -48.3835    0.0000 C   0  0  0  0  0  0  0  0  0  0  0  0
   -9.8689  -49.4983    0.0000 C   0  0  0  0  0  0  0  0  0  0  0  0
   -9.4054  -50.9248    0.0000 C   0  0  0  0  0  0  0  0  0  0  0  0
  -10.4091  -52.0396    0.0000 C   0  0  0  0  0  0  0  0  0  0  0  0
   -9.9456  -53.4662    0.0000 C   0  0  0  0  0  0  0  0  0  0  0  0
  -10.9493  -54.5809    0.0000 C   0  0  0  0  0  0  0  0  0  0  0  0
  -10.4858  -56.0075    0.0000 C   0  0  0  0  0  0  0  0  0  0  0  0
  -11.4895  -57.1222    0.0000 C   0  0  0  0  0  0  0  0  0  0  0  0
  -11.0259  -58.5488    0.0000 C   0  0  0  0  0  0  0  0  0  0  0  0
  -12.0296  -59.6635    0.0000 C   0  0  0  0  0  0  0  0  0  0  0  0
  -11.5661  -61.0901    0.0000 C   0  0  0  0  0  0  0  0  0  0  0  0
  -12.5698  -62.2048    0.0000 C   0  0  0  0  0  0  0  0  0  0  0  0
  -12.1063  -63.6314    0.0000 C   0  0  0  0  0  0  0  0  0  0  0  0
  -13.1100  -64.7461    0.0000 C   0  0  0  0  0  0  0  0  0  0  0  0
  -12.6464  -66.1727    0.0000 C   0  0  0  0  0  0  0  0  0  0  0  0
  -13.6501  -67.2874    0.0000 C   0  0  0  0  0  0  0  0  0  0  0  0
  -13.1866  -68.7140    0.0000 C   0  0  0  0  0  0  0  0  0  0  0  0
  -14.1903  -69.8287    0.0000 C   0  0  0  0  0  0  0  0  0  0  0  0
  -13.7268  -71.2553    0.0000 C   0  0  0  0  0  0  0  0  0  0  0  0
  -14.7305  -72.3700    0.0000 C   0  0  0  0  0  0  0  0  0  0  0  0
  -14.2669  -73.7966    0.0000 C   0  0  0  0  0  0  0  0  0  0  0  0
  -15.2706  -74.9113    0.0000 C   0  0  0  0  0  0  0  0  0  0  0  0
  -14.8071  -76.3379    0.0000 C   0  0  0  0  0  0  0  0  0  0  0  0
  -15.8108  -77.4526    0.0000 C   0  0  0  0  0  0  0  0  0  0  0  0
  -15.3473  -78.8792    0.0000 C   0  0  0  0  0  0  0  0  0  0  0  0
  -16.3510  -79.9939    0.0000 C   0  0  0  0  0  0  0  0  0  0  0  0
  -15.8875  -81.4205    0.0000 C   0  0  0  0  0  0  0  0  0  0  0  0
  -16.8912  -82.5352    0.0000 C   0  0  0  0  0  0  0  0  0  0  0  0
  -16.4276  -83.9618    0.0000 C   0  0  0  0  0  0  0  0  0  0  0  0
  -17.4313  -85.0765    0.0000 C   0  0  0  0  0  0  0  0  0  0  0  0
  -16.9678  -86.5031    0.0000 C   0  0  0  0  0  0  0  0  0  0  0  0
  -17.9715  -87.6178    0.0000 C   0  0  0  0  0  0  0  0  0  0  0  0
  -17.5080  -89.0444    0.0000 C   0  0  0  0  0  0  0  0  0  0  0  0
  -18.5117  -90.1591    0.0000 C   0  0  0  0  0  0  0  0  0  0  0  0
  -18.0481  -91.5857    0.0000 C   0  0  0  0  0  0  0  0  0  0  0  0
  -19.0518  -92.7004    0.0000 C   0  0  0  0  0  0  0  0  0  0  0  0
  -18.5883  -94.1270    0.0000 C   0  0  0  0  0  0  0  0  0  0  0  0
  -19.5920  -95.2417    0.0000 C   0  0  0  0  0  0  0  0  0  0  0  0
  -19.1285  -96.6683    0.0000 C   0  0  0  0  0  0  0  0  0  0  0  0
  -20.1322  -97.7830    0.0000 C   0  0  0  0  0  0  0  0  0  0  0  0
  -19.6687  -99.2096    0.0000 C   0  0  0  0  0  0  0  0  0  0  0  0
  -20.6723 -100.3243    0.0000 C   0  0  0  0  0  0  0  0  0  0  0  0
  -20.2088 -101.7509    0.0000 C   0  0  0  0  0  0  0  0  0  0  0  0
  -21.2125 -102.8656    0.0000 C   0  0  0  0  0  0  0  0  0  0  0  0
  -20.7490 -104.2922    0.0000 C   0  0  0  0  0  0  0  0  0  0  0  0
  -21.7527 -105.4069    0.0000 C   0  0  0  0  0  0  0  0  0  0  0  0
  -21.2892 -106.8335    0.0000 C   0  0  0  0  0  0  0  0  0  0  0  0
  -22.2929 -107.9482    0.0000 C   0  0  0  0  0  0  0  0  0  0  0  0
  -21.8293 -109.3748    0.0000 C   0  0  0  0  0  0  0  0  0  0  0  0
  -22.8330 -110.4895    0.0000 C   0  0  0  0  0  0  0  0  0  0  0  0
  -22.3695 -111.9161    0.0000 C   0  0  0  0  0  0  0  0  0  0  0  0
  -23.3732 -113.0308    0.0000 C   0  0  0  0  0  0  0  0  0  0  0  0
  -22.9097 -114.4574    0.0000 C   0  0  0  0  0  0  0  0  0  0  0  0
  -23.9134 -115.5721    0.0000 C   0  0  0  0  0  0  0  0  0  0  0  0
  -23.4498 -116.9987    0.0000 C   0  0  0  0  0  0  0  0  0  0  0  0
  -24.4535 -118.1134    0.0000 C   0  0  0  0  0  0  0  0  0  0  0  0
  -23.9900 -119.5400    0.0000 C   0  0  0  0  0  0  0  0  0  0  0  0
  -24.9937 -120.6547    0.0000 C   0  0  0  0  0  0  0  0  0  0  0  0
  -24.5302 -122.0813    0.0000 C   0  0  0  0  0  0  0  0  0  0  0  0
  -25.5339 -123.1960    0.0000 C   0  0  0  0  0  0  0  0  0  0  0  0
  -25.0704 -124.6226    0.0000 C   0  0  0  0  0  0  0  0  0  0  0  0
  -26.0741 -125.7373    0.0000 C   0  0  0  0  0  0  0  0  0  0  0  0
  -25.6105 -127.1639    0.0000 C   0  0  0  0  0  0  0  0  0  0  0  0
  -26.6142 -128.2786    0.0000 C   0  0  0  0  0  0  0  0  0  0  0  0
  -26.1507 -129.7052    0.0000 C   0  0  0  0  0  0  0  0  0  0  0  0
  -27.1544 -130.8199    0.0000 C   0  0  0  0  0  0  0  0  0  0  0  0
  -26.6909 -132.2465    0.0000 C   0  0  0  0  0  0  0  0  0  0  0  0
  -27.6946 -133.3612    0.0000 C   0  0  0  0  0  0  0  0  0  0  0  0
  -27.2310 -134.7878    0.0000 C   0  0  0  0  0  0  0  0  0  0  0  0
  -28.6576 -135.2513    0.0000 C   0  0  0  0  0  0  0  0  0  0  0  0
  -25.8045 -134.3243    0.0000 C   0  0  0  0  0  0  0  0  0  0  0  0
  -26.7675 -136.2144    0.0000 C   0  0  0  0  0  0  0  0  0  0  0  0
  1  2  1  0
  2  3  2  0
  3  4  1  0
  4  5  2  0
  5  6  1  0
  6  7  2  3
  7  8  1  0
  8  9  2  3
  9 10  1  0
 10 11  2  3
 11 12  1  0
 12 13  2  3
 13 14  1  0
 14 15  2  3
 15 16  1  0
 16 17  2  3
 17 18  1  0
 18 19  1  0
 19 20  1  0
 20 21  1  0
 21 22  1  0
 22 23  1  0
 23 24  1  0
 24 25  1  0
 25 26  1  0
 26 27  1  0
 27 28  1  0
 28 29  1  0
 29 30  1  0
 30 31  1  0
 31 32  1  0
 32 33  1  0
 33 34  1  0
 34 35  1  0
 35 36  1  0
 36 37  1  0
 37 38  1  0
 38 39  1  0
 39 40  1  0
 40 41  1  0
 41 42  1  0
 42 43  1  0
 43 44  1  0
 44 45  1  0
 45 46  1  0
 46 47  1  0
 47 48  1  0
 48 49  1  0
 49 50  1  0
 50 51  1  0
 51 52  1  0
 52 53  1  0
 53 54  1  0
 54 55  1  0
 55 56  1  0
 56 57  1  0
 57 58  1  0
 58 59  1  0
 59 60  1  0
 60 61  1  0
 61 62  1  0
 62 63  1  0
 63 64  1  0
 64 65  1  0
 65 66  1  0
 66 67  1  0
 67 68  1  0
 68 69  1  0
 69 70  1  0
 70 71  1  0
 71 72  1  0
 72 73  1  0
 73 74  1  0
 74 75  1  0
 75 76  1  0
 76 77  1  0
 77 78  1  0
 78 79  1  0
 79 80  1  0
 80 81  1  0
 81 82  1  0
 82 83  1  0
 83 84  1  0
 84 85  1  0
 85 86  1  0
 86 87  1  0
 87 88  1  0
 88 89  1  0
 89 90  1  0
 90 91  1  0
 91 92  1  0
 92 93  1  0
 93 94  1  0
 94 95  1  0
 95 96  1  0
 96 97  1  0
 97 98  1  0
 98 99  1  0
 99100  1  0
100101  1  0
101102  1  0
102103  1  0
103104  1  0
104105  1  0
105106  1  0
106107  1  0
107108  1  0
108109  1  0
109110  1  0
110111  1  0
111112  1  0
111113  1  0
111114  1  0
  6  2  1  0
M  END
>  <Title>  (176) 
idAAEVgen8

$$$$

     RDKit          2D

 10 10  0  0  0  0  0  0  0  0999 V2000
    4.2760   -0.0000    0.0000 C   0  0  0  0  0  0  0  0  0  0  0  0
    2.7760    0.0000    0.0000 C   0  0  0  0  0  0  0  0  0  0  0  0
    1.2760    0.0000    0.0000 C   0  0  0  0  0  0  0  0  0  0  0  0
    0.3943    1.2135    0.0000 C   0  0  0  0  0  0  0  0  0  0  0  0
   -1.0323    0.7500    0.0000 C   0  0  0  0  0  0  0  0  0  0  0  0
   -2.2458    1.6317    0.0000 O   0  0  0  0  0  0  0  0  0  0  0  0
   -1.0323   -0.7500    0.0000 C   0  0  0  0  0  0  0  0  0  0  0  0
   -2.2458   -1.6317    0.0000 O   0  0  0  0  0  0  0  0  0  0  0  0
    0.3943   -1.2135    0.0000 C   0  0  0  0  0  0  0  0  0  0  0  0
    0.8578   -2.6401    0.0000 O   0  0  0  0  0  0  0  0  0  0  0  0
  1  2  3  0
  2  3  1  0
  3  4  2  0
  4  5  1  0
  5  6  1  0
  5  7  1  0
  7  8  1  0
  7  9  2  0
  9 10  1  0
  9  3  1  0
M  END
>  <Title>  (177) 
idAAEWgen8

$$$$

     RDKit          2D

 12 11  0  0  0  0  0  0  0  0999 V2000
    0.0000    0.0000    0.0000 C   0  0  0  0  0  0  0  0  0  0  0  0
   -0.0000   -1.5000    0.0000 C   0  0  0  0  0  0  0  0  0  0  0  0
   -0.0000   -3.0000    0.0000 C   0  0  0  0  0  0  0  0  0  0  0  0
   -0.0000   -4.5000    0.0000 C   0  0  0  0  0  0  0  0  0  0  0  0
   -0.0000   -6.0000    0.0000 C   0  0  0  0  0  0  0  0  0  0  0  0
   -0.0000   -7.5000    0.0000 C   0  0  0  0  0  0  0  0  0  0  0  0
   -0.0000   -9.0000    0.0000 C   0  0  0  0  0  0  0  0  0  0  0  0
   -0.0000  -10.5000    0.0000 C   0  0  0  0  0  0  0  0  0  0  0  0
   -0.0000  -12.0000    0.0000 C   0  0  0  0  0  0  0  0  0  0  0  0
   -0.0000  -13.5000    0.0000 C   0  0  0  0  0  0  0  0  0  0  0  0
   -0.0000  -15.0000    0.0000 C   0  0  0  0  0  0  0  0  0  0  0  0
   -0.0000  -16.5000    0.0000 N   0  0  0  0  0  0  0  0  0  0  0  0
  1  2  3  0
  2  3  1  0
  3  4  3  0
  4  5  1  0
  5  6  3  0
  6  7  1  0
  7  8  3  0
  8  9  1  0
  9 10  3  0
 10 11  1  0
 11 12  3  0
M  END
>  <Title>  (178) 
idAAEXgen8

$$$$

     RDKit          2D

 79 81  0  0  0  0  0  0  0  0999 V2000
   -2.7111    1.5072    0.0000 C   0  0  0  0  0  0  0  0  0  0  0  0
   -2.4764    0.0257    0.0000 C   0  0  0  0  0  0  0  0  0  0  0  0
   -2.2418   -1.4558    0.0000 C   0  0  0  0  0  0  0  0  0  0  0  0
   -3.7090   -1.7677    0.0000 C   0  0  0  0  0  0  0  0  0  0  0  0
   -5.1356   -2.2312    0.0000 C   0  0  0  0  0  0  0  0  0  0  0  0
   -6.5059   -2.8413    0.0000 C   0  0  0  0  0  0  0  0  0  0  0  0
   -7.8049   -3.5913    0.0000 C   0  0  0  0  0  0  0  0  0  0  0  0
   -9.0185   -4.4730    0.0000 C   0  0  0  0  0  0  0  0  0  0  0  0
  -10.1332   -5.4767    0.0000 C   0  0  0  0  0  0  0  0  0  0  0  0
  -11.1369   -6.5914    0.0000 C   0  0  0  0  0  0  0  0  0  0  0  0
  -12.0186   -7.8049    0.0000 C   0  0  0  0  0  0  0  0  0  0  0  0
  -12.7686   -9.1040    0.0000 C   0  0  0  0  0  0  0  0  0  0  0  0
  -13.3787  -10.4743    0.0000 C   0  0  0  0  0  0  0  0  0  0  0  0
  -13.8422  -11.9009    0.0000 C   0  0  0  0  0  0  0  0  0  0  0  0
  -14.1541  -13.3681    0.0000 C   0  0  0  0  0  0  0  0  0  0  0  0
  -14.3109  -14.8599    0.0000 C   0  0  0  0  0  0  0  0  0  0  0  0
  -14.3109  -16.3599    0.0000 C   0  0  0  0  0  0  0  0  0  0  0  0
  -14.1541  -17.8517    0.0000 C   0  0  0  0  0  0  0  0  0  0  0  0
  -13.8422  -19.3189    0.0000 C   0  0  0  0  0  0  0  0  0  0  0  0
  -13.3787  -20.7455    0.0000 C   0  0  0  0  0  0  0  0  0  0  0  0
  -12.7686  -22.1158    0.0000 C   0  0  0  0  0  0  0  0  0  0  0  0
  -12.0186  -23.4148    0.0000 C   0  0  0  0  0  0  0  0  0  0  0  0
  -11.1369  -24.6284    0.0000 C   0  0  0  0  0  0  0  0  0  0  0  0
  -10.1332  -25.7431    0.0000 C   0  0  0  0  0  0  0  0  0  0  0  0
   -9.0185  -26.7468    0.0000 C   0  0  0  0  0  0  0  0  0  0  0  0
   -7.8049  -27.6285    0.0000 C   0  0  0  0  0  0  0  0  0  0  0  0
   -6.5059  -28.3785    0.0000 C   0  0  0  0  0  0  0  0  0  0  0  0
   -5.1356  -28.9886    0.0000 C   0  0  0  0  0  0  0  0  0  0  0  0
   -3.7090  -29.4521    0.0000 C   0  0  0  0  0  0  0  0  0  0  0  0
   -2.2418  -29.7640    0.0000 C   0  0  0  0  0  0  0  0  0  0  0  0
   -0.7500  -29.9207    0.0000 C   0  0  0  0  0  0  0  0  0  0  0  0
    0.7500  -29.9207    0.0000 C   0  0  0  0  0  0  0  0  0  0  0  0
    2.2418  -29.7640    0.0000 C   0  0  0  0  0  0  0  0  0  0  0  0
    3.7090  -29.4521    0.0000 C   0  0  0  0  0  0  0  0  0  0  0  0
    5.1356  -28.9886    0.0000 C   0  0  0  0  0  0  0  0  0  0  0  0
    6.5059  -28.3785    0.0000 C   0  0  0  0  0  0  0  0  0  0  0  0
    7.8049  -27.6285    0.0000 C   0  0  0  0  0  0  0  0  0  0  0  0
    9.0185  -26.7468    0.0000 C   0  0  0  0  0  0  0  0  0  0  0  0
   10.1332  -25.7431    0.0000 C   0  0  0  0  0  0  0  0  0  0  0  0
   11.1369  -24.6284    0.0000 C   0  0  0  0  0  0  0  0  0  0  0  0
   12.0186  -23.4148    0.0000 C   0  0  0  0  0  0  0  0  0  0  0  0
   12.7686  -22.1158    0.0000 C   0  0  0  0  0  0  0  0  0  0  0  0
   13.3787  -20.7455    0.0000 C   0  0  0  0  0  0  0  0  0  0  0  0
   13.8422  -19.3189    0.0000 C   0  0  0  0  0  0  0  0  0  0  0  0
   14.1541  -17.8517    0.0000 C   0  0  0  0  0  0  0  0  0  0  0  0
   14.3109  -16.3599    0.0000 C   0  0  0  0  0  0  0  0  0  0  0  0
   14.3109  -14.8599    0.0000 C   0  0  0  0  0  0  0  0  0  0  0  0
   14.1541  -13.3681    0.0000 C   0  0  0  0  0  0  0  0  0  0  0  0
   13.8422  -11.9009    0.0000 C   0  0  0  0  0  0  0  0  0  0  0  0
   13.3787  -10.4743    0.0000 C   0  0  0  0  0  0  0  0  0  0  0  0
   12.7686   -9.1040    0.0000 C   0  0  0  0  0  0  0  0  0  0  0  0
   12.0186   -7.8049    0.0000 C   0  0  0  0  0  0  0  0  0  0  0  0
   11.1369   -6.5914    0.0000 C   0  0  0  0  0  0  0  0  0  0  0  0
   10.1332   -5.4767    0.0000 C   0  0  0  0  0  0  0  0  0  0  0  0
    9.0185   -4.4730    0.0000 C   0  0  0  0  0  0  0  0  0  0  0  0
    7.8049   -3.5913    0.0000 C   0  0  0  0  0  0  0  0  0  0  0  0
    6.5059   -2.8413    0.0000 C   0  0  0  0  0  0  0  0  0  0  0  0
    5.1356   -2.2312    0.0000 C   0  0  0  0  0  0  0  0  0  0  0  0
    3.7090   -1.7677    0.0000 C   0  0  0  0  0  0  0  0  0  0  0  0
    2.2418   -1.4558    0.0000 C   0  0  0  0  0  0  0  0  0  0  0  0
    2.4764    0.0257    0.0000 C   0  0  0  0  0  0  0  0  0  0  0  0
    1.5738    1.2237    0.0000 C   0  0  0  0  0  0  0  0  0  0  0  0
    3.8768    0.5633    0.0000 C   0  0  0  0  0  0  0  0  0  0  0  0
    5.0425   -0.3807    0.0000 C   0  0  0  0  0  0  0  0  0  0  0  0
    4.1115    2.0448    0.0000 C   0  0  0  0  0  0  0  0  0  0  0  0
    2.9457    2.9888    0.0000 O   0  0  0  0  0  0  0  0  0  0  0  0
    5.5118    2.5823    0.0000 N   0  0  0  0  0  0  0  0  0  0  0  0
    6.6775    1.6384    0.0000 C   0  0  0  0  0  0  0  0  0  0  0  0
    8.0779    2.1759    0.0000 N   0  0  0  0  0  0  0  0  0  0  0  0
    9.2436    1.2319    0.0000 N   0  0  0  0  0  0  0  0  0  0  0  0
    9.0090   -0.2496    0.0000 N   0  0  0  0  0  0  0  0  0  0  0  0
    7.6086   -0.7872    0.0000 N   0  0  0  0  0  0  0  0  0  0  0  0
    6.4429    0.1568    0.0000 N   0  0  0  0  0  0  0  0  0  0  0  0
    0.7500   -1.2990    0.0000 C   0  0  0  0  0  0  0  0  0  0  0  0
    1.5000    0.0000    0.0000 C   0  0  0  0  0  0  0  0  0  0  0  0
    0.7500    1.2990    0.0000 C   0  0  0  0  0  0  0  0  0  0  0  0
   -0.7500    1.2990    0.0000 C   0  0  0  0  0  0  0  0  0  0  0  0
   -1.5000    0.0000    0.0000 C   0  0  0  0  0  0  0  0  0  0  0  0
   -0.7500   -1.2990    0.0000 C   0  0  0  0  0  0  0  0  0  0  0  0
  1  2  3  0
  2  3  1  0
  3  4  1  0
  4  5  1  0
  5  6  1  0
  6  7  1  0
  7  8  1  0
  8  9  1  0
  9 10  1  0
 10 11  1  0
 11 12  1  0
 12 13  1  0
 13 14  1  0
 14 15  1  0
 15 16  1  0
 16 17  1  0
 17 18  1  0
 18 19  1  0
 19 20  1  0
 20 21  1  0
 21 22  1  0
 22 23  1  0
 23 24  1  0
 24 25  1  0
 25 26  1  0
 26 27  1  0
 27 28  1  0
 28 29  1  0
 29 30  1  0
 30 31  1  0
 31 32  1  0
 32 33  1  0
 33 34  1  0
 34 35  1  0
 35 36  1  0
 36 37  1  0
 37 38  1  0
 38 39  1  0
 39 40  1  0
 40 41  1  0
 41 42  1  0
 42 43  1  0
 43 44  1  0
 44 45  1  0
 45 46  1  0
 46 47  1  0
 47 48  1  0
 48 49  1  0
 49 50  1  0
 50 51  1  0
 51 52  1  0
 52 53  1  0
 53 54  1  0
 54 55  1  0
 55 56  1  0
 56 57  1  0
 57 58  1  0
 58 59  1  0
 59 60  1  0
 60 61  1  0
 61 62  1  0
 61 63  1  0
 63 64  1  0
 63 65  1  0
 65 66  2  0
 65 67  1  0
 67 68  1  0
 68 69  2  0
 69 70  1  0
 70 71  2  0
 71 72  1  0
 72 73  2  0
 60 74  1  0
 74 75  2  0
 75 76  1  0
 76 77  2  0
 77 78  1  0
 78 79  2  0
 79  3  1  0
 73 68  1  0
 79 74  1  0
M  END
>  <Title>  (179) 
idAAEYgen8

$$$$

     RDKit          2D

 10 10  0  0  0  0  0  0  0  0999 V2000
    3.2286   -0.0000    0.0000 C   0  0  0  0  0  0  0  0  0  0  0  0
    1.7286    0.0000    0.0000 C   0  0  0  0  0  0  0  0  0  0  0  0
    1.0777    1.3515    0.0000 C   0  0  0  0  0  0  0  0  0  0  0  0
   -0.3846    1.6852    0.0000 C   0  0  0  0  0  0  0  0  0  0  0  0
   -1.5574    0.7500    0.0000 C   0  0  0  0  0  0  0  0  0  0  0  0
   -2.9088    1.4008    0.0000 O   0  0  0  0  0  0  0  0  0  0  0  0
   -1.5574   -0.7500    0.0000 C   0  0  0  0  0  0  0  0  0  0  0  0
   -2.9088   -1.4008    0.0000 Cl  0  0  0  0  0  0  0  0  0  0  0  0
   -0.3846   -1.6852    0.0000 C   0  0  0  0  0  0  0  0  0  0  0  0
    1.0777   -1.3515    0.0000 C   0  0  0  0  0  0  0  0  0  0  0  0
  1  2  1  0
  2  3  2  0
  3  4  1  0
  4  5  1  0
  5  6  1  0
  5  7  2  0
  7  8  1  0
  7  9  1  0
  9 10  2  0
 10  2  1  0
M  END
>  <Title>  (180) 
idAAEZgen8

$$$$

     RDKit          2D

  7  7  0  0  0  0  0  0  0  0999 V2000
    2.5607    0.0000    0.0000 C   0  0  0  0  0  0  0  0  0  0  0  0
    1.0607    0.0000    0.0000 C   0  0  0  0  0  0  0  0  0  0  0  0
   -0.0000   -1.0607    0.0000 C   0  0  0  0  0  0  0  0  0  0  0  0
   -1.0607    0.0000    0.0000 C   0  0  0  0  0  0  0  0  0  0  0  0
   -2.5607    0.0000    0.0000 C   0  0  0  0  0  0  0  0  0  0  0  0
   -4.0607    0.0000    0.0000 N   0  0  0  0  0  0  0  0  0  0  0  0
    0.0000    1.0607    0.0000 C   0  0  0  0  0  0  0  0  0  0  0  0
  1  2  1  0
  2  3  2  0
  3  4  1  0
  4  5  1  0
  5  6  3  0
  4  7  1  0
  7  2  1  0
M  END
>  <Title>  (181) 
idAAFAgen8

$$$$

     RDKit          2D

 11 11  0  0  0  0  0  0  0  0999 V2000
    3.7500   -1.2990    0.0000 C   0  0  0  0  0  0  0  0  0  0  0  0
    3.0000    0.0000    0.0000 C   0  0  0  0  0  0  0  0  0  0  0  0
    3.7500    1.2990    0.0000 C   0  0  0  0  0  0  0  0  0  0  0  0
    1.5000    0.0000    0.0000 C   0  0  0  0  0  0  0  0  0  0  0  0
    0.7500   -1.2990    0.0000 C   0  0  0  0  0  0  0  0  0  0  0  0
   -0.7500   -1.2990    0.0000 C   0  0  0  0  0  0  0  0  0  0  0  0
   -1.5000   -2.5981    0.0000 O   0  0  0  0  0  0  0  0  0  0  0  0
   -1.5000    0.0000    0.0000 C   0  0  0  0  0  0  0  0  0  0  0  0
   -0.7500    1.2990    0.0000 C   0  0  0  0  0  0  0  0  0  0  0  0
    0.7500    1.2990    0.0000 C   0  0  0  0  0  0  0  0  0  0  0  0
    1.5000    2.5981    0.0000 C   0  0  0  0  0  0  0  0  0  0  0  0
  1  2  1  0
  2  3  1  0
  2  4  1  0
  4  5  1  0
  5  6  1  0
  6  7  1  0
  6  8  1  0
  8  9  1  0
  9 10  1  0
 10 11  1  0
 10  4  1  0
M  END
>  <Title>  (182) 
idAAFBgen8

$$$$

     RDKit          2D

 45 51  0  0  0  0  0  0  0  0999 V2000
    4.3881   -6.6982    0.0000 C   0  0  0  0  0  0  0  0  0  0  0  0
    3.0367   -6.0474    0.0000 C   0  0  0  0  0  0  0  0  0  0  0  0
    3.3705   -4.5850    0.0000 C   0  0  0  0  0  0  0  0  0  0  0  0
    3.0367   -3.1226    0.0000 C   0  0  0  0  0  0  0  0  0  0  0  0
    2.1015   -1.9499    0.0000 C   0  0  0  0  0  0  0  0  0  0  0  0
    3.0367   -0.7771    0.0000 C   0  0  0  0  0  0  0  0  0  0  0  0
    2.4887    0.6192    0.0000 O   0  0  0  0  0  0  0  0  0  0  0  0
    4.5199   -1.0007    0.0000 N   0  0  0  0  0  0  0  0  0  0  0  0
    5.4552    0.1721    0.0000 C   0  0  0  0  0  0  0  0  0  0  0  0
    6.9384   -0.0515    0.0000 N   0  0  0  0  0  0  0  0  0  0  0  0
    7.8736    1.1213    0.0000 N   0  0  0  0  0  0  0  0  0  0  0  0
    7.3256    2.5176    0.0000 N   0  0  0  0  0  0  0  0  0  0  0  0
    5.8424    2.7411    0.0000 N   0  0  0  0  0  0  0  0  0  0  0  0
    4.9072    1.5684    0.0000 N   0  0  0  0  0  0  0  0  0  0  0  0
    0.7500   -1.2990    0.0000 C   0  0  0  0  0  0  0  0  0  0  0  0
    1.5000    0.0000    0.0000 C   0  0  0  0  0  0  0  0  0  0  0  0
    0.7500    1.2990    0.0000 C   0  0  0  0  0  0  0  0  0  0  0  0
   -0.7500    1.2990    0.0000 C   0  0  0  0  0  0  0  0  0  0  0  0
   -1.5000    0.0000    0.0000 C   0  0  0  0  0  0  0  0  0  0  0  0
   -0.7500   -1.2990    0.0000 C   0  0  0  0  0  0  0  0  0  0  0  0
   -2.1015   -1.9499    0.0000 C   0  0  0  0  0  0  0  0  0  0  0  0
   -2.6495   -0.5536    0.0000 C   0  0  0  0  0  0  0  0  0  0  0  0
   -4.1327   -0.3300    0.0000 C   0  0  0  0  0  0  0  0  0  0  0  0
   -5.0679   -1.5027    0.0000 C   0  0  0  0  0  0  0  0  0  0  0  0
   -4.5199   -2.8990    0.0000 C   0  0  0  0  0  0  0  0  0  0  0  0
   -3.0367   -3.1226    0.0000 C   0  0  0  0  0  0  0  0  0  0  0  0
   -3.3705   -4.5850    0.0000 C   0  0  0  0  0  0  0  0  0  0  0  0
   -4.8644   -4.4505    0.0000 C   0  0  0  0  0  0  0  0  0  0  0  0
   -5.4540   -5.8298    0.0000 C   0  0  0  0  0  0  0  0  0  0  0  0
   -6.9164   -6.1636    0.0000 C   0  0  0  0  0  0  0  0  0  0  0  0
   -8.3788   -6.4974    0.0000 N   0  0  0  0  0  0  0  0  0  0  0  0
   -4.3244   -6.8167    0.0000 C   0  0  0  0  0  0  0  0  0  0  0  0
   -3.0367   -6.0474    0.0000 C   0  0  0  0  0  0  0  0  0  0  0  0
   -2.1015   -7.2201    0.0000 C   0  0  0  0  0  0  0  0  0  0  0  0
   -3.3408   -8.0651    0.0000 C   0  0  0  0  0  0  0  0  0  0  0  0
   -3.2287   -9.5609    0.0000 C   0  0  0  0  0  0  0  0  0  0  0  0
   -1.8773  -10.2118    0.0000 C   0  0  0  0  0  0  0  0  0  0  0  0
   -0.6379   -9.3668    0.0000 C   0  0  0  0  0  0  0  0  0  0  0  0
   -0.7500   -7.8710    0.0000 C   0  0  0  0  0  0  0  0  0  0  0  0
    0.7500   -7.8710    0.0000 C   0  0  0  0  0  0  0  0  0  0  0  0
    0.6379   -9.3668    0.0000 C   0  0  0  0  0  0  0  0  0  0  0  0
    1.8773  -10.2118    0.0000 C   0  0  0  0  0  0  0  0  0  0  0  0
    3.2287   -9.5609    0.0000 C   0  0  0  0  0  0  0  0  0  0  0  0
    3.3408   -8.0651    0.0000 C   0  0  0  0  0  0  0  0  0  0  0  0
    2.1015   -7.2201    0.0000 C   0  0  0  0  0  0  0  0  0  0  0  0
  1  2  1  0
  2  3  1  0
  3  4  2  0
  4  5  1  0
  5  6  1  0
  6  7  2  0
  6  8  1  0
  8  9  1  0
  9 10  2  0
 10 11  1  0
 11 12  2  0
 12 13  1  0
 13 14  2  0
  5 15  1  0
 15 16  2  0
 16 17  1  0
 17 18  2  0
 18 19  1  0
 19 20  2  0
 20 21  1  0
 21 22  2  0
 22 23  1  0
 23 24  2  0
 24 25  1  0
 25 26  2  0
 26 27  1  0
 27 28  2  0
 28 29  1  0
 29 30  1  0
 30 31  3  0
 29 32  1  0
 32 33  2  0
 33 34  1  0
 34 35  2  0
 35 36  1  0
 36 37  2  0
 37 38  1  0
 38 39  2  0
 39 40  1  0
 40 41  2  0
 41 42  1  0
 42 43  2  0
 43 44  1  0
 44 45  2  0
 45  2  1  0
 14  9  1  0
 20 15  1  0
 26 21  1  0
 33 27  1  0
 39 34  1  0
 45 40  1  0
M  END
>  <Title>  (183) 
idAAFCgen8

$$$$

     RDKit          2D

  7  6  0  0  0  0  0  0  0  0999 V2000
    0.0000    0.0000    0.0000 C   0  0  0  0  0  0  0  0  0  0  0  0
    1.2990    0.7500    0.0000 C   0  0  0  0  0  0  0  0  0  0  0  0
    2.5981   -0.0000    0.0000 C   0  0  0  0  0  0  0  0  0  0  0  0
    3.8971    0.7500    0.0000 C   0  0  0  0  0  0  0  0  0  0  0  0
    5.1962   -0.0000    0.0000 C   0  0  0  0  0  0  0  0  0  0  0  0
    6.4952    0.7500    0.0000 C   0  0  0  0  0  0  0  0  0  0  0  0
    7.7942   -0.0000    0.0000 C   0  0  0  0  0  0  0  0  0  0  0  0
  1  2  1  0
  2  3  2  3
  3  4  1  0
  4  5  1  0
  5  6  2  3
  6  7  1  0
M  END
>  <Title>  (184) 
idAAFDgen8

$$$$

     RDKit          2D

  7  7  0  0  0  0  0  0  0  0999 V2000
    2.7760    0.0000    0.0000 O   0  0  0  0  0  0  0  0  0  0  0  0
    1.2760    0.0000    0.0000 C   0  0  0  0  0  0  0  0  0  0  0  0
    0.3943    1.2135    0.0000 C   0  0  0  0  0  0  0  0  0  0  0  0
   -1.0323    0.7500    0.0000 C   0  0  0  0  0  0  0  0  0  0  0  0
   -1.0323   -0.7500    0.0000 C   0  0  0  0  0  0  0  0  0  0  0  0
   -2.2458   -1.6317    0.0000 O   0  0  0  0  0  0  0  0  0  0  0  0
    0.3943   -1.2135    0.0000 C   0  0  0  0  0  0  0  0  0  0  0  0
  1  2  1  0
  2  3  2  0
  3  4  1  0
  4  5  1  0
  5  6  1  0
  5  7  2  0
  7  2  1  0
M  END
>  <Title>  (185) 
idAAFEgen8

$$$$

     RDKit          2D

  7  7  0  0  0  0  0  0  0  0999 V2000
    3.0000    0.0000    0.0000 O   0  0  0  0  0  0  0  0  0  0  0  0
    1.5000    0.0000    0.0000 C   0  0  0  0  0  0  0  0  0  0  0  0
    0.7500   -1.2990    0.0000 C   0  0  0  0  0  0  0  0  0  0  0  0
   -0.7500   -1.2990    0.0000 C   0  0  0  0  0  0  0  0  0  0  0  0
   -1.5000    0.0000    0.0000 C   0  0  0  0  0  0  0  0  0  0  0  0
   -0.7500    1.2990    0.0000 C   0  0  0  0  0  0  0  0  0  0  0  0
    0.7500    1.2990    0.0000 C   0  0  0  0  0  0  0  0  0  0  0  0
  1  2  1  0
  2  3  1  0
  3  4  1  0
  4  5  1  0
  5  6  1  0
  6  7  1  0
  7  2  1  0
M  END
>  <Title>  (186) 
idAAFFgen8

$$$$

     RDKit          2D

 13 13  0  0  0  0  0  0  0  0999 V2000
    7.7286   -2.5981    0.0000 C   0  0  0  0  0  0  0  0  0  0  0  0
    6.2286   -2.5981    0.0000 C   0  0  0  0  0  0  0  0  0  0  0  0
    5.4786   -1.2990    0.0000 C   0  0  0  0  0  0  0  0  0  0  0  0
    3.9786   -1.2990    0.0000 C   0  0  0  0  0  0  0  0  0  0  0  0
    3.2286   -2.5981    0.0000 O   0  0  0  0  0  0  0  0  0  0  0  0
    3.2286   -0.0000    0.0000 N   0  0  0  0  0  0  0  0  0  0  0  0
    1.7286    0.0000    0.0000 C   0  0  0  0  0  0  0  0  0  0  0  0
    1.0777    1.3515    0.0000 N   0  0  0  0  0  0  0  0  0  0  0  0
   -0.3846    1.6852    0.0000 N   0  0  0  0  0  0  0  0  0  0  0  0
   -1.5574    0.7500    0.0000 C   0  0  0  0  0  0  0  0  0  0  0  0
   -1.5574   -0.7500    0.0000 C   0  0  0  0  0  0  0  0  0  0  0  0
   -0.3846   -1.6852    0.0000 C   0  0  0  0  0  0  0  0  0  0  0  0
    1.0777   -1.3515    0.0000 C   0  0  0  0  0  0  0  0  0  0  0  0
  1  2  1  0
  2  3  2  3
  3  4  1  0
  4  5  2  0
  4  6  1  0
  6  7  1  0
  7  8  2  0
  8  9  1  0
  9 10  2  0
 10 11  1  0
 11 12  2  0
 12 13  1  0
 13  7  1  0
M  END
>  <Title>  (187) 
idAAFGgen8

$$$$

     RDKit          2D

 26 29  0  0  0  0  0  0  0  0999 V2000
   -1.3240   -6.3062    0.0000 C   0  0  0  0  0  0  0  0  0  0  0  0
   -0.7500   -4.9204    0.0000 C   0  0  0  0  0  0  0  0  0  0  0  0
    0.7500   -4.9204    0.0000 C   0  0  0  0  0  0  0  0  0  0  0  0
    1.8107   -3.8597    0.0000 C   0  0  0  0  0  0  0  0  0  0  0  0
    1.8107   -2.3597    0.0000 C   0  0  0  0  0  0  0  0  0  0  0  0
    3.1965   -1.7857    0.0000 C   0  0  0  0  0  0  0  0  0  0  0  0
    3.3923   -0.2985    0.0000 O   0  0  0  0  0  0  0  0  0  0  0  0
    4.3865   -2.6988    0.0000 N   0  0  0  0  0  0  0  0  0  0  0  0
    5.7723   -2.1248    0.0000 C   0  0  0  0  0  0  0  0  0  0  0  0
    6.9624   -3.0379    0.0000 N   0  0  0  0  0  0  0  0  0  0  0  0
    8.3482   -2.4639    0.0000 N   0  0  0  0  0  0  0  0  0  0  0  0
    8.5440   -0.9767    0.0000 N   0  0  0  0  0  0  0  0  0  0  0  0
    7.3539   -0.0636    0.0000 N   0  0  0  0  0  0  0  0  0  0  0  0
    5.9681   -0.6376    0.0000 N   0  0  0  0  0  0  0  0  0  0  0  0
    0.7500   -1.2990    0.0000 C   0  0  0  0  0  0  0  0  0  0  0  0
    1.5000    0.0000    0.0000 C   0  0  0  0  0  0  0  0  0  0  0  0
    0.7500    1.2990    0.0000 C   0  0  0  0  0  0  0  0  0  0  0  0
   -0.7500    1.2990    0.0000 C   0  0  0  0  0  0  0  0  0  0  0  0
   -1.5000    0.0000    0.0000 C   0  0  0  0  0  0  0  0  0  0  0  0
   -0.7500   -1.2990    0.0000 C   0  0  0  0  0  0  0  0  0  0  0  0
   -1.8107   -2.3597    0.0000 C   0  0  0  0  0  0  0  0  0  0  0  0
   -3.1097   -1.6097    0.0000 C   0  0  0  0  0  0  0  0  0  0  0  0
   -4.4087   -2.3597    0.0000 C   0  0  0  0  0  0  0  0  0  0  0  0
   -4.4087   -3.8597    0.0000 C   0  0  0  0  0  0  0  0  0  0  0  0
   -3.1097   -4.6097    0.0000 C   0  0  0  0  0  0  0  0  0  0  0  0
   -1.8107   -3.8597    0.0000 C   0  0  0  0  0  0  0  0  0  0  0  0
  1  2  1  0
  2  3  1  0
  3  4  1  0
  4  5  1  0
  5  6  1  0
  6  7  2  0
  6  8  1  0
  8  9  1  0
  9 10  2  0
 10 11  1  0
 11 12  2  0
 12 13  1  0
 13 14  2  0
  5 15  1  0
 15 16  2  0
 16 17  1  0
 17 18  2  0
 18 19  1  0
 19 20  2  0
 20 21  1  0
 21 22  2  0
 22 23  1  0
 23 24  2  0
 24 25  1  0
 25 26  2  0
 26  2  1  0
 14  9  1  0
 20 15  1  0
 26 21  1  0
M  END
>  <Title>  (188) 
idAAFHgen8

$$$$

     RDKit          2D

  8  8  0  0  0  0  0  0  0  0999 V2000
    2.7760    0.0000    0.0000 C   0  0  0  0  0  0  0  0  0  0  0  0
    1.2760    0.0000    0.0000 C   0  0  0  0  0  0  0  0  0  0  0  0
    0.3943    1.2135    0.0000 C   0  0  0  0  0  0  0  0  0  0  0  0
   -1.0323    0.7500    0.0000 C   0  0  0  0  0  0  0  0  0  0  0  0
   -2.2458    1.6317    0.0000 O   0  0  0  0  0  0  0  0  0  0  0  0
   -1.0323   -0.7500    0.0000 C   0  0  0  0  0  0  0  0  0  0  0  0
    0.3943   -1.2135    0.0000 C   0  0  0  0  0  0  0  0  0  0  0  0
    0.8578   -2.6401    0.0000 Cl  0  0  0  0  0  0  0  0  0  0  0  0
  1  2  1  0
  2  3  2  0
  3  4  1  0
  4  5  1  0
  4  6  1  0
  6  7  2  0
  7  8  1  0
  7  2  1  0
M  END
>  <Title>  (189) 
idAAFIgen8

$$$$

     RDKit          2D

 27 30  0  0  0  0  0  0  0  0999 V2000
   -0.0000   -8.0154    0.0000 C   0  0  0  0  0  0  0  0  0  0  0  0
   -0.0000   -6.5154    0.0000 C   0  0  0  0  0  0  0  0  0  0  0  0
    1.4392   -6.0928    0.0000 C   0  0  0  0  0  0  0  0  0  0  0  0
    2.4215   -4.9592    0.0000 C   0  0  0  0  0  0  0  0  0  0  0  0
    3.7860   -5.5823    0.0000 O   0  0  0  0  0  0  0  0  0  0  0  0
    2.6350   -3.4744    0.0000 C   0  0  0  0  0  0  0  0  0  0  0  0
    4.1197   -3.2610    0.0000 O   0  0  0  0  0  0  0  0  0  0  0  0
    2.0119   -2.1100    0.0000 C   0  0  0  0  0  0  0  0  0  0  0  0
    3.1455   -1.1277    0.0000 O   0  0  0  0  0  0  0  0  0  0  0  0
    0.7500   -1.2990    0.0000 C   0  0  0  0  0  0  0  0  0  0  0  0
    1.5000    0.0000    0.0000 C   0  0  0  0  0  0  0  0  0  0  0  0
    0.7500    1.2990    0.0000 C   0  0  0  0  0  0  0  0  0  0  0  0
   -0.7500    1.2990    0.0000 C   0  0  0  0  0  0  0  0  0  0  0  0
   -1.5000    0.0000    0.0000 C   0  0  0  0  0  0  0  0  0  0  0  0
   -0.7500   -1.2990    0.0000 C   0  0  0  0  0  0  0  0  0  0  0  0
   -2.0119   -2.1100    0.0000 C   0  0  0  0  0  0  0  0  0  0  0  0
   -2.8820   -0.8881    0.0000 C   0  0  0  0  0  0  0  0  0  0  0  0
   -4.3752   -1.0307    0.0000 C   0  0  0  0  0  0  0  0  0  0  0  0
   -4.9983   -2.3952    0.0000 C   0  0  0  0  0  0  0  0  0  0  0  0
   -4.1282   -3.6170    0.0000 C   0  0  0  0  0  0  0  0  0  0  0  0
   -2.6350   -3.4744    0.0000 C   0  0  0  0  0  0  0  0  0  0  0  0
   -2.4215   -4.9592    0.0000 C   0  0  0  0  0  0  0  0  0  0  0  0
   -3.8944   -5.2431    0.0000 C   0  0  0  0  0  0  0  0  0  0  0  0
   -4.3850   -6.6606    0.0000 C   0  0  0  0  0  0  0  0  0  0  0  0
   -3.4027   -7.7942    0.0000 C   0  0  0  0  0  0  0  0  0  0  0  0
   -1.9298   -7.5103    0.0000 C   0  0  0  0  0  0  0  0  0  0  0  0
   -1.4392   -6.0928    0.0000 C   0  0  0  0  0  0  0  0  0  0  0  0
  1  2  1  0
  2  3  2  0
  3  4  1  0
  4  5  1  0
  4  6  1  0
  6  7  1  0
  6  8  1  0
  8  9  1  0
  8 10  1  0
 10 11  2  0
 11 12  1  0
 12 13  2  0
 13 14  1  0
 14 15  2  0
 15 16  1  0
 16 17  2  0
 17 18  1  0
 18 19  2  0
 19 20  1  0
 20 21  2  0
 21 22  1  0
 22 23  2  0
 23 24  1  0
 24 25  2  0
 25 26  1  0
 26 27  2  0
 27  2  1  0
 15 10  1  0
 21 16  1  0
 27 22  1  0
M  END
>  <Title>  (190) 
idAAFJgen8

$$$$

     RDKit          2D

 84 85  0  0  0  0  0  0  0  0999 V2000
   -2.4259    0.0693    0.0000 C   0  0  0  0  0  0  0  0  0  0  0  0
   -2.2451   -1.4197    0.0000 C   0  0  0  0  0  0  0  0  0  0  0  0
   -3.7257   -1.6604    0.0000 C   0  0  0  0  0  0  0  0  0  0  0  0
   -5.1821   -2.0193    0.0000 C   0  0  0  0  0  0  0  0  0  0  0  0
   -6.6049   -2.4943    0.0000 C   0  0  0  0  0  0  0  0  0  0  0  0
   -7.9849   -3.0823    0.0000 C   0  0  0  0  0  0  0  0  0  0  0  0
   -9.3131   -3.7794    0.0000 C   0  0  0  0  0  0  0  0  0  0  0  0
  -10.5809   -4.5811    0.0000 C   0  0  0  0  0  0  0  0  0  0  0  0
  -11.7800   -5.4822    0.0000 C   0  0  0  0  0  0  0  0  0  0  0  0
  -12.9028   -6.4769    0.0000 C   0  0  0  0  0  0  0  0  0  0  0  0
  -13.9419   -7.5587    0.0000 C   0  0  0  0  0  0  0  0  0  0  0  0
  -14.8906   -8.7206    0.0000 C   0  0  0  0  0  0  0  0  0  0  0  0
  -15.7426   -9.9550    0.0000 C   0  0  0  0  0  0  0  0  0  0  0  0
  -16.4926  -11.2541    0.0000 C   0  0  0  0  0  0  0  0  0  0  0  0
  -17.1357  -12.6093    0.0000 C   0  0  0  0  0  0  0  0  0  0  0  0
  -17.6676  -14.0118    0.0000 C   0  0  0  0  0  0  0  0  0  0  0  0
  -18.0849  -15.4526    0.0000 C   0  0  0  0  0  0  0  0  0  0  0  0
  -18.3850  -16.9222    0.0000 C   0  0  0  0  0  0  0  0  0  0  0  0
  -18.5658  -18.4113    0.0000 C   0  0  0  0  0  0  0  0  0  0  0  0
  -18.6262  -19.9101    0.0000 C   0  0  0  0  0  0  0  0  0  0  0  0
  -18.5658  -21.4089    0.0000 C   0  0  0  0  0  0  0  0  0  0  0  0
  -18.3850  -22.8979    0.0000 C   0  0  0  0  0  0  0  0  0  0  0  0
  -18.0849  -24.3676    0.0000 C   0  0  0  0  0  0  0  0  0  0  0  0
  -17.6676  -25.8084    0.0000 C   0  0  0  0  0  0  0  0  0  0  0  0
  -17.1357  -27.2109    0.0000 C   0  0  0  0  0  0  0  0  0  0  0  0
  -16.4926  -28.5661    0.0000 C   0  0  0  0  0  0  0  0  0  0  0  0
  -15.7426  -29.8651    0.0000 C   0  0  0  0  0  0  0  0  0  0  0  0
  -14.8906  -31.0996    0.0000 C   0  0  0  0  0  0  0  0  0  0  0  0
  -13.9419  -32.2615    0.0000 C   0  0  0  0  0  0  0  0  0  0  0  0
  -12.9028  -33.3433    0.0000 C   0  0  0  0  0  0  0  0  0  0  0  0
  -11.7800  -34.3380    0.0000 C   0  0  0  0  0  0  0  0  0  0  0  0
  -10.5809  -35.2391    0.0000 C   0  0  0  0  0  0  0  0  0  0  0  0
   -9.3131  -36.0408    0.0000 C   0  0  0  0  0  0  0  0  0  0  0  0
   -7.9849  -36.7379    0.0000 C   0  0  0  0  0  0  0  0  0  0  0  0
   -6.6049  -37.3259    0.0000 C   0  0  0  0  0  0  0  0  0  0  0  0
   -5.1821  -37.8009    0.0000 C   0  0  0  0  0  0  0  0  0  0  0  0
   -3.7257  -38.1598    0.0000 C   0  0  0  0  0  0  0  0  0  0  0  0
   -2.2451  -38.4005    0.0000 C   0  0  0  0  0  0  0  0  0  0  0  0
   -0.7500  -38.5212    0.0000 C   0  0  0  0  0  0  0  0  0  0  0  0
    0.7500  -38.5212    0.0000 C   0  0  0  0  0  0  0  0  0  0  0  0
    2.2451  -38.4005    0.0000 C   0  0  0  0  0  0  0  0  0  0  0  0
    3.7257  -38.1598    0.0000 C   0  0  0  0  0  0  0  0  0  0  0  0
    5.1821  -37.8009    0.0000 C   0  0  0  0  0  0  0  0  0  0  0  0
    6.6049  -37.3259    0.0000 C   0  0  0  0  0  0  0  0  0  0  0  0
    7.9849  -36.7379    0.0000 C   0  0  0  0  0  0  0  0  0  0  0  0
    9.3131  -36.0408    0.0000 C   0  0  0  0  0  0  0  0  0  0  0  0
   10.5809  -35.2391    0.0000 C   0  0  0  0  0  0  0  0  0  0  0  0
   11.7800  -34.3380    0.0000 C   0  0  0  0  0  0  0  0  0  0  0  0
   12.9028  -33.3433    0.0000 C   0  0  0  0  0  0  0  0  0  0  0  0
   13.9419  -32.2615    0.0000 C   0  0  0  0  0  0  0  0  0  0  0  0
   14.8906  -31.0996    0.0000 C   0  0  0  0  0  0  0  0  0  0  0  0
   15.7426  -29.8651    0.0000 C   0  0  0  0  0  0  0  0  0  0  0  0
   16.4926  -28.5661    0.0000 C   0  0  0  0  0  0  0  0  0  0  0  0
   17.1357  -27.2109    0.0000 C   0  0  0  0  0  0  0  0  0  0  0  0
   17.6676  -25.8084    0.0000 C   0  0  0  0  0  0  0  0  0  0  0  0
   18.0849  -24.3676    0.0000 C   0  0  0  0  0  0  0  0  0  0  0  0
   18.3850  -22.8979    0.0000 C   0  0  0  0  0  0  0  0  0  0  0  0
   18.5658  -21.4089    0.0000 C   0  0  0  0  0  0  0  0  0  0  0  0
   18.6262  -19.9101    0.0000 C   0  0  0  0  0  0  0  0  0  0  0  0
   18.5658  -18.4113    0.0000 C   0  0  0  0  0  0  0  0  0  0  0  0
   18.3850  -16.9222    0.0000 C   0  0  0  0  0  0  0  0  0  0  0  0
   18.0849  -15.4526    0.0000 C   0  0  0  0  0  0  0  0  0  0  0  0
   17.6676  -14.0118    0.0000 C   0  0  0  0  0  0  0  0  0  0  0  0
   17.1357  -12.6093    0.0000 C   0  0  0  0  0  0  0  0  0  0  0  0
   16.4926  -11.2541    0.0000 C   0  0  0  0  0  0  0  0  0  0  0  0
   15.7426   -9.9550    0.0000 C   0  0  0  0  0  0  0  0  0  0  0  0
   14.8906   -8.7206    0.0000 C   0  0  0  0  0  0  0  0  0  0  0  0
   13.9419   -7.5587    0.0000 C   0  0  0  0  0  0  0  0  0  0  0  0
   12.9028   -6.4769    0.0000 C   0  0  0  0  0  0  0  0  0  0  0  0
   11.7800   -5.4822    0.0000 C   0  0  0  0  0  0  0  0  0  0  0  0
   10.5809   -4.5811    0.0000 C   0  0  0  0  0  0  0  0  0  0  0  0
    9.3131   -3.7794    0.0000 C   0  0  0  0  0  0  0  0  0  0  0  0
    7.9849   -3.0823    0.0000 C   0  0  0  0  0  0  0  0  0  0  0  0
    6.6049   -2.4943    0.0000 C   0  0  0  0  0  0  0  0  0  0  0  0
    5.1821   -2.0193    0.0000 C   0  0  0  0  0  0  0  0  0  0  0  0
    3.7257   -1.6604    0.0000 C   0  0  0  0  0  0  0  0  0  0  0  0
    2.2451   -1.4197    0.0000 C   0  0  0  0  0  0  0  0  0  0  0  0
    2.4259    0.0693    0.0000 C   0  0  0  0  0  0  0  0  0  0  0  0
    0.7500   -1.2990    0.0000 C   0  0  0  0  0  0  0  0  0  0  0  0
    1.5000    0.0000    0.0000 C   0  0  0  0  0  0  0  0  0  0  0  0
    0.7500    1.2990    0.0000 C   0  0  0  0  0  0  0  0  0  0  0  0
   -0.7500    1.2990    0.0000 C   0  0  0  0  0  0  0  0  0  0  0  0
   -1.5000    0.0000    0.0000 C   0  0  0  0  0  0  0  0  0  0  0  0
   -0.7500   -1.2990    0.0000 C   0  0  0  0  0  0  0  0  0  0  0  0
  1  2  1  0
  2  3  1  0
  3  4  1  0
  4  5  1  0
  5  6  1  0
  6  7  1  0
  7  8  1  0
  8  9  1  0
  9 10  1  0
 10 11  1  0
 11 12  1  0
 12 13  1  0
 13 14  1  0
 14 15  1  0
 15 16  1  0
 16 17  1  0
 17 18  1  0
 18 19  1  0
 19 20  1  0
 20 21  1  0
 21 22  1  0
 22 23  1  0
 23 24  1  0
 24 25  1  0
 25 26  1  0
 26 27  1  0
 27 28  1  0
 28 29  1  0
 29 30  1  0
 30 31  1  0
 31 32  1  0
 32 33  1  0
 33 34  1  0
 34 35  1  0
 35 36  1  0
 36 37  1  0
 37 38  1  0
 38 39  1  0
 39 40  1  0
 40 41  1  0
 41 42  1  0
 42 43  1  0
 43 44  1  0
 44 45  1  0
 45 46  1  0
 46 47  1  0
 47 48  1  0
 48 49  1  0
 49 50  1  0
 50 51  1  0
 51 52  1  0
 52 53  1  0
 53 54  1  0
 54 55  1  0
 55 56  1  0
 56 57  1  0
 57 58  1  0
 58 59  1  0
 59 60  1  0
 60 61  1  0
 61 62  1  0
 62 63  1  0
 63 64  1  0
 64 65  1  0
 65 66  1  0
 66 67  1  0
 67 68  1  0
 68 69  1  0
 69 70  1  0
 70 71  1  0
 71 72  1  0
 72 73  1  0
 73 74  1  0
 74 75  1  0
 75 76  1  0
 76 77  1  0
 77 78  1  0
 77 79  1  0
 79 80  2  0
 80 81  1  0
 81 82  2  0
 82 83  1  0
 83 84  2  0
 84  2  1  0
 84 79  1  0
M  END
>  <Title>  (191) 
idAAFKgen8

$$$$

     RDKit          2D

  9  9  0  0  0  0  0  0  0  0999 V2000
    3.2286   -0.0000    0.0000 C   0  0  0  0  0  0  0  0  0  0  0  0
    1.7286    0.0000    0.0000 C   0  0  0  0  0  0  0  0  0  0  0  0
    1.0777    1.3515    0.0000 C   0  0  0  0  0  0  0  0  0  0  0  0
   -0.3846    1.6852    0.0000 C   0  0  0  0  0  0  0  0  0  0  0  0
   -1.5574    0.7500    0.0000 C   0  0  0  0  0  0  0  0  0  0  0  0
   -2.9088    1.4008    0.0000 C   0  0  0  0  0  0  0  0  0  0  0  0
   -1.5574   -0.7500    0.0000 C   0  0  0  0  0  0  0  0  0  0  0  0
   -0.3846   -1.6852    0.0000 C   0  0  0  0  0  0  0  0  0  0  0  0
    1.0777   -1.3515    0.0000 C   0  0  0  0  0  0  0  0  0  0  0  0
  1  2  1  0
  2  3  2  0
  3  4  1  0
  4  5  1  0
  5  6  1  0
  5  7  1  0
  7  8  2  0
  8  9  1  0
  9  2  1  0
M  END
>  <Title>  (192) 
idAAFLgen8

$$$$

     RDKit          2D

  9  9  0  0  0  0  0  0  0  0999 V2000
    3.7500   -1.2990    0.0000 C   0  0  0  0  0  0  0  0  0  0  0  0
    3.0000    0.0000    0.0000 C   0  0  0  0  0  0  0  0  0  0  0  0
    1.5000    0.0000    0.0000 C   0  0  0  0  0  0  0  0  0  0  0  0
    0.7500   -1.2990    0.0000 C   0  0  0  0  0  0  0  0  0  0  0  0
   -0.7500   -1.2990    0.0000 C   0  0  0  0  0  0  0  0  0  0  0  0
   -1.5000    0.0000    0.0000 C   0  0  0  0  0  0  0  0  0  0  0  0
   -3.0000    0.0000    0.0000 O   0  0  0  0  0  0  0  0  0  0  0  0
   -0.7500    1.2990    0.0000 C   0  0  0  0  0  0  0  0  0  0  0  0
    0.7500    1.2990    0.0000 C   0  0  0  0  0  0  0  0  0  0  0  0
  1  2  2  0
  2  3  1  0
  3  4  2  0
  4  5  1  0
  5  6  1  0
  6  7  1  0
  6  8  1  0
  8  9  2  0
  9  3  1  0
M  END
>  <Title>  (193) 
idAAFMgen8

$$$$

     RDKit          2D

109109  0  0  0  0  0  0  0  0999 V2000
   27.2867    0.0000    0.0000 O   0  0  0  0  0  0  0  0  0  0  0  0
   25.7867    0.0000    0.0000 C   0  0  0  0  0  0  0  0  0  0  0  0
   25.7431   -1.4994    0.0000 C   0  0  0  0  0  0  0  0  0  0  0  0
   25.6124   -2.9937    0.0000 C   0  0  0  0  0  0  0  0  0  0  0  0
   25.3950   -4.4778    0.0000 C   0  0  0  0  0  0  0  0  0  0  0  0
   25.0917   -5.9468    0.0000 C   0  0  0  0  0  0  0  0  0  0  0  0
   24.7034   -7.3957    0.0000 C   0  0  0  0  0  0  0  0  0  0  0  0
   24.2316   -8.8196    0.0000 C   0  0  0  0  0  0  0  0  0  0  0  0
   23.6778  -10.2136    0.0000 C   0  0  0  0  0  0  0  0  0  0  0  0
   23.0439  -11.5731    0.0000 C   0  0  0  0  0  0  0  0  0  0  0  0
   22.3320  -12.8934    0.0000 C   0  0  0  0  0  0  0  0  0  0  0  0
   21.5445  -14.1700    0.0000 C   0  0  0  0  0  0  0  0  0  0  0  0
   20.6841  -15.3988    0.0000 C   0  0  0  0  0  0  0  0  0  0  0  0
   19.7538  -16.5754    0.0000 C   0  0  0  0  0  0  0  0  0  0  0  0
   18.7566  -17.6959    0.0000 C   0  0  0  0  0  0  0  0  0  0  0  0
   17.6959  -18.7566    0.0000 C   0  0  0  0  0  0  0  0  0  0  0  0
   16.5754  -19.7538    0.0000 C   0  0  0  0  0  0  0  0  0  0  0  0
   15.3988  -20.6841    0.0000 C   0  0  0  0  0  0  0  0  0  0  0  0
   14.1700  -21.5445    0.0000 C   0  0  0  0  0  0  0  0  0  0  0  0
   12.8934  -22.3320    0.0000 C   0  0  0  0  0  0  0  0  0  0  0  0
   11.5731  -23.0439    0.0000 C   0  0  0  0  0  0  0  0  0  0  0  0
   10.2136  -23.6778    0.0000 C   0  0  0  0  0  0  0  0  0  0  0  0
    8.8196  -24.2316    0.0000 C   0  0  0  0  0  0  0  0  0  0  0  0
    7.3957  -24.7034    0.0000 C   0  0  0  0  0  0  0  0  0  0  0  0
    5.9468  -25.0917    0.0000 C   0  0  0  0  0  0  0  0  0  0  0  0
    4.4778  -25.3950    0.0000 C   0  0  0  0  0  0  0  0  0  0  0  0
    2.9937  -25.6124    0.0000 C   0  0  0  0  0  0  0  0  0  0  0  0
    1.4994  -25.7431    0.0000 C   0  0  0  0  0  0  0  0  0  0  0  0
   -0.0000  -25.7867    0.0000 C   0  0  0  0  0  0  0  0  0  0  0  0
   -1.4994  -25.7431    0.0000 C   0  0  0  0  0  0  0  0  0  0  0  0
   -2.9937  -25.6124    0.0000 C   0  0  0  0  0  0  0  0  0  0  0  0
   -4.4778  -25.3950    0.0000 C   0  0  0  0  0  0  0  0  0  0  0  0
   -5.9468  -25.0917    0.0000 C   0  0  0  0  0  0  0  0  0  0  0  0
   -7.3957  -24.7034    0.0000 C   0  0  0  0  0  0  0  0  0  0  0  0
   -8.8196  -24.2316    0.0000 C   0  0  0  0  0  0  0  0  0  0  0  0
  -10.2136  -23.6778    0.0000 C   0  0  0  0  0  0  0  0  0  0  0  0
  -11.5731  -23.0439    0.0000 C   0  0  0  0  0  0  0  0  0  0  0  0
  -12.8934  -22.3320    0.0000 C   0  0  0  0  0  0  0  0  0  0  0  0
  -14.1700  -21.5445    0.0000 C   0  0  0  0  0  0  0  0  0  0  0  0
  -15.3988  -20.6841    0.0000 C   0  0  0  0  0  0  0  0  0  0  0  0
  -16.5754  -19.7538    0.0000 C   0  0  0  0  0  0  0  0  0  0  0  0
  -17.6959  -18.7566    0.0000 C   0  0  0  0  0  0  0  0  0  0  0  0
  -18.7566  -17.6959    0.0000 C   0  0  0  0  0  0  0  0  0  0  0  0
  -19.7538  -16.5754    0.0000 C   0  0  0  0  0  0  0  0  0  0  0  0
  -20.6841  -15.3988    0.0000 C   0  0  0  0  0  0  0  0  0  0  0  0
  -21.5445  -14.1700    0.0000 C   0  0  0  0  0  0  0  0  0  0  0  0
  -22.3320  -12.8934    0.0000 C   0  0  0  0  0  0  0  0  0  0  0  0
  -23.0439  -11.5731    0.0000 C   0  0  0  0  0  0  0  0  0  0  0  0
  -23.6778  -10.2136    0.0000 C   0  0  0  0  0  0  0  0  0  0  0  0
  -24.2316   -8.8196    0.0000 C   0  0  0  0  0  0  0  0  0  0  0  0
  -24.7034   -7.3957    0.0000 C   0  0  0  0  0  0  0  0  0  0  0  0
  -25.0917   -5.9468    0.0000 C   0  0  0  0  0  0  0  0  0  0  0  0
  -25.3950   -4.4778    0.0000 C   0  0  0  0  0  0  0  0  0  0  0  0
  -25.6124   -2.9937    0.0000 C   0  0  0  0  0  0  0  0  0  0  0  0
  -25.7431   -1.4994    0.0000 C   0  0  0  0  0  0  0  0  0  0  0  0
  -25.7867    0.0000    0.0000 C   0  0  0  0  0  0  0  0  0  0  0  0
  -25.7431    1.4994    0.0000 C   0  0  0  0  0  0  0  0  0  0  0  0
  -25.6124    2.9937    0.0000 C   0  0  0  0  0  0  0  0  0  0  0  0
  -25.3950    4.4778    0.0000 C   0  0  0  0  0  0  0  0  0  0  0  0
  -25.0917    5.9468    0.0000 C   0  0  0  0  0  0  0  0  0  0  0  0
  -24.7034    7.3957    0.0000 C   0  0  0  0  0  0  0  0  0  0  0  0
  -24.2316    8.8196    0.0000 C   0  0  0  0  0  0  0  0  0  0  0  0
  -23.6778   10.2136    0.0000 C   0  0  0  0  0  0  0  0  0  0  0  0
  -23.0439   11.5731    0.0000 C   0  0  0  0  0  0  0  0  0  0  0  0
  -22.3320   12.8934    0.0000 C   0  0  0  0  0  0  0  0  0  0  0  0
  -21.5445   14.1700    0.0000 C   0  0  0  0  0  0  0  0  0  0  0  0
  -20.6841   15.3988    0.0000 C   0  0  0  0  0  0  0  0  0  0  0  0
  -19.7538   16.5754    0.0000 C   0  0  0  0  0  0  0  0  0  0  0  0
  -18.7566   17.6959    0.0000 C   0  0  0  0  0  0  0  0  0  0  0  0
  -17.6959   18.7566    0.0000 C   0  0  0  0  0  0  0  0  0  0  0  0
  -16.5754   19.7538    0.0000 C   0  0  0  0  0  0  0  0  0  0  0  0
  -15.3988   20.6841    0.0000 C   0  0  0  0  0  0  0  0  0  0  0  0
  -14.1700   21.5445    0.0000 C   0  0  0  0  0  0  0  0  0  0  0  0
  -12.8934   22.3320    0.0000 C   0  0  0  0  0  0  0  0  0  0  0  0
  -11.5731   23.0439    0.0000 C   0  0  0  0  0  0  0  0  0  0  0  0
  -10.2136   23.6778    0.0000 C   0  0  0  0  0  0  0  0  0  0  0  0
   -8.8196   24.2316    0.0000 C   0  0  0  0  0  0  0  0  0  0  0  0
   -7.3957   24.7034    0.0000 C   0  0  0  0  0  0  0  0  0  0  0  0
   -5.9468   25.0917    0.0000 C   0  0  0  0  0  0  0  0  0  0  0  0
   -4.4778   25.3950    0.0000 C   0  0  0  0  0  0  0  0  0  0  0  0
   -2.9937   25.6124    0.0000 C   0  0  0  0  0  0  0  0  0  0  0  0
   -1.4994   25.7431    0.0000 C   0  0  0  0  0  0  0  0  0  0  0  0
    0.0000   25.7867    0.0000 C   0  0  0  0  0  0  0  0  0  0  0  0
    1.4994   25.7431    0.0000 C   0  0  0  0  0  0  0  0  0  0  0  0
    2.9937   25.6124    0.0000 C   0  0  0  0  0  0  0  0  0  0  0  0
    4.4778   25.3950    0.0000 C   0  0  0  0  0  0  0  0  0  0  0  0
    5.9468   25.0917    0.0000 C   0  0  0  0  0  0  0  0  0  0  0  0
    7.3957   24.7034    0.0000 C   0  0  0  0  0  0  0  0  0  0  0  0
    8.8196   24.2316    0.0000 C   0  0  0  0  0  0  0  0  0  0  0  0
   10.2136   23.6778    0.0000 C   0  0  0  0  0  0  0  0  0  0  0  0
   11.5731   23.0439    0.0000 C   0  0  0  0  0  0  0  0  0  0  0  0
   12.8934   22.3320    0.0000 C   0  0  0  0  0  0  0  0  0  0  0  0
   14.1700   21.5445    0.0000 C   0  0  0  0  0  0  0  0  0  0  0  0
   15.3988   20.6841    0.0000 C   0  0  0  0  0  0  0  0  0  0  0  0
   16.5754   19.7538    0.0000 C   0  0  0  0  0  0  0  0  0  0  0  0
   17.6959   18.7566    0.0000 C   0  0  0  0  0  0  0  0  0  0  0  0
   18.7566   17.6959    0.0000 C   0  0  0  0  0  0  0  0  0  0  0  0
   19.7538   16.5754    0.0000 C   0  0  0  0  0  0  0  0  0  0  0  0
   20.6841   15.3988    0.0000 C   0  0  0  0  0  0  0  0  0  0  0  0
   21.5445   14.1700    0.0000 C   0  0  0  0  0  0  0  0  0  0  0  0
   22.3320   12.8934    0.0000 C   0  0  0  0  0  0  0  0  0  0  0  0
   23.0439   11.5731    0.0000 C   0  0  0  0  0  0  0  0  0  0  0  0
   23.6778   10.2136    0.0000 C   0  0  0  0  0  0  0  0  0  0  0  0
   24.2316    8.8196    0.0000 C   0  0  0  0  0  0  0  0  0  0  0  0
   24.7034    7.3957    0.0000 C   0  0  0  0  0  0  0  0  0  0  0  0
   25.0917    5.9468    0.0000 C   0  0  0  0  0  0  0  0  0  0  0  0
   25.3950    4.4778    0.0000 C   0  0  0  0  0  0  0  0  0  0  0  0
   25.6124    2.9937    0.0000 C   0  0  0  0  0  0  0  0  0  0  0  0
   25.7431    1.4994    0.0000 C   0  0  0  0  0  0  0  0  0  0  0  0
  1  2  1  0
  2  3  2  0
  3  4  1  0
  4  5  1  0
  5  6  1  0
  6  7  1  0
  7  8  1  0
  8  9  1  0
  9 10  1  0
 10 11  1  0
 11 12  1  0
 12 13  1  0
 13 14  1  0
 14 15  1  0
 15 16  1  0
 16 17  1  0
 17 18  1  0
 18 19  1  0
 19 20  1  0
 20 21  1  0
 21 22  1  0
 22 23  1  0
 23 24  1  0
 24 25  1  0
 25 26  1  0
 26 27  1  0
 27 28  1  0
 28 29  1  0
 29 30  1  0
 30 31  1  0
 31 32  1  0
 32 33  1  0
 33 34  1  0
 34 35  1  0
 35 36  1  0
 36 37  1  0
 37 38  1  0
 38 39  1  0
 39 40  1  0
 40 41  1  0
 41 42  1  0
 42 43  1  0
 43 44  1  0
 44 45  1  0
 45 46  1  0
 46 47  1  0
 47 48  1  0
 48 49  1  0
 49 50  1  0
 50 51  1  0
 51 52  1  0
 52 53  1  0
 53 54  1  0
 54 55  1  0
 55 56  1  0
 56 57  1  0
 57 58  1  0
 58 59  1  0
 59 60  1  0
 60 61  1  0
 61 62  1  0
 62 63  1  0
 63 64  1  0
 64 65  1  0
 65 66  1  0
 66 67  1  0
 67 68  1  0
 68 69  1  0
 69 70  1  0
 70 71  1  0
 71 72  1  0
 72 73  1  0
 73 74  1  0
 74 75  1  0
 75 76  1  0
 76 77  1  0
 77 78  1  0
 78 79  1  0
 79 80  1  0
 80 81  1  0
 81 82  1  0
 82 83  1  0
 83 84  1  0
 84 85  1  0
 85 86  1  0
 86 87  1  0
 87 88  1  0
 88 89  1  0
 89 90  1  0
 90 91  1  0
 91 92  1  0
 92 93  1  0
 93 94  1  0
 94 95  1  0
 95 96  1  0
 96 97  1  0
 97 98  1  0
 98 99  1  0
 99100  1  0
100101  1  0
101102  1  0
102103  1  0
103104  1  0
104105  1  0
105106  1  0
106107  1  0
107108  1  0
108109  1  0
109  2  1  0
M  END
>  <Title>  (194) 
idAAFNgen8

$$$$

     RDKit          2D

 55 62  0  0  0  0  0  0  0  0999 V2000
    2.7729  -13.6903    0.0000 C   0  0  0  0  0  0  0  0  0  0  0  0
    2.1989  -12.3044    0.0000 C   0  0  0  0  0  0  0  0  0  0  0  0
    3.4979  -11.5544    0.0000 C   0  0  0  0  0  0  0  0  0  0  0  0
    4.5586  -10.4938    0.0000 C   0  0  0  0  0  0  0  0  0  0  0  0
    5.3086   -9.1947    0.0000 C   0  0  0  0  0  0  0  0  0  0  0  0
    5.6968   -7.7459    0.0000 C   0  0  0  0  0  0  0  0  0  0  0  0
    5.6968   -6.2459    0.0000 C   0  0  0  0  0  0  0  0  0  0  0  0
    5.3086   -4.7970    0.0000 C   0  0  0  0  0  0  0  0  0  0  0  0
    4.5586   -3.4979    0.0000 C   0  0  0  0  0  0  0  0  0  0  0  0
    3.4979   -2.4373    0.0000 C   0  0  0  0  0  0  0  0  0  0  0  0
    2.1989   -1.6873    0.0000 C   0  0  0  0  0  0  0  0  0  0  0  0
    0.7500   -1.2990    0.0000 C   0  0  0  0  0  0  0  0  0  0  0  0
    1.5000    0.0000    0.0000 C   0  0  0  0  0  0  0  0  0  0  0  0
    0.7500    1.2990    0.0000 C   0  0  0  0  0  0  0  0  0  0  0  0
   -0.7500    1.2990    0.0000 C   0  0  0  0  0  0  0  0  0  0  0  0
   -1.5000    0.0000    0.0000 C   0  0  0  0  0  0  0  0  0  0  0  0
   -0.7500   -1.2990    0.0000 C   0  0  0  0  0  0  0  0  0  0  0  0
   -2.1989   -1.6873    0.0000 C   0  0  0  0  0  0  0  0  0  0  0  0
   -2.1989   -0.1873    0.0000 C   0  0  0  0  0  0  0  0  0  0  0  0
   -3.4979    0.5627    0.0000 C   0  0  0  0  0  0  0  0  0  0  0  0
   -4.7970   -0.1873    0.0000 C   0  0  0  0  0  0  0  0  0  0  0  0
   -4.7970   -1.6873    0.0000 C   0  0  0  0  0  0  0  0  0  0  0  0
   -3.4979   -2.4373    0.0000 C   0  0  0  0  0  0  0  0  0  0  0  0
   -4.5586   -3.4979    0.0000 C   0  0  0  0  0  0  0  0  0  0  0  0
   -5.3086   -2.1989    0.0000 C   0  0  0  0  0  0  0  0  0  0  0  0
   -6.8086   -2.1989    0.0000 C   0  0  0  0  0  0  0  0  0  0  0  0
   -7.5586   -3.4979    0.0000 C   0  0  0  0  0  0  0  0  0  0  0  0
   -6.8086   -4.7970    0.0000 C   0  0  0  0  0  0  0  0  0  0  0  0
   -5.3086   -4.7970    0.0000 C   0  0  0  0  0  0  0  0  0  0  0  0
   -5.6968   -6.2459    0.0000 C   0  0  0  0  0  0  0  0  0  0  0  0
   -6.9959   -5.4959    0.0000 C   0  0  0  0  0  0  0  0  0  0  0  0
   -8.2949   -6.2459    0.0000 C   0  0  0  0  0  0  0  0  0  0  0  0
   -8.2949   -7.7459    0.0000 C   0  0  0  0  0  0  0  0  0  0  0  0
   -6.9959   -8.4959    0.0000 C   0  0  0  0  0  0  0  0  0  0  0  0
   -5.6968   -7.7459    0.0000 C   0  0  0  0  0  0  0  0  0  0  0  0
   -5.3086   -9.1947    0.0000 C   0  0  0  0  0  0  0  0  0  0  0  0
   -6.8086   -9.1947    0.0000 C   0  0  0  0  0  0  0  0  0  0  0  0
   -7.5586  -10.4938    0.0000 C   0  0  0  0  0  0  0  0  0  0  0  0
   -6.8086  -11.7928    0.0000 C   0  0  0  0  0  0  0  0  0  0  0  0
   -5.3086  -11.7928    0.0000 C   0  0  0  0  0  0  0  0  0  0  0  0
   -4.5586  -10.4938    0.0000 C   0  0  0  0  0  0  0  0  0  0  0  0
   -3.4979  -11.5544    0.0000 C   0  0  0  0  0  0  0  0  0  0  0  0
   -4.7970  -12.3044    0.0000 C   0  0  0  0  0  0  0  0  0  0  0  0
   -4.7970  -13.8044    0.0000 C   0  0  0  0  0  0  0  0  0  0  0  0
   -3.4979  -14.5544    0.0000 C   0  0  0  0  0  0  0  0  0  0  0  0
   -2.1989  -13.8044    0.0000 C   0  0  0  0  0  0  0  0  0  0  0  0
   -2.1989  -12.3044    0.0000 C   0  0  0  0  0  0  0  0  0  0  0  0
   -0.7500  -12.6927    0.0000 C   0  0  0  0  0  0  0  0  0  0  0  0
   -1.0028  -14.0212    0.0000 C   0  0  0  0  0  0  0  0  0  0  0  0
   -0.8042  -14.8914    0.0000 C   0  0  0  0  0  0  0  0  0  0  0  0
    0.0000  -15.2786    0.0000 C   0  0  0  0  0  0  0  0  0  0  0  0
    0.8042  -14.8914    0.0000 C   0  0  0  0  0  0  0  0  0  0  0  0
    2.5242  -16.2630    0.0000 O   0  0  0  0  0  0  0  0  0  0  0  0
    1.0028  -14.0212    0.0000 C   0  0  0  0  0  0  0  0  0  0  0  0
    0.7500  -12.6927    0.0000 C   0  0  0  0  0  0  0  0  0  0  0  0
  1  2  1  0
  2  3  2  0
  3  4  1  0
  4  5  1  0
  5  6  1  0
  6  7  1  0
  7  8  2  0
  8  9  1  0
  9 10  2  0
 10 11  1  0
 11 12  1  0
 12 13  2  0
 13 14  1  0
 14 15  2  0
 15 16  1  0
 16 17  2  0
 17 18  1  0
 18 19  2  0
 19 20  1  0
 20 21  2  0
 21 22  1  0
 22 23  2  0
 23 24  1  0
 24 25  2  0
 25 26  1  0
 26 27  2  0
 27 28  1  0
 28 29  2  0
 29 30  1  0
 30 31  2  0
 31 32  1  0
 32 33  2  0
 33 34  1  0
 34 35  2  0
 35 36  1  0
 36 37  2  0
 37 38  1  0
 38 39  2  0
 39 40  1  0
 40 41  2  0
 41 42  1  0
 42 43  2  0
 43 44  1  0
 44 45  2  0
 45 46  1  0
 46 47  2  0
 47 48  1  0
 48 49  2  0
 49 50  1  0
 50 51  1  0
 51 52  1  0
 52 53  1  0
 52 54  1  0
 54 55  2  0
 55  2  1  0
 17 12  1  0
 23 18  1  0
 29 24  1  0
 35 30  1  0
 41 36  1  0
 47 42  1  0
 55 48  1  0
M  END
>  <Title>  (195) 
idAAFOgen8

$$$$

     RDKit          2D

  7  6  0  0  0  0  0  0  0  0999 V2000
    0.0000    0.0000    0.0000 C   0  0  0  0  0  0  0  0  0  0  0  0
    1.2990    0.7500    0.0000 C   0  0  0  0  0  0  0  0  0  0  0  0
    2.5981   -0.0000    0.0000 C   0  0  0  0  0  0  0  0  0  0  0  0
    3.8971    0.7500    0.0000 C   0  0  0  0  0  0  0  0  0  0  0  0
    5.1962   -0.0000    0.0000 C   0  0  0  0  0  0  0  0  0  0  0  0
    6.4952    0.7500    0.0000 C   0  0  0  0  0  0  0  0  0  0  0  0
    5.1962   -1.5000    0.0000 O   0  0  0  0  0  0  0  0  0  0  0  0
  1  2  1  0
  2  3  2  3
  3  4  1  0
  4  5  1  0
  5  6  1  0
  5  7  2  0
M  END
>  <Title>  (196) 
idAAFPgen8

$$$$

     RDKit          2D

 75 75  0  0  0  0  0  0  0  0999 V2000
   19.0305   -3.0391    0.0000 C   0  0  0  0  0  0  0  0  0  0  0  0
   17.7430   -2.2695    0.0000 C   0  0  0  0  0  0  0  0  0  0  0  0
   17.7657   -0.7696    0.0000 C   0  0  0  0  0  0  0  0  0  0  0  0
   16.4782    0.0000    0.0000 C   0  0  0  0  0  0  0  0  0  0  0  0
   17.7657    0.7696    0.0000 C   0  0  0  0  0  0  0  0  0  0  0  0
   16.4100    1.4984    0.0000 C   0  0  0  0  0  0  0  0  0  0  0  0
   16.2057    2.9845    0.0000 C   0  0  0  0  0  0  0  0  0  0  0  0
   15.8672    4.4458    0.0000 C   0  0  0  0  0  0  0  0  0  0  0  0
   15.3972    5.8702    0.0000 C   0  0  0  0  0  0  0  0  0  0  0  0
   14.7996    7.2460    0.0000 C   0  0  0  0  0  0  0  0  0  0  0  0
   14.0793    8.5618    0.0000 C   0  0  0  0  0  0  0  0  0  0  0  0
   13.2424    9.8067    0.0000 C   0  0  0  0  0  0  0  0  0  0  0  0
   12.2958   10.9702    0.0000 C   0  0  0  0  0  0  0  0  0  0  0  0
   11.2473   12.0429    0.0000 C   0  0  0  0  0  0  0  0  0  0  0  0
   10.1056   13.0158    0.0000 C   0  0  0  0  0  0  0  0  0  0  0  0
    8.8801   13.8808    0.0000 C   0  0  0  0  0  0  0  0  0  0  0  0
    7.5811   14.6308    0.0000 C   0  0  0  0  0  0  0  0  0  0  0  0
    6.2192   15.2595    0.0000 C   0  0  0  0  0  0  0  0  0  0  0  0
    4.8058   15.7619    0.0000 C   0  0  0  0  0  0  0  0  0  0  0  0
    3.3526   16.1336    0.0000 C   0  0  0  0  0  0  0  0  0  0  0  0
    1.8716   16.3716    0.0000 C   0  0  0  0  0  0  0  0  0  0  0  0
    0.3751   16.4740    0.0000 C   0  0  0  0  0  0  0  0  0  0  0  0
   -1.1245   16.4398    0.0000 C   0  0  0  0  0  0  0  0  0  0  0  0
   -2.6148   16.2694    0.0000 C   0  0  0  0  0  0  0  0  0  0  0  0
   -4.0834   15.9643    0.0000 C   0  0  0  0  0  0  0  0  0  0  0  0
   -5.5182   15.5268    0.0000 C   0  0  0  0  0  0  0  0  0  0  0  0
   -6.9073   14.9607    0.0000 C   0  0  0  0  0  0  0  0  0  0  0  0
   -8.2391   14.2706    0.0000 C   0  0  0  0  0  0  0  0  0  0  0  0
   -9.5027   13.4622    0.0000 C   0  0  0  0  0  0  0  0  0  0  0  0
  -10.6875   12.5423    0.0000 C   0  0  0  0  0  0  0  0  0  0  0  0
  -11.7837   11.5185    0.0000 C   0  0  0  0  0  0  0  0  0  0  0  0
  -12.7823   10.3992    0.0000 C   0  0  0  0  0  0  0  0  0  0  0  0
  -13.6750    9.1938    0.0000 C   0  0  0  0  0  0  0  0  0  0  0  0
  -14.4544    7.9121    0.0000 C   0  0  0  0  0  0  0  0  0  0  0  0
  -15.1140    6.5649    0.0000 C   0  0  0  0  0  0  0  0  0  0  0  0
  -15.6484    5.1634    0.0000 C   0  0  0  0  0  0  0  0  0  0  0  0
  -16.0531    3.7190    0.0000 C   0  0  0  0  0  0  0  0  0  0  0  0
  -16.3248    2.2438    0.0000 C   0  0  0  0  0  0  0  0  0  0  0  0
  -16.4612    0.7500    0.0000 C   0  0  0  0  0  0  0  0  0  0  0  0
  -16.4612   -0.7500    0.0000 C   0  0  0  0  0  0  0  0  0  0  0  0
  -16.3248   -2.2438    0.0000 C   0  0  0  0  0  0  0  0  0  0  0  0
  -16.0531   -3.7190    0.0000 C   0  0  0  0  0  0  0  0  0  0  0  0
  -15.6484   -5.1634    0.0000 C   0  0  0  0  0  0  0  0  0  0  0  0
  -15.1140   -6.5649    0.0000 C   0  0  0  0  0  0  0  0  0  0  0  0
  -14.4544   -7.9121    0.0000 C   0  0  0  0  0  0  0  0  0  0  0  0
  -13.6750   -9.1938    0.0000 C   0  0  0  0  0  0  0  0  0  0  0  0
  -12.7823  -10.3992    0.0000 C   0  0  0  0  0  0  0  0  0  0  0  0
  -11.7837  -11.5185    0.0000 C   0  0  0  0  0  0  0  0  0  0  0  0
  -10.6875  -12.5423    0.0000 C   0  0  0  0  0  0  0  0  0  0  0  0
   -9.5027  -13.4622    0.0000 C   0  0  0  0  0  0  0  0  0  0  0  0
   -8.2391  -14.2706    0.0000 C   0  0  0  0  0  0  0  0  0  0  0  0
   -6.9073  -14.9607    0.0000 C   0  0  0  0  0  0  0  0  0  0  0  0
   -5.5182  -15.5268    0.0000 C   0  0  0  0  0  0  0  0  0  0  0  0
   -4.0834  -15.9643    0.0000 C   0  0  0  0  0  0  0  0  0  0  0  0
   -2.6148  -16.2694    0.0000 C   0  0  0  0  0  0  0  0  0  0  0  0
   -1.1245  -16.4398    0.0000 C   0  0  0  0  0  0  0  0  0  0  0  0
    0.3751  -16.4740    0.0000 C   0  0  0  0  0  0  0  0  0  0  0  0
    1.8716  -16.3716    0.0000 C   0  0  0  0  0  0  0  0  0  0  0  0
    3.3526  -16.1336    0.0000 C   0  0  0  0  0  0  0  0  0  0  0  0
    4.8058  -15.7619    0.0000 C   0  0  0  0  0  0  0  0  0  0  0  0
    6.2192  -15.2595    0.0000 C   0  0  0  0  0  0  0  0  0  0  0  0
    7.5811  -14.6308    0.0000 C   0  0  0  0  0  0  0  0  0  0  0  0
    8.8801  -13.8808    0.0000 C   0  0  0  0  0  0  0  0  0  0  0  0
   10.1056  -13.0158    0.0000 C   0  0  0  0  0  0  0  0  0  0  0  0
   11.2473  -12.0429    0.0000 C   0  0  0  0  0  0  0  0  0  0  0  0
   12.2958  -10.9702    0.0000 C   0  0  0  0  0  0  0  0  0  0  0  0
   13.2424   -9.8067    0.0000 C   0  0  0  0  0  0  0  0  0  0  0  0
   14.0793   -8.5618    0.0000 C   0  0  0  0  0  0  0  0  0  0  0  0
   14.7996   -7.2460    0.0000 C   0  0  0  0  0  0  0  0  0  0  0  0
   15.3972   -5.8702    0.0000 C   0  0  0  0  0  0  0  0  0  0  0  0
   15.8672   -4.4458    0.0000 C   0  0  0  0  0  0  0  0  0  0  0  0
   17.3115   -4.8505    0.0000 C   0  0  0  0  0  0  0  0  0  0  0  0
   16.2057   -2.9845    0.0000 C   0  0  0  0  0  0  0  0  0  0  0  0
   17.6809   -3.2561    0.0000 O   0  0  0  0  0  0  0  0  0  0  0  0
   16.4100   -1.4984    0.0000 C   0  0  0  0  0  0  0  0  0  0  0  0
  1  2  1  0
  2  3  1  0
  3  4  1  0
  4  5  1  0
  4  6  1  0
  6  7  1  0
  7  8  1  0
  8  9  1  0
  9 10  1  0
 10 11  1  0
 11 12  1  0
 12 13  1  0
 13 14  1  0
 14 15  1  0
 15 16  1  0
 16 17  1  0
 17 18  1  0
 18 19  1  0
 19 20  1  0
 20 21  1  0
 21 22  1  0
 22 23  1  0
 23 24  1  0
 24 25  1  0
 25 26  1  0
 26 27  1  0
 27 28  1  0
 28 29  1  0
 29 30  1  0
 30 31  1  0
 31 32  1  0
 32 33  1  0
 33 34  1  0
 34 35  1  0
 35 36  1  0
 36 37  1  0
 37 38  1  0
 38 39  1  0
 39 40  1  0
 40 41  1  0
 41 42  1  0
 42 43  1  0
 43 44  1  0
 44 45  1  0
 45 46  1  0
 46 47  1  0
 47 48  1  0
 48 49  1  0
 49 50  1  0
 50 51  1  0
 51 52  1  0
 52 53  1  0
 53 54  1  0
 54 55  1  0
 55 56  1  0
 56 57  1  0
 57 58  1  0
 58 59  1  0
 59 60  1  0
 60 61  1  0
 61 62  1  0
 62 63  1  0
 63 64  1  0
 64 65  1  0
 65 66  1  0
 66 67  1  0
 67 68  1  0
 68 69  1  0
 69 70  1  0
 70 71  1  0
 71 72  1  0
 71 73  1  0
 73 74  2  0
 73 75  1  0
 75  4  1  0
M  END
>  <Title>  (197) 
idAAFQgen8

$$$$

     RDKit          2D

 38 42  0  0  0  0  0  0  0  0999 V2000
   -4.5772    0.6656    0.0000 C   0  0  0  0  0  0  0  0  0  0  0  0
   -3.9830   -0.7118    0.0000 C   0  0  0  0  0  0  0  0  0  0  0  0
   -2.4932   -0.8859    0.0000 C   0  0  0  0  0  0  0  0  0  0  0  0
   -1.8991   -2.2632    0.0000 C   0  0  0  0  0  0  0  0  0  0  0  0
   -3.3889   -2.4374    0.0000 C   0  0  0  0  0  0  0  0  0  0  0  0
   -2.1595   -3.7404    0.0000 C   0  0  0  0  0  0  0  0  0  0  0  0
   -1.4095   -5.0395    0.0000 C   0  0  0  0  0  0  0  0  0  0  0  0
   -2.3737   -6.1885    0.0000 N   0  0  0  0  0  0  0  0  0  0  0  0
   -3.8509   -5.9281    0.0000 C   0  0  0  0  0  0  0  0  0  0  0  0
   -4.3640   -4.5185    0.0000 O   0  0  0  0  0  0  0  0  0  0  0  0
   -4.8151   -7.0771    0.0000 C   0  0  0  0  0  0  0  0  0  0  0  0
   -4.4522   -8.5326    0.0000 C   0  0  0  0  0  0  0  0  0  0  0  0
   -5.7243   -9.3275    0.0000 C   0  0  0  0  0  0  0  0  0  0  0  0
   -6.8734   -8.3633    0.0000 C   0  0  0  0  0  0  0  0  0  0  0  0
   -8.3288   -8.7262    0.0000 C   0  0  0  0  0  0  0  0  0  0  0  0
   -8.7423  -10.1680    0.0000 O   0  0  0  0  0  0  0  0  0  0  0  0
   -9.3708   -7.6471    0.0000 N   0  0  0  0  0  0  0  0  0  0  0  0
  -10.8262   -8.0100    0.0000 C   0  0  0  0  0  0  0  0  0  0  0  0
  -11.8682   -6.9310    0.0000 N   0  0  0  0  0  0  0  0  0  0  0  0
  -13.3237   -7.2939    0.0000 N   0  0  0  0  0  0  0  0  0  0  0  0
  -13.7371   -8.7358    0.0000 N   0  0  0  0  0  0  0  0  0  0  0  0
  -12.6951   -9.8148    0.0000 N   0  0  0  0  0  0  0  0  0  0  0  0
  -11.2397   -9.4519    0.0000 N   0  0  0  0  0  0  0  0  0  0  0  0
   -6.3115   -6.9725    0.0000 C   0  0  0  0  0  0  0  0  0  0  0  0
   -7.1063   -5.7004    0.0000 O   0  0  0  0  0  0  0  0  0  0  0  0
   -0.0000   -5.5525    0.0000 C   0  0  0  0  0  0  0  0  0  0  0  0
    1.4095   -5.0395    0.0000 C   0  0  0  0  0  0  0  0  0  0  0  0
    2.1595   -3.7404    0.0000 C   0  0  0  0  0  0  0  0  0  0  0  0
    3.6449   -3.9492    0.0000 C   0  0  0  0  0  0  0  0  0  0  0  0
    4.3025   -2.6010    0.0000 C   0  0  0  0  0  0  0  0  0  0  0  0
    3.2235   -1.5590    0.0000 C   0  0  0  0  0  0  0  0  0  0  0  0
    1.8991   -2.2632    0.0000 C   0  0  0  0  0  0  0  0  0  0  0  0
    0.7500   -1.2990    0.0000 C   0  0  0  0  0  0  0  0  0  0  0  0
    1.5000    0.0000    0.0000 C   0  0  0  0  0  0  0  0  0  0  0  0
    0.7500    1.2990    0.0000 C   0  0  0  0  0  0  0  0  0  0  0  0
   -0.7500    1.2990    0.0000 C   0  0  0  0  0  0  0  0  0  0  0  0
   -1.5000    0.0000    0.0000 C   0  0  0  0  0  0  0  0  0  0  0  0
   -0.7500   -1.2990    0.0000 C   0  0  0  0  0  0  0  0  0  0  0  0
  1  2  1  0
  2  3  1  0
  3  4  1  0
  4  5  1  0
  4  6  1  0
  6  7  1  0
  7  8  1  0
  8  9  1  0
  9 10  2  0
  9 11  1  0
 11 12  1  0
 12 13  1  0
 13 14  1  0
 14 15  1  0
 15 16  2  0
 15 17  1  0
 17 18  1  0
 18 19  2  0
 19 20  1  0
 20 21  2  0
 21 22  1  0
 22 23  2  0
 14 24  1  0
 24 25  2  0
  7 26  2  0
 26 27  1  0
 27 28  2  0
 28 29  1  0
 29 30  2  0
 30 31  1  0
 31 32  2  0
 32 33  1  0
 33 34  2  0
 34 35  1  0
 35 36  2  0
 36 37  1  0
 37 38  2  0
 38  4  1  0
 24 11  1  0
 32 28  1  0
 38 33  1  0
 23 18  1  0
M  END
>  <Title>  (198) 
idAAFRgen8

$$$$

     RDKit          2D

  9  9  0  0  0  0  0  0  0  0999 V2000
    3.0000    0.0000    0.0000 C   0  0  0  0  0  0  0  0  0  0  0  0
    1.5000    0.0000    0.0000 C   0  0  0  0  0  0  0  0  0  0  0  0
    0.7500   -1.2990    0.0000 C   0  0  0  0  0  0  0  0  0  0  0  0
   -0.7500   -1.2990    0.0000 C   0  0  0  0  0  0  0  0  0  0  0  0
   -1.5000   -2.5981    0.0000 O   0  0  0  0  0  0  0  0  0  0  0  0
   -1.5000    0.0000    0.0000 C   0  0  0  0  0  0  0  0  0  0  0  0
   -3.0000    0.0000    0.0000 O   0  0  0  0  0  0  0  0  0  0  0  0
   -0.7500    1.2990    0.0000 C   0  0  0  0  0  0  0  0  0  0  0  0
    0.7500    1.2990    0.0000 C   0  0  0  0  0  0  0  0  0  0  0  0
  1  2  1  0
  2  3  2  0
  3  4  1  0
  4  5  1  0
  4  6  1  0
  6  7  1  0
  6  8  1  0
  8  9  2  0
  9  2  1  0
M  END
>  <Title>  (199) 
idAAFSgen8

$$$$

     RDKit          2D

 32 35  0  0  0  0  0  0  0  0999 V2000
   -3.7860   -5.5823    0.0000 C   0  0  0  0  0  0  0  0  0  0  0  0
   -2.4215   -4.9592    0.0000 C   0  0  0  0  0  0  0  0  0  0  0  0
   -1.4392   -6.0928    0.0000 C   0  0  0  0  0  0  0  0  0  0  0  0
   -0.0000   -6.5154    0.0000 C   0  0  0  0  0  0  0  0  0  0  0  0
    1.4392   -6.0928    0.0000 C   0  0  0  0  0  0  0  0  0  0  0  0
    2.2502   -7.3547    0.0000 C   0  0  0  0  0  0  0  0  0  0  0  0
    3.0612   -8.6166    0.0000 N   0  0  0  0  0  0  0  0  0  0  0  0
    2.4215   -4.9592    0.0000 C   0  0  0  0  0  0  0  0  0  0  0  0
    2.6350   -3.4744    0.0000 C   0  0  0  0  0  0  0  0  0  0  0  0
    2.0119   -2.1100    0.0000 C   0  0  0  0  0  0  0  0  0  0  0  0
    3.1455   -1.1277    0.0000 C   0  0  0  0  0  0  0  0  0  0  0  0
    4.5630   -1.6183    0.0000 C   0  0  0  0  0  0  0  0  0  0  0  0
    4.8469   -3.0912    0.0000 O   0  0  0  0  0  0  0  0  0  0  0  0
    5.6966   -0.6360    0.0000 N   0  0  0  0  0  0  0  0  0  0  0  0
    7.1141   -1.1266    0.0000 C   0  0  0  0  0  0  0  0  0  0  0  0
    7.3980   -2.5995    0.0000 N   0  0  0  0  0  0  0  0  0  0  0  0
    8.8155   -3.0901    0.0000 N   0  0  0  0  0  0  0  0  0  0  0  0
    9.9491   -2.1078    0.0000 N   0  0  0  0  0  0  0  0  0  0  0  0
    9.6653   -0.6349    0.0000 N   0  0  0  0  0  0  0  0  0  0  0  0
    8.2478   -0.1443    0.0000 N   0  0  0  0  0  0  0  0  0  0  0  0
    0.7500   -1.2990    0.0000 C   0  0  0  0  0  0  0  0  0  0  0  0
    1.5000    0.0000    0.0000 C   0  0  0  0  0  0  0  0  0  0  0  0
    0.7500    1.2990    0.0000 C   0  0  0  0  0  0  0  0  0  0  0  0
   -0.7500    1.2990    0.0000 C   0  0  0  0  0  0  0  0  0  0  0  0
   -1.5000    0.0000    0.0000 C   0  0  0  0  0  0  0  0  0  0  0  0
   -0.7500   -1.2990    0.0000 C   0  0  0  0  0  0  0  0  0  0  0  0
   -2.0119   -2.1100    0.0000 C   0  0  0  0  0  0  0  0  0  0  0  0
   -2.8820   -0.8881    0.0000 C   0  0  0  0  0  0  0  0  0  0  0  0
   -4.3752   -1.0307    0.0000 C   0  0  0  0  0  0  0  0  0  0  0  0
   -4.9983   -2.3952    0.0000 C   0  0  0  0  0  0  0  0  0  0  0  0
   -4.1282   -3.6170    0.0000 C   0  0  0  0  0  0  0  0  0  0  0  0
   -2.6350   -3.4744    0.0000 C   0  0  0  0  0  0  0  0  0  0  0  0
  1  2  1  0
  2  3  2  0
  3  4  1  0
  4  5  1  0
  5  6  1  0
  6  7  3  0
  5  8  1  0
  8  9  2  0
  9 10  1  0
 10 11  1  0
 11 12  1  0
 12 13  2  0
 12 14  1  0
 14 15  1  0
 15 16  2  0
 16 17  1  0
 17 18  2  0
 18 19  1  0
 19 20  2  0
 10 21  1  0
 21 22  2  0
 22 23  1  0
 23 24  2  0
 24 25  1  0
 25 26  2  0
 26 27  1  0
 27 28  2  0
 28 29  1  0
 29 30  2  0
 30 31  1  0
 31 32  2  0
 32  2  1  0
 20 15  1  0
 26 21  1  0
 32 27  1  0
M  END
>  <Title>  (200) 
idAAFTgen8

$$$$

     RDKit          2D

 14 14  0  0  0  0  0  0  0  0999 V2000
    4.6339    0.0000    0.0000 C   0  0  0  0  0  0  0  0  0  0  0  0
    3.1339    0.0000    0.0000 C   0  0  0  0  0  0  0  0  0  0  0  0
    2.7750    1.4564    0.0000 C   0  0  0  0  0  0  0  0  0  0  0  0
    1.7803    2.5792    0.0000 C   0  0  0  0  0  0  0  0  0  0  0  0
    0.3778    3.1111    0.0000 C   0  0  0  0  0  0  0  0  0  0  0  0
   -1.1113    2.9303    0.0000 C   0  0  0  0  0  0  0  0  0  0  0  0
   -2.3458    2.0782    0.0000 C   0  0  0  0  0  0  0  0  0  0  0  0
   -3.0429    0.7500    0.0000 C   0  0  0  0  0  0  0  0  0  0  0  0
   -3.0429   -0.7500    0.0000 C   0  0  0  0  0  0  0  0  0  0  0  0
   -2.3458   -2.0782    0.0000 C   0  0  0  0  0  0  0  0  0  0  0  0
   -1.1113   -2.9303    0.0000 C   0  0  0  0  0  0  0  0  0  0  0  0
    0.3778   -3.1111    0.0000 C   0  0  0  0  0  0  0  0  0  0  0  0
    1.7803   -2.5792    0.0000 C   0  0  0  0  0  0  0  0  0  0  0  0
    2.7750   -1.4564    0.0000 C   0  0  0  0  0  0  0  0  0  0  0  0
  1  2  1  0
  2  3  1  0
  3  4  1  0
  4  5  1  0
  5  6  1  0
  6  7  1  0
  7  8  1  0
  8  9  1  0
  9 10  1  0
 10 11  1  0
 11 12  1  0
 12 13  1  0
 13 14  1  0
 14  2  1  0
M  END
>  <Title>  (201) 
idAAFUgen8

$$$$

     RDKit          2D

  9  9  0  0  0  0  0  0  0  0999 V2000
    4.2760   -0.0000    0.0000 N   0  0  0  0  0  0  0  0  0  0  0  0
    2.7760    0.0000    0.0000 C   0  0  0  0  0  0  0  0  0  0  0  0
    1.2760    0.0000    0.0000 C   0  0  0  0  0  0  0  0  0  0  0  0
    0.3943    1.2135    0.0000 C   0  0  0  0  0  0  0  0  0  0  0  0
   -1.0323    0.7500    0.0000 C   0  0  0  0  0  0  0  0  0  0  0  0
   -1.0323   -0.7500    0.0000 C   0  0  0  0  0  0  0  0  0  0  0  0
   -2.2458   -1.6317    0.0000 C   0  0  0  0  0  0  0  0  0  0  0  0
   -3.4593   -2.5134    0.0000 N   0  0  0  0  0  0  0  0  0  0  0  0
    0.3943   -1.2135    0.0000 C   0  0  0  0  0  0  0  0  0  0  0  0
  1  2  3  0
  2  3  1  0
  3  4  1  0
  4  5  1  0
  5  6  1  0
  6  7  1  0
  7  8  3  0
  6  9  1  0
  9  3  1  0
M  END
>  <Title>  (202) 
idAAFVgen8

$$$$

     RDKit          2D

  8  8  0  0  0  0  0  0  0  0999 V2000
    2.7760    0.0000    0.0000 C   0  0  0  0  0  0  0  0  0  0  0  0
    1.2760    0.0000    0.0000 C   0  0  0  0  0  0  0  0  0  0  0  0
    0.3943    1.2135    0.0000 C   0  0  0  0  0  0  0  0  0  0  0  0
   -1.0323    0.7500    0.0000 C   0  0  0  0  0  0  0  0  0  0  0  0
   -2.2458    1.6317    0.0000 C   0  0  0  0  0  0  0  0  0  0  0  0
   -3.4593    2.5134    0.0000 N   0  0  0  0  0  0  0  0  0  0  0  0
   -1.0323   -0.7500    0.0000 C   0  0  0  0  0  0  0  0  0  0  0  0
    0.3943   -1.2135    0.0000 C   0  0  0  0  0  0  0  0  0  0  0  0
  1  2  1  0
  2  3  2  0
  3  4  1  0
  4  5  1  0
  5  6  3  0
  4  7  2  0
  7  8  1  0
  8  2  1  0
M  END
>  <Title>  (203) 
idAAFWgen8

$$$$

     RDKit          2D

 22 24  0  0  0  0  0  0  0  0999 V2000
   -2.5981   -8.1073    0.0000 C   0  0  0  0  0  0  0  0  0  0  0  0
   -1.2990   -7.3573    0.0000 C   0  0  0  0  0  0  0  0  0  0  0  0
    0.0000   -8.1073    0.0000 N   0  0  0  0  0  0  0  0  0  0  0  0
    0.0000   -9.6073    0.0000 C   0  0  0  0  0  0  0  0  0  0  0  0
   -1.2990  -10.3573    0.0000 O   0  0  0  0  0  0  0  0  0  0  0  0
    1.2990  -10.3573    0.0000 C   0  0  0  0  0  0  0  0  0  0  0  0
    2.6694   -9.7472    0.0000 C   0  0  0  0  0  0  0  0  0  0  0  0
    3.6731  -10.8619    0.0000 C   0  0  0  0  0  0  0  0  0  0  0  0
    2.9231  -12.1610    0.0000 C   0  0  0  0  0  0  0  0  0  0  0  0
    1.4558  -11.8491    0.0000 C   0  0  0  0  0  0  0  0  0  0  0  0
   -1.2990   -5.8573    0.0000 N   0  0  0  0  0  0  0  0  0  0  0  0
   -0.0000   -5.1073    0.0000 C   0  0  0  0  0  0  0  0  0  0  0  0
    1.2990   -5.8573    0.0000 O   0  0  0  0  0  0  0  0  0  0  0  0
   -0.0000   -3.6073    0.0000 C   0  0  0  0  0  0  0  0  0  0  0  0
    1.2135   -2.7256    0.0000 C   0  0  0  0  0  0  0  0  0  0  0  0
    0.7500   -1.2990    0.0000 C   0  0  0  0  0  0  0  0  0  0  0  0
    1.5000    0.0000    0.0000 C   0  0  0  0  0  0  0  0  0  0  0  0
    0.7500    1.2990    0.0000 C   0  0  0  0  0  0  0  0  0  0  0  0
   -0.7500    1.2990    0.0000 C   0  0  0  0  0  0  0  0  0  0  0  0
   -1.5000    0.0000    0.0000 C   0  0  0  0  0  0  0  0  0  0  0  0
   -0.7500   -1.2990    0.0000 C   0  0  0  0  0  0  0  0  0  0  0  0
   -1.2135   -2.7256    0.0000 C   0  0  0  0  0  0  0  0  0  0  0  0
  1  2  1  0
  2  3  1  0
  3  4  1  0
  4  5  2  0
  4  6  1  0
  6  7  2  0
  7  8  1  0
  8  9  1  0
  9 10  2  0
  2 11  1  0
 11 12  1  0
 12 13  2  0
 12 14  1  0
 14 15  1  0
 15 16  1  0
 16 17  2  0
 17 18  1  0
 18 19  2  0
 19 20  1  0
 20 21  2  0
 21 22  1  0
 10  6  1  0
 22 14  1  0
 21 16  1  0
M  END
>  <Title>  (204) 
idAAFXgen8

$$$$

     RDKit          2D

 22 23  0  0  0  0  0  0  0  0999 V2000
   -2.5767  -13.8758    0.0000 C   0  0  0  0  0  0  0  0  0  0  0  0
   -1.2064  -13.2657    0.0000 C   0  0  0  0  0  0  0  0  0  0  0  0
   -1.0496  -11.7739    0.0000 C   0  0  0  0  0  0  0  0  0  0  0  0
   -2.2631  -10.8923    0.0000 O   0  0  0  0  0  0  0  0  0  0  0  0
    0.3207  -11.1638    0.0000 N   0  0  0  0  0  0  0  0  0  0  0  0
    0.4775   -9.6721    0.0000 C   0  0  0  0  0  0  0  0  0  0  0  0
    1.8478   -9.0619    0.0000 C   0  0  0  0  0  0  0  0  0  0  0  0
    3.0613   -9.9436    0.0000 O   0  0  0  0  0  0  0  0  0  0  0  0
    2.0046   -7.5702    0.0000 C   0  0  0  0  0  0  0  0  0  0  0  0
    3.3037   -6.8202    0.0000 C   0  0  0  0  0  0  0  0  0  0  0  0
    2.9918   -5.3529    0.0000 C   0  0  0  0  0  0  0  0  0  0  0  0
    1.5000   -5.1962    0.0000 C   0  0  0  0  0  0  0  0  0  0  0  0
    0.7500   -3.8971    0.0000 C   0  0  0  0  0  0  0  0  0  0  0  0
   -0.7500   -3.8971    0.0000 O   0  0  0  0  0  0  0  0  0  0  0  0
    1.5000   -2.5981    0.0000 C   0  0  0  0  0  0  0  0  0  0  0  0
    0.7500   -1.2990    0.0000 C   0  0  0  0  0  0  0  0  0  0  0  0
    1.5000    0.0000    0.0000 N   0  0  0  0  0  0  0  0  0  0  0  0
    0.7500    1.2990    0.0000 N   0  0  0  0  0  0  0  0  0  0  0  0
   -0.7500    1.2990    0.0000 N   0  0  0  0  0  0  0  0  0  0  0  0
   -1.5000    0.0000    0.0000 N   0  0  0  0  0  0  0  0  0  0  0  0
   -0.7500   -1.2990    0.0000 N   0  0  0  0  0  0  0  0  0  0  0  0
    0.8899   -6.5665    0.0000 C   0  0  0  0  0  0  0  0  0  0  0  0
  1  2  1  0
  2  3  1  0
  3  4  2  0
  3  5  1  0
  5  6  1  0
  6  7  1  0
  7  8  2  0
  7  9  1  0
  9 10  1  0
 10 11  1  0
 11 12  1  0
 12 13  1  0
 13 14  2  0
 13 15  1  0
 15 16  1  0
 16 17  2  0
 17 18  1  0
 18 19  2  0
 19 20  1  0
 20 21  2  0
 12 22  1  0
 22  9  1  0
 21 16  1  0
M  END
>  <Title>  (205) 
idAAFYgen8

$$$$

     RDKit          2D

 13 13  0  0  0  0  0  0  0  0999 V2000
    7.5000   -2.5981    0.0000 C   0  0  0  0  0  0  0  0  0  0  0  0
    6.0000   -2.5981    0.0000 C   0  0  0  0  0  0  0  0  0  0  0  0
    5.2500   -1.2990    0.0000 C   0  0  0  0  0  0  0  0  0  0  0  0
    3.7500   -1.2990    0.0000 C   0  0  0  0  0  0  0  0  0  0  0  0
    3.0000   -2.5981    0.0000 O   0  0  0  0  0  0  0  0  0  0  0  0
    3.0000    0.0000    0.0000 N   0  0  0  0  0  0  0  0  0  0  0  0
    1.5000    0.0000    0.0000 C   0  0  0  0  0  0  0  0  0  0  0  0
    0.7500   -1.2990    0.0000 N   0  0  0  0  0  0  0  0  0  0  0  0
   -0.7500   -1.2990    0.0000 N   0  0  0  0  0  0  0  0  0  0  0  0
   -1.5000    0.0000    0.0000 C   0  0  0  0  0  0  0  0  0  0  0  0
   -0.7500    1.2990    0.0000 C   0  0  0  0  0  0  0  0  0  0  0  0
    0.7500    1.2990    0.0000 C   0  0  0  0  0  0  0  0  0  0  0  0
    1.5000    2.5981    0.0000 O   0  0  0  0  0  0  0  0  0  0  0  0
  1  2  1  0
  2  3  2  3
  3  4  1  0
  4  5  2  0
  4  6  1  0
  6  7  1  0
  7  8  2  0
  8  9  1  0
  9 10  2  0
 10 11  1  0
 11 12  2  0
 12 13  1  0
 12  7  1  0
M  END
>  <Title>  (206) 
idAAFZgen8

$$$$

     RDKit          2D

  9  9  0  0  0  0  0  0  0  0999 V2000
    4.5000    0.0000    0.0000 N   0  0  0  0  0  0  0  0  0  0  0  0
    3.0000    0.0000    0.0000 C   0  0  0  0  0  0  0  0  0  0  0  0
    1.5000    0.0000    0.0000 C   0  0  0  0  0  0  0  0  0  0  0  0
    0.7500   -1.2990    0.0000 C   0  0  0  0  0  0  0  0  0  0  0  0
   -0.7500   -1.2990    0.0000 C   0  0  0  0  0  0  0  0  0  0  0  0
   -1.5000    0.0000    0.0000 C   0  0  0  0  0  0  0  0  0  0  0  0
   -3.0000    0.0000    0.0000 O   0  0  0  0  0  0  0  0  0  0  0  0
   -0.7500    1.2990    0.0000 C   0  0  0  0  0  0  0  0  0  0  0  0
    0.7500    1.2990    0.0000 C   0  0  0  0  0  0  0  0  0  0  0  0
  1  2  3  0
  2  3  1  0
  3  4  2  0
  4  5  1  0
  5  6  1  0
  6  7  1  0
  6  8  2  0
  8  9  1  0
  9  3  1  0
M  END
>  <Title>  (207) 
idAAGAgen8

$$$$

     RDKit          2D

 12 12  0  0  0  0  0  0  0  0999 V2000
    3.2286   -0.0000    0.0000 C   0  0  0  0  0  0  0  0  0  0  0  0
    1.7286    0.0000    0.0000 C   0  0  0  0  0  0  0  0  0  0  0  0
    1.0777    1.3515    0.0000 C   0  0  0  0  0  0  0  0  0  0  0  0
   -0.3846    1.6852    0.0000 C   0  0  0  0  0  0  0  0  0  0  0  0
   -0.7184    3.1476    0.0000 O   0  0  0  0  0  0  0  0  0  0  0  0
   -1.5574    0.7500    0.0000 C   0  0  0  0  0  0  0  0  0  0  0  0
   -2.9088    1.4008    0.0000 O   0  0  0  0  0  0  0  0  0  0  0  0
   -1.5574   -0.7500    0.0000 C   0  0  0  0  0  0  0  0  0  0  0  0
   -2.9088   -1.4008    0.0000 O   0  0  0  0  0  0  0  0  0  0  0  0
   -0.3846   -1.6852    0.0000 C   0  0  0  0  0  0  0  0  0  0  0  0
   -0.7184   -3.1476    0.0000 O   0  0  0  0  0  0  0  0  0  0  0  0
    1.0777   -1.3515    0.0000 C   0  0  0  0  0  0  0  0  0  0  0  0
  1  2  1  0
  2  3  2  0
  3  4  1  0
  4  5  1  0
  4  6  1  0
  6  7  1  0
  6  8  1  0
  8  9  1  0
  8 10  1  0
 10 11  1  0
 10 12  2  0
 12  2  1  0
M  END
>  <Title>  (208) 
idAAGBgen8

$$$$

     RDKit          2D

  5  4  0  0  0  0  0  0  0  0999 V2000
    0.0000    0.0000    0.0000 C   0  0  0  0  0  0  0  0  0  0  0  0
   -0.0000   -1.5000    0.0000 C   0  0  0  0  0  0  0  0  0  0  0  0
   -0.0000   -3.0000    0.0000 C   0  0  0  0  0  0  0  0  0  0  0  0
    1.2990   -3.7500    0.0000 C   0  0  0  0  0  0  0  0  0  0  0  0
    1.2990   -5.2500    0.0000 C   0  0  0  0  0  0  0  0  0  0  0  0
  1  2  3  0
  2  3  1  0
  3  4  2  3
  4  5  1  0
M  END
>  <Title>  (209) 
idAAGCgen8

$$$$

     RDKit          2D

 56 64  0  0  0  0  0  0  0  0999 V2000
    5.8191   -5.5525    0.0000 C   0  0  0  0  0  0  0  0  0  0  0  0
    4.3191   -5.5525    0.0000 C   0  0  0  0  0  0  0  0  0  0  0  0
    4.0586   -4.0753    0.0000 C   0  0  0  0  0  0  0  0  0  0  0  0
    3.3086   -2.7762    0.0000 C   0  0  0  0  0  0  0  0  0  0  0  0
    2.1595   -1.8121    0.0000 C   0  0  0  0  0  0  0  0  0  0  0  0
    2.9095   -0.5130    0.0000 C   0  0  0  0  0  0  0  0  0  0  0  0
    2.1595    0.7860    0.0000 O   0  0  0  0  0  0  0  0  0  0  0  0
    4.4095   -0.5130    0.0000 N   0  0  0  0  0  0  0  0  0  0  0  0
    5.1595    0.7860    0.0000 C   0  0  0  0  0  0  0  0  0  0  0  0
    6.6595    0.7860    0.0000 N   0  0  0  0  0  0  0  0  0  0  0  0
    7.4095    2.0850    0.0000 N   0  0  0  0  0  0  0  0  0  0  0  0
    6.6595    3.3841    0.0000 N   0  0  0  0  0  0  0  0  0  0  0  0
    5.1595    3.3841    0.0000 N   0  0  0  0  0  0  0  0  0  0  0  0
    4.4095    2.0850    0.0000 N   0  0  0  0  0  0  0  0  0  0  0  0
    0.7500   -1.2990    0.0000 C   0  0  0  0  0  0  0  0  0  0  0  0
    1.5000    0.0000    0.0000 C   0  0  0  0  0  0  0  0  0  0  0  0
    0.7500    1.2990    0.0000 C   0  0  0  0  0  0  0  0  0  0  0  0
   -0.7500    1.2990    0.0000 C   0  0  0  0  0  0  0  0  0  0  0  0
   -1.5000    0.0000    0.0000 C   0  0  0  0  0  0  0  0  0  0  0  0
   -0.7500   -1.2990    0.0000 C   0  0  0  0  0  0  0  0  0  0  0  0
   -2.1595   -1.8121    0.0000 C   0  0  0  0  0  0  0  0  0  0  0  0
   -2.4200   -0.3349    0.0000 C   0  0  0  0  0  0  0  0  0  0  0  0
   -3.8296    0.1782    0.0000 C   0  0  0  0  0  0  0  0  0  0  0  0
   -4.9786   -0.7860    0.0000 C   0  0  0  0  0  0  0  0  0  0  0  0
   -4.7181   -2.2632    0.0000 C   0  0  0  0  0  0  0  0  0  0  0  0
   -3.3086   -2.7762    0.0000 C   0  0  0  0  0  0  0  0  0  0  0  0
   -4.0586   -4.0753    0.0000 C   0  0  0  0  0  0  0  0  0  0  0  0
   -5.2077   -3.1111    0.0000 C   0  0  0  0  0  0  0  0  0  0  0  0
   -6.6172   -3.6241    0.0000 C   0  0  0  0  0  0  0  0  0  0  0  0
   -6.8777   -5.1013    0.0000 C   0  0  0  0  0  0  0  0  0  0  0  0
   -5.7286   -6.0655    0.0000 C   0  0  0  0  0  0  0  0  0  0  0  0
   -4.3191   -5.5525    0.0000 C   0  0  0  0  0  0  0  0  0  0  0  0
   -4.0586   -7.0297    0.0000 C   0  0  0  0  0  0  0  0  0  0  0  0
   -5.5586   -7.0297    0.0000 C   0  0  0  0  0  0  0  0  0  0  0  0
   -6.3086   -8.3287    0.0000 C   0  0  0  0  0  0  0  0  0  0  0  0
   -5.5586   -9.6278    0.0000 C   0  0  0  0  0  0  0  0  0  0  0  0
   -4.0586   -9.6278    0.0000 C   0  0  0  0  0  0  0  0  0  0  0  0
   -3.3086   -8.3287    0.0000 C   0  0  0  0  0  0  0  0  0  0  0  0
   -2.1595   -9.2929    0.0000 C   0  0  0  0  0  0  0  0  0  0  0  0
   -3.3086  -10.2571    0.0000 C   0  0  0  0  0  0  0  0  0  0  0  0
   -3.0481  -11.7343    0.0000 C   0  0  0  0  0  0  0  0  0  0  0  0
   -1.6386  -12.2474    0.0000 C   0  0  0  0  0  0  0  0  0  0  0  0
   -0.4895  -11.2832    0.0000 C   0  0  0  0  0  0  0  0  0  0  0  0
   -0.7500   -9.8060    0.0000 C   0  0  0  0  0  0  0  0  0  0  0  0
    0.7500   -9.8060    0.0000 C   0  0  0  0  0  0  0  0  0  0  0  0
    0.4895  -11.2832    0.0000 C   0  0  0  0  0  0  0  0  0  0  0  0
    1.6386  -12.2474    0.0000 C   0  0  0  0  0  0  0  0  0  0  0  0
    3.0481  -11.7343    0.0000 C   0  0  0  0  0  0  0  0  0  0  0  0
    3.3086  -10.2571    0.0000 C   0  0  0  0  0  0  0  0  0  0  0  0
    2.1595   -9.2929    0.0000 C   0  0  0  0  0  0  0  0  0  0  0  0
    3.3086   -8.3287    0.0000 C   0  0  0  0  0  0  0  0  0  0  0  0
    4.0586   -9.6278    0.0000 C   0  0  0  0  0  0  0  0  0  0  0  0
    5.5586   -9.6278    0.0000 C   0  0  0  0  0  0  0  0  0  0  0  0
    6.3086   -8.3287    0.0000 C   0  0  0  0  0  0  0  0  0  0  0  0
    5.5586   -7.0297    0.0000 C   0  0  0  0  0  0  0  0  0  0  0  0
    4.0586   -7.0297    0.0000 C   0  0  0  0  0  0  0  0  0  0  0  0
  1  2  1  0
  2  3  1  0
  3  4  2  0
  4  5  1  0
  5  6  1  0
  6  7  2  0
  6  8  1  0
  8  9  1  0
  9 10  2  0
 10 11  1  0
 11 12  2  0
 12 13  1  0
 13 14  2  0
  5 15  1  0
 15 16  2  0
 16 17  1  0
 17 18  2  0
 18 19  1  0
 19 20  2  0
 20 21  1  0
 21 22  2  0
 22 23  1  0
 23 24  2  0
 24 25  1  0
 25 26  2  0
 26 27  1  0
 27 28  2  0
 28 29  1  0
 29 30  2  0
 30 31  1  0
 31 32  2  0
 32 33  1  0
 33 34  2  0
 34 35  1  0
 35 36  2  0
 36 37  1  0
 37 38  2  0
 38 39  1  0
 39 40  2  0
 40 41  1  0
 41 42  2  0
 42 43  1  0
 43 44  2  0
 44 45  1  0
 45 46  2  0
 46 47  1  0
 47 48  2  0
 48 49  1  0
 49 50  2  0
 50 51  1  0
 51 52  2  0
 52 53  1  0
 53 54  2  0
 54 55  1  0
 55 56  2  0
 56  2  1  0
 14  9  1  0
 20 15  1  0
 26 21  1  0
 32 27  1  0
 38 33  1  0
 44 39  1  0
 50 45  1  0
 56 51  1  0
M  END
>  <Title>  (210) 
idAAGDgen8

$$$$

     RDKit          2D

 12 12  0  0  0  0  0  0  0  0999 V2000
    3.2286   -0.0000    0.0000 C   0  0  0  0  0  0  0  0  0  0  0  0
    1.7286    0.0000    0.0000 C   0  0  0  0  0  0  0  0  0  0  0  0
    1.0777    1.3515    0.0000 C   0  0  0  0  0  0  0  0  0  0  0  0
   -0.3846    1.6852    0.0000 C   0  0  0  0  0  0  0  0  0  0  0  0
   -1.5574    0.7500    0.0000 C   0  0  0  0  0  0  0  0  0  0  0  0
   -2.9088    1.4008    0.0000 O   0  0  0  0  0  0  0  0  0  0  0  0
   -1.5574   -0.7500    0.0000 C   0  0  0  0  0  0  0  0  0  0  0  0
   -0.3846   -1.6852    0.0000 C   0  0  0  0  0  0  0  0  0  0  0  0
   -0.7184   -3.1476    0.0000 C   0  0  0  0  0  0  0  0  0  0  0  0
   -2.1518   -3.5898    0.0000 C   0  0  0  0  0  0  0  0  0  0  0  0
   -3.5851   -4.0319    0.0000 N   0  0  0  0  0  0  0  0  0  0  0  0
    1.0777   -1.3515    0.0000 C   0  0  0  0  0  0  0  0  0  0  0  0
  1  2  1  0
  2  3  2  0
  3  4  1  0
  4  5  1  0
  5  6  1  0
  5  7  1  0
  7  8  1  0
  8  9  1  0
  9 10  1  0
 10 11  3  0
  8 12  1  0
 12  2  1  0
M  END
>  <Title>  (211) 
idAAGEgen8

$$$$

     RDKit          2D

 26 27  0  0  0  0  0  0  0  0999 V2000
    5.3444    0.0000    0.0000 C   0  0  0  0  0  0  0  0  0  0  0  0
    3.8444    0.0000    0.0000 C   0  0  0  0  0  0  0  0  0  0  0  0
    3.5517   -1.4712    0.0000 C   0  0  0  0  0  0  0  0  0  0  0  0
    2.7184   -2.7184    0.0000 C   0  0  0  0  0  0  0  0  0  0  0  0
    1.4712   -3.5517    0.0000 C   0  0  0  0  0  0  0  0  0  0  0  0
   -0.0000   -3.8444    0.0000 C   0  0  0  0  0  0  0  0  0  0  0  0
   -1.4712   -3.5517    0.0000 C   0  0  0  0  0  0  0  0  0  0  0  0
   -2.7184   -2.7184    0.0000 C   0  0  0  0  0  0  0  0  0  0  0  0
   -3.5517   -1.4712    0.0000 C   0  0  0  0  0  0  0  0  0  0  0  0
   -3.8444    0.0000    0.0000 C   0  0  0  0  0  0  0  0  0  0  0  0
   -3.5517    1.4712    0.0000 C   0  0  0  0  0  0  0  0  0  0  0  0
   -2.7184    2.7184    0.0000 C   0  0  0  0  0  0  0  0  0  0  0  0
   -1.4712    3.5517    0.0000 C   0  0  0  0  0  0  0  0  0  0  0  0
    0.0000    3.8444    0.0000 C   0  0  0  0  0  0  0  0  0  0  0  0
    1.4712    3.5517    0.0000 C   0  0  0  0  0  0  0  0  0  0  0  0
    2.7184    2.7184    0.0000 C   0  0  0  0  0  0  0  0  0  0  0  0
    3.7790    3.7790    0.0000 C   0  0  0  0  0  0  0  0  0  0  0  0
    3.3908    5.2279    0.0000 O   0  0  0  0  0  0  0  0  0  0  0  0
    5.2279    3.3908    0.0000 N   0  0  0  0  0  0  0  0  0  0  0  0
    6.2886    4.4515    0.0000 C   0  0  0  0  0  0  0  0  0  0  0  0
    7.7375    4.0632    0.0000 N   0  0  0  0  0  0  0  0  0  0  0  0
    8.7981    5.1239    0.0000 N   0  0  0  0  0  0  0  0  0  0  0  0
    8.4099    6.5728    0.0000 N   0  0  0  0  0  0  0  0  0  0  0  0
    6.9610    6.9610    0.0000 N   0  0  0  0  0  0  0  0  0  0  0  0
    5.9004    5.9004    0.0000 N   0  0  0  0  0  0  0  0  0  0  0  0
    3.5517    1.4712    0.0000 C   0  0  0  0  0  0  0  0  0  0  0  0
  1  2  1  0
  2  3  1  0
  3  4  1  0
  4  5  1  0
  5  6  1  0
  6  7  1  0
  7  8  1  0
  8  9  1  0
  9 10  1  0
 10 11  1  0
 11 12  1  0
 12 13  1  0
 13 14  1  0
 14 15  1  0
 15 16  1  0
 16 17  1  0
 17 18  2  0
 17 19  1  0
 19 20  1  0
 20 21  2  0
 21 22  1  0
 22 23  2  0
 23 24  1  0
 24 25  2  0
 16 26  1  0
 26  2  1  0
 25 20  1  0
M  END
>  <Title>  (212) 
idAAGFgen8

$$$$

     RDKit          2D

 38 43  0  0  0  0  0  0  0  0999 V2000
    3.1097   -7.2078    0.0000 C   0  0  0  0  0  0  0  0  0  0  0  0
    2.0490   -6.1471    0.0000 C   0  0  0  0  0  0  0  0  0  0  0  0
    2.7990   -4.8481    0.0000 C   0  0  0  0  0  0  0  0  0  0  0  0
    2.7990   -3.3481    0.0000 C   0  0  0  0  0  0  0  0  0  0  0  0
    2.0490   -2.0490    0.0000 C   0  0  0  0  0  0  0  0  0  0  0  0
    3.1097   -0.9884    0.0000 C   0  0  0  0  0  0  0  0  0  0  0  0
    2.7215    0.4605    0.0000 O   0  0  0  0  0  0  0  0  0  0  0  0
    4.5586   -1.3766    0.0000 N   0  0  0  0  0  0  0  0  0  0  0  0
    5.6192   -0.3159    0.0000 C   0  0  0  0  0  0  0  0  0  0  0  0
    7.0681   -0.7042    0.0000 N   0  0  0  0  0  0  0  0  0  0  0  0
    8.1288    0.3565    0.0000 N   0  0  0  0  0  0  0  0  0  0  0  0
    7.7406    1.8054    0.0000 N   0  0  0  0  0  0  0  0  0  0  0  0
    6.2917    2.1936    0.0000 N   0  0  0  0  0  0  0  0  0  0  0  0
    5.2310    1.1329    0.0000 N   0  0  0  0  0  0  0  0  0  0  0  0
    0.7500   -1.2990    0.0000 C   0  0  0  0  0  0  0  0  0  0  0  0
    1.5000    0.0000    0.0000 C   0  0  0  0  0  0  0  0  0  0  0  0
    0.7500    1.2990    0.0000 C   0  0  0  0  0  0  0  0  0  0  0  0
   -0.7500    1.2990    0.0000 C   0  0  0  0  0  0  0  0  0  0  0  0
   -1.5000    0.0000    0.0000 C   0  0  0  0  0  0  0  0  0  0  0  0
   -0.7500   -1.2990    0.0000 C   0  0  0  0  0  0  0  0  0  0  0  0
   -2.0490   -2.0490    0.0000 C   0  0  0  0  0  0  0  0  0  0  0  0
   -2.7990   -0.7500    0.0000 C   0  0  0  0  0  0  0  0  0  0  0  0
   -4.2990   -0.7500    0.0000 C   0  0  0  0  0  0  0  0  0  0  0  0
   -5.0490   -2.0490    0.0000 C   0  0  0  0  0  0  0  0  0  0  0  0
   -4.2990   -3.3481    0.0000 C   0  0  0  0  0  0  0  0  0  0  0  0
   -2.7990   -3.3481    0.0000 C   0  0  0  0  0  0  0  0  0  0  0  0
   -2.7990   -4.8481    0.0000 C   0  0  0  0  0  0  0  0  0  0  0  0
   -4.2990   -4.8481    0.0000 C   0  0  0  0  0  0  0  0  0  0  0  0
   -5.0490   -6.1471    0.0000 C   0  0  0  0  0  0  0  0  0  0  0  0
   -4.2990   -7.4462    0.0000 C   0  0  0  0  0  0  0  0  0  0  0  0
   -2.7990   -7.4462    0.0000 C   0  0  0  0  0  0  0  0  0  0  0  0
   -2.0490   -6.1471    0.0000 C   0  0  0  0  0  0  0  0  0  0  0  0
   -0.7500   -6.8971    0.0000 C   0  0  0  0  0  0  0  0  0  0  0  0
   -1.5000   -8.1962    0.0000 C   0  0  0  0  0  0  0  0  0  0  0  0
   -0.7500   -9.4952    0.0000 C   0  0  0  0  0  0  0  0  0  0  0  0
    0.7500   -9.4952    0.0000 C   0  0  0  0  0  0  0  0  0  0  0  0
    1.5000   -8.1962    0.0000 C   0  0  0  0  0  0  0  0  0  0  0  0
    0.7500   -6.8971    0.0000 C   0  0  0  0  0  0  0  0  0  0  0  0
  1  2  1  0
  2  3  2  0
  3  4  1  0
  4  5  1  0
  5  6  1  0
  6  7  2  0
  6  8  1  0
  8  9  1  0
  9 10  2  0
 10 11  1  0
 11 12  2  0
 12 13  1  0
 13 14  2  0
  5 15  1  0
 15 16  2  0
 16 17  1  0
 17 18  2  0
 18 19  1  0
 19 20  2  0
 20 21  1  0
 21 22  2  0
 22 23  1  0
 23 24  2  0
 24 25  1  0
 25 26  2  0
 26 27  1  0
 27 28  2  0
 28 29  1  0
 29 30  2  0
 30 31  1  0
 31 32  2  0
 32 33  1  0
 33 34  2  0
 34 35  1  0
 35 36  2  0
 36 37  1  0
 37 38  2  0
 38  2  1  0
 14  9  1  0
 20 15  1  0
 26 21  1  0
 32 27  1  0
 38 33  1  0
M  END
>  <Title>  (213) 
idAAGGgen8

$$$$

     RDKit          2D

  5  5  0  0  0  0  0  0  0  0999 V2000
    1.2760    0.0000    0.0000 C   0  0  0  0  0  0  0  0  0  0  0  0
    0.3943    1.2135    0.0000 C   0  0  0  0  0  0  0  0  0  0  0  0
   -1.0323    0.7500    0.0000 C   0  0  0  0  0  0  0  0  0  0  0  0
   -1.0323   -0.7500    0.0000 C   0  0  0  0  0  0  0  0  0  0  0  0
    0.3943   -1.2135    0.0000 C   0  0  0  0  0  0  0  0  0  0  0  0
  1  2  2  0
  2  3  1  0
  3  4  1  0
  4  5  1  0
  5  1  1  0
M  END
>  <Title>  (214) 
idAAGHgen8

$$$$

     RDKit          2D

 13 13  0  0  0  0  0  0  0  0999 V2000
    7.5000   -2.5981    0.0000 C   0  0  0  0  0  0  0  0  0  0  0  0
    6.0000   -2.5981    0.0000 C   0  0  0  0  0  0  0  0  0  0  0  0
    5.2500   -3.8971    0.0000 C   0  0  0  0  0  0  0  0  0  0  0  0
    5.2500   -1.2990    0.0000 C   0  0  0  0  0  0  0  0  0  0  0  0
    3.7500   -1.2990    0.0000 C   0  0  0  0  0  0  0  0  0  0  0  0
    3.0000   -2.5981    0.0000 O   0  0  0  0  0  0  0  0  0  0  0  0
    3.0000    0.0000    0.0000 N   0  0  0  0  0  0  0  0  0  0  0  0
    1.5000    0.0000    0.0000 C   0  0  0  0  0  0  0  0  0  0  0  0
    0.7500   -1.2990    0.0000 N   0  0  0  0  0  0  0  0  0  0  0  0
   -0.7500   -1.2990    0.0000 N   0  0  0  0  0  0  0  0  0  0  0  0
   -1.5000    0.0000    0.0000 N   0  0  0  0  0  0  0  0  0  0  0  0
   -0.7500    1.2990    0.0000 N   0  0  0  0  0  0  0  0  0  0  0  0
    0.7500    1.2990    0.0000 N   0  0  0  0  0  0  0  0  0  0  0  0
  1  2  1  0
  2  3  1  0
  2  4  1  0
  4  5  1  0
  5  6  2  0
  5  7  1  0
  7  8  1  0
  8  9  2  0
  9 10  1  0
 10 11  2  0
 11 12  1  0
 12 13  2  0
 13  8  1  0
M  END
>  <Title>  (215) 
idAAGIgen8

$$$$

     RDKit          2D

 17 19  0  0  0  0  0  0  0  0999 V2000
    3.7500   -6.4952    0.0000 C   0  0  0  0  0  0  0  0  0  0  0  0
    3.0000   -5.1962    0.0000 O   0  0  0  0  0  0  0  0  0  0  0  0
    1.5000   -5.1962    0.0000 C   0  0  0  0  0  0  0  0  0  0  0  0
    0.7500   -3.8971    0.0000 C   0  0  0  0  0  0  0  0  0  0  0  0
    1.5000   -2.5981    0.0000 C   0  0  0  0  0  0  0  0  0  0  0  0
    0.7500   -1.2990    0.0000 C   0  0  0  0  0  0  0  0  0  0  0  0
    1.5000    0.0000    0.0000 C   0  0  0  0  0  0  0  0  0  0  0  0
    0.7500    1.2990    0.0000 C   0  0  0  0  0  0  0  0  0  0  0  0
   -0.7500    1.2990    0.0000 C   0  0  0  0  0  0  0  0  0  0  0  0
   -1.5000    0.0000    0.0000 C   0  0  0  0  0  0  0  0  0  0  0  0
   -0.7500   -1.2990    0.0000 C   0  0  0  0  0  0  0  0  0  0  0  0
   -1.5000   -2.5981    0.0000 C   0  0  0  0  0  0  0  0  0  0  0  0
   -3.0000   -2.5981    0.0000 C   0  0  0  0  0  0  0  0  0  0  0  0
   -3.7500   -3.8971    0.0000 C   0  0  0  0  0  0  0  0  0  0  0  0
   -3.0000   -5.1962    0.0000 C   0  0  0  0  0  0  0  0  0  0  0  0
   -1.5000   -5.1962    0.0000 C   0  0  0  0  0  0  0  0  0  0  0  0
   -0.7500   -3.8971    0.0000 C   0  0  0  0  0  0  0  0  0  0  0  0
  1  2  1  0
  2  3  1  0
  3  4  1  0
  4  5  2  0
  5  6  1  0
  6  7  2  0
  7  8  1  0
  8  9  2  0
  9 10  1  0
 10 11  2  0
 11 12  1  0
 12 13  2  0
 13 14  1  0
 14 15  2  0
 15 16  1  0
 16 17  2  0
 17  4  1  0
 11  6  1  0
 17 12  1  0
M  END
>  <Title>  (216) 
idAAGJgen8

$$$$

     RDKit          2D

  9  9  0  0  0  0  0  0  0  0999 V2000
    3.4598   -0.0000    0.0000 O   0  0  0  0  0  0  0  0  0  0  0  0
    1.9598    0.0000    0.0000 C   0  0  0  0  0  0  0  0  0  0  0  0
    1.3858   -1.3858    0.0000 C   0  0  0  0  0  0  0  0  0  0  0  0
   -0.0000   -1.9598    0.0000 C   0  0  0  0  0  0  0  0  0  0  0  0
   -1.3858   -1.3858    0.0000 C   0  0  0  0  0  0  0  0  0  0  0  0
   -1.9598    0.0000    0.0000 C   0  0  0  0  0  0  0  0  0  0  0  0
   -1.3858    1.3858    0.0000 C   0  0  0  0  0  0  0  0  0  0  0  0
    0.0000    1.9598    0.0000 C   0  0  0  0  0  0  0  0  0  0  0  0
    1.3858    1.3858    0.0000 C   0  0  0  0  0  0  0  0  0  0  0  0
  1  2  1  0
  2  3  2  0
  3  4  1  0
  4  5  1  0
  5  6  1  0
  6  7  1  0
  7  8  1  0
  8  9  1  0
  9  2  1  0
M  END
>  <Title>  (217) 
idAAGKgen8

$$$$

     RDKit          2D

  8  8  0  0  0  0  0  0  0  0999 V2000
    3.0000    0.0000    0.0000 C   0  0  0  0  0  0  0  0  0  0  0  0
    1.5000    0.0000    0.0000 C   0  0  0  0  0  0  0  0  0  0  0  0
    0.7500   -1.2990    0.0000 C   0  0  0  0  0  0  0  0  0  0  0  0
   -0.7500   -1.2990    0.0000 C   0  0  0  0  0  0  0  0  0  0  0  0
   -1.5000    0.0000    0.0000 C   0  0  0  0  0  0  0  0  0  0  0  0
   -3.0000    0.0000    0.0000 C   0  0  0  0  0  0  0  0  0  0  0  0
   -0.7500    1.2990    0.0000 C   0  0  0  0  0  0  0  0  0  0  0  0
    0.7500    1.2990    0.0000 C   0  0  0  0  0  0  0  0  0  0  0  0
  1  2  1  0
  2  3  2  0
  3  4  1  0
  4  5  1  0
  5  6  1  0
  5  7  1  0
  7  8  1  0
  8  2  1  0
M  END
>  <Title>  (218) 
idAAGLgen8

$$$$

     RDKit          2D

 68 68  0  0  0  0  0  0  0  0999 V2000
   17.5009   -0.0000    0.0000 C   0  0  0  0  0  0  0  0  0  0  0  0
   16.0009    0.0000    0.0000 C   0  0  0  0  0  0  0  0  0  0  0  0
   15.9306    1.4984    0.0000 C   0  0  0  0  0  0  0  0  0  0  0  0
   15.7203    2.9835    0.0000 C   0  0  0  0  0  0  0  0  0  0  0  0
   15.3719    4.4425    0.0000 C   0  0  0  0  0  0  0  0  0  0  0  0
   14.8883    5.8624    0.0000 C   0  0  0  0  0  0  0  0  0  0  0  0
   14.2739    7.2308    0.0000 C   0  0  0  0  0  0  0  0  0  0  0  0
   13.5341    8.5357    0.0000 C   0  0  0  0  0  0  0  0  0  0  0  0
   12.6753    9.7655    0.0000 C   0  0  0  0  0  0  0  0  0  0  0  0
   11.7052   10.9096    0.0000 C   0  0  0  0  0  0  0  0  0  0  0  0
   10.6322   11.9577    0.0000 C   0  0  0  0  0  0  0  0  0  0  0  0
    9.4657   12.9008    0.0000 C   0  0  0  0  0  0  0  0  0  0  0  0
    8.2161   13.7305    0.0000 C   0  0  0  0  0  0  0  0  0  0  0  0
    6.8942   14.4395    0.0000 C   0  0  0  0  0  0  0  0  0  0  0  0
    5.5118   15.0217    0.0000 C   0  0  0  0  0  0  0  0  0  0  0  0
    4.0809   15.4718    0.0000 C   0  0  0  0  0  0  0  0  0  0  0  0
    2.6142   15.7859    0.0000 C   0  0  0  0  0  0  0  0  0  0  0  0
    1.1245   15.9614    0.0000 C   0  0  0  0  0  0  0  0  0  0  0  0
   -0.3751   15.9965    0.0000 C   0  0  0  0  0  0  0  0  0  0  0  0
   -1.8714   15.8911    0.0000 C   0  0  0  0  0  0  0  0  0  0  0  0
   -3.3512   15.6461    0.0000 C   0  0  0  0  0  0  0  0  0  0  0  0
   -4.8016   15.2635    0.0000 C   0  0  0  0  0  0  0  0  0  0  0  0
   -6.2098   14.7468    0.0000 C   0  0  0  0  0  0  0  0  0  0  0  0
   -7.5635   14.1005    0.0000 C   0  0  0  0  0  0  0  0  0  0  0  0
   -8.8506   13.3303    0.0000 C   0  0  0  0  0  0  0  0  0  0  0  0
  -10.0600   12.4429    0.0000 C   0  0  0  0  0  0  0  0  0  0  0  0
  -11.1810   11.4462    0.0000 C   0  0  0  0  0  0  0  0  0  0  0  0
  -12.2037   10.3489    0.0000 C   0  0  0  0  0  0  0  0  0  0  0  0
  -13.1191    9.1607    0.0000 C   0  0  0  0  0  0  0  0  0  0  0  0
  -13.9193    7.8919    0.0000 C   0  0  0  0  0  0  0  0  0  0  0  0
  -14.5972    6.5538    0.0000 C   0  0  0  0  0  0  0  0  0  0  0  0
  -15.1467    5.1581    0.0000 C   0  0  0  0  0  0  0  0  0  0  0  0
  -15.5632    3.7171    0.0000 C   0  0  0  0  0  0  0  0  0  0  0  0
  -15.8429    2.2434    0.0000 C   0  0  0  0  0  0  0  0  0  0  0  0
  -15.9833    0.7500    0.0000 C   0  0  0  0  0  0  0  0  0  0  0  0
  -15.9833   -0.7500    0.0000 C   0  0  0  0  0  0  0  0  0  0  0  0
  -15.8429   -2.2434    0.0000 C   0  0  0  0  0  0  0  0  0  0  0  0
  -15.5632   -3.7171    0.0000 C   0  0  0  0  0  0  0  0  0  0  0  0
  -15.1467   -5.1581    0.0000 C   0  0  0  0  0  0  0  0  0  0  0  0
  -14.5972   -6.5538    0.0000 C   0  0  0  0  0  0  0  0  0  0  0  0
  -13.9193   -7.8919    0.0000 C   0  0  0  0  0  0  0  0  0  0  0  0
  -13.1191   -9.1607    0.0000 C   0  0  0  0  0  0  0  0  0  0  0  0
  -12.2037  -10.3489    0.0000 C   0  0  0  0  0  0  0  0  0  0  0  0
  -11.1810  -11.4462    0.0000 C   0  0  0  0  0  0  0  0  0  0  0  0
  -10.0600  -12.4429    0.0000 C   0  0  0  0  0  0  0  0  0  0  0  0
   -8.8506  -13.3303    0.0000 C   0  0  0  0  0  0  0  0  0  0  0  0
   -7.5635  -14.1005    0.0000 C   0  0  0  0  0  0  0  0  0  0  0  0
   -6.2098  -14.7468    0.0000 C   0  0  0  0  0  0  0  0  0  0  0  0
   -4.8016  -15.2635    0.0000 C   0  0  0  0  0  0  0  0  0  0  0  0
   -3.3512  -15.6461    0.0000 C   0  0  0  0  0  0  0  0  0  0  0  0
   -1.8714  -15.8911    0.0000 C   0  0  0  0  0  0  0  0  0  0  0  0
   -0.3751  -15.9965    0.0000 C   0  0  0  0  0  0  0  0  0  0  0  0
    1.1245  -15.9614    0.0000 C   0  0  0  0  0  0  0  0  0  0  0  0
    2.6142  -15.7859    0.0000 C   0  0  0  0  0  0  0  0  0  0  0  0
    4.0809  -15.4718    0.0000 C   0  0  0  0  0  0  0  0  0  0  0  0
    5.5118  -15.0217    0.0000 C   0  0  0  0  0  0  0  0  0  0  0  0
    6.8942  -14.4395    0.0000 C   0  0  0  0  0  0  0  0  0  0  0  0
    8.2161  -13.7305    0.0000 C   0  0  0  0  0  0  0  0  0  0  0  0
    9.4657  -12.9008    0.0000 C   0  0  0  0  0  0  0  0  0  0  0  0
   10.6322  -11.9577    0.0000 C   0  0  0  0  0  0  0  0  0  0  0  0
   11.7052  -10.9096    0.0000 C   0  0  0  0  0  0  0  0  0  0  0  0
   12.6753   -9.7655    0.0000 C   0  0  0  0  0  0  0  0  0  0  0  0
   13.5341   -8.5357    0.0000 C   0  0  0  0  0  0  0  0  0  0  0  0
   14.2739   -7.2308    0.0000 C   0  0  0  0  0  0  0  0  0  0  0  0
   14.8883   -5.8624    0.0000 C   0  0  0  0  0  0  0  0  0  0  0  0
   15.3719   -4.4425    0.0000 C   0  0  0  0  0  0  0  0  0  0  0  0
   15.7203   -2.9835    0.0000 C   0  0  0  0  0  0  0  0  0  0  0  0
   15.9306   -1.4984    0.0000 C   0  0  0  0  0  0  0  0  0  0  0  0
  1  2  1  0
  2  3  1  0
  3  4  1  0
  4  5  2  0
  5  6  1  0
  6  7  2  0
  7  8  1  0
  8  9  2  0
  9 10  1  0
 10 11  2  0
 11 12  1  0
 12 13  2  0
 13 14  1  0
 14 15  1  0
 15 16  1  0
 16 17  1  0
 17 18  1  0
 18 19  1  0
 19 20  1  0
 20 21  1  0
 21 22  1  0
 22 23  1  0
 23 24  1  0
 24 25  1  0
 25 26  1  0
 26 27  1  0
 27 28  1  0
 28 29  1  0
 29 30  1  0
 30 31  1  0
 31 32  1  0
 32 33  1  0
 33 34  1  0
 34 35  1  0
 35 36  1  0
 36 37  1  0
 37 38  1  0
 38 39  1  0
 39 40  1  0
 40 41  1  0
 41 42  1  0
 42 43  1  0
 43 44  1  0
 44 45  1  0
 45 46  1  0
 46 47  1  0
 47 48  1  0
 48 49  1  0
 49 50  1  0
 50 51  1  0
 51 52  1  0
 52 53  1  0
 53 54  1  0
 54 55  1  0
 55 56  1  0
 56 57  1  0
 57 58  1  0
 58 59  1  0
 59 60  1  0
 60 61  1  0
 61 62  1  0
 62 63  1  0
 63 64  1  0
 64 65  1  0
 65 66  1  0
 66 67  1  0
 67 68  1  0
 68  2  1  0
M  END
>  <Title>  (219) 
idAAGMgen8

$$$$

     RDKit          2D

114116  0  0  0  0  0  0  0  0999 V2000
   -2.3806    0.1062    0.0000 C   0  0  0  0  0  0  0  0  0  0  0  0
   -2.2474   -1.3879    0.0000 C   0  0  0  0  0  0  0  0  0  0  0  0
   -3.7368   -1.5653    0.0000 C   0  0  0  0  0  0  0  0  0  0  0  0
   -5.2132   -1.8306    0.0000 C   0  0  0  0  0  0  0  0  0  0  0  0
   -6.6712   -2.1830    0.0000 C   0  0  0  0  0  0  0  0  0  0  0  0
   -8.1058   -2.6211    0.0000 C   0  0  0  0  0  0  0  0  0  0  0  0
   -9.5119   -3.1434    0.0000 C   0  0  0  0  0  0  0  0  0  0  0  0
  -10.8847   -3.7480    0.0000 C   0  0  0  0  0  0  0  0  0  0  0  0
  -12.2192   -4.4330    0.0000 C   0  0  0  0  0  0  0  0  0  0  0  0
  -13.5107   -5.1958    0.0000 C   0  0  0  0  0  0  0  0  0  0  0  0
  -14.7548   -6.0338    0.0000 C   0  0  0  0  0  0  0  0  0  0  0  0
  -15.9471   -6.9440    0.0000 C   0  0  0  0  0  0  0  0  0  0  0  0
  -17.0834   -7.9232    0.0000 C   0  0  0  0  0  0  0  0  0  0  0  0
  -18.1596   -8.9680    0.0000 C   0  0  0  0  0  0  0  0  0  0  0  0
  -19.1721  -10.0748    0.0000 C   0  0  0  0  0  0  0  0  0  0  0  0
  -20.1172  -11.2396    0.0000 C   0  0  0  0  0  0  0  0  0  0  0  0
  -20.9917  -12.4583    0.0000 C   0  0  0  0  0  0  0  0  0  0  0  0
  -21.7924  -13.7267    0.0000 C   0  0  0  0  0  0  0  0  0  0  0  0
  -22.5166  -15.0403    0.0000 C   0  0  0  0  0  0  0  0  0  0  0  0
  -23.1617  -16.3945    0.0000 C   0  0  0  0  0  0  0  0  0  0  0  0
  -23.7255  -17.7845    0.0000 C   0  0  0  0  0  0  0  0  0  0  0  0
  -24.2059  -19.2055    0.0000 C   0  0  0  0  0  0  0  0  0  0  0  0
  -24.6013  -20.6525    0.0000 C   0  0  0  0  0  0  0  0  0  0  0  0
  -24.9102  -22.1203    0.0000 C   0  0  0  0  0  0  0  0  0  0  0  0
  -25.1317  -23.6038    0.0000 C   0  0  0  0  0  0  0  0  0  0  0  0
  -25.2649  -25.0979    0.0000 C   0  0  0  0  0  0  0  0  0  0  0  0
  -25.3093  -26.5973    0.0000 C   0  0  0  0  0  0  0  0  0  0  0  0
  -25.2649  -28.0966    0.0000 C   0  0  0  0  0  0  0  0  0  0  0  0
  -25.1317  -29.5907    0.0000 C   0  0  0  0  0  0  0  0  0  0  0  0
  -24.9102  -31.0742    0.0000 C   0  0  0  0  0  0  0  0  0  0  0  0
  -24.6013  -32.5421    0.0000 C   0  0  0  0  0  0  0  0  0  0  0  0
  -24.2059  -33.9890    0.0000 C   0  0  0  0  0  0  0  0  0  0  0  0
  -23.7255  -35.4100    0.0000 C   0  0  0  0  0  0  0  0  0  0  0  0
  -23.1617  -36.8001    0.0000 C   0  0  0  0  0  0  0  0  0  0  0  0
  -22.5166  -38.1542    0.0000 C   0  0  0  0  0  0  0  0  0  0  0  0
  -21.7924  -39.4679    0.0000 C   0  0  0  0  0  0  0  0  0  0  0  0
  -20.9917  -40.7362    0.0000 C   0  0  0  0  0  0  0  0  0  0  0  0
  -20.1172  -41.9550    0.0000 C   0  0  0  0  0  0  0  0  0  0  0  0
  -19.1721  -43.1198    0.0000 C   0  0  0  0  0  0  0  0  0  0  0  0
  -18.1596  -44.2265    0.0000 C   0  0  0  0  0  0  0  0  0  0  0  0
  -17.0834  -45.2713    0.0000 C   0  0  0  0  0  0  0  0  0  0  0  0
  -15.9471  -46.2506    0.0000 C   0  0  0  0  0  0  0  0  0  0  0  0
  -14.7548  -47.1608    0.0000 C   0  0  0  0  0  0  0  0  0  0  0  0
  -13.5107  -47.9987    0.0000 C   0  0  0  0  0  0  0  0  0  0  0  0
  -12.2192  -48.7615    0.0000 C   0  0  0  0  0  0  0  0  0  0  0  0
  -10.8847  -49.4465    0.0000 C   0  0  0  0  0  0  0  0  0  0  0  0
   -9.5119  -50.0512    0.0000 C   0  0  0  0  0  0  0  0  0  0  0  0
   -8.1058  -50.5735    0.0000 C   0  0  0  0  0  0  0  0  0  0  0  0
   -6.6712  -51.0116    0.0000 C   0  0  0  0  0  0  0  0  0  0  0  0
   -5.2132  -51.3639    0.0000 C   0  0  0  0  0  0  0  0  0  0  0  0
   -3.7368  -51.6292    0.0000 C   0  0  0  0  0  0  0  0  0  0  0  0
   -2.2474  -51.8066    0.0000 C   0  0  0  0  0  0  0  0  0  0  0  0
   -0.7500  -51.8955    0.0000 C   0  0  0  0  0  0  0  0  0  0  0  0
    0.7500  -51.8955    0.0000 C   0  0  0  0  0  0  0  0  0  0  0  0
    2.2474  -51.8066    0.0000 C   0  0  0  0  0  0  0  0  0  0  0  0
    3.7368  -51.6292    0.0000 C   0  0  0  0  0  0  0  0  0  0  0  0
    5.2132  -51.3639    0.0000 C   0  0  0  0  0  0  0  0  0  0  0  0
    6.6712  -51.0116    0.0000 C   0  0  0  0  0  0  0  0  0  0  0  0
    8.1058  -50.5735    0.0000 C   0  0  0  0  0  0  0  0  0  0  0  0
    9.5119  -50.0512    0.0000 C   0  0  0  0  0  0  0  0  0  0  0  0
   10.8847  -49.4465    0.0000 C   0  0  0  0  0  0  0  0  0  0  0  0
   12.2192  -48.7615    0.0000 C   0  0  0  0  0  0  0  0  0  0  0  0
   13.5107  -47.9987    0.0000 C   0  0  0  0  0  0  0  0  0  0  0  0
   14.7548  -47.1608    0.0000 C   0  0  0  0  0  0  0  0  0  0  0  0
   15.9471  -46.2506    0.0000 C   0  0  0  0  0  0  0  0  0  0  0  0
   17.0834  -45.2713    0.0000 C   0  0  0  0  0  0  0  0  0  0  0  0
   18.1596  -44.2265    0.0000 C   0  0  0  0  0  0  0  0  0  0  0  0
   19.1721  -43.1198    0.0000 C   0  0  0  0  0  0  0  0  0  0  0  0
   20.1172  -41.9550    0.0000 C   0  0  0  0  0  0  0  0  0  0  0  0
   20.9917  -40.7362    0.0000 C   0  0  0  0  0  0  0  0  0  0  0  0
   21.7924  -39.4679    0.0000 C   0  0  0  0  0  0  0  0  0  0  0  0
   22.5166  -38.1542    0.0000 C   0  0  0  0  0  0  0  0  0  0  0  0
   23.1617  -36.8001    0.0000 C   0  0  0  0  0  0  0  0  0  0  0  0
   23.7255  -35.4100    0.0000 C   0  0  0  0  0  0  0  0  0  0  0  0
   24.2059  -33.9890    0.0000 C   0  0  0  0  0  0  0  0  0  0  0  0
   24.6013  -32.5421    0.0000 C   0  0  0  0  0  0  0  0  0  0  0  0
   24.9102  -31.0742    0.0000 C   0  0  0  0  0  0  0  0  0  0  0  0
   25.1317  -29.5907    0.0000 C   0  0  0  0  0  0  0  0  0  0  0  0
   25.2649  -28.0966    0.0000 C   0  0  0  0  0  0  0  0  0  0  0  0
   25.3093  -26.5973    0.0000 C   0  0  0  0  0  0  0  0  0  0  0  0
   25.2649  -25.0979    0.0000 C   0  0  0  0  0  0  0  0  0  0  0  0
   25.1317  -23.6038    0.0000 C   0  0  0  0  0  0  0  0  0  0  0  0
   24.9102  -22.1203    0.0000 C   0  0  0  0  0  0  0  0  0  0  0  0
   24.6013  -20.6525    0.0000 C   0  0  0  0  0  0  0  0  0  0  0  0
   24.2059  -19.2055    0.0000 C   0  0  0  0  0  0  0  0  0  0  0  0
   23.7255  -17.7845    0.0000 C   0  0  0  0  0  0  0  0  0  0  0  0
   23.1617  -16.3945    0.0000 C   0  0  0  0  0  0  0  0  0  0  0  0
   22.5166  -15.0403    0.0000 C   0  0  0  0  0  0  0  0  0  0  0  0
   21.7924  -13.7267    0.0000 C   0  0  0  0  0  0  0  0  0  0  0  0
   20.9917  -12.4583    0.0000 C   0  0  0  0  0  0  0  0  0  0  0  0
   20.1172  -11.2396    0.0000 C   0  0  0  0  0  0  0  0  0  0  0  0
   19.1721  -10.0748    0.0000 C   0  0  0  0  0  0  0  0  0  0  0  0
   18.1596   -8.9680    0.0000 C   0  0  0  0  0  0  0  0  0  0  0  0
   17.0834   -7.9232    0.0000 C   0  0  0  0  0  0  0  0  0  0  0  0
   15.9471   -6.9440    0.0000 C   0  0  0  0  0  0  0  0  0  0  0  0
   14.7548   -6.0338    0.0000 C   0  0  0  0  0  0  0  0  0  0  0  0
   13.5107   -5.1958    0.0000 C   0  0  0  0  0  0  0  0  0  0  0  0
   12.2192   -4.4330    0.0000 C   0  0  0  0  0  0  0  0  0  0  0  0
   10.8847   -3.7480    0.0000 C   0  0  0  0  0  0  0  0  0  0  0  0
    9.5119   -3.1434    0.0000 C   0  0  0  0  0  0  0  0  0  0  0  0
    8.1058   -2.6211    0.0000 C   0  0  0  0  0  0  0  0  0  0  0  0
    6.6712   -2.1830    0.0000 C   0  0  0  0  0  0  0  0  0  0  0  0
    5.2132   -1.8306    0.0000 C   0  0  0  0  0  0  0  0  0  0  0  0
    3.7368   -1.5653    0.0000 C   0  0  0  0  0  0  0  0  0  0  0  0
    4.0284   -3.0367    0.0000 C   0  0  0  0  0  0  0  0  0  0  0  0
    2.7191   -3.7687    0.0000 C   0  0  0  0  0  0  0  0  0  0  0  0
    1.6184   -2.7496    0.0000 C   0  0  0  0  0  0  0  0  0  0  0  0
    2.2474   -1.3879    0.0000 C   0  0  0  0  0  0  0  0  0  0  0  0
    0.7500   -1.2990    0.0000 C   0  0  0  0  0  0  0  0  0  0  0  0
    1.5000    0.0000    0.0000 C   0  0  0  0  0  0  0  0  0  0  0  0
    0.7500    1.2990    0.0000 C   0  0  0  0  0  0  0  0  0  0  0  0
   -0.7500    1.2990    0.0000 C   0  0  0  0  0  0  0  0  0  0  0  0
   -1.5000    0.0000    0.0000 C   0  0  0  0  0  0  0  0  0  0  0  0
   -0.7500   -1.2990    0.0000 C   0  0  0  0  0  0  0  0  0  0  0  0
  1  2  1  0
  2  3  1  0
  3  4  1  0
  4  5  1  0
  5  6  1  0
  6  7  1  0
  7  8  1  0
  8  9  1  0
  9 10  1  0
 10 11  1  0
 11 12  1  0
 12 13  1  0
 13 14  1  0
 14 15  1  0
 15 16  1  0
 16 17  1  0
 17 18  1  0
 18 19  1  0
 19 20  1  0
 20 21  1  0
 21 22  1  0
 22 23  1  0
 23 24  1  0
 24 25  1  0
 25 26  1  0
 26 27  1  0
 27 28  1  0
 28 29  1  0
 29 30  1  0
 30 31  1  0
 31 32  1  0
 32 33  1  0
 33 34  1  0
 34 35  1  0
 35 36  1  0
 36 37  1  0
 37 38  1  0
 38 39  1  0
 39 40  1  0
 40 41  1  0
 41 42  1  0
 42 43  1  0
 43 44  1  0
 44 45  1  0
 45 46  1  0
 46 47  1  0
 47 48  1  0
 48 49  1  0
 49 50  1  0
 50 51  1  0
 51 52  1  0
 52 53  1  0
 53 54  1  0
 54 55  1  0
 55 56  1  0
 56 57  1  0
 57 58  1  0
 58 59  1  0
 59 60  1  0
 60 61  1  0
 61 62  1  0
 62 63  1  0
 63 64  1  0
 64 65  1  0
 65 66  1  0
 66 67  1  0
 67 68  1  0
 68 69  1  0
 69 70  1  0
 70 71  1  0
 71 72  1  0
 72 73  1  0
 73 74  1  0
 74 75  1  0
 75 76  1  0
 76 77  1  0
 77 78  1  0
 78 79  1  0
 79 80  1  0
 80 81  1  0
 81 82  1  0
 82 83  1  0
 83 84  1  0
 84 85  1  0
 85 86  1  0
 86 87  1  0
 87 88  1  0
 88 89  1  0
 89 90  1  0
 90 91  1  0
 91 92  1  0
 92 93  1  0
 93 94  1  0
 94 95  1  0
 95 96  1  0
 96 97  1  0
 97 98  1  0
 98 99  1  0
 99100  1  0
100101  1  0
101102  1  0
102103  1  0
103104  1  0
104105  1  0
105106  2  0
106107  1  0
107108  2  0
108109  1  0
109110  2  0
110111  1  0
111112  2  0
112113  1  0
113114  2  0
114  2  1  0
108104  1  0
114109  1  0
M  END
>  <Title>  (220) 
idAAGNgen8

$$$$

     RDKit          2D

 52 52  0  0  0  0  0  0  0  0999 V2000
   13.4445   -0.0000    0.0000 C   0  0  0  0  0  0  0  0  0  0  0  0
   11.9445    0.0000    0.0000 C   0  0  0  0  0  0  0  0  0  0  0  0
   11.8503   -1.4970    0.0000 C   0  0  0  0  0  0  0  0  0  0  0  0
   11.5692   -2.9705    0.0000 C   0  0  0  0  0  0  0  0  0  0  0  0
   11.1057   -4.3971    0.0000 C   0  0  0  0  0  0  0  0  0  0  0  0
   10.4670   -5.7543    0.0000 C   0  0  0  0  0  0  0  0  0  0  0  0
    9.6633   -7.0208    0.0000 C   0  0  0  0  0  0  0  0  0  0  0  0
    8.7071   -8.1766    0.0000 C   0  0  0  0  0  0  0  0  0  0  0  0
    7.6137   -9.2034    0.0000 C   0  0  0  0  0  0  0  0  0  0  0  0
    6.4002  -10.0851    0.0000 C   0  0  0  0  0  0  0  0  0  0  0  0
    5.0857  -10.8077    0.0000 C   0  0  0  0  0  0  0  0  0  0  0  0
    3.6910  -11.3599    0.0000 C   0  0  0  0  0  0  0  0  0  0  0  0
    2.2382  -11.7329    0.0000 C   0  0  0  0  0  0  0  0  0  0  0  0
    0.7500  -11.9209    0.0000 C   0  0  0  0  0  0  0  0  0  0  0  0
   -0.7500  -11.9209    0.0000 C   0  0  0  0  0  0  0  0  0  0  0  0
   -2.2382  -11.7329    0.0000 C   0  0  0  0  0  0  0  0  0  0  0  0
   -3.6910  -11.3599    0.0000 C   0  0  0  0  0  0  0  0  0  0  0  0
   -5.0857  -10.8077    0.0000 C   0  0  0  0  0  0  0  0  0  0  0  0
   -6.4002  -10.0851    0.0000 C   0  0  0  0  0  0  0  0  0  0  0  0
   -7.6137   -9.2034    0.0000 C   0  0  0  0  0  0  0  0  0  0  0  0
   -8.7071   -8.1766    0.0000 C   0  0  0  0  0  0  0  0  0  0  0  0
   -9.6633   -7.0208    0.0000 C   0  0  0  0  0  0  0  0  0  0  0  0
  -10.4670   -5.7543    0.0000 C   0  0  0  0  0  0  0  0  0  0  0  0
  -11.1057   -4.3971    0.0000 C   0  0  0  0  0  0  0  0  0  0  0  0
  -11.5692   -2.9705    0.0000 C   0  0  0  0  0  0  0  0  0  0  0  0
  -11.8503   -1.4970    0.0000 C   0  0  0  0  0  0  0  0  0  0  0  0
  -11.9445   -0.0000    0.0000 C   0  0  0  0  0  0  0  0  0  0  0  0
  -11.8503    1.4970    0.0000 C   0  0  0  0  0  0  0  0  0  0  0  0
  -11.5692    2.9705    0.0000 C   0  0  0  0  0  0  0  0  0  0  0  0
  -11.1057    4.3971    0.0000 C   0  0  0  0  0  0  0  0  0  0  0  0
  -10.4670    5.7543    0.0000 C   0  0  0  0  0  0  0  0  0  0  0  0
   -9.6633    7.0208    0.0000 C   0  0  0  0  0  0  0  0  0  0  0  0
   -8.7071    8.1766    0.0000 C   0  0  0  0  0  0  0  0  0  0  0  0
   -7.6137    9.2034    0.0000 C   0  0  0  0  0  0  0  0  0  0  0  0
   -6.4002   10.0851    0.0000 C   0  0  0  0  0  0  0  0  0  0  0  0
   -5.0857   10.8077    0.0000 C   0  0  0  0  0  0  0  0  0  0  0  0
   -3.6910   11.3599    0.0000 C   0  0  0  0  0  0  0  0  0  0  0  0
   -2.2382   11.7329    0.0000 C   0  0  0  0  0  0  0  0  0  0  0  0
   -0.7500   11.9209    0.0000 C   0  0  0  0  0  0  0  0  0  0  0  0
    0.7500   11.9209    0.0000 C   0  0  0  0  0  0  0  0  0  0  0  0
    2.2382   11.7329    0.0000 C   0  0  0  0  0  0  0  0  0  0  0  0
    3.6910   11.3599    0.0000 C   0  0  0  0  0  0  0  0  0  0  0  0
    5.0857   10.8077    0.0000 C   0  0  0  0  0  0  0  0  0  0  0  0
    6.4002   10.0851    0.0000 C   0  0  0  0  0  0  0  0  0  0  0  0
    7.6137    9.2034    0.0000 C   0  0  0  0  0  0  0  0  0  0  0  0
    8.7071    8.1766    0.0000 C   0  0  0  0  0  0  0  0  0  0  0  0
    9.6633    7.0208    0.0000 C   0  0  0  0  0  0  0  0  0  0  0  0
   10.4670    5.7543    0.0000 C   0  0  0  0  0  0  0  0  0  0  0  0
   11.1057    4.3971    0.0000 C   0  0  0  0  0  0  0  0  0  0  0  0
   11.5692    2.9705    0.0000 C   0  0  0  0  0  0  0  0  0  0  0  0
   13.0221    3.3435    0.0000 C   0  0  0  0  0  0  0  0  0  0  0  0
   11.8503    1.4970    0.0000 N   0  0  0  0  0  0  0  0  0  0  0  0
  1  2  1  0
  2  3  1  0
  3  4  1  0
  4  5  1  0
  5  6  1  0
  6  7  1  0
  7  8  1  0
  8  9  1  0
  9 10  1  0
 10 11  1  0
 11 12  1  0
 12 13  1  0
 13 14  1  0
 14 15  1  0
 15 16  1  0
 16 17  1  0
 17 18  1  0
 18 19  1  0
 19 20  1  0
 20 21  1  0
 21 22  1  0
 22 23  1  0
 23 24  1  0
 24 25  1  0
 25 26  1  0
 26 27  1  0
 27 28  1  0
 28 29  1  0
 29 30  1  0
 30 31  1  0
 31 32  1  0
 32 33  1  0
 33 34  1  0
 34 35  1  0
 35 36  1  0
 36 37  1  0
 37 38  1  0
 38 39  1  0
 39 40  1  0
 40 41  1  0
 41 42  1  0
 42 43  1  0
 43 44  1  0
 44 45  1  0
 45 46  1  0
 46 47  1  0
 47 48  1  0
 48 49  1  0
 49 50  1  0
 50 51  1  0
 50 52  1  0
 52  2  1  0
M  END
>  <Title>  (221) 
idAAGOgen8

$$$$

     RDKit          2D

 11 11  0  0  0  0  0  0  0  0999 V2000
    3.2286   -0.0000    0.0000 C   0  0  0  0  0  0  0  0  0  0  0  0
    1.7286    0.0000    0.0000 C   0  0  0  0  0  0  0  0  0  0  0  0
    1.0777    1.3515    0.0000 C   0  0  0  0  0  0  0  0  0  0  0  0
   -0.3846    1.6852    0.0000 C   0  0  0  0  0  0  0  0  0  0  0  0
   -0.7184    3.1476    0.0000 O   0  0  0  0  0  0  0  0  0  0  0  0
   -1.5574    0.7500    0.0000 C   0  0  0  0  0  0  0  0  0  0  0  0
   -2.9088    1.4008    0.0000 O   0  0  0  0  0  0  0  0  0  0  0  0
   -1.5574   -0.7500    0.0000 C   0  0  0  0  0  0  0  0  0  0  0  0
   -0.3846   -1.6852    0.0000 C   0  0  0  0  0  0  0  0  0  0  0  0
    1.0777   -1.3515    0.0000 C   0  0  0  0  0  0  0  0  0  0  0  0
    2.0130   -2.5242    0.0000 C   0  0  0  0  0  0  0  0  0  0  0  0
  1  2  1  0
  2  3  2  0
  3  4  1  0
  4  5  1  0
  4  6  1  0
  6  7  1  0
  6  8  1  0
  8  9  1  0
  9 10  1  0
 10 11  1  0
 10  2  1  0
M  END
>  <Title>  (222) 
idAAGPgen8

$$$$

     RDKit          2D

 26 28  0  0  0  0  0  0  0  0999 V2000
    7.8721  -13.2636    0.0000 N   0  0  0  0  0  0  0  0  0  0  0  0
    7.6374  -11.7821    0.0000 C   0  0  0  0  0  0  0  0  0  0  0  0
    7.4027  -10.3005    0.0000 C   0  0  0  0  0  0  0  0  0  0  0  0
    8.4634   -9.2399    0.0000 C   0  0  0  0  0  0  0  0  0  0  0  0
    7.7824   -7.9034    0.0000 C   0  0  0  0  0  0  0  0  0  0  0  0
    6.3009   -8.1380    0.0000 C   0  0  0  0  0  0  0  0  0  0  0  0
    5.2402   -7.0773    0.0000 C   0  0  0  0  0  0  0  0  0  0  0  0
    3.7913   -7.4656    0.0000 O   0  0  0  0  0  0  0  0  0  0  0  0
    5.6285   -5.6285    0.0000 N   0  0  0  0  0  0  0  0  0  0  0  0
    4.5678   -4.5678    0.0000 C   0  0  0  0  0  0  0  0  0  0  0  0
    4.9560   -3.1189    0.0000 C   0  0  0  0  0  0  0  0  0  0  0  0
    3.8954   -2.0583    0.0000 C   0  0  0  0  0  0  0  0  0  0  0  0
    2.4465   -2.4465    0.0000 C   0  0  0  0  0  0  0  0  0  0  0  0
    1.3858   -1.3858    0.0000 C   0  0  0  0  0  0  0  0  0  0  0  0
    1.9598    0.0000    0.0000 C   0  0  0  0  0  0  0  0  0  0  0  0
    1.3858    1.3858    0.0000 C   0  0  0  0  0  0  0  0  0  0  0  0
    0.0000    1.9598    0.0000 C   0  0  0  0  0  0  0  0  0  0  0  0
    0.0000    3.4598    0.0000 O   0  0  0  0  0  0  0  0  0  0  0  0
   -1.3858    1.3858    0.0000 C   0  0  0  0  0  0  0  0  0  0  0  0
   -1.9598    0.0000    0.0000 C   0  0  0  0  0  0  0  0  0  0  0  0
   -1.3858   -1.3858    0.0000 C   0  0  0  0  0  0  0  0  0  0  0  0
   -2.4465   -2.4465    0.0000 F   0  0  0  0  0  0  0  0  0  0  0  0
   -0.0000   -1.9598    0.0000 O   0  0  0  0  0  0  0  0  0  0  0  0
    2.0583   -3.8954    0.0000 C   0  0  0  0  0  0  0  0  0  0  0  0
    3.1189   -4.9560    0.0000 C   0  0  0  0  0  0  0  0  0  0  0  0
    6.0662   -9.6195    0.0000 C   0  0  0  0  0  0  0  0  0  0  0  0
  1  2  3  0
  2  3  1  0
  3  4  1  0
  4  5  1  0
  5  6  1  0
  6  7  1  0
  7  8  2  0
  7  9  1  0
  9 10  1  0
 10 11  2  0
 11 12  1  0
 12 13  2  0
 13 14  1  0
 14 15  2  0
 15 16  1  0
 16 17  2  0
 17 18  1  0
 17 19  1  0
 19 20  2  0
 20 21  1  0
 21 22  1  0
 21 23  1  0
 13 24  1  0
 24 25  2  0
  6 26  1  0
 26  3  1  0
 25 10  1  0
 23 14  1  0
M  END
>  <Title>  (223) 
idAAGQgen8

$$$$

     RDKit          2D

  7  7  0  0  0  0  0  0  0  0999 V2000
    3.0000    0.0000    0.0000 C   0  0  0  0  0  0  0  0  0  0  0  0
    1.5000    0.0000    0.0000 C   0  0  0  0  0  0  0  0  0  0  0  0
    0.7500   -1.2990    0.0000 C   0  0  0  0  0  0  0  0  0  0  0  0
   -0.7500   -1.2990    0.0000 C   0  0  0  0  0  0  0  0  0  0  0  0
   -1.5000    0.0000    0.0000 C   0  0  0  0  0  0  0  0  0  0  0  0
   -0.7500    1.2990    0.0000 C   0  0  0  0  0  0  0  0  0  0  0  0
    0.7500    1.2990    0.0000 N   0  0  0  0  0  0  0  0  0  0  0  0
  1  2  1  0
  2  3  2  0
  3  4  1  0
  4  5  1  0
  5  6  1  0
  6  7  2  0
  7  2  1  0
M  END
>  <Title>  (224) 
idAAGRgen8

$$$$

     RDKit          2D

  8  8  0  0  0  0  0  0  0  0999 V2000
    4.2760   -0.0000    0.0000 N   0  0  0  0  0  0  0  0  0  0  0  0
    2.7760    0.0000    0.0000 C   0  0  0  0  0  0  0  0  0  0  0  0
    1.2760    0.0000    0.0000 C   0  0  0  0  0  0  0  0  0  0  0  0
    0.3943    1.2135    0.0000 C   0  0  0  0  0  0  0  0  0  0  0  0
   -1.0323    0.7500    0.0000 C   0  0  0  0  0  0  0  0  0  0  0  0
   -1.0323   -0.7500    0.0000 C   0  0  0  0  0  0  0  0  0  0  0  0
   -2.2458   -1.6317    0.0000 O   0  0  0  0  0  0  0  0  0  0  0  0
    0.3943   -1.2135    0.0000 C   0  0  0  0  0  0  0  0  0  0  0  0
  1  2  3  0
  2  3  1  0
  3  4  2  0
  4  5  1  0
  5  6  2  0
  6  7  1  0
  6  8  1  0
  8  3  1  0
M  END
>  <Title>  (225) 
idAAGSgen8

$$$$

     RDKit          2D

  7  7  0  0  0  0  0  0  0  0999 V2000
    3.5260   -1.2990    0.0000 C   0  0  0  0  0  0  0  0  0  0  0  0
    2.7760    0.0000    0.0000 O   0  0  0  0  0  0  0  0  0  0  0  0
    1.2760    0.0000    0.0000 C   0  0  0  0  0  0  0  0  0  0  0  0
    0.3943    1.2135    0.0000 C   0  0  0  0  0  0  0  0  0  0  0  0
   -1.0323    0.7500    0.0000 C   0  0  0  0  0  0  0  0  0  0  0  0
   -1.0323   -0.7500    0.0000 C   0  0  0  0  0  0  0  0  0  0  0  0
    0.3943   -1.2135    0.0000 C   0  0  0  0  0  0  0  0  0  0  0  0
  1  2  1  0
  2  3  1  0
  3  4  2  0
  4  5  1  0
  5  6  2  0
  6  7  1  0
  7  3  1  0
M  END
>  <Title>  (226) 
idAAGTgen8

$$$$

     RDKit          2D

 88 88  0  0  0  0  0  0  0  0999 V2000
   22.2742   -0.0000    0.0000 C   0  0  0  0  0  0  0  0  0  0  0  0
   20.7742    0.0000    0.0000 C   0  0  0  0  0  0  0  0  0  0  0  0
   20.7201    1.4990    0.0000 C   0  0  0  0  0  0  0  0  0  0  0  0
   20.5579    2.9902    0.0000 C   0  0  0  0  0  0  0  0  0  0  0  0
   20.2885    4.4658    0.0000 C   0  0  0  0  0  0  0  0  0  0  0  0
   19.9134    5.9182    0.0000 C   0  0  0  0  0  0  0  0  0  0  0  0
   19.4345    7.3397    0.0000 C   0  0  0  0  0  0  0  0  0  0  0  0
   18.8542    8.7229    0.0000 C   0  0  0  0  0  0  0  0  0  0  0  0
   18.1756   10.0606    0.0000 C   0  0  0  0  0  0  0  0  0  0  0  0
   17.4023   11.3459    0.0000 C   0  0  0  0  0  0  0  0  0  0  0  0
   16.5382   12.5720    0.0000 C   0  0  0  0  0  0  0  0  0  0  0  0
   15.5879   13.7326    0.0000 C   0  0  0  0  0  0  0  0  0  0  0  0
   14.5564   14.8216    0.0000 C   0  0  0  0  0  0  0  0  0  0  0  0
   13.4490   15.8333    0.0000 C   0  0  0  0  0  0  0  0  0  0  0  0
   12.2714   16.7625    0.0000 C   0  0  0  0  0  0  0  0  0  0  0  0
   11.0299   17.6043    0.0000 C   0  0  0  0  0  0  0  0  0  0  0  0
    9.7308   18.3543    0.0000 C   0  0  0  0  0  0  0  0  0  0  0  0
    8.3811   19.0086    0.0000 C   0  0  0  0  0  0  0  0  0  0  0  0
    6.9876   19.5638    0.0000 C   0  0  0  0  0  0  0  0  0  0  0  0
    5.5577   20.0170    0.0000 C   0  0  0  0  0  0  0  0  0  0  0  0
    4.0988   20.3659    0.0000 C   0  0  0  0  0  0  0  0  0  0  0  0
    2.6186   20.6085    0.0000 C   0  0  0  0  0  0  0  0  0  0  0  0
    1.1247   20.7438    0.0000 C   0  0  0  0  0  0  0  0  0  0  0  0
   -0.3751   20.7708    0.0000 C   0  0  0  0  0  0  0  0  0  0  0  0
   -1.8729   20.6896    0.0000 C   0  0  0  0  0  0  0  0  0  0  0  0
   -3.3609   20.5006    0.0000 C   0  0  0  0  0  0  0  0  0  0  0  0
   -4.8314   20.2046    0.0000 C   0  0  0  0  0  0  0  0  0  0  0  0
   -6.2767   19.8033    0.0000 C   0  0  0  0  0  0  0  0  0  0  0  0
   -7.6893   19.2988    0.0000 C   0  0  0  0  0  0  0  0  0  0  0  0
   -9.0618   18.6936    0.0000 C   0  0  0  0  0  0  0  0  0  0  0  0
  -10.3871   17.9910    0.0000 C   0  0  0  0  0  0  0  0  0  0  0  0
  -11.6582   17.1946    0.0000 C   0  0  0  0  0  0  0  0  0  0  0  0
  -12.8686   16.3086    0.0000 C   0  0  0  0  0  0  0  0  0  0  0  0
  -14.0118   15.3375    0.0000 C   0  0  0  0  0  0  0  0  0  0  0  0
  -15.0820   14.2864    0.0000 C   0  0  0  0  0  0  0  0  0  0  0  0
  -16.0736   13.1609    0.0000 C   0  0  0  0  0  0  0  0  0  0  0  0
  -16.9813   11.9668    0.0000 C   0  0  0  0  0  0  0  0  0  0  0  0
  -17.8006   10.7102    0.0000 C   0  0  0  0  0  0  0  0  0  0  0  0
  -18.5270    9.3979    0.0000 C   0  0  0  0  0  0  0  0  0  0  0  0
  -19.1568    8.0365    0.0000 C   0  0  0  0  0  0  0  0  0  0  0  0
  -19.6868    6.6332    0.0000 C   0  0  0  0  0  0  0  0  0  0  0  0
  -20.1141    5.1954    0.0000 C   0  0  0  0  0  0  0  0  0  0  0  0
  -20.4365    3.7305    0.0000 C   0  0  0  0  0  0  0  0  0  0  0  0
  -20.6525    2.2461    0.0000 C   0  0  0  0  0  0  0  0  0  0  0  0
  -20.7607    0.7500    0.0000 C   0  0  0  0  0  0  0  0  0  0  0  0
  -20.7607   -0.7500    0.0000 C   0  0  0  0  0  0  0  0  0  0  0  0
  -20.6525   -2.2461    0.0000 C   0  0  0  0  0  0  0  0  0  0  0  0
  -20.4365   -3.7305    0.0000 C   0  0  0  0  0  0  0  0  0  0  0  0
  -20.1141   -5.1954    0.0000 C   0  0  0  0  0  0  0  0  0  0  0  0
  -19.6868   -6.6332    0.0000 C   0  0  0  0  0  0  0  0  0  0  0  0
  -19.1568   -8.0365    0.0000 C   0  0  0  0  0  0  0  0  0  0  0  0
  -18.5270   -9.3979    0.0000 C   0  0  0  0  0  0  0  0  0  0  0  0
  -17.8006  -10.7102    0.0000 C   0  0  0  0  0  0  0  0  0  0  0  0
  -16.9813  -11.9668    0.0000 C   0  0  0  0  0  0  0  0  0  0  0  0
  -16.0736  -13.1609    0.0000 C   0  0  0  0  0  0  0  0  0  0  0  0
  -15.0820  -14.2864    0.0000 C   0  0  0  0  0  0  0  0  0  0  0  0
  -14.0118  -15.3375    0.0000 C   0  0  0  0  0  0  0  0  0  0  0  0
  -12.8686  -16.3086    0.0000 C   0  0  0  0  0  0  0  0  0  0  0  0
  -11.6582  -17.1946    0.0000 C   0  0  0  0  0  0  0  0  0  0  0  0
  -10.3871  -17.9910    0.0000 C   0  0  0  0  0  0  0  0  0  0  0  0
   -9.0618  -18.6936    0.0000 C   0  0  0  0  0  0  0  0  0  0  0  0
   -7.6893  -19.2988    0.0000 C   0  0  0  0  0  0  0  0  0  0  0  0
   -6.2767  -19.8033    0.0000 C   0  0  0  0  0  0  0  0  0  0  0  0
   -4.8314  -20.2046    0.0000 C   0  0  0  0  0  0  0  0  0  0  0  0
   -3.3609  -20.5006    0.0000 C   0  0  0  0  0  0  0  0  0  0  0  0
   -1.8729  -20.6896    0.0000 C   0  0  0  0  0  0  0  0  0  0  0  0
   -0.3751  -20.7708    0.0000 C   0  0  0  0  0  0  0  0  0  0  0  0
    1.1247  -20.7438    0.0000 C   0  0  0  0  0  0  0  0  0  0  0  0
    2.6186  -20.6085    0.0000 C   0  0  0  0  0  0  0  0  0  0  0  0
    4.0988  -20.3659    0.0000 C   0  0  0  0  0  0  0  0  0  0  0  0
    5.5577  -20.0170    0.0000 C   0  0  0  0  0  0  0  0  0  0  0  0
    6.9876  -19.5638    0.0000 C   0  0  0  0  0  0  0  0  0  0  0  0
    8.3811  -19.0086    0.0000 C   0  0  0  0  0  0  0  0  0  0  0  0
    9.7308  -18.3543    0.0000 C   0  0  0  0  0  0  0  0  0  0  0  0
   11.0299  -17.6043    0.0000 C   0  0  0  0  0  0  0  0  0  0  0  0
   12.2714  -16.7625    0.0000 C   0  0  0  0  0  0  0  0  0  0  0  0
   13.4490  -15.8333    0.0000 C   0  0  0  0  0  0  0  0  0  0  0  0
   14.5564  -14.8216    0.0000 C   0  0  0  0  0  0  0  0  0  0  0  0
   15.5879  -13.7326    0.0000 C   0  0  0  0  0  0  0  0  0  0  0  0
   16.5382  -12.5720    0.0000 C   0  0  0  0  0  0  0  0  0  0  0  0
   17.4023  -11.3459    0.0000 C   0  0  0  0  0  0  0  0  0  0  0  0
   18.1756  -10.0606    0.0000 C   0  0  0  0  0  0  0  0  0  0  0  0
   18.8542   -8.7229    0.0000 C   0  0  0  0  0  0  0  0  0  0  0  0
   19.4345   -7.3397    0.0000 C   0  0  0  0  0  0  0  0  0  0  0  0
   19.9134   -5.9182    0.0000 C   0  0  0  0  0  0  0  0  0  0  0  0
   20.2885   -4.4658    0.0000 C   0  0  0  0  0  0  0  0  0  0  0  0
   20.5579   -2.9902    0.0000 C   0  0  0  0  0  0  0  0  0  0  0  0
   20.7201   -1.4990    0.0000 C   0  0  0  0  0  0  0  0  0  0  0  0
  1  2  1  0
  2  3  2  0
  3  4  1  0
  4  5  1  0
  5  6  1  0
  6  7  1  0
  7  8  1  0
  8  9  1  0
  9 10  1  0
 10 11  1  0
 11 12  1  0
 12 13  1  0
 13 14  1  0
 14 15  1  0
 15 16  1  0
 16 17  1  0
 17 18  1  0
 18 19  1  0
 19 20  1  0
 20 21  1  0
 21 22  1  0
 22 23  1  0
 23 24  1  0
 24 25  1  0
 25 26  1  0
 26 27  1  0
 27 28  1  0
 28 29  1  0
 29 30  1  0
 30 31  1  0
 31 32  1  0
 32 33  1  0
 33 34  1  0
 34 35  1  0
 35 36  1  0
 36 37  1  0
 37 38  1  0
 38 39  1  0
 39 40  1  0
 40 41  1  0
 41 42  1  0
 42 43  1  0
 43 44  1  0
 44 45  1  0
 45 46  1  0
 46 47  1  0
 47 48  1  0
 48 49  1  0
 49 50  1  0
 50 51  1  0
 51 52  1  0
 52 53  1  0
 53 54  1  0
 54 55  1  0
 55 56  1  0
 56 57  1  0
 57 58  1  0
 58 59  1  0
 59 60  1  0
 60 61  1  0
 61 62  1  0
 62 63  1  0
 63 64  1  0
 64 65  1  0
 65 66  1  0
 66 67  1  0
 67 68  1  0
 68 69  1  0
 69 70  1  0
 70 71  1  0
 71 72  1  0
 72 73  1  0
 73 74  1  0
 74 75  1  0
 75 76  1  0
 76 77  1  0
 77 78  1  0
 78 79  1  0
 79 80  1  0
 80 81  1  0
 81 82  1  0
 82 83  1  0
 83 84  1  0
 84 85  1  0
 85 86  1  0
 86 87  1  0
 87 88  1  0
 88  2  1  0
M  END
>  <Title>  (227) 
idAAGUgen8

$$$$

     RDKit          2D

 17 18  0  0  0  0  0  0  0  0999 V2000
   -0.7500   -3.8971    0.0000 O   0  0  0  0  0  0  0  0  0  0  0  0
    0.7500   -3.8971    0.0000 C   0  0  0  0  0  0  0  0  0  0  0  0
    1.5000   -2.5981    0.0000 N   0  0  0  0  0  0  0  0  0  0  0  0
    0.7500   -1.2990    0.0000 C   0  0  0  0  0  0  0  0  0  0  0  0
    1.5000    0.0000    0.0000 N   0  0  0  0  0  0  0  0  0  0  0  0
    0.7500    1.2990    0.0000 N   0  0  0  0  0  0  0  0  0  0  0  0
   -0.7500    1.2990    0.0000 N   0  0  0  0  0  0  0  0  0  0  0  0
   -1.5000    0.0000    0.0000 N   0  0  0  0  0  0  0  0  0  0  0  0
   -0.7500   -1.2990    0.0000 N   0  0  0  0  0  0  0  0  0  0  0  0
    1.5000   -5.1962    0.0000 O   0  0  0  0  0  0  0  0  0  0  0  0
    0.7500   -6.4952    0.0000 C   0  0  0  0  0  0  0  0  0  0  0  0
   -0.7500   -6.4952    0.0000 C   0  0  0  0  0  0  0  0  0  0  0  0
   -1.5000   -7.7942    0.0000 C   0  0  0  0  0  0  0  0  0  0  0  0
   -0.7500   -9.0933    0.0000 C   0  0  0  0  0  0  0  0  0  0  0  0
   -1.5000  -10.3923    0.0000 O   0  0  0  0  0  0  0  0  0  0  0  0
    0.7500   -9.0933    0.0000 C   0  0  0  0  0  0  0  0  0  0  0  0
    1.5000   -7.7942    0.0000 C   0  0  0  0  0  0  0  0  0  0  0  0
  1  2  2  0
  2  3  1  0
  3  4  1  0
  4  5  2  0
  5  6  1  0
  6  7  2  0
  7  8  1  0
  8  9  2  0
  2 10  1  0
 10 11  1  0
 11 12  2  0
 12 13  1  0
 13 14  2  0
 14 15  1  0
 14 16  1  0
 16 17  2  0
  9  4  1  0
 17 11  1  0
M  END
>  <Title>  (228) 
idAAGVgen8

$$$$

     RDKit          2D

 71 73  0  0  0  0  0  0  0  0999 V2000
   -2.4878    0.0155    0.0000 C   0  0  0  0  0  0  0  0  0  0  0  0
   -2.2409   -1.4641    0.0000 C   0  0  0  0  0  0  0  0  0  0  0  0
   -3.7046   -1.7921    0.0000 C   0  0  0  0  0  0  0  0  0  0  0  0
   -5.1233   -2.2791    0.0000 C   0  0  0  0  0  0  0  0  0  0  0  0
   -6.4799   -2.9193    0.0000 C   0  0  0  0  0  0  0  0  0  0  0  0
   -7.7577   -3.7048    0.0000 C   0  0  0  0  0  0  0  0  0  0  0  0
   -8.9414   -4.6261    0.0000 C   0  0  0  0  0  0  0  0  0  0  0  0
  -10.0166   -5.6721    0.0000 C   0  0  0  0  0  0  0  0  0  0  0  0
  -10.9702   -6.8299    0.0000 C   0  0  0  0  0  0  0  0  0  0  0  0
  -11.7906   -8.0857    0.0000 C   0  0  0  0  0  0  0  0  0  0  0  0
  -12.4679   -9.4241    0.0000 C   0  0  0  0  0  0  0  0  0  0  0  0
  -12.9939  -10.8288    0.0000 C   0  0  0  0  0  0  0  0  0  0  0  0
  -13.3621  -12.2829    0.0000 C   0  0  0  0  0  0  0  0  0  0  0  0
  -13.5681  -13.7687    0.0000 C   0  0  0  0  0  0  0  0  0  0  0  0
  -13.6095  -15.2681    0.0000 C   0  0  0  0  0  0  0  0  0  0  0  0
  -13.4856  -16.7630    0.0000 C   0  0  0  0  0  0  0  0  0  0  0  0
  -13.1980  -18.2352    0.0000 C   0  0  0  0  0  0  0  0  0  0  0  0
  -12.7503  -19.6668    0.0000 C   0  0  0  0  0  0  0  0  0  0  0  0
  -12.1477  -21.0405    0.0000 C   0  0  0  0  0  0  0  0  0  0  0  0
  -11.3977  -22.3395    0.0000 C   0  0  0  0  0  0  0  0  0  0  0  0
  -10.5094  -23.5482    0.0000 C   0  0  0  0  0  0  0  0  0  0  0  0
   -9.4934  -24.6517    0.0000 C   0  0  0  0  0  0  0  0  0  0  0  0
   -8.3623  -25.6369    0.0000 C   0  0  0  0  0  0  0  0  0  0  0  0
   -7.1296  -26.4916    0.0000 C   0  0  0  0  0  0  0  0  0  0  0  0
   -5.8104  -27.2055    0.0000 C   0  0  0  0  0  0  0  0  0  0  0  0
   -4.4207  -27.7700    0.0000 C   0  0  0  0  0  0  0  0  0  0  0  0
   -2.9773  -28.1781    0.0000 C   0  0  0  0  0  0  0  0  0  0  0  0
   -1.4977  -28.4250    0.0000 C   0  0  0  0  0  0  0  0  0  0  0  0
    0.0000  -28.5076    0.0000 C   0  0  0  0  0  0  0  0  0  0  0  0
    1.4977  -28.4250    0.0000 C   0  0  0  0  0  0  0  0  0  0  0  0
    2.9773  -28.1781    0.0000 C   0  0  0  0  0  0  0  0  0  0  0  0
    4.4207  -27.7700    0.0000 C   0  0  0  0  0  0  0  0  0  0  0  0
    5.8104  -27.2055    0.0000 C   0  0  0  0  0  0  0  0  0  0  0  0
    7.1296  -26.4916    0.0000 C   0  0  0  0  0  0  0  0  0  0  0  0
    8.3623  -25.6369    0.0000 C   0  0  0  0  0  0  0  0  0  0  0  0
    9.4934  -24.6517    0.0000 C   0  0  0  0  0  0  0  0  0  0  0  0
   10.5094  -23.5482    0.0000 C   0  0  0  0  0  0  0  0  0  0  0  0
   11.3977  -22.3395    0.0000 C   0  0  0  0  0  0  0  0  0  0  0  0
   12.1477  -21.0405    0.0000 C   0  0  0  0  0  0  0  0  0  0  0  0
   12.7503  -19.6668    0.0000 C   0  0  0  0  0  0  0  0  0  0  0  0
   13.1980  -18.2352    0.0000 C   0  0  0  0  0  0  0  0  0  0  0  0
   13.4856  -16.7630    0.0000 C   0  0  0  0  0  0  0  0  0  0  0  0
   13.6095  -15.2681    0.0000 C   0  0  0  0  0  0  0  0  0  0  0  0
   13.5681  -13.7687    0.0000 C   0  0  0  0  0  0  0  0  0  0  0  0
   13.3621  -12.2829    0.0000 C   0  0  0  0  0  0  0  0  0  0  0  0
   12.9939  -10.8288    0.0000 C   0  0  0  0  0  0  0  0  0  0  0  0
   12.4679   -9.4241    0.0000 C   0  0  0  0  0  0  0  0  0  0  0  0
   11.7906   -8.0857    0.0000 C   0  0  0  0  0  0  0  0  0  0  0  0
   10.9702   -6.8299    0.0000 C   0  0  0  0  0  0  0  0  0  0  0  0
   10.0166   -5.6721    0.0000 C   0  0  0  0  0  0  0  0  0  0  0  0
    8.9414   -4.6261    0.0000 C   0  0  0  0  0  0  0  0  0  0  0  0
    7.7577   -3.7048    0.0000 C   0  0  0  0  0  0  0  0  0  0  0  0
    6.4799   -2.9193    0.0000 C   0  0  0  0  0  0  0  0  0  0  0  0
    5.1233   -2.2791    0.0000 C   0  0  0  0  0  0  0  0  0  0  0  0
    3.7046   -1.7921    0.0000 C   0  0  0  0  0  0  0  0  0  0  0  0
    2.2409   -1.4641    0.0000 C   0  0  0  0  0  0  0  0  0  0  0  0
    2.4878    0.0155    0.0000 C   0  0  0  0  0  0  0  0  0  0  0  0
    1.5951    1.2209    0.0000 O   0  0  0  0  0  0  0  0  0  0  0  0
    3.8926    0.5414    0.0000 N   0  0  0  0  0  0  0  0  0  0  0  0
    4.1394    2.0210    0.0000 C   0  0  0  0  0  0  0  0  0  0  0  0
    5.5442    2.5469    0.0000 N   0  0  0  0  0  0  0  0  0  0  0  0
    5.7911    4.0265    0.0000 N   0  0  0  0  0  0  0  0  0  0  0  0
    4.6332    4.9801    0.0000 N   0  0  0  0  0  0  0  0  0  0  0  0
    3.2285    4.4541    0.0000 N   0  0  0  0  0  0  0  0  0  0  0  0
    2.9816    2.9746    0.0000 N   0  0  0  0  0  0  0  0  0  0  0  0
    0.7500   -1.2990    0.0000 C   0  0  0  0  0  0  0  0  0  0  0  0
    1.5000    0.0000    0.0000 C   0  0  0  0  0  0  0  0  0  0  0  0
    0.7500    1.2990    0.0000 C   0  0  0  0  0  0  0  0  0  0  0  0
   -0.7500    1.2990    0.0000 C   0  0  0  0  0  0  0  0  0  0  0  0
   -1.5000    0.0000    0.0000 N   0  0  0  0  0  0  0  0  0  0  0  0
   -0.7500   -1.2990    0.0000 C   0  0  0  0  0  0  0  0  0  0  0  0
  1  2  1  0
  2  3  1  0
  3  4  1  0
  4  5  1  0
  5  6  1  0
  6  7  1  0
  7  8  1  0
  8  9  1  0
  9 10  1  0
 10 11  1  0
 11 12  1  0
 12 13  1  0
 13 14  1  0
 14 15  1  0
 15 16  1  0
 16 17  1  0
 17 18  1  0
 18 19  1  0
 19 20  1  0
 20 21  1  0
 21 22  1  0
 22 23  1  0
 23 24  1  0
 24 25  1  0
 25 26  1  0
 26 27  1  0
 27 28  1  0
 28 29  1  0
 29 30  1  0
 30 31  1  0
 31 32  1  0
 32 33  1  0
 33 34  1  0
 34 35  1  0
 35 36  1  0
 36 37  1  0
 37 38  1  0
 38 39  1  0
 39 40  1  0
 40 41  1  0
 41 42  1  0
 42 43  1  0
 43 44  1  0
 44 45  1  0
 45 46  1  0
 46 47  1  0
 47 48  1  0
 48 49  1  0
 49 50  1  0
 50 51  1  0
 51 52  1  0
 52 53  1  0
 53 54  1  0
 54 55  2  0
 55 56  1  0
 56 57  1  0
 57 58  2  0
 57 59  1  0
 59 60  1  0
 60 61  2  0
 61 62  1  0
 62 63  2  0
 63 64  1  0
 64 65  2  0
 56 66  1  0
 66 67  2  0
 67 68  1  0
 68 69  2  0
 69 70  1  0
 70 71  2  0
 71  2  1  0
 65 60  1  0
 71 66  1  0
M  END
>  <Title>  (229) 
idAAGWgen8

$$$$

     RDKit          2D

 16 16  0  0  0  0  0  0  0  0999 V2000
   16.5000    0.0000    0.0000 C   0  0  0  0  0  0  0  0  0  0  0  0
   15.0000    0.0000    0.0000 C   0  0  0  0  0  0  0  0  0  0  0  0
   13.5000    0.0000    0.0000 C   0  0  0  0  0  0  0  0  0  0  0  0
   12.0000    0.0000    0.0000 C   0  0  0  0  0  0  0  0  0  0  0  0
   10.5000    0.0000    0.0000 C   0  0  0  0  0  0  0  0  0  0  0  0
    9.0000    0.0000    0.0000 C   0  0  0  0  0  0  0  0  0  0  0  0
    7.5000    0.0000    0.0000 C   0  0  0  0  0  0  0  0  0  0  0  0
    6.0000    0.0000    0.0000 C   0  0  0  0  0  0  0  0  0  0  0  0
    4.5000    0.0000    0.0000 C   0  0  0  0  0  0  0  0  0  0  0  0
    3.0000    0.0000    0.0000 C   0  0  0  0  0  0  0  0  0  0  0  0
    1.5000    0.0000    0.0000 C   0  0  0  0  0  0  0  0  0  0  0  0
    0.7500   -1.2990    0.0000 C   0  0  0  0  0  0  0  0  0  0  0  0
   -0.7500   -1.2990    0.0000 C   0  0  0  0  0  0  0  0  0  0  0  0
   -1.5000    0.0000    0.0000 C   0  0  0  0  0  0  0  0  0  0  0  0
   -0.7500    1.2990    0.0000 C   0  0  0  0  0  0  0  0  0  0  0  0
    0.7500    1.2990    0.0000 C   0  0  0  0  0  0  0  0  0  0  0  0
  1  2  3  0
  2  3  1  0
  3  4  3  0
  4  5  1  0
  5  6  3  0
  6  7  1  0
  7  8  3  0
  8  9  1  0
  9 10  3  0
 10 11  1  0
 11 12  1  0
 12 13  2  0
 13 14  1  0
 14 15  2  0
 15 16  1  0
 16 11  1  0
M  END
>  <Title>  (230) 
idAAGXgen8

$$$$

     RDKit          2D

 16 16  0  0  0  0  0  0  0  0999 V2000
    7.5000   -2.5981    0.0000 C   0  0  0  0  0  0  0  0  0  0  0  0
    6.0000   -2.5981    0.0000 C   0  0  0  0  0  0  0  0  0  0  0  0
    5.2500   -1.2990    0.0000 C   0  0  0  0  0  0  0  0  0  0  0  0
    3.7500   -1.2990    0.0000 C   0  0  0  0  0  0  0  0  0  0  0  0
    3.0000   -2.5981    0.0000 O   0  0  0  0  0  0  0  0  0  0  0  0
    3.0000    0.0000    0.0000 N   0  0  0  0  0  0  0  0  0  0  0  0
    1.5000    0.0000    0.0000 C   0  0  0  0  0  0  0  0  0  0  0  0
    0.7500   -1.2990    0.0000 C   0  0  0  0  0  0  0  0  0  0  0  0
   -0.7500   -1.2990    0.0000 C   0  0  0  0  0  0  0  0  0  0  0  0
   -1.5000    0.0000    0.0000 C   0  0  0  0  0  0  0  0  0  0  0  0
   -3.0000    0.0000    0.0000 C   0  0  0  0  0  0  0  0  0  0  0  0
   -3.7500   -1.2990    0.0000 O   0  0  0  0  0  0  0  0  0  0  0  0
   -3.7500    1.2990    0.0000 O   0  0  0  0  0  0  0  0  0  0  0  0
   -0.7500    1.2990    0.0000 C   0  0  0  0  0  0  0  0  0  0  0  0
   -1.5000    2.5981    0.0000 O   0  0  0  0  0  0  0  0  0  0  0  0
    0.7500    1.2990    0.0000 C   0  0  0  0  0  0  0  0  0  0  0  0
  1  2  1  0
  2  3  2  3
  3  4  1  0
  4  5  2  0
  4  6  1  0
  6  7  1  0
  7  8  2  0
  8  9  1  0
  9 10  2  0
 10 11  1  0
 11 12  2  0
 11 13  1  0
 10 14  1  0
 14 15  2  0
 14 16  1  0
 16  7  1  0
M  END
>  <Title>  (231) 
idAAGYgen8

$$$$

     RDKit          2D

  8  8  0  0  0  0  0  0  0  0999 V2000
    4.2760   -0.0000    0.0000 C   0  0  0  0  0  0  0  0  0  0  0  0
    2.7760    0.0000    0.0000 C   0  0  0  0  0  0  0  0  0  0  0  0
    1.2760    0.0000    0.0000 C   0  0  0  0  0  0  0  0  0  0  0  0
    0.3943    1.2135    0.0000 C   0  0  0  0  0  0  0  0  0  0  0  0
   -1.0323    0.7500    0.0000 C   0  0  0  0  0  0  0  0  0  0  0  0
   -2.2458    1.6317    0.0000 O   0  0  0  0  0  0  0  0  0  0  0  0
   -1.0323   -0.7500    0.0000 C   0  0  0  0  0  0  0  0  0  0  0  0
    0.3943   -1.2135    0.0000 C   0  0  0  0  0  0  0  0  0  0  0  0
  1  2  3  0
  2  3  1  0
  3  4  2  0
  4  5  1  0
  5  6  1  0
  5  7  1  0
  7  8  1  0
  8  3  1  0
M  END
>  <Title>  (232) 
idAAGZgen8

$$$$

     RDKit          2D

  7  7  0  0  0  0  0  0  0  0999 V2000
    3.0000    0.0000    0.0000 O   0  0  0  0  0  0  0  0  0  0  0  0
    1.5000    0.0000    0.0000 C   0  0  0  0  0  0  0  0  0  0  0  0
    0.7500   -1.2990    0.0000 C   0  0  0  0  0  0  0  0  0  0  0  0
   -0.7500   -1.2990    0.0000 C   0  0  0  0  0  0  0  0  0  0  0  0
   -1.5000    0.0000    0.0000 C   0  0  0  0  0  0  0  0  0  0  0  0
   -0.7500    1.2990    0.0000 C   0  0  0  0  0  0  0  0  0  0  0  0
    0.7500    1.2990    0.0000 C   0  0  0  0  0  0  0  0  0  0  0  0
  1  2  1  0
  2  3  2  0
  3  4  1  0
  4  5  2  0
  5  6  1  0
  6  7  2  0
  7  2  1  0
M  END
>  <Title>  (233) 
idAAHAgen8

$$$$

     RDKit          2D

 25 28  0  0  0  0  0  0  0  0999 V2000
   -3.0000   -2.5981    0.0000 C   0  0  0  0  0  0  0  0  0  0  0  0
   -1.5000   -2.5981    0.0000 C   0  0  0  0  0  0  0  0  0  0  0  0
   -0.7500   -3.8971    0.0000 C   0  0  0  0  0  0  0  0  0  0  0  0
    0.7500   -3.8971    0.0000 C   0  0  0  0  0  0  0  0  0  0  0  0
    1.5000   -2.5981    0.0000 C   0  0  0  0  0  0  0  0  0  0  0  0
    3.0000   -2.5981    0.0000 C   0  0  0  0  0  0  0  0  0  0  0  0
    3.7500   -1.2990    0.0000 O   0  0  0  0  0  0  0  0  0  0  0  0
    3.7500   -3.8971    0.0000 N   0  0  0  0  0  0  0  0  0  0  0  0
    5.2500   -3.8971    0.0000 C   0  0  0  0  0  0  0  0  0  0  0  0
    6.1317   -2.6836    0.0000 N   0  0  0  0  0  0  0  0  0  0  0  0
    7.5583   -3.1471    0.0000 N   0  0  0  0  0  0  0  0  0  0  0  0
    7.5583   -4.6471    0.0000 N   0  0  0  0  0  0  0  0  0  0  0  0
    6.1317   -5.1106    0.0000 N   0  0  0  0  0  0  0  0  0  0  0  0
    5.6682   -6.5372    0.0000 C   0  0  0  0  0  0  0  0  0  0  0  0
    4.2009   -6.8491    0.0000 C   0  0  0  0  0  0  0  0  0  0  0  0
    3.7374   -8.2757    0.0000 C   0  0  0  0  0  0  0  0  0  0  0  0
    4.7411   -9.3904    0.0000 C   0  0  0  0  0  0  0  0  0  0  0  0
    6.2083   -9.0785    0.0000 C   0  0  0  0  0  0  0  0  0  0  0  0
    6.6718   -7.6519    0.0000 C   0  0  0  0  0  0  0  0  0  0  0  0
    0.7500   -1.2990    0.0000 C   0  0  0  0  0  0  0  0  0  0  0  0
    1.5000    0.0000    0.0000 C   0  0  0  0  0  0  0  0  0  0  0  0
    0.7500    1.2990    0.0000 C   0  0  0  0  0  0  0  0  0  0  0  0
   -0.7500    1.2990    0.0000 C   0  0  0  0  0  0  0  0  0  0  0  0
   -1.5000    0.0000    0.0000 C   0  0  0  0  0  0  0  0  0  0  0  0
   -0.7500   -1.2990    0.0000 C   0  0  0  0  0  0  0  0  0  0  0  0
  1  2  1  0
  2  3  1  0
  3  4  1  0
  4  5  1  0
  5  6  1  0
  6  7  2  0
  6  8  1  0
  8  9  1  0
  9 10  2  0
 10 11  1  0
 11 12  2  0
 12 13  1  0
 13 14  1  0
 14 15  2  0
 15 16  1  0
 16 17  2  0
 17 18  1  0
 18 19  2  0
  5 20  1  0
 20 21  2  0
 21 22  1  0
 22 23  2  0
 23 24  1  0
 24 25  2  0
 25  2  1  0
 13  9  1  0
 19 14  1  0
 25 20  1  0
M  END
>  <Title>  (234) 
idAAHBgen8

$$$$

     RDKit          2D

 10 10  0  0  0  0  0  0  0  0999 V2000
    4.9320    1.5439    0.0000 C   0  0  0  0  0  0  0  0  0  0  0  0
    3.8173    0.5402    0.0000 C   0  0  0  0  0  0  0  0  0  0  0  0
    2.3907    1.0037    0.0000 C   0  0  0  0  0  0  0  0  0  0  0  0
    1.2760    0.0000    0.0000 C   0  0  0  0  0  0  0  0  0  0  0  0
    2.3907   -1.0037    0.0000 O   0  0  0  0  0  0  0  0  0  0  0  0
    0.3943    1.2135    0.0000 C   0  0  0  0  0  0  0  0  0  0  0  0
   -1.0323    0.7500    0.0000 C   0  0  0  0  0  0  0  0  0  0  0  0
   -1.0323   -0.7500    0.0000 C   0  0  0  0  0  0  0  0  0  0  0  0
   -2.2458   -1.6317    0.0000 O   0  0  0  0  0  0  0  0  0  0  0  0
    0.3943   -1.2135    0.0000 C   0  0  0  0  0  0  0  0  0  0  0  0
  1  2  1  0
  2  3  1  0
  3  4  1  0
  4  5  1  0
  4  6  1  0
  6  7  1  0
  7  8  1  0
  8  9  1  0
  8 10  1  0
 10  4  1  0
M  END
>  <Title>  (235) 
idAAHCgen8

$$$$

     RDKit          2D

 86 87  0  0  0  0  0  0  0  0999 V2000
   -2.1933   -1.0733    0.0000 C   0  0  0  0  0  0  0  0  0  0  0  0
   -2.4902    0.3970    0.0000 C   0  0  0  0  0  0  0  0  0  0  0  0
   -3.9708    0.1567    0.0000 C   0  0  0  0  0  0  0  0  0  0  0  0
   -5.4655    0.0304    0.0000 C   0  0  0  0  0  0  0  0  0  0  0  0
   -6.9654    0.0189    0.0000 C   0  0  0  0  0  0  0  0  0  0  0  0
   -8.4619    0.1223    0.0000 C   0  0  0  0  0  0  0  0  0  0  0  0
   -9.9460    0.3399    0.0000 C   0  0  0  0  0  0  0  0  0  0  0  0
  -11.4091    0.6705    0.0000 C   0  0  0  0  0  0  0  0  0  0  0  0
  -12.8426    1.1121    0.0000 C   0  0  0  0  0  0  0  0  0  0  0  0
  -14.2381    1.6621    0.0000 C   0  0  0  0  0  0  0  0  0  0  0  0
  -15.5874    2.3174    0.0000 C   0  0  0  0  0  0  0  0  0  0  0  0
  -16.8826    3.0740    0.0000 C   0  0  0  0  0  0  0  0  0  0  0  0
  -18.1161    3.9276    0.0000 C   0  0  0  0  0  0  0  0  0  0  0  0
  -19.2806    4.8731    0.0000 C   0  0  0  0  0  0  0  0  0  0  0  0
  -20.3693    5.9049    0.0000 C   0  0  0  0  0  0  0  0  0  0  0  0
  -21.3759    7.0170    0.0000 C   0  0  0  0  0  0  0  0  0  0  0  0
  -22.2943    8.2030    0.0000 C   0  0  0  0  0  0  0  0  0  0  0  0
  -23.1193    9.4557    0.0000 C   0  0  0  0  0  0  0  0  0  0  0  0
  -23.8460   10.7680    0.0000 C   0  0  0  0  0  0  0  0  0  0  0  0
  -24.4700   12.1320    0.0000 C   0  0  0  0  0  0  0  0  0  0  0  0
  -24.9879   13.5398    0.0000 C   0  0  0  0  0  0  0  0  0  0  0  0
  -25.3964   14.9831    0.0000 C   0  0  0  0  0  0  0  0  0  0  0  0
  -25.6933   16.4534    0.0000 C   0  0  0  0  0  0  0  0  0  0  0  0
  -25.8767   17.9421    0.0000 C   0  0  0  0  0  0  0  0  0  0  0  0
  -25.9456   19.4406    0.0000 C   0  0  0  0  0  0  0  0  0  0  0  0
  -25.8997   20.9399    0.0000 C   0  0  0  0  0  0  0  0  0  0  0  0
  -25.7391   22.4312    0.0000 C   0  0  0  0  0  0  0  0  0  0  0  0
  -25.4648   23.9059    0.0000 C   0  0  0  0  0  0  0  0  0  0  0  0
  -25.0784   25.3553    0.0000 C   0  0  0  0  0  0  0  0  0  0  0  0
  -24.5822   26.7709    0.0000 C   0  0  0  0  0  0  0  0  0  0  0  0
  -23.9791   28.1443    0.0000 C   0  0  0  0  0  0  0  0  0  0  0  0
  -23.2726   29.4675    0.0000 C   0  0  0  0  0  0  0  0  0  0  0  0
  -22.4670   30.7328    0.0000 C   0  0  0  0  0  0  0  0  0  0  0  0
  -21.5668   31.9326    0.0000 C   0  0  0  0  0  0  0  0  0  0  0  0
  -20.5774   33.0601    0.0000 C   0  0  0  0  0  0  0  0  0  0  0  0
  -19.5046   34.1085    0.0000 C   0  0  0  0  0  0  0  0  0  0  0  0
  -18.3547   35.0717    0.0000 C   0  0  0  0  0  0  0  0  0  0  0  0
  -17.1345   35.9440    0.0000 C   0  0  0  0  0  0  0  0  0  0  0  0
  -15.8511   36.7204    0.0000 C   0  0  0  0  0  0  0  0  0  0  0  0
  -14.5120   37.3963    0.0000 C   0  0  0  0  0  0  0  0  0  0  0  0
  -13.1250   37.9677    0.0000 C   0  0  0  0  0  0  0  0  0  0  0  0
  -11.6985   38.4312    0.0000 C   0  0  0  0  0  0  0  0  0  0  0  0
  -10.2406   38.7841    0.0000 C   0  0  0  0  0  0  0  0  0  0  0  0
   -8.7599   39.0245    0.0000 C   0  0  0  0  0  0  0  0  0  0  0  0
   -7.2653   39.1507    0.0000 C   0  0  0  0  0  0  0  0  0  0  0  0
   -5.7653   39.1622    0.0000 C   0  0  0  0  0  0  0  0  0  0  0  0
   -4.2689   39.0589    0.0000 C   0  0  0  0  0  0  0  0  0  0  0  0
   -2.7847   38.8413    0.0000 C   0  0  0  0  0  0  0  0  0  0  0  0
   -1.3216   38.5107    0.0000 C   0  0  0  0  0  0  0  0  0  0  0  0
    0.1119   38.0691    0.0000 C   0  0  0  0  0  0  0  0  0  0  0  0
    1.5074   37.5190    0.0000 C   0  0  0  0  0  0  0  0  0  0  0  0
    2.8567   36.8638    0.0000 C   0  0  0  0  0  0  0  0  0  0  0  0
    4.1519   36.1071    0.0000 C   0  0  0  0  0  0  0  0  0  0  0  0
    5.3854   35.2536    0.0000 C   0  0  0  0  0  0  0  0  0  0  0  0
    6.5499   34.3081    0.0000 C   0  0  0  0  0  0  0  0  0  0  0  0
    7.6386   33.2763    0.0000 C   0  0  0  0  0  0  0  0  0  0  0  0
    8.6451   32.1641    0.0000 C   0  0  0  0  0  0  0  0  0  0  0  0
    9.5636   30.9782    0.0000 C   0  0  0  0  0  0  0  0  0  0  0  0
   10.3886   29.7254    0.0000 C   0  0  0  0  0  0  0  0  0  0  0  0
   11.1152   28.4132    0.0000 C   0  0  0  0  0  0  0  0  0  0  0  0
   11.7393   27.0492    0.0000 C   0  0  0  0  0  0  0  0  0  0  0  0
   12.2571   25.6414    0.0000 C   0  0  0  0  0  0  0  0  0  0  0  0
   12.6657   24.1981    0.0000 C   0  0  0  0  0  0  0  0  0  0  0  0
   12.9625   22.7278    0.0000 C   0  0  0  0  0  0  0  0  0  0  0  0
   13.1460   21.2390    0.0000 C   0  0  0  0  0  0  0  0  0  0  0  0
   13.2149   19.7406    0.0000 C   0  0  0  0  0  0  0  0  0  0  0  0
   13.1689   18.2413    0.0000 C   0  0  0  0  0  0  0  0  0  0  0  0
   13.0083   16.7500    0.0000 C   0  0  0  0  0  0  0  0  0  0  0  0
   12.7340   15.2752    0.0000 C   0  0  0  0  0  0  0  0  0  0  0  0
   12.3477   13.8259    0.0000 C   0  0  0  0  0  0  0  0  0  0  0  0
   11.8515   12.4103    0.0000 C   0  0  0  0  0  0  0  0  0  0  0  0
   11.2484   11.0369    0.0000 C   0  0  0  0  0  0  0  0  0  0  0  0
   10.5419    9.7137    0.0000 C   0  0  0  0  0  0  0  0  0  0  0  0
    9.7362    8.4484    0.0000 C   0  0  0  0  0  0  0  0  0  0  0  0
    8.8361    7.2485    0.0000 C   0  0  0  0  0  0  0  0  0  0  0  0
    7.8467    6.1211    0.0000 C   0  0  0  0  0  0  0  0  0  0  0  0
    6.7739    5.0727    0.0000 C   0  0  0  0  0  0  0  0  0  0  0  0
    5.6240    4.1095    0.0000 C   0  0  0  0  0  0  0  0  0  0  0  0
    4.4038    3.2371    0.0000 C   0  0  0  0  0  0  0  0  0  0  0  0
    3.1203    2.4608    0.0000 C   0  0  0  0  0  0  0  0  0  0  0  0
    1.7812    1.7849    0.0000 C   0  0  0  0  0  0  0  0  0  0  0  0
    0.3943    1.2135    0.0000 C   0  0  0  0  0  0  0  0  0  0  0  0
    1.2760    0.0000    0.0000 C   0  0  0  0  0  0  0  0  0  0  0  0
    0.3943   -1.2135    0.0000 C   0  0  0  0  0  0  0  0  0  0  0  0
   -1.0323   -0.7500    0.0000 C   0  0  0  0  0  0  0  0  0  0  0  0
   -1.0323    0.7500    0.0000 C   0  0  0  0  0  0  0  0  0  0  0  0
  1  2  1  0
  2  3  1  0
  3  4  1  0
  4  5  1  0
  5  6  1  0
  6  7  1  0
  7  8  1  0
  8  9  1  0
  9 10  1  0
 10 11  1  0
 11 12  2  0
 12 13  1  0
 13 14  2  0
 14 15  1  0
 15 16  2  0
 16 17  1  0
 17 18  2  0
 18 19  1  0
 19 20  2  0
 20 21  1  0
 21 22  2  0
 22 23  1  0
 23 24  2  0
 24 25  1  0
 25 26  2  0
 26 27  1  0
 27 28  2  0
 28 29  1  0
 29 30  2  0
 30 31  1  0
 31 32  2  0
 32 33  1  0
 33 34  2  0
 34 35  1  0
 35 36  2  0
 36 37  1  0
 37 38  2  0
 38 39  1  0
 39 40  2  0
 40 41  1  0
 41 42  2  0
 42 43  1  0
 43 44  2  0
 44 45  1  0
 45 46  2  0
 46 47  1  0
 47 48  2  0
 48 49  1  0
 49 50  2  0
 50 51  1  0
 51 52  2  0
 52 53  1  0
 53 54  2  0
 54 55  1  0
 55 56  2  0
 56 57  1  0
 57 58  2  0
 58 59  1  0
 59 60  2  0
 60 61  1  0
 61 62  2  0
 62 63  1  0
 63 64  2  0
 64 65  1  0
 65 66  2  0
 66 67  1  0
 67 68  2  0
 68 69  1  0
 69 70  2  0
 70 71  1  0
 71 72  2  0
 72 73  1  0
 73 74  2  0
 74 75  1  0
 75 76  2  0
 76 77  1  0
 77 78  2  0
 78 79  1  0
 79 80  2  0
 80 81  1  0
 81 82  2  0
 82 83  1  0
 83 84  2  0
 84 85  1  0
 85 86  2  0
 86  2  1  0
 86 82  1  0
M  END
>  <Title>  (236) 
idAAHDgen8

$$$$

     RDKit          2D

125125  0  0  0  0  0  0  0  0999 V2000
   31.1060    0.0000    0.0000 C   0  0  0  0  0  0  0  0  0  0  0  0
   29.6060    0.0000    0.0000 C   0  0  0  0  0  0  0  0  0  0  0  0
   29.5680   -1.4995    0.0000 C   0  0  0  0  0  0  0  0  0  0  0  0
   29.4541   -2.9952    0.0000 C   0  0  0  0  0  0  0  0  0  0  0  0
   29.2646   -4.4832    0.0000 C   0  0  0  0  0  0  0  0  0  0  0  0
   29.0000   -5.9596    0.0000 C   0  0  0  0  0  0  0  0  0  0  0  0
   28.6609   -7.4208    0.0000 C   0  0  0  0  0  0  0  0  0  0  0  0
   28.2482   -8.8629    0.0000 C   0  0  0  0  0  0  0  0  0  0  0  0
   27.7631  -10.2823    0.0000 C   0  0  0  0  0  0  0  0  0  0  0  0
   27.2067  -11.6753    0.0000 C   0  0  0  0  0  0  0  0  0  0  0  0
   26.5804  -13.0383    0.0000 C   0  0  0  0  0  0  0  0  0  0  0  0
   25.8859  -14.3678    0.0000 C   0  0  0  0  0  0  0  0  0  0  0  0
   25.1250  -15.6605    0.0000 C   0  0  0  0  0  0  0  0  0  0  0  0
   24.2995  -16.9130    0.0000 C   0  0  0  0  0  0  0  0  0  0  0  0
   23.4117  -18.1220    0.0000 C   0  0  0  0  0  0  0  0  0  0  0  0
   22.4638  -19.2845    0.0000 C   0  0  0  0  0  0  0  0  0  0  0  0
   21.4582  -20.3975    0.0000 C   0  0  0  0  0  0  0  0  0  0  0  0
   20.3975  -21.4582    0.0000 C   0  0  0  0  0  0  0  0  0  0  0  0
   19.2845  -22.4638    0.0000 C   0  0  0  0  0  0  0  0  0  0  0  0
   18.1220  -23.4117    0.0000 C   0  0  0  0  0  0  0  0  0  0  0  0
   16.9130  -24.2995    0.0000 C   0  0  0  0  0  0  0  0  0  0  0  0
   15.6605  -25.1250    0.0000 C   0  0  0  0  0  0  0  0  0  0  0  0
   14.3678  -25.8859    0.0000 C   0  0  0  0  0  0  0  0  0  0  0  0
   13.0383  -26.5804    0.0000 C   0  0  0  0  0  0  0  0  0  0  0  0
   11.6753  -27.2067    0.0000 C   0  0  0  0  0  0  0  0  0  0  0  0
   10.2823  -27.7631    0.0000 C   0  0  0  0  0  0  0  0  0  0  0  0
    8.8629  -28.2482    0.0000 C   0  0  0  0  0  0  0  0  0  0  0  0
    7.4208  -28.6609    0.0000 C   0  0  0  0  0  0  0  0  0  0  0  0
    5.9596  -29.0000    0.0000 C   0  0  0  0  0  0  0  0  0  0  0  0
    4.4832  -29.2646    0.0000 C   0  0  0  0  0  0  0  0  0  0  0  0
    2.9952  -29.4541    0.0000 C   0  0  0  0  0  0  0  0  0  0  0  0
    1.4995  -29.5680    0.0000 C   0  0  0  0  0  0  0  0  0  0  0  0
   -0.0000  -29.6060    0.0000 C   0  0  0  0  0  0  0  0  0  0  0  0
   -1.4995  -29.5680    0.0000 C   0  0  0  0  0  0  0  0  0  0  0  0
   -2.9952  -29.4541    0.0000 C   0  0  0  0  0  0  0  0  0  0  0  0
   -4.4832  -29.2646    0.0000 C   0  0  0  0  0  0  0  0  0  0  0  0
   -5.9596  -29.0000    0.0000 C   0  0  0  0  0  0  0  0  0  0  0  0
   -7.4208  -28.6609    0.0000 C   0  0  0  0  0  0  0  0  0  0  0  0
   -8.8629  -28.2482    0.0000 C   0  0  0  0  0  0  0  0  0  0  0  0
  -10.2823  -27.7631    0.0000 C   0  0  0  0  0  0  0  0  0  0  0  0
  -11.6753  -27.2067    0.0000 C   0  0  0  0  0  0  0  0  0  0  0  0
  -13.0383  -26.5804    0.0000 C   0  0  0  0  0  0  0  0  0  0  0  0
  -14.3678  -25.8859    0.0000 C   0  0  0  0  0  0  0  0  0  0  0  0
  -15.6605  -25.1250    0.0000 C   0  0  0  0  0  0  0  0  0  0  0  0
  -16.9130  -24.2995    0.0000 C   0  0  0  0  0  0  0  0  0  0  0  0
  -18.1220  -23.4117    0.0000 C   0  0  0  0  0  0  0  0  0  0  0  0
  -19.2845  -22.4638    0.0000 C   0  0  0  0  0  0  0  0  0  0  0  0
  -20.3975  -21.4582    0.0000 C   0  0  0  0  0  0  0  0  0  0  0  0
  -21.4582  -20.3975    0.0000 C   0  0  0  0  0  0  0  0  0  0  0  0
  -22.4638  -19.2845    0.0000 C   0  0  0  0  0  0  0  0  0  0  0  0
  -23.4117  -18.1220    0.0000 C   0  0  0  0  0  0  0  0  0  0  0  0
  -24.2995  -16.9130    0.0000 C   0  0  0  0  0  0  0  0  0  0  0  0
  -25.1250  -15.6605    0.0000 C   0  0  0  0  0  0  0  0  0  0  0  0
  -25.8859  -14.3678    0.0000 C   0  0  0  0  0  0  0  0  0  0  0  0
  -26.5804  -13.0383    0.0000 C   0  0  0  0  0  0  0  0  0  0  0  0
  -27.2067  -11.6753    0.0000 C   0  0  0  0  0  0  0  0  0  0  0  0
  -27.7631  -10.2823    0.0000 C   0  0  0  0  0  0  0  0  0  0  0  0
  -28.2482   -8.8629    0.0000 C   0  0  0  0  0  0  0  0  0  0  0  0
  -28.6609   -7.4208    0.0000 C   0  0  0  0  0  0  0  0  0  0  0  0
  -29.0000   -5.9596    0.0000 C   0  0  0  0  0  0  0  0  0  0  0  0
  -29.2646   -4.4832    0.0000 C   0  0  0  0  0  0  0  0  0  0  0  0
  -29.4541   -2.9952    0.0000 C   0  0  0  0  0  0  0  0  0  0  0  0
  -29.5680   -1.4995    0.0000 C   0  0  0  0  0  0  0  0  0  0  0  0
  -29.6060    0.0000    0.0000 C   0  0  0  0  0  0  0  0  0  0  0  0
  -29.5680    1.4995    0.0000 C   0  0  0  0  0  0  0  0  0  0  0  0
  -29.4541    2.9952    0.0000 C   0  0  0  0  0  0  0  0  0  0  0  0
  -29.2646    4.4832    0.0000 C   0  0  0  0  0  0  0  0  0  0  0  0
  -29.0000    5.9596    0.0000 C   0  0  0  0  0  0  0  0  0  0  0  0
  -28.6609    7.4208    0.0000 C   0  0  0  0  0  0  0  0  0  0  0  0
  -28.2482    8.8629    0.0000 C   0  0  0  0  0  0  0  0  0  0  0  0
  -27.7631   10.2823    0.0000 C   0  0  0  0  0  0  0  0  0  0  0  0
  -27.2067   11.6753    0.0000 C   0  0  0  0  0  0  0  0  0  0  0  0
  -26.5804   13.0383    0.0000 C   0  0  0  0  0  0  0  0  0  0  0  0
  -25.8859   14.3678    0.0000 C   0  0  0  0  0  0  0  0  0  0  0  0
  -25.1250   15.6605    0.0000 C   0  0  0  0  0  0  0  0  0  0  0  0
  -24.2995   16.9130    0.0000 C   0  0  0  0  0  0  0  0  0  0  0  0
  -23.4117   18.1220    0.0000 C   0  0  0  0  0  0  0  0  0  0  0  0
  -22.4638   19.2845    0.0000 C   0  0  0  0  0  0  0  0  0  0  0  0
  -21.4582   20.3975    0.0000 C   0  0  0  0  0  0  0  0  0  0  0  0
  -20.3975   21.4582    0.0000 C   0  0  0  0  0  0  0  0  0  0  0  0
  -19.2845   22.4638    0.0000 C   0  0  0  0  0  0  0  0  0  0  0  0
  -18.1220   23.4117    0.0000 C   0  0  0  0  0  0  0  0  0  0  0  0
  -16.9130   24.2995    0.0000 C   0  0  0  0  0  0  0  0  0  0  0  0
  -15.6605   25.1250    0.0000 C   0  0  0  0  0  0  0  0  0  0  0  0
  -14.3678   25.8859    0.0000 C   0  0  0  0  0  0  0  0  0  0  0  0
  -13.0383   26.5804    0.0000 C   0  0  0  0  0  0  0  0  0  0  0  0
  -11.6753   27.2067    0.0000 C   0  0  0  0  0  0  0  0  0  0  0  0
  -10.2823   27.7631    0.0000 C   0  0  0  0  0  0  0  0  0  0  0  0
   -8.8629   28.2482    0.0000 C   0  0  0  0  0  0  0  0  0  0  0  0
   -7.4208   28.6609    0.0000 C   0  0  0  0  0  0  0  0  0  0  0  0
   -5.9596   29.0000    0.0000 C   0  0  0  0  0  0  0  0  0  0  0  0
   -4.4832   29.2646    0.0000 C   0  0  0  0  0  0  0  0  0  0  0  0
   -2.9952   29.4541    0.0000 C   0  0  0  0  0  0  0  0  0  0  0  0
   -1.4995   29.5680    0.0000 C   0  0  0  0  0  0  0  0  0  0  0  0
    0.0000   29.6060    0.0000 C   0  0  0  0  0  0  0  0  0  0  0  0
    1.4995   29.5680    0.0000 C   0  0  0  0  0  0  0  0  0  0  0  0
    2.9952   29.4541    0.0000 C   0  0  0  0  0  0  0  0  0  0  0  0
    4.4832   29.2646    0.0000 C   0  0  0  0  0  0  0  0  0  0  0  0
    5.9596   29.0000    0.0000 C   0  0  0  0  0  0  0  0  0  0  0  0
    7.4208   28.6609    0.0000 C   0  0  0  0  0  0  0  0  0  0  0  0
    8.8629   28.2482    0.0000 C   0  0  0  0  0  0  0  0  0  0  0  0
   10.2823   27.7631    0.0000 C   0  0  0  0  0  0  0  0  0  0  0  0
   11.6753   27.2067    0.0000 C   0  0  0  0  0  0  0  0  0  0  0  0
   13.0383   26.5804    0.0000 C   0  0  0  0  0  0  0  0  0  0  0  0
   14.3678   25.8859    0.0000 C   0  0  0  0  0  0  0  0  0  0  0  0
   15.6605   25.1250    0.0000 C   0  0  0  0  0  0  0  0  0  0  0  0
   16.9130   24.2995    0.0000 C   0  0  0  0  0  0  0  0  0  0  0  0
   18.1220   23.4117    0.0000 C   0  0  0  0  0  0  0  0  0  0  0  0
   19.2845   22.4638    0.0000 C   0  0  0  0  0  0  0  0  0  0  0  0
   20.3975   21.4582    0.0000 C   0  0  0  0  0  0  0  0  0  0  0  0
   21.4582   20.3975    0.0000 C   0  0  0  0  0  0  0  0  0  0  0  0
   22.4638   19.2845    0.0000 C   0  0  0  0  0  0  0  0  0  0  0  0
   23.4117   18.1220    0.0000 C   0  0  0  0  0  0  0  0  0  0  0  0
   24.2995   16.9130    0.0000 C   0  0  0  0  0  0  0  0  0  0  0  0
   25.1250   15.6605    0.0000 C   0  0  0  0  0  0  0  0  0  0  0  0
   25.8859   14.3678    0.0000 C   0  0  0  0  0  0  0  0  0  0  0  0
   26.5804   13.0383    0.0000 C   0  0  0  0  0  0  0  0  0  0  0  0
   27.2067   11.6753    0.0000 C   0  0  0  0  0  0  0  0  0  0  0  0
   27.7631   10.2823    0.0000 C   0  0  0  0  0  0  0  0  0  0  0  0
   28.2482    8.8629    0.0000 C   0  0  0  0  0  0  0  0  0  0  0  0
   28.6609    7.4208    0.0000 C   0  0  0  0  0  0  0  0  0  0  0  0
   29.0000    5.9596    0.0000 C   0  0  0  0  0  0  0  0  0  0  0  0
   29.2646    4.4832    0.0000 C   0  0  0  0  0  0  0  0  0  0  0  0
   29.4541    2.9952    0.0000 C   0  0  0  0  0  0  0  0  0  0  0  0
   29.5680    1.4995    0.0000 C   0  0  0  0  0  0  0  0  0  0  0  0
  1  2  1  0
  2  3  1  0
  3  4  1  0
  4  5  1  0
  5  6  1  0
  6  7  1  0
  7  8  1  0
  8  9  1  0
  9 10  1  0
 10 11  1  0
 11 12  1  0
 12 13  1  0
 13 14  1  0
 14 15  1  0
 15 16  1  0
 16 17  1  0
 17 18  1  0
 18 19  1  0
 19 20  1  0
 20 21  1  0
 21 22  1  0
 22 23  1  0
 23 24  1  0
 24 25  1  0
 25 26  1  0
 26 27  1  0
 27 28  1  0
 28 29  1  0
 29 30  1  0
 30 31  1  0
 31 32  1  0
 32 33  1  0
 33 34  1  0
 34 35  1  0
 35 36  1  0
 36 37  1  0
 37 38  1  0
 38 39  1  0
 39 40  1  0
 40 41  1  0
 41 42  1  0
 42 43  1  0
 43 44  1  0
 44 45  1  0
 45 46  1  0
 46 47  1  0
 47 48  1  0
 48 49  1  0
 49 50  1  0
 50 51  1  0
 51 52  1  0
 52 53  1  0
 53 54  1  0
 54 55  1  0
 55 56  1  0
 56 57  1  0
 57 58  1  0
 58 59  1  0
 59 60  1  0
 60 61  1  0
 61 62  1  0
 62 63  1  0
 63 64  1  0
 64 65  1  0
 65 66  1  0
 66 67  1  0
 67 68  1  0
 68 69  1  0
 69 70  1  0
 70 71  1  0
 71 72  1  0
 72 73  1  0
 73 74  1  0
 74 75  1  0
 75 76  1  0
 76 77  1  0
 77 78  1  0
 78 79  1  0
 79 80  1  0
 80 81  1  0
 81 82  1  0
 82 83  1  0
 83 84  1  0
 84 85  1  0
 85 86  1  0
 86 87  1  0
 87 88  1  0
 88 89  1  0
 89 90  1  0
 90 91  1  0
 91 92  1  0
 92 93  1  0
 93 94  1  0
 94 95  1  0
 95 96  1  0
 96 97  1  0
 97 98  1  0
 98 99  1  0
 99100  1  0
100101  1  0
101102  1  0
102103  1  0
103104  1  0
104105  1  0
105106  1  0
106107  1  0
107108  1  0
108109  1  0
109110  1  0
110111  1  0
111112  1  0
112113  1  0
113114  1  0
114115  1  0
115116  1  0
116117  1  0
117118  1  0
118119  1  0
119120  1  0
120121  1  0
121122  1  0
122123  1  0
123124  1  0
124125  1  0
125  2  1  0
M  END
>  <Title>  (237) 
idAAHEgen8

$$$$

     RDKit          2D

113113  0  0  0  0  0  0  0  0999 V2000
   26.9802    0.0000    0.0000 C   0  0  0  0  0  0  0  0  0  0  0  0
   26.9385    1.4994    0.0000 C   0  0  0  0  0  0  0  0  0  0  0  0
   26.8136    2.9942    0.0000 C   0  0  0  0  0  0  0  0  0  0  0  0
   26.6057    4.4797    0.0000 C   0  0  0  0  0  0  0  0  0  0  0  0
   26.3157    5.9514    0.0000 C   0  0  0  0  0  0  0  0  0  0  0  0
   25.9442    7.4047    0.0000 C   0  0  0  0  0  0  0  0  0  0  0  0
   25.4926    8.8351    0.0000 C   0  0  0  0  0  0  0  0  0  0  0  0
   24.9622   10.2382    0.0000 C   0  0  0  0  0  0  0  0  0  0  0  0
   24.3547   11.6096    0.0000 C   0  0  0  0  0  0  0  0  0  0  0  0
   23.6718   12.9452    0.0000 C   0  0  0  0  0  0  0  0  0  0  0  0
   22.9158   14.2408    0.0000 C   0  0  0  0  0  0  0  0  0  0  0  0
   22.0890   15.4923    0.0000 C   0  0  0  0  0  0  0  0  0  0  0  0
   21.1938   16.6959    0.0000 C   0  0  0  0  0  0  0  0  0  0  0  0
   20.2332   17.8480    0.0000 C   0  0  0  0  0  0  0  0  0  0  0  0
   19.2100   18.9449    0.0000 C   0  0  0  0  0  0  0  0  0  0  0  0
   18.1275   19.9832    0.0000 C   0  0  0  0  0  0  0  0  0  0  0  0
   16.9889   20.9597    0.0000 C   0  0  0  0  0  0  0  0  0  0  0  0
   15.7978   21.8715    0.0000 C   0  0  0  0  0  0  0  0  0  0  0  0
   14.5579   22.7156    0.0000 C   0  0  0  0  0  0  0  0  0  0  0  0
   13.2730   23.4896    0.0000 C   0  0  0  0  0  0  0  0  0  0  0  0
   11.9471   24.1909    0.0000 C   0  0  0  0  0  0  0  0  0  0  0  0
   10.5842   24.8175    0.0000 C   0  0  0  0  0  0  0  0  0  0  0  0
    9.1886   25.3674    0.0000 C   0  0  0  0  0  0  0  0  0  0  0  0
    7.7646   25.8388    0.0000 C   0  0  0  0  0  0  0  0  0  0  0  0
    6.3166   26.2304    0.0000 C   0  0  0  0  0  0  0  0  0  0  0  0
    4.8491   26.5409    0.0000 C   0  0  0  0  0  0  0  0  0  0  0  0
    3.3666   26.7694    0.0000 C   0  0  0  0  0  0  0  0  0  0  0  0
    1.8737   26.9151    0.0000 C   0  0  0  0  0  0  0  0  0  0  0  0
    0.3750   26.9776    0.0000 C   0  0  0  0  0  0  0  0  0  0  0  0
   -1.1248   26.9568    0.0000 C   0  0  0  0  0  0  0  0  0  0  0  0
   -2.6212   26.8526    0.0000 C   0  0  0  0  0  0  0  0  0  0  0  0
   -4.1095   26.6654    0.0000 C   0  0  0  0  0  0  0  0  0  0  0  0
   -5.5850   26.3958    0.0000 C   0  0  0  0  0  0  0  0  0  0  0  0
   -7.0434   26.0447    0.0000 C   0  0  0  0  0  0  0  0  0  0  0  0
   -8.4799   25.6130    0.0000 C   0  0  0  0  0  0  0  0  0  0  0  0
   -9.8902   25.1021    0.0000 C   0  0  0  0  0  0  0  0  0  0  0  0
  -11.2700   24.5137    0.0000 C   0  0  0  0  0  0  0  0  0  0  0  0
  -12.6149   23.8495    0.0000 C   0  0  0  0  0  0  0  0  0  0  0  0
  -13.9208   23.1115    0.0000 C   0  0  0  0  0  0  0  0  0  0  0  0
  -15.1837   22.3022    0.0000 C   0  0  0  0  0  0  0  0  0  0  0  0
  -16.3997   21.4239    0.0000 C   0  0  0  0  0  0  0  0  0  0  0  0
  -17.5650   20.4794    0.0000 C   0  0  0  0  0  0  0  0  0  0  0  0
  -18.6760   19.4715    0.0000 C   0  0  0  0  0  0  0  0  0  0  0  0
  -19.7293   18.4035    0.0000 C   0  0  0  0  0  0  0  0  0  0  0  0
  -20.7215   17.2786    0.0000 C   0  0  0  0  0  0  0  0  0  0  0  0
  -21.6498   16.1003    0.0000 C   0  0  0  0  0  0  0  0  0  0  0  0
  -22.5111   14.8723    0.0000 C   0  0  0  0  0  0  0  0  0  0  0  0
  -23.3028   13.5982    0.0000 C   0  0  0  0  0  0  0  0  0  0  0  0
  -24.0225   12.2822    0.0000 C   0  0  0  0  0  0  0  0  0  0  0  0
  -24.6680   10.9281    0.0000 C   0  0  0  0  0  0  0  0  0  0  0  0
  -25.2372    9.5403    0.0000 C   0  0  0  0  0  0  0  0  0  0  0  0
  -25.7284    8.1230    0.0000 C   0  0  0  0  0  0  0  0  0  0  0  0
  -26.1401    6.6806    0.0000 C   0  0  0  0  0  0  0  0  0  0  0  0
  -26.4709    5.2176    0.0000 C   0  0  0  0  0  0  0  0  0  0  0  0
  -26.7200    3.7384    0.0000 C   0  0  0  0  0  0  0  0  0  0  0  0
  -26.8864    2.2477    0.0000 C   0  0  0  0  0  0  0  0  0  0  0  0
  -26.9698    0.7500    0.0000 C   0  0  0  0  0  0  0  0  0  0  0  0
  -26.9698   -0.7500    0.0000 C   0  0  0  0  0  0  0  0  0  0  0  0
  -26.8864   -2.2477    0.0000 C   0  0  0  0  0  0  0  0  0  0  0  0
  -26.7200   -3.7384    0.0000 C   0  0  0  0  0  0  0  0  0  0  0  0
  -26.4709   -5.2176    0.0000 C   0  0  0  0  0  0  0  0  0  0  0  0
  -26.1401   -6.6806    0.0000 C   0  0  0  0  0  0  0  0  0  0  0  0
  -25.7284   -8.1230    0.0000 C   0  0  0  0  0  0  0  0  0  0  0  0
  -25.2372   -9.5403    0.0000 C   0  0  0  0  0  0  0  0  0  0  0  0
  -24.6680  -10.9281    0.0000 C   0  0  0  0  0  0  0  0  0  0  0  0
  -24.0225  -12.2822    0.0000 C   0  0  0  0  0  0  0  0  0  0  0  0
  -23.3028  -13.5982    0.0000 C   0  0  0  0  0  0  0  0  0  0  0  0
  -22.5111  -14.8723    0.0000 C   0  0  0  0  0  0  0  0  0  0  0  0
  -21.6498  -16.1003    0.0000 C   0  0  0  0  0  0  0  0  0  0  0  0
  -20.7215  -17.2786    0.0000 C   0  0  0  0  0  0  0  0  0  0  0  0
  -19.7293  -18.4035    0.0000 C   0  0  0  0  0  0  0  0  0  0  0  0
  -18.6760  -19.4715    0.0000 C   0  0  0  0  0  0  0  0  0  0  0  0
  -17.5650  -20.4794    0.0000 C   0  0  0  0  0  0  0  0  0  0  0  0
  -16.3997  -21.4239    0.0000 C   0  0  0  0  0  0  0  0  0  0  0  0
  -15.1837  -22.3022    0.0000 C   0  0  0  0  0  0  0  0  0  0  0  0
  -13.9208  -23.1115    0.0000 C   0  0  0  0  0  0  0  0  0  0  0  0
  -12.6149  -23.8495    0.0000 C   0  0  0  0  0  0  0  0  0  0  0  0
  -11.2700  -24.5137    0.0000 C   0  0  0  0  0  0  0  0  0  0  0  0
   -9.8902  -25.1021    0.0000 C   0  0  0  0  0  0  0  0  0  0  0  0
   -8.4799  -25.6130    0.0000 C   0  0  0  0  0  0  0  0  0  0  0  0
   -7.0434  -26.0447    0.0000 C   0  0  0  0  0  0  0  0  0  0  0  0
   -5.5850  -26.3958    0.0000 C   0  0  0  0  0  0  0  0  0  0  0  0
   -4.1095  -26.6654    0.0000 C   0  0  0  0  0  0  0  0  0  0  0  0
   -2.6212  -26.8526    0.0000 C   0  0  0  0  0  0  0  0  0  0  0  0
   -1.1248  -26.9568    0.0000 C   0  0  0  0  0  0  0  0  0  0  0  0
    0.3750  -26.9776    0.0000 C   0  0  0  0  0  0  0  0  0  0  0  0
    1.8737  -26.9151    0.0000 C   0  0  0  0  0  0  0  0  0  0  0  0
    3.3666  -26.7694    0.0000 C   0  0  0  0  0  0  0  0  0  0  0  0
    4.8491  -26.5409    0.0000 C   0  0  0  0  0  0  0  0  0  0  0  0
    6.3166  -26.2304    0.0000 C   0  0  0  0  0  0  0  0  0  0  0  0
    7.7646  -25.8388    0.0000 C   0  0  0  0  0  0  0  0  0  0  0  0
    9.1886  -25.3674    0.0000 C   0  0  0  0  0  0  0  0  0  0  0  0
   10.5842  -24.8175    0.0000 C   0  0  0  0  0  0  0  0  0  0  0  0
   11.9471  -24.1909    0.0000 C   0  0  0  0  0  0  0  0  0  0  0  0
   13.2730  -23.4896    0.0000 C   0  0  0  0  0  0  0  0  0  0  0  0
   14.5579  -22.7156    0.0000 C   0  0  0  0  0  0  0  0  0  0  0  0
   15.7978  -21.8715    0.0000 C   0  0  0  0  0  0  0  0  0  0  0  0
   16.9889  -20.9597    0.0000 C   0  0  0  0  0  0  0  0  0  0  0  0
   18.1275  -19.9832    0.0000 C   0  0  0  0  0  0  0  0  0  0  0  0
   19.2100  -18.9449    0.0000 C   0  0  0  0  0  0  0  0  0  0  0  0
   20.2332  -17.8480    0.0000 C   0  0  0  0  0  0  0  0  0  0  0  0
   21.1938  -16.6959    0.0000 C   0  0  0  0  0  0  0  0  0  0  0  0
   22.0890  -15.4923    0.0000 C   0  0  0  0  0  0  0  0  0  0  0  0
   22.9158  -14.2408    0.0000 C   0  0  0  0  0  0  0  0  0  0  0  0
   23.6718  -12.9452    0.0000 C   0  0  0  0  0  0  0  0  0  0  0  0
   24.3547  -11.6096    0.0000 C   0  0  0  0  0  0  0  0  0  0  0  0
   24.9622  -10.2382    0.0000 C   0  0  0  0  0  0  0  0  0  0  0  0
   25.4926   -8.8351    0.0000 C   0  0  0  0  0  0  0  0  0  0  0  0
   25.9442   -7.4047    0.0000 C   0  0  0  0  0  0  0  0  0  0  0  0
   26.3157   -5.9514    0.0000 C   0  0  0  0  0  0  0  0  0  0  0  0
   26.6057   -4.4797    0.0000 C   0  0  0  0  0  0  0  0  0  0  0  0
   26.8136   -2.9942    0.0000 C   0  0  0  0  0  0  0  0  0  0  0  0
   26.9385   -1.4994    0.0000 C   0  0  0  0  0  0  0  0  0  0  0  0
  1  2  1  0
  2  3  1  0
  3  4  1  0
  4  5  1  0
  5  6  1  0
  6  7  1  0
  7  8  1  0
  8  9  1  0
  9 10  1  0
 10 11  1  0
 11 12  1  0
 12 13  1  0
 13 14  1  0
 14 15  1  0
 15 16  1  0
 16 17  1  0
 17 18  1  0
 18 19  1  0
 19 20  1  0
 20 21  1  0
 21 22  1  0
 22 23  1  0
 23 24  1  0
 24 25  1  0
 25 26  1  0
 26 27  1  0
 27 28  1  0
 28 29  1  0
 29 30  1  0
 30 31  1  0
 31 32  1  0
 32 33  1  0
 33 34  1  0
 34 35  1  0
 35 36  1  0
 36 37  1  0
 37 38  1  0
 38 39  1  0
 39 40  1  0
 40 41  1  0
 41 42  1  0
 42 43  1  0
 43 44  1  0
 44 45  1  0
 45 46  1  0
 46 47  1  0
 47 48  1  0
 48 49  1  0
 49 50  1  0
 50 51  1  0
 51 52  1  0
 52 53  1  0
 53 54  1  0
 54 55  1  0
 55 56  1  0
 56 57  1  0
 57 58  1  0
 58 59  1  0
 59 60  1  0
 60 61  1  0
 61 62  1  0
 62 63  1  0
 63 64  1  0
 64 65  1  0
 65 66  1  0
 66 67  1  0
 67 68  1  0
 68 69  1  0
 69 70  1  0
 70 71  1  0
 71 72  1  0
 72 73  1  0
 73 74  1  0
 74 75  1  0
 75 76  1  0
 76 77  1  0
 77 78  1  0
 78 79  1  0
 79 80  1  0
 80 81  1  0
 81 82  1  0
 82 83  1  0
 83 84  1  0
 84 85  1  0
 85 86  1  0
 86 87  1  0
 87 88  1  0
 88 89  1  0
 89 90  1  0
 90 91  1  0
 91 92  1  0
 92 93  1  0
 93 94  1  0
 94 95  1  0
 95 96  1  0
 96 97  1  0
 97 98  1  0
 98 99  1  0
 99100  1  0
100101  1  0
101102  1  0
102103  1  0
103104  1  0
104105  1  0
105106  1  0
106107  1  0
107108  1  0
108109  1  0
109110  1  0
110111  1  0
111112  1  0
112113  1  0
113  1  1  0
M  END
>  <Title>  (238) 
idAAHFgen8

$$$$

     RDKit          2D

 10 10  0  0  0  0  0  0  0  0999 V2000
    5.7760   -2.5981    0.0000 C   0  0  0  0  0  0  0  0  0  0  0  0
    5.0260   -1.2990    0.0000 C   0  0  0  0  0  0  0  0  0  0  0  0
    3.5260   -1.2990    0.0000 C   0  0  0  0  0  0  0  0  0  0  0  0
    2.7760    0.0000    0.0000 C   0  0  0  0  0  0  0  0  0  0  0  0
    3.5260    1.2990    0.0000 O   0  0  0  0  0  0  0  0  0  0  0  0
    1.2760    0.0000    0.0000 C   0  0  0  0  0  0  0  0  0  0  0  0
    0.3943    1.2135    0.0000 C   0  0  0  0  0  0  0  0  0  0  0  0
   -1.0323    0.7500    0.0000 C   0  0  0  0  0  0  0  0  0  0  0  0
   -1.0323   -0.7500    0.0000 C   0  0  0  0  0  0  0  0  0  0  0  0
    0.3943   -1.2135    0.0000 C   0  0  0  0  0  0  0  0  0  0  0  0
  1  2  2  0
  2  3  1  0
  3  4  1  0
  4  5  2  0
  4  6  1  0
  6  7  2  0
  7  8  1  0
  8  9  2  0
  9 10  1  0
 10  6  1  0
M  END
>  <Title>  (239) 
idAAHGgen8

$$$$

     RDKit          2D

 34 34  0  0  0  0  0  0  0  0999 V2000
    3.0000    0.0000    0.0000 C   0  0  0  0  0  0  0  0  0  0  0  0
    1.5000    0.0000    0.0000 C   0  0  0  0  0  0  0  0  0  0  0  0
    0.7500   -1.2990    0.0000 C   0  0  0  0  0  0  0  0  0  0  0  0
   -0.7500   -1.2990    0.0000 C   0  0  0  0  0  0  0  0  0  0  0  0
   -1.5000    0.0000    0.0000 C   0  0  0  0  0  0  0  0  0  0  0  0
   -3.0000    0.0000    0.0000 O   0  0  0  0  0  0  0  0  0  0  0  0
   -0.7500    1.2990    0.0000 C   0  0  0  0  0  0  0  0  0  0  0  0
    0.7500    1.2990    0.0000 C   0  0  0  0  0  0  0  0  0  0  0  0
    1.5000    2.5981    0.0000 C   0  0  0  0  0  0  0  0  0  0  0  0
    0.7500    3.8971    0.0000 C   0  0  0  0  0  0  0  0  0  0  0  0
    1.5000    5.1962    0.0000 C   0  0  0  0  0  0  0  0  0  0  0  0
    0.7500    6.4952    0.0000 C   0  0  0  0  0  0  0  0  0  0  0  0
    1.5000    7.7942    0.0000 C   0  0  0  0  0  0  0  0  0  0  0  0
    0.7500    9.0933    0.0000 C   0  0  0  0  0  0  0  0  0  0  0  0
    1.5000   10.3923    0.0000 C   0  0  0  0  0  0  0  0  0  0  0  0
    0.7500   11.6913    0.0000 C   0  0  0  0  0  0  0  0  0  0  0  0
    1.5000   12.9904    0.0000 C   0  0  0  0  0  0  0  0  0  0  0  0
    0.7500   14.2894    0.0000 C   0  0  0  0  0  0  0  0  0  0  0  0
    1.5000   15.5885    0.0000 C   0  0  0  0  0  0  0  0  0  0  0  0
    0.7500   16.8875    0.0000 C   0  0  0  0  0  0  0  0  0  0  0  0
    1.5000   18.1865    0.0000 C   0  0  0  0  0  0  0  0  0  0  0  0
    0.7500   19.4856    0.0000 C   0  0  0  0  0  0  0  0  0  0  0  0
    1.5000   20.7846    0.0000 C   0  0  0  0  0  0  0  0  0  0  0  0
    0.7500   22.0836    0.0000 C   0  0  0  0  0  0  0  0  0  0  0  0
    1.5000   23.3827    0.0000 C   0  0  0  0  0  0  0  0  0  0  0  0
    0.7500   24.6817    0.0000 C   0  0  0  0  0  0  0  0  0  0  0  0
    1.5000   25.9808    0.0000 C   0  0  0  0  0  0  0  0  0  0  0  0
    0.7500   27.2798    0.0000 C   0  0  0  0  0  0  0  0  0  0  0  0
    1.5000   28.5788    0.0000 C   0  0  0  0  0  0  0  0  0  0  0  0
    0.7500   29.8779    0.0000 C   0  0  0  0  0  0  0  0  0  0  0  0
    1.5000   31.1769    0.0000 C   0  0  0  0  0  0  0  0  0  0  0  0
    0.7500   32.4760    0.0000 C   0  0  0  0  0  0  0  0  0  0  0  0
    1.5000   33.7750    0.0000 C   0  0  0  0  0  0  0  0  0  0  0  0
    0.7500   35.0740    0.0000 N   0  0  0  0  0  0  0  0  0  0  0  0
  1  2  1  0
  2  3  1  0
  3  4  1  0
  4  5  1  0
  5  6  1  0
  5  7  1  0
  7  8  1  0
  8  9  1  0
  9 10  1  0
 10 11  1  0
 11 12  1  0
 12 13  1  0
 13 14  1  0
 14 15  1  0
 15 16  1  0
 16 17  1  0
 17 18  1  0
 18 19  1  0
 19 20  1  0
 20 21  1  0
 21 22  1  0
 22 23  1  0
 23 24  1  0
 24 25  1  0
 25 26  1  0
 26 27  1  0
 27 28  1  0
 28 29  1  0
 29 30  1  0
 30 31  1  0
 31 32  1  0
 32 33  1  0
 33 34  2  0
  8  2  1  0
M  END
>  <Title>  (240) 
idAAHHgen8

$$$$

     RDKit          2D

  7  7  0  0  0  0  0  0  0  0999 V2000
    2.7760    0.0000    0.0000 C   0  0  0  0  0  0  0  0  0  0  0  0
    1.2760    0.0000    0.0000 C   0  0  0  0  0  0  0  0  0  0  0  0
    0.3943    1.2135    0.0000 C   0  0  0  0  0  0  0  0  0  0  0  0
   -1.0323    0.7500    0.0000 C   0  0  0  0  0  0  0  0  0  0  0  0
   -1.0323   -0.7500    0.0000 C   0  0  0  0  0  0  0  0  0  0  0  0
   -2.2458   -1.6317    0.0000 O   0  0  0  0  0  0  0  0  0  0  0  0
    0.3943   -1.2135    0.0000 C   0  0  0  0  0  0  0  0  0  0  0  0
  1  2  1  0
  2  3  1  0
  3  4  1  0
  4  5  2  0
  5  6  1  0
  5  7  1  0
  7  2  1  0
M  END
>  <Title>  (241) 
idAAHIgen8

$$$$

     RDKit          2D

  8  8  0  0  0  0  0  0  0  0999 V2000
    2.7938   -3.5702    0.0000 C   0  0  0  0  0  0  0  0  0  0  0  0
    1.7331   -2.5095    0.0000 C   0  0  0  0  0  0  0  0  0  0  0  0
    2.1213   -1.0607    0.0000 C   0  0  0  0  0  0  0  0  0  0  0  0
    1.0607    0.0000    0.0000 C   0  0  0  0  0  0  0  0  0  0  0  0
    2.1213    1.0607    0.0000 C   0  0  0  0  0  0  0  0  0  0  0  0
   -0.0000   -1.0607    0.0000 C   0  0  0  0  0  0  0  0  0  0  0  0
   -1.0607    0.0000    0.0000 C   0  0  0  0  0  0  0  0  0  0  0  0
    0.0000    1.0607    0.0000 C   0  0  0  0  0  0  0  0  0  0  0  0
  1  2  1  0
  2  3  1  0
  3  4  1  0
  4  5  1  0
  4  6  1  0
  6  7  1  0
  7  8  1  0
  8  4  1  0
M  END
>  <Title>  (242) 
idAAHJgen8

$$$$

     RDKit          2D

  9  9  0  0  0  0  0  0  0  0999 V2000
    4.7286   -0.0000    0.0000 N   0  0  0  0  0  0  0  0  0  0  0  0
    3.2286   -0.0000    0.0000 C   0  0  0  0  0  0  0  0  0  0  0  0
    1.7286    0.0000    0.0000 C   0  0  0  0  0  0  0  0  0  0  0  0
    1.0777    1.3515    0.0000 C   0  0  0  0  0  0  0  0  0  0  0  0
   -0.3846    1.6852    0.0000 C   0  0  0  0  0  0  0  0  0  0  0  0
   -1.5574    0.7500    0.0000 C   0  0  0  0  0  0  0  0  0  0  0  0
   -1.5574   -0.7500    0.0000 C   0  0  0  0  0  0  0  0  0  0  0  0
   -0.3846   -1.6852    0.0000 C   0  0  0  0  0  0  0  0  0  0  0  0
    1.0777   -1.3515    0.0000 C   0  0  0  0  0  0  0  0  0  0  0  0
  1  2  3  0
  2  3  1  0
  3  4  2  0
  4  5  1  0
  5  6  1  0
  6  7  1  0
  7  8  1  0
  8  9  1  0
  9  3  1  0
M  END
>  <Title>  (243) 
idAAHKgen8

$$$$

     RDKit          2D

 50 57  0  0  0  0  0  0  0  0999 V2000
    5.2417   -6.1122    0.0000 C   0  0  0  0  0  0  0  0  0  0  0  0
    3.7705   -5.8195    0.0000 C   0  0  0  0  0  0  0  0  0  0  0  0
    3.7705   -4.3195    0.0000 C   0  0  0  0  0  0  0  0  0  0  0  0
    3.1965   -2.9337    0.0000 C   0  0  0  0  0  0  0  0  0  0  0  0
    2.1358   -1.8731    0.0000 C   0  0  0  0  0  0  0  0  0  0  0  0
    2.9692   -0.6259    0.0000 C   0  0  0  0  0  0  0  0  0  0  0  0
    2.3057    0.7195    0.0000 O   0  0  0  0  0  0  0  0  0  0  0  0
    4.4660   -0.7240    0.0000 N   0  0  0  0  0  0  0  0  0  0  0  0
    5.2993    0.5232    0.0000 C   0  0  0  0  0  0  0  0  0  0  0  0
    6.7961    0.4251    0.0000 N   0  0  0  0  0  0  0  0  0  0  0  0
    7.6295    1.6723    0.0000 N   0  0  0  0  0  0  0  0  0  0  0  0
    6.9660    3.0176    0.0000 N   0  0  0  0  0  0  0  0  0  0  0  0
    5.4692    3.1158    0.0000 N   0  0  0  0  0  0  0  0  0  0  0  0
    4.6359    1.8686    0.0000 N   0  0  0  0  0  0  0  0  0  0  0  0
    0.7500   -1.2990    0.0000 C   0  0  0  0  0  0  0  0  0  0  0  0
    1.5000    0.0000    0.0000 C   0  0  0  0  0  0  0  0  0  0  0  0
    0.7500    1.2990    0.0000 C   0  0  0  0  0  0  0  0  0  0  0  0
   -0.7500    1.2990    0.0000 C   0  0  0  0  0  0  0  0  0  0  0  0
   -1.5000    0.0000    0.0000 C   0  0  0  0  0  0  0  0  0  0  0  0
   -0.7500   -1.2990    0.0000 C   0  0  0  0  0  0  0  0  0  0  0  0
   -2.1358   -1.8731    0.0000 C   0  0  0  0  0  0  0  0  0  0  0  0
   -2.5240   -0.4242    0.0000 C   0  0  0  0  0  0  0  0  0  0  0  0
   -3.9729   -0.0359    0.0000 C   0  0  0  0  0  0  0  0  0  0  0  0
   -5.0336   -1.0966    0.0000 C   0  0  0  0  0  0  0  0  0  0  0  0
   -4.6454   -2.5455    0.0000 C   0  0  0  0  0  0  0  0  0  0  0  0
   -3.1965   -2.9337    0.0000 C   0  0  0  0  0  0  0  0  0  0  0  0
   -3.7705   -4.3195    0.0000 C   0  0  0  0  0  0  0  0  0  0  0  0
   -5.0695   -3.5695    0.0000 C   0  0  0  0  0  0  0  0  0  0  0  0
   -6.3686   -4.3195    0.0000 C   0  0  0  0  0  0  0  0  0  0  0  0
   -6.3686   -5.8195    0.0000 C   0  0  0  0  0  0  0  0  0  0  0  0
   -5.0695   -6.5695    0.0000 C   0  0  0  0  0  0  0  0  0  0  0  0
   -3.7705   -5.8195    0.0000 C   0  0  0  0  0  0  0  0  0  0  0  0
   -3.1965   -7.2054    0.0000 C   0  0  0  0  0  0  0  0  0  0  0  0
   -4.6454   -7.5936    0.0000 C   0  0  0  0  0  0  0  0  0  0  0  0
   -5.0336   -9.0425    0.0000 C   0  0  0  0  0  0  0  0  0  0  0  0
   -3.9729  -10.1031    0.0000 C   0  0  0  0  0  0  0  0  0  0  0  0
   -2.5240   -9.7149    0.0000 C   0  0  0  0  0  0  0  0  0  0  0  0
   -2.1358   -8.2660    0.0000 C   0  0  0  0  0  0  0  0  0  0  0  0
   -0.7500   -8.8400    0.0000 C   0  0  0  0  0  0  0  0  0  0  0  0
   -1.5000  -10.1391    0.0000 C   0  0  0  0  0  0  0  0  0  0  0  0
   -0.7500  -11.4381    0.0000 C   0  0  0  0  0  0  0  0  0  0  0  0
    0.7500  -11.4381    0.0000 C   0  0  0  0  0  0  0  0  0  0  0  0
    1.5000  -10.1391    0.0000 C   0  0  0  0  0  0  0  0  0  0  0  0
    0.7500   -8.8400    0.0000 C   0  0  0  0  0  0  0  0  0  0  0  0
    2.1358   -8.2660    0.0000 C   0  0  0  0  0  0  0  0  0  0  0  0
    2.5240   -9.7149    0.0000 C   0  0  0  0  0  0  0  0  0  0  0  0
    3.9729  -10.1031    0.0000 C   0  0  0  0  0  0  0  0  0  0  0  0
    5.0336   -9.0425    0.0000 C   0  0  0  0  0  0  0  0  0  0  0  0
    4.6454   -7.5936    0.0000 C   0  0  0  0  0  0  0  0  0  0  0  0
    3.1965   -7.2054    0.0000 C   0  0  0  0  0  0  0  0  0  0  0  0
  1  2  1  0
  2  3  1  0
  3  4  2  0
  4  5  1  0
  5  6  1  0
  6  7  2  0
  6  8  1  0
  8  9  1  0
  9 10  2  0
 10 11  1  0
 11 12  2  0
 12 13  1  0
 13 14  2  0
  5 15  1  0
 15 16  2  0
 16 17  1  0
 17 18  2  0
 18 19  1  0
 19 20  2  0
 20 21  1  0
 21 22  2  0
 22 23  1  0
 23 24  2  0
 24 25  1  0
 25 26  2  0
 26 27  1  0
 27 28  2  0
 28 29  1  0
 29 30  1  0
 30 31  1  0
 31 32  2  0
 32 33  1  0
 33 34  2  0
 34 35  1  0
 35 36  2  0
 36 37  1  0
 37 38  2  0
 38 39  1  0
 39 40  2  0
 40 41  1  0
 41 42  2  0
 42 43  1  0
 43 44  2  0
 44 45  1  0
 45 46  2  0
 46 47  1  0
 47 48  2  0
 48 49  1  0
 49 50  2  0
 50  2  1  0
 14  9  1  0
 20 15  1  0
 26 21  1  0
 32 27  1  0
 38 33  1  0
 44 39  1  0
 50 45  1  0
M  END
>  <Title>  (244) 
idAAHLgen8

$$$$

     RDKit          2D

 10 10  0  0  0  0  0  0  0  0999 V2000
    8.7760   -0.0000    0.0000 C   0  0  0  0  0  0  0  0  0  0  0  0
    7.2760   -0.0000    0.0000 C   0  0  0  0  0  0  0  0  0  0  0  0
    5.7760   -0.0000    0.0000 C   0  0  0  0  0  0  0  0  0  0  0  0
    4.2760   -0.0000    0.0000 C   0  0  0  0  0  0  0  0  0  0  0  0
    2.7760    0.0000    0.0000 C   0  0  0  0  0  0  0  0  0  0  0  0
    1.2760    0.0000    0.0000 C   0  0  0  0  0  0  0  0  0  0  0  0
    0.3943    1.2135    0.0000 C   0  0  0  0  0  0  0  0  0  0  0  0
   -1.0323    0.7500    0.0000 C   0  0  0  0  0  0  0  0  0  0  0  0
   -1.0323   -0.7500    0.0000 C   0  0  0  0  0  0  0  0  0  0  0  0
    0.3943   -1.2135    0.0000 C   0  0  0  0  0  0  0  0  0  0  0  0
  1  2  1  0
  2  3  3  0
  3  4  1  0
  4  5  3  0
  5  6  1  0
  6  7  2  0
  7  8  1  0
  8  9  2  0
  9 10  1  0
 10  6  1  0
M  END
>  <Title>  (245) 
idAAHMgen8

$$$$

     RDKit          2D

  7  7  0  0  0  0  0  0  0  0999 V2000
    2.7760    0.0000    0.0000 O   0  0  0  0  0  0  0  0  0  0  0  0
    1.2760    0.0000    0.0000 C   0  0  0  0  0  0  0  0  0  0  0  0
    0.3943    1.2135    0.0000 C   0  0  0  0  0  0  0  0  0  0  0  0
   -1.0323    0.7500    0.0000 C   0  0  0  0  0  0  0  0  0  0  0  0
   -1.0323   -0.7500    0.0000 C   0  0  0  0  0  0  0  0  0  0  0  0
   -2.2458   -1.6317    0.0000 O   0  0  0  0  0  0  0  0  0  0  0  0
    0.3943   -1.2135    0.0000 C   0  0  0  0  0  0  0  0  0  0  0  0
  1  2  1  0
  2  3  2  0
  3  4  1  0
  4  5  1  0
  5  6  1  0
  5  7  1  0
  7  2  1  0
M  END
>  <Title>  (246) 
idAAHNgen8

$$$$

     RDKit          2D

  8  8  0  0  0  0  0  0  0  0999 V2000
    3.0000    0.0000    0.0000 C   0  0  0  0  0  0  0  0  0  0  0  0
    1.5000    0.0000    0.0000 C   0  0  0  0  0  0  0  0  0  0  0  0
    0.7500   -1.2990    0.0000 C   0  0  0  0  0  0  0  0  0  0  0  0
   -0.7500   -1.2990    0.0000 C   0  0  0  0  0  0  0  0  0  0  0  0
   -1.5000    0.0000    0.0000 C   0  0  0  0  0  0  0  0  0  0  0  0
   -0.7500    1.2990    0.0000 C   0  0  0  0  0  0  0  0  0  0  0  0
   -1.5000    2.5981    0.0000 C   0  0  0  0  0  0  0  0  0  0  0  0
    0.7500    1.2990    0.0000 C   0  0  0  0  0  0  0  0  0  0  0  0
  1  2  1  0
  2  3  2  0
  3  4  1  0
  4  5  1  0
  5  6  1  0
  6  7  1  0
  6  8  1  0
  8  2  1  0
M  END
>  <Title>  (247) 
idAAHOgen8

$$$$

     RDKit          2D

  8  8  0  0  0  0  0  0  0  0999 V2000
    3.5260   -1.2990    0.0000 C   0  0  0  0  0  0  0  0  0  0  0  0
    2.7760    0.0000    0.0000 C   0  0  0  0  0  0  0  0  0  0  0  0
    1.2760    0.0000    0.0000 C   0  0  0  0  0  0  0  0  0  0  0  0
    0.3943    1.2135    0.0000 C   0  0  0  0  0  0  0  0  0  0  0  0
   -1.0323    0.7500    0.0000 C   0  0  0  0  0  0  0  0  0  0  0  0
   -2.2458    1.6317    0.0000 O   0  0  0  0  0  0  0  0  0  0  0  0
   -1.0323   -0.7500    0.0000 C   0  0  0  0  0  0  0  0  0  0  0  0
    0.3943   -1.2135    0.0000 C   0  0  0  0  0  0  0  0  0  0  0  0
  1  2  2  0
  2  3  1  0
  3  4  2  0
  4  5  1  0
  5  6  1  0
  5  7  2  0
  7  8  1  0
  8  3  1  0
M  END
>  <Title>  (248) 
idAAHPgen8

$$$$

     RDKit          2D

 14 13  0  0  0  0  0  0  0  0999 V2000
    0.0000    0.0000    0.0000 C   0  0  0  0  0  0  0  0  0  0  0  0
   -0.0000   -1.5000    0.0000 C   0  0  0  0  0  0  0  0  0  0  0  0
   -0.0000   -3.0000    0.0000 C   0  0  0  0  0  0  0  0  0  0  0  0
   -0.0000   -4.5000    0.0000 C   0  0  0  0  0  0  0  0  0  0  0  0
   -0.0000   -6.0000    0.0000 C   0  0  0  0  0  0  0  0  0  0  0  0
   -0.0000   -7.5000    0.0000 C   0  0  0  0  0  0  0  0  0  0  0  0
   -0.0000   -9.0000    0.0000 C   0  0  0  0  0  0  0  0  0  0  0  0
   -0.0000  -10.5000    0.0000 C   0  0  0  0  0  0  0  0  0  0  0  0
   -0.0000  -12.0000    0.0000 C   0  0  0  0  0  0  0  0  0  0  0  0
   -0.0000  -13.5000    0.0000 C   0  0  0  0  0  0  0  0  0  0  0  0
   -0.0000  -15.0000    0.0000 C   0  0  0  0  0  0  0  0  0  0  0  0
   -0.0000  -16.5000    0.0000 C   0  0  0  0  0  0  0  0  0  0  0  0
   -0.0000  -18.0000    0.0000 C   0  0  0  0  0  0  0  0  0  0  0  0
   -0.0000  -19.5000    0.0000 N   0  0  0  0  0  0  0  0  0  0  0  0
  1  2  3  0
  2  3  1  0
  3  4  3  0
  4  5  1  0
  5  6  3  0
  6  7  1  0
  7  8  3  0
  8  9  1  0
  9 10  3  0
 10 11  1  0
 11 12  3  0
 12 13  1  0
 13 14  3  0
M  END
>  <Title>  (249) 
idAAHQgen8

$$$$

     RDKit          2D

100100  0  0  0  0  0  0  0  0999 V2000
   24.8998    0.0000    0.0000 C   0  0  0  0  0  0  0  0  0  0  0  0
   23.3998    0.0000    0.0000 C   0  0  0  0  0  0  0  0  0  0  0  0
   23.3517   -1.4992    0.0000 C   0  0  0  0  0  0  0  0  0  0  0  0
   23.2077   -2.9923    0.0000 C   0  0  0  0  0  0  0  0  0  0  0  0
   22.9683   -4.4731    0.0000 C   0  0  0  0  0  0  0  0  0  0  0  0
   24.4406   -4.7598    0.0000 Cl  0  0  0  0  0  0  0  0  0  0  0  0
   22.6345   -5.9355    0.0000 C   0  0  0  0  0  0  0  0  0  0  0  0
   22.2077   -7.3735    0.0000 C   0  0  0  0  0  0  0  0  0  0  0  0
   21.6897   -8.7812    0.0000 C   0  0  0  0  0  0  0  0  0  0  0  0
   21.0825  -10.1528    0.0000 C   0  0  0  0  0  0  0  0  0  0  0  0
   20.3887  -11.4827    0.0000 C   0  0  0  0  0  0  0  0  0  0  0  0
   19.6111  -12.7654    0.0000 C   0  0  0  0  0  0  0  0  0  0  0  0
   18.7529  -13.9957    0.0000 C   0  0  0  0  0  0  0  0  0  0  0  0
   17.8177  -15.1684    0.0000 C   0  0  0  0  0  0  0  0  0  0  0  0
   16.8092  -16.2788    0.0000 C   0  0  0  0  0  0  0  0  0  0  0  0
   15.7317  -17.3223    0.0000 C   0  0  0  0  0  0  0  0  0  0  0  0
   14.5895  -18.2947    0.0000 C   0  0  0  0  0  0  0  0  0  0  0  0
   13.3874  -19.1919    0.0000 C   0  0  0  0  0  0  0  0  0  0  0  0
   12.1303  -20.0102    0.0000 C   0  0  0  0  0  0  0  0  0  0  0  0
   10.8233  -20.7462    0.0000 C   0  0  0  0  0  0  0  0  0  0  0  0
    9.4718  -21.3971    0.0000 C   0  0  0  0  0  0  0  0  0  0  0  0
    8.0815  -21.9600    0.0000 C   0  0  0  0  0  0  0  0  0  0  0  0
    6.6579  -22.4326    0.0000 C   0  0  0  0  0  0  0  0  0  0  0  0
    5.2069  -22.8131    0.0000 C   0  0  0  0  0  0  0  0  0  0  0  0
    3.7346  -23.0998    0.0000 C   0  0  0  0  0  0  0  0  0  0  0  0
    2.2469  -23.2917    0.0000 C   0  0  0  0  0  0  0  0  0  0  0  0
    0.7500  -23.3878    0.0000 C   0  0  0  0  0  0  0  0  0  0  0  0
   -0.7500  -23.3878    0.0000 C   0  0  0  0  0  0  0  0  0  0  0  0
   -2.2469  -23.2917    0.0000 C   0  0  0  0  0  0  0  0  0  0  0  0
   -3.7346  -23.0998    0.0000 C   0  0  0  0  0  0  0  0  0  0  0  0
   -5.2069  -22.8131    0.0000 C   0  0  0  0  0  0  0  0  0  0  0  0
   -6.6579  -22.4326    0.0000 C   0  0  0  0  0  0  0  0  0  0  0  0
   -8.0815  -21.9600    0.0000 C   0  0  0  0  0  0  0  0  0  0  0  0
   -9.4718  -21.3971    0.0000 C   0  0  0  0  0  0  0  0  0  0  0  0
  -10.8233  -20.7462    0.0000 C   0  0  0  0  0  0  0  0  0  0  0  0
  -12.1303  -20.0102    0.0000 C   0  0  0  0  0  0  0  0  0  0  0  0
  -13.3874  -19.1919    0.0000 C   0  0  0  0  0  0  0  0  0  0  0  0
  -14.5895  -18.2947    0.0000 C   0  0  0  0  0  0  0  0  0  0  0  0
  -15.7317  -17.3223    0.0000 C   0  0  0  0  0  0  0  0  0  0  0  0
  -16.8092  -16.2788    0.0000 C   0  0  0  0  0  0  0  0  0  0  0  0
  -17.8177  -15.1684    0.0000 C   0  0  0  0  0  0  0  0  0  0  0  0
  -18.7529  -13.9957    0.0000 C   0  0  0  0  0  0  0  0  0  0  0  0
  -19.6111  -12.7654    0.0000 C   0  0  0  0  0  0  0  0  0  0  0  0
  -20.3887  -11.4827    0.0000 C   0  0  0  0  0  0  0  0  0  0  0  0
  -21.0825  -10.1528    0.0000 C   0  0  0  0  0  0  0  0  0  0  0  0
  -21.6897   -8.7812    0.0000 C   0  0  0  0  0  0  0  0  0  0  0  0
  -22.2077   -7.3735    0.0000 C   0  0  0  0  0  0  0  0  0  0  0  0
  -22.6345   -5.9355    0.0000 C   0  0  0  0  0  0  0  0  0  0  0  0
  -22.9683   -4.4731    0.0000 C   0  0  0  0  0  0  0  0  0  0  0  0
  -23.2077   -2.9923    0.0000 C   0  0  0  0  0  0  0  0  0  0  0  0
  -23.3517   -1.4992    0.0000 C   0  0  0  0  0  0  0  0  0  0  0  0
  -23.3998    0.0000    0.0000 C   0  0  0  0  0  0  0  0  0  0  0  0
  -23.3517    1.4992    0.0000 C   0  0  0  0  0  0  0  0  0  0  0  0
  -23.2077    2.9923    0.0000 C   0  0  0  0  0  0  0  0  0  0  0  0
  -22.9683    4.4731    0.0000 C   0  0  0  0  0  0  0  0  0  0  0  0
  -22.6345    5.9355    0.0000 C   0  0  0  0  0  0  0  0  0  0  0  0
  -22.2077    7.3735    0.0000 C   0  0  0  0  0  0  0  0  0  0  0  0
  -21.6897    8.7812    0.0000 C   0  0  0  0  0  0  0  0  0  0  0  0
  -21.0825   10.1528    0.0000 C   0  0  0  0  0  0  0  0  0  0  0  0
  -20.3887   11.4827    0.0000 C   0  0  0  0  0  0  0  0  0  0  0  0
  -19.6111   12.7654    0.0000 C   0  0  0  0  0  0  0  0  0  0  0  0
  -18.7529   13.9957    0.0000 C   0  0  0  0  0  0  0  0  0  0  0  0
  -17.8177   15.1684    0.0000 C   0  0  0  0  0  0  0  0  0  0  0  0
  -16.8092   16.2788    0.0000 C   0  0  0  0  0  0  0  0  0  0  0  0
  -15.7317   17.3223    0.0000 C   0  0  0  0  0  0  0  0  0  0  0  0
  -14.5895   18.2947    0.0000 C   0  0  0  0  0  0  0  0  0  0  0  0
  -13.3874   19.1919    0.0000 C   0  0  0  0  0  0  0  0  0  0  0  0
  -12.1303   20.0102    0.0000 C   0  0  0  0  0  0  0  0  0  0  0  0
  -10.8233   20.7462    0.0000 C   0  0  0  0  0  0  0  0  0  0  0  0
   -9.4718   21.3971    0.0000 C   0  0  0  0  0  0  0  0  0  0  0  0
   -8.0815   21.9600    0.0000 C   0  0  0  0  0  0  0  0  0  0  0  0
   -6.6579   22.4326    0.0000 C   0  0  0  0  0  0  0  0  0  0  0  0
   -5.2069   22.8131    0.0000 C   0  0  0  0  0  0  0  0  0  0  0  0
   -3.7346   23.0998    0.0000 C   0  0  0  0  0  0  0  0  0  0  0  0
   -2.2469   23.2917    0.0000 C   0  0  0  0  0  0  0  0  0  0  0  0
   -0.7500   23.3878    0.0000 C   0  0  0  0  0  0  0  0  0  0  0  0
    0.7500   23.3878    0.0000 C   0  0  0  0  0  0  0  0  0  0  0  0
    2.2469   23.2917    0.0000 C   0  0  0  0  0  0  0  0  0  0  0  0
    3.7346   23.0998    0.0000 C   0  0  0  0  0  0  0  0  0  0  0  0
    5.2069   22.8131    0.0000 C   0  0  0  0  0  0  0  0  0  0  0  0
    6.6579   22.4326    0.0000 C   0  0  0  0  0  0  0  0  0  0  0  0
    8.0815   21.9600    0.0000 C   0  0  0  0  0  0  0  0  0  0  0  0
    9.4718   21.3971    0.0000 C   0  0  0  0  0  0  0  0  0  0  0  0
   10.8233   20.7462    0.0000 C   0  0  0  0  0  0  0  0  0  0  0  0
   12.1303   20.0102    0.0000 C   0  0  0  0  0  0  0  0  0  0  0  0
   13.3874   19.1919    0.0000 C   0  0  0  0  0  0  0  0  0  0  0  0
   14.5895   18.2947    0.0000 C   0  0  0  0  0  0  0  0  0  0  0  0
   15.7317   17.3223    0.0000 C   0  0  0  0  0  0  0  0  0  0  0  0
   16.8092   16.2788    0.0000 C   0  0  0  0  0  0  0  0  0  0  0  0
   17.8177   15.1684    0.0000 C   0  0  0  0  0  0  0  0  0  0  0  0
   18.7529   13.9957    0.0000 C   0  0  0  0  0  0  0  0  0  0  0  0
   19.6111   12.7654    0.0000 C   0  0  0  0  0  0  0  0  0  0  0  0
   20.3887   11.4827    0.0000 C   0  0  0  0  0  0  0  0  0  0  0  0
   21.0825   10.1528    0.0000 C   0  0  0  0  0  0  0  0  0  0  0  0
   21.6897    8.7812    0.0000 C   0  0  0  0  0  0  0  0  0  0  0  0
   22.2077    7.3735    0.0000 C   0  0  0  0  0  0  0  0  0  0  0  0
   22.6345    5.9355    0.0000 C   0  0  0  0  0  0  0  0  0  0  0  0
   22.9683    4.4731    0.0000 C   0  0  0  0  0  0  0  0  0  0  0  0
   23.2077    2.9923    0.0000 C   0  0  0  0  0  0  0  0  0  0  0  0
   23.3517    1.4992    0.0000 C   0  0  0  0  0  0  0  0  0  0  0  0
  1  2  1  0
  2  3  1  0
  3  4  2  0
  4  5  1  0
  5  6  1  0
  5  7  2  0
  7  8  1  0
  8  9  2  0
  9 10  1  0
 10 11  2  0
 11 12  1  0
 12 13  2  0
 13 14  1  0
 14 15  2  0
 15 16  1  0
 16 17  1  0
 17 18  1  0
 18 19  1  0
 19 20  1  0
 20 21  1  0
 21 22  1  0
 22 23  1  0
 23 24  1  0
 24 25  1  0
 25 26  1  0
 26 27  1  0
 27 28  1  0
 28 29  1  0
 29 30  1  0
 30 31  1  0
 31 32  1  0
 32 33  1  0
 33 34  1  0
 34 35  1  0
 35 36  1  0
 36 37  1  0
 37 38  1  0
 38 39  1  0
 39 40  1  0
 40 41  1  0
 41 42  1  0
 42 43  1  0
 43 44  1  0
 44 45  1  0
 45 46  1  0
 46 47  1  0
 47 48  1  0
 48 49  1  0
 49 50  1  0
 50 51  1  0
 51 52  1  0
 52 53  1  0
 53 54  1  0
 54 55  1  0
 55 56  1  0
 56 57  1  0
 57 58  1  0
 58 59  1  0
 59 60  1  0
 60 61  1  0
 61 62  1  0
 62 63  1  0
 63 64  1  0
 64 65  1  0
 65 66  1  0
 66 67  1  0
 67 68  1  0
 68 69  1  0
 69 70  1  0
 70 71  1  0
 71 72  1  0
 72 73  1  0
 73 74  1  0
 74 75  1  0
 75 76  1  0
 76 77  1  0
 77 78  1  0
 78 79  1  0
 79 80  1  0
 80 81  1  0
 81 82  1  0
 82 83  1  0
 83 84  1  0
 84 85  1  0
 85 86  1  0
 86 87  1  0
 87 88  1  0
 88 89  1  0
 89 90  1  0
 90 91  1  0
 91 92  1  0
 92 93  1  0
 93 94  1  0
 94 95  1  0
 95 96  1  0
 96 97  1  0
 97 98  1  0
 98 99  1  0
 99100  1  0
100  2  1  0
M  END
>  <Title>  (250) 
idAAHRgen8

$$$$

     RDKit          2D

 27 30  0  0  0  0  0  0  0  0999 V2000
   -2.3737   -6.1885    0.0000 C   0  0  0  0  0  0  0  0  0  0  0  0
   -1.4095   -5.0395    0.0000 C   0  0  0  0  0  0  0  0  0  0  0  0
   -0.0000   -5.5525    0.0000 C   0  0  0  0  0  0  0  0  0  0  0  0
    1.4095   -5.0395    0.0000 C   0  0  0  0  0  0  0  0  0  0  0  0
    2.1595   -3.7404    0.0000 C   0  0  0  0  0  0  0  0  0  0  0  0
    1.8991   -2.2632    0.0000 C   0  0  0  0  0  0  0  0  0  0  0  0
    3.1981   -1.5132    0.0000 C   0  0  0  0  0  0  0  0  0  0  0  0
    3.1981   -0.0132    0.0000 O   0  0  0  0  0  0  0  0  0  0  0  0
    4.4971   -2.2632    0.0000 C   0  0  0  0  0  0  0  0  0  0  0  0
    5.7962   -1.5132    0.0000 C   0  0  0  0  0  0  0  0  0  0  0  0
    7.0952   -2.2632    0.0000 N   0  0  0  0  0  0  0  0  0  0  0  0
    8.3943   -1.5132    0.0000 N   0  0  0  0  0  0  0  0  0  0  0  0
    8.3943   -0.0132    0.0000 N   0  0  0  0  0  0  0  0  0  0  0  0
    7.0952    0.7368    0.0000 N   0  0  0  0  0  0  0  0  0  0  0  0
    5.7962   -0.0132    0.0000 N   0  0  0  0  0  0  0  0  0  0  0  0
    0.7500   -1.2990    0.0000 C   0  0  0  0  0  0  0  0  0  0  0  0
    1.5000    0.0000    0.0000 C   0  0  0  0  0  0  0  0  0  0  0  0
    0.7500    1.2990    0.0000 C   0  0  0  0  0  0  0  0  0  0  0  0
   -0.7500    1.2990    0.0000 C   0  0  0  0  0  0  0  0  0  0  0  0
   -1.5000    0.0000    0.0000 C   0  0  0  0  0  0  0  0  0  0  0  0
   -0.7500   -1.2990    0.0000 C   0  0  0  0  0  0  0  0  0  0  0  0
   -1.8991   -2.2632    0.0000 C   0  0  0  0  0  0  0  0  0  0  0  0
   -3.0481   -1.2990    0.0000 C   0  0  0  0  0  0  0  0  0  0  0  0
   -4.4577   -1.8121    0.0000 C   0  0  0  0  0  0  0  0  0  0  0  0
   -4.7181   -3.2893    0.0000 C   0  0  0  0  0  0  0  0  0  0  0  0
   -3.5691   -4.2535    0.0000 C   0  0  0  0  0  0  0  0  0  0  0  0
   -2.1595   -3.7404    0.0000 C   0  0  0  0  0  0  0  0  0  0  0  0
  1  2  1  0
  2  3  2  0
  3  4  1  0
  4  5  1  0
  5  6  2  0
  6  7  1  0
  7  8  2  0
  7  9  1  0
  9 10  1  0
 10 11  2  0
 11 12  1  0
 12 13  2  0
 13 14  1  0
 14 15  2  0
  6 16  1  0
 16 17  2  0
 17 18  1  0
 18 19  2  0
 19 20  1  0
 20 21  2  0
 21 22  1  0
 22 23  2  0
 23 24  1  0
 24 25  2  0
 25 26  1  0
 26 27  2  0
 27  2  1  0
 15 10  1  0
 21 16  1  0
 27 22  1  0
M  END
>  <Title>  (251) 
idAAHSgen8

$$$$

     RDKit          2D

 33 37  0  0  0  0  0  0  0  0999 V2000
   -0.0000   -8.0154    0.0000 C   0  0  0  0  0  0  0  0  0  0  0  0
   -0.0000   -6.5154    0.0000 C   0  0  0  0  0  0  0  0  0  0  0  0
    1.4392   -6.0928    0.0000 C   0  0  0  0  0  0  0  0  0  0  0  0
    2.4215   -4.9592    0.0000 C   0  0  0  0  0  0  0  0  0  0  0  0
    2.6350   -3.4744    0.0000 C   0  0  0  0  0  0  0  0  0  0  0  0
    2.0119   -2.1100    0.0000 C   0  0  0  0  0  0  0  0  0  0  0  0
    3.1455   -1.1277    0.0000 C   0  0  0  0  0  0  0  0  0  0  0  0
    2.8616    0.3452    0.0000 O   0  0  0  0  0  0  0  0  0  0  0  0
    4.5630   -1.6183    0.0000 N   0  0  0  0  0  0  0  0  0  0  0  0
    5.6966   -0.6360    0.0000 C   0  0  0  0  0  0  0  0  0  0  0  0
    7.1141   -1.1266    0.0000 N   0  0  0  0  0  0  0  0  0  0  0  0
    8.2478   -0.1443    0.0000 N   0  0  0  0  0  0  0  0  0  0  0  0
    7.9639    1.3286    0.0000 N   0  0  0  0  0  0  0  0  0  0  0  0
    6.5464    1.8192    0.0000 N   0  0  0  0  0  0  0  0  0  0  0  0
    5.4128    0.8369    0.0000 N   0  0  0  0  0  0  0  0  0  0  0  0
    0.7500   -1.2990    0.0000 C   0  0  0  0  0  0  0  0  0  0  0  0
    1.5000    0.0000    0.0000 C   0  0  0  0  0  0  0  0  0  0  0  0
    0.7500    1.2990    0.0000 C   0  0  0  0  0  0  0  0  0  0  0  0
   -0.7500    1.2990    0.0000 C   0  0  0  0  0  0  0  0  0  0  0  0
   -1.5000    0.0000    0.0000 C   0  0  0  0  0  0  0  0  0  0  0  0
   -0.7500   -1.2990    0.0000 C   0  0  0  0  0  0  0  0  0  0  0  0
   -2.0119   -2.1100    0.0000 C   0  0  0  0  0  0  0  0  0  0  0  0
   -2.8820   -0.8881    0.0000 C   0  0  0  0  0  0  0  0  0  0  0  0
   -4.3752   -1.0307    0.0000 C   0  0  0  0  0  0  0  0  0  0  0  0
   -4.9983   -2.3952    0.0000 C   0  0  0  0  0  0  0  0  0  0  0  0
   -4.1282   -3.6170    0.0000 C   0  0  0  0  0  0  0  0  0  0  0  0
   -2.6350   -3.4744    0.0000 C   0  0  0  0  0  0  0  0  0  0  0  0
   -2.4215   -4.9592    0.0000 C   0  0  0  0  0  0  0  0  0  0  0  0
   -3.8944   -5.2431    0.0000 C   0  0  0  0  0  0  0  0  0  0  0  0
   -4.3850   -6.6606    0.0000 C   0  0  0  0  0  0  0  0  0  0  0  0
   -3.4027   -7.7942    0.0000 C   0  0  0  0  0  0  0  0  0  0  0  0
   -1.9298   -7.5103    0.0000 C   0  0  0  0  0  0  0  0  0  0  0  0
   -1.4392   -6.0928    0.0000 C   0  0  0  0  0  0  0  0  0  0  0  0
  1  2  1  0
  2  3  1  0
  3  4  1  0
  4  5  1  0
  5  6  1  0
  6  7  1  0
  7  8  2  0
  7  9  1  0
  9 10  1  0
 10 11  2  0
 11 12  1  0
 12 13  2  0
 13 14  1  0
 14 15  2  0
  6 16  1  0
 16 17  2  0
 17 18  1  0
 18 19  2  0
 19 20  1  0
 20 21  2  0
 21 22  1  0
 22 23  2  0
 23 24  1  0
 24 25  2  0
 25 26  1  0
 26 27  2  0
 27 28  1  0
 28 29  2  0
 29 30  1  0
 30 31  2  0
 31 32  1  0
 32 33  2  0
 33  2  1  0
 15 10  1  0
 21 16  1  0
 27 22  1  0
 33 28  1  0
M  END
>  <Title>  (252) 
idAAHTgen8

$$$$

     RDKit          2D

 46 46  0  0  0  0  0  0  0  0999 V2000
   12.0132    0.0000    0.0000 C   0  0  0  0  0  0  0  0  0  0  0  0
   10.5132    0.0000    0.0000 C   0  0  0  0  0  0  0  0  0  0  0  0
   10.4061   -1.4962    0.0000 C   0  0  0  0  0  0  0  0  0  0  0  0
   10.0873   -2.9619    0.0000 C   0  0  0  0  0  0  0  0  0  0  0  0
    9.5631   -4.3673    0.0000 C   0  0  0  0  0  0  0  0  0  0  0  0
    8.8442   -5.6838    0.0000 C   0  0  0  0  0  0  0  0  0  0  0  0
    7.9453   -6.8847    0.0000 C   0  0  0  0  0  0  0  0  0  0  0  0
    6.8847   -7.9453    0.0000 C   0  0  0  0  0  0  0  0  0  0  0  0
    5.6838   -8.8442    0.0000 C   0  0  0  0  0  0  0  0  0  0  0  0
    4.3673   -9.5631    0.0000 C   0  0  0  0  0  0  0  0  0  0  0  0
    2.9619  -10.0873    0.0000 C   0  0  0  0  0  0  0  0  0  0  0  0
    1.4962  -10.4061    0.0000 C   0  0  0  0  0  0  0  0  0  0  0  0
   -0.0000  -10.5132    0.0000 C   0  0  0  0  0  0  0  0  0  0  0  0
   -1.4962  -10.4061    0.0000 C   0  0  0  0  0  0  0  0  0  0  0  0
   -2.9619  -10.0873    0.0000 C   0  0  0  0  0  0  0  0  0  0  0  0
   -4.3673   -9.5631    0.0000 C   0  0  0  0  0  0  0  0  0  0  0  0
   -5.6838   -8.8442    0.0000 C   0  0  0  0  0  0  0  0  0  0  0  0
   -6.8847   -7.9453    0.0000 C   0  0  0  0  0  0  0  0  0  0  0  0
   -7.9453   -6.8847    0.0000 C   0  0  0  0  0  0  0  0  0  0  0  0
   -8.8442   -5.6838    0.0000 C   0  0  0  0  0  0  0  0  0  0  0  0
   -9.5631   -4.3673    0.0000 C   0  0  0  0  0  0  0  0  0  0  0  0
  -10.0873   -2.9619    0.0000 C   0  0  0  0  0  0  0  0  0  0  0  0
  -10.4061   -1.4962    0.0000 C   0  0  0  0  0  0  0  0  0  0  0  0
  -10.5132    0.0000    0.0000 C   0  0  0  0  0  0  0  0  0  0  0  0
  -10.4061    1.4962    0.0000 C   0  0  0  0  0  0  0  0  0  0  0  0
  -10.0873    2.9619    0.0000 C   0  0  0  0  0  0  0  0  0  0  0  0
   -9.5631    4.3673    0.0000 C   0  0  0  0  0  0  0  0  0  0  0  0
   -8.8442    5.6838    0.0000 C   0  0  0  0  0  0  0  0  0  0  0  0
   -7.9453    6.8847    0.0000 C   0  0  0  0  0  0  0  0  0  0  0  0
   -6.8847    7.9453    0.0000 C   0  0  0  0  0  0  0  0  0  0  0  0
   -5.6838    8.8442    0.0000 C   0  0  0  0  0  0  0  0  0  0  0  0
   -4.3673    9.5631    0.0000 C   0  0  0  0  0  0  0  0  0  0  0  0
   -2.9619   10.0873    0.0000 C   0  0  0  0  0  0  0  0  0  0  0  0
   -1.4962   10.4061    0.0000 C   0  0  0  0  0  0  0  0  0  0  0  0
    0.0000   10.5132    0.0000 C   0  0  0  0  0  0  0  0  0  0  0  0
    1.4962   10.4061    0.0000 C   0  0  0  0  0  0  0  0  0  0  0  0
    2.9619   10.0873    0.0000 C   0  0  0  0  0  0  0  0  0  0  0  0
    4.3673    9.5631    0.0000 C   0  0  0  0  0  0  0  0  0  0  0  0
    5.6838    8.8442    0.0000 C   0  0  0  0  0  0  0  0  0  0  0  0
    6.8847    7.9453    0.0000 C   0  0  0  0  0  0  0  0  0  0  0  0
    7.9453    6.8847    0.0000 C   0  0  0  0  0  0  0  0  0  0  0  0
    8.8442    5.6838    0.0000 C   0  0  0  0  0  0  0  0  0  0  0  0
   10.1061    6.4948    0.0000 C   0  0  0  0  0  0  0  0  0  0  0  0
    9.5631    4.3673    0.0000 C   0  0  0  0  0  0  0  0  0  0  0  0
   10.0873    2.9619    0.0000 C   0  0  0  0  0  0  0  0  0  0  0  0
   10.4061    1.4962    0.0000 C   0  0  0  0  0  0  0  0  0  0  0  0
  1  2  1  0
  2  3  1  0
  3  4  1  0
  4  5  1  0
  5  6  1  0
  6  7  1  0
  7  8  1  0
  8  9  1  0
  9 10  1  0
 10 11  1  0
 11 12  1  0
 12 13  1  0
 13 14  1  0
 14 15  1  0
 15 16  1  0
 16 17  1  0
 17 18  1  0
 18 19  1  0
 19 20  1  0
 20 21  1  0
 21 22  1  0
 22 23  1  0
 23 24  1  0
 24 25  1  0
 25 26  1  0
 26 27  1  0
 27 28  1  0
 28 29  1  0
 29 30  1  0
 30 31  1  0
 31 32  1  0
 32 33  1  0
 33 34  1  0
 34 35  1  0
 35 36  1  0
 36 37  1  0
 37 38  1  0
 38 39  1  0
 39 40  1  0
 40 41  1  0
 41 42  1  0
 42 43  1  0
 42 44  1  0
 44 45  1  0
 45 46  1  0
 46  2  1  0
M  END
>  <Title>  (253) 
idAAHUgen8

$$$$

     RDKit          2D

 29 32  0  0  0  0  0  0  0  0999 V2000
    3.0958    5.0344    0.0000 C   0  0  0  0  0  0  0  0  0  0  0  0
    1.6692    4.5709    0.0000 C   0  0  0  0  0  0  0  0  0  0  0  0
    1.3574    3.1036    0.0000 C   0  0  0  0  0  0  0  0  0  0  0  0
   -0.0692    2.6401    0.0000 C   0  0  0  0  0  0  0  0  0  0  0  0
   -0.5328    4.0667    0.0000 C   0  0  0  0  0  0  0  0  0  0  0  0
    0.3943    1.2135    0.0000 C   0  0  0  0  0  0  0  0  0  0  0  0
    1.2760    0.0000    0.0000 C   0  0  0  0  0  0  0  0  0  0  0  0
    0.3943   -1.2135    0.0000 C   0  0  0  0  0  0  0  0  0  0  0  0
    0.8578   -2.6401    0.0000 C   0  0  0  0  0  0  0  0  0  0  0  0
    2.3250   -2.9520    0.0000 O   0  0  0  0  0  0  0  0  0  0  0  0
   -0.1459   -3.7548    0.0000 N   0  0  0  0  0  0  0  0  0  0  0  0
    0.3177   -5.1814    0.0000 C   0  0  0  0  0  0  0  0  0  0  0  0
   -0.6860   -6.2961    0.0000 N   0  0  0  0  0  0  0  0  0  0  0  0
   -0.2225   -7.7227    0.0000 N   0  0  0  0  0  0  0  0  0  0  0  0
    1.2447   -8.0346    0.0000 N   0  0  0  0  0  0  0  0  0  0  0  0
    2.2484   -6.9199    0.0000 N   0  0  0  0  0  0  0  0  0  0  0  0
    1.7849   -5.4933    0.0000 N   0  0  0  0  0  0  0  0  0  0  0  0
   -1.0323   -0.7500    0.0000 C   0  0  0  0  0  0  0  0  0  0  0  0
   -1.0323    0.7500    0.0000 C   0  0  0  0  0  0  0  0  0  0  0  0
   -1.4958    2.1766    0.0000 C   0  0  0  0  0  0  0  0  0  0  0  0
   -2.8323    2.8576    0.0000 C   0  0  0  0  0  0  0  0  0  0  0  0
   -4.0903    2.0406    0.0000 O   0  0  0  0  0  0  0  0  0  0  0  0
   -2.9108    4.3555    0.0000 N   0  0  0  0  0  0  0  0  0  0  0  0
   -4.2473    5.0365    0.0000 C   0  0  0  0  0  0  0  0  0  0  0  0
   -4.3258    6.5344    0.0000 N   0  0  0  0  0  0  0  0  0  0  0  0
   -5.6623    7.2154    0.0000 N   0  0  0  0  0  0  0  0  0  0  0  0
   -6.9204    6.3985    0.0000 N   0  0  0  0  0  0  0  0  0  0  0  0
   -6.8419    4.9005    0.0000 N   0  0  0  0  0  0  0  0  0  0  0  0
   -5.5053    4.2195    0.0000 N   0  0  0  0  0  0  0  0  0  0  0  0
  1  2  1  0
  2  3  1  0
  3  4  1  0
  4  5  1  0
  4  6  1  0
  6  7  2  0
  7  8  1  0
  8  9  1  0
  9 10  2  0
  9 11  1  0
 11 12  1  0
 12 13  2  0
 13 14  1  0
 14 15  2  0
 15 16  1  0
 16 17  2  0
  8 18  1  0
 18 19  2  0
 19 20  1  0
 20 21  1  0
 21 22  2  0
 21 23  1  0
 23 24  1  0
 24 25  2  0
 25 26  1  0
 26 27  2  0
 27 28  1  0
 28 29  2  0
 20  4  1  0
 29 24  1  0
 19  6  1  0
 17 12  1  0
M  END
>  <Title>  (254) 
idAAHVgen8

$$$$

     RDKit          2D

 42 47  0  0  0  0  0  0  0  0999 V2000
    7.1547  -11.3157    0.0000 O   0  0  0  0  0  0  0  0  0  0  0  0
    5.7844  -11.9258    0.0000 C   0  0  0  0  0  0  0  0  0  0  0  0
    5.6276  -13.4176    0.0000 N   0  0  0  0  0  0  0  0  0  0  0  0
    6.8411  -14.2993    0.0000 C   0  0  0  0  0  0  0  0  0  0  0  0
    6.6843  -15.7910    0.0000 N   0  0  0  0  0  0  0  0  0  0  0  0
    7.8978  -16.6727    0.0000 N   0  0  0  0  0  0  0  0  0  0  0  0
    9.2682  -16.0626    0.0000 N   0  0  0  0  0  0  0  0  0  0  0  0
    9.4250  -14.5708    0.0000 N   0  0  0  0  0  0  0  0  0  0  0  0
    8.2114  -13.6892    0.0000 N   0  0  0  0  0  0  0  0  0  0  0  0
    4.5709  -11.0441    0.0000 C   0  0  0  0  0  0  0  0  0  0  0  0
    3.1443  -11.5077    0.0000 C   0  0  0  0  0  0  0  0  0  0  0  0
    2.2626  -10.2941    0.0000 C   0  0  0  0  0  0  0  0  0  0  0  0
    3.1443   -9.0806    0.0000 N   0  0  0  0  0  0  0  0  0  0  0  0
    2.6807   -7.6540    0.0000 C   0  0  0  0  0  0  0  0  0  0  0  0
    3.6844   -6.5393    0.0000 O   0  0  0  0  0  0  0  0  0  0  0  0
    1.2135   -7.3421    0.0000 O   0  0  0  0  0  0  0  0  0  0  0  0
    0.7500   -5.9156    0.0000 C   0  0  0  0  0  0  0  0  0  0  0  0
    1.9635   -5.0339    0.0000 C   0  0  0  0  0  0  0  0  0  0  0  0
    2.4271   -3.6073    0.0000 C   0  0  0  0  0  0  0  0  0  0  0  0
    1.9635   -2.1807    0.0000 C   0  0  0  0  0  0  0  0  0  0  0  0
    3.1771   -1.2990    0.0000 O   0  0  0  0  0  0  0  0  0  0  0  0
    4.5474   -1.9091    0.0000 O   0  0  0  0  0  0  0  0  0  0  0  0
    0.7500   -1.2990    0.0000 C   0  0  0  0  0  0  0  0  0  0  0  0
    1.5000    0.0000    0.0000 C   0  0  0  0  0  0  0  0  0  0  0  0
    0.7500    1.2990    0.0000 C   0  0  0  0  0  0  0  0  0  0  0  0
   -0.7500    1.2990    0.0000 C   0  0  0  0  0  0  0  0  0  0  0  0
   -1.5000    0.0000    0.0000 C   0  0  0  0  0  0  0  0  0  0  0  0
   -0.7500   -1.2990    0.0000 C   0  0  0  0  0  0  0  0  0  0  0  0
   -1.9635   -2.1807    0.0000 C   0  0  0  0  0  0  0  0  0  0  0  0
   -2.9672   -1.0660    0.0000 C   0  0  0  0  0  0  0  0  0  0  0  0
   -4.4344   -1.3779    0.0000 C   0  0  0  0  0  0  0  0  0  0  0  0
   -4.8980   -2.8045    0.0000 C   0  0  0  0  0  0  0  0  0  0  0  0
   -3.8943   -3.9192    0.0000 C   0  0  0  0  0  0  0  0  0  0  0  0
   -2.4271   -3.6073    0.0000 C   0  0  0  0  0  0  0  0  0  0  0  0
   -1.9635   -5.0339    0.0000 C   0  0  0  0  0  0  0  0  0  0  0  0
   -3.3338   -5.6440    0.0000 C   0  0  0  0  0  0  0  0  0  0  0  0
   -3.4906   -7.1358    0.0000 C   0  0  0  0  0  0  0  0  0  0  0  0
   -2.2771   -8.0175    0.0000 C   0  0  0  0  0  0  0  0  0  0  0  0
   -0.9068   -7.4073    0.0000 C   0  0  0  0  0  0  0  0  0  0  0  0
   -0.7500   -5.9156    0.0000 C   0  0  0  0  0  0  0  0  0  0  0  0
    4.5709   -9.5441    0.0000 C   0  0  0  0  0  0  0  0  0  0  0  0
    5.7844   -8.6624    0.0000 O   0  0  0  0  0  0  0  0  0  0  0  0
  1  2  2  0
  2  3  1  0
  3  4  1  0
  4  5  2  0
  5  6  1  0
  6  7  2  0
  7  8  1  0
  8  9  2  0
  2 10  1  0
 10 11  1  0
 11 12  1  0
 12 13  1  0
 13 14  1  0
 14 15  2  0
 14 16  1  0
 16 17  1  0
 17 18  2  0
 18 19  1  0
 19 20  2  0
 20 21  1  0
 21 22  1  0
 20 23  1  0
 23 24  2  0
 24 25  1  0
 25 26  2  0
 26 27  1  0
 27 28  2  0
 28 29  1  0
 29 30  2  0
 30 31  1  0
 31 32  2  0
 32 33  1  0
 33 34  2  0
 34 35  1  0
 35 36  2  0
 36 37  1  0
 37 38  2  0
 38 39  1  0
 39 40  2  0
 13 41  1  0
 41 42  2  0
  9  4  1  0
 41 10  1  0
 40 17  1  0
 28 23  1  0
 34 29  1  0
 40 35  1  0
M  END
>  <Title>  (255) 
idAAHWgen8

$$$$

     RDKit          2D

 10 10  0  0  0  0  0  0  0  0999 V2000
    3.2286   -0.0000    0.0000 C   0  0  0  0  0  0  0  0  0  0  0  0
    1.7286    0.0000    0.0000 C   0  0  0  0  0  0  0  0  0  0  0  0
    1.0777    1.3515    0.0000 C   0  0  0  0  0  0  0  0  0  0  0  0
   -0.3846    1.6852    0.0000 C   0  0  0  0  0  0  0  0  0  0  0  0
   -0.7184    3.1476    0.0000 O   0  0  0  0  0  0  0  0  0  0  0  0
   -1.5574    0.7500    0.0000 C   0  0  0  0  0  0  0  0  0  0  0  0
   -1.5574   -0.7500    0.0000 C   0  0  0  0  0  0  0  0  0  0  0  0
   -2.9088   -1.4008    0.0000 O   0  0  0  0  0  0  0  0  0  0  0  0
   -0.3846   -1.6852    0.0000 C   0  0  0  0  0  0  0  0  0  0  0  0
    1.0777   -1.3515    0.0000 C   0  0  0  0  0  0  0  0  0  0  0  0
  1  2  1  0
  2  3  2  0
  3  4  1  0
  4  5  1  0
  4  6  1  0
  6  7  1  0
  7  8  1  0
  7  9  1  0
  9 10  1  0
 10  2  1  0
M  END
>  <Title>  (256) 
idAAHXgen8

$$$$

     RDKit          2D

 15 15  0  0  0  0  0  0  0  0999 V2000
    8.2500   -1.2990    0.0000 C   0  0  0  0  0  0  0  0  0  0  0  0
    6.7500   -1.2990    0.0000 C   0  0  0  0  0  0  0  0  0  0  0  0
    5.2500   -1.2990    0.0000 C   0  0  0  0  0  0  0  0  0  0  0  0
    3.7500   -1.2990    0.0000 C   0  0  0  0  0  0  0  0  0  0  0  0
    3.0000   -2.5981    0.0000 O   0  0  0  0  0  0  0  0  0  0  0  0
    3.0000    0.0000    0.0000 N   0  0  0  0  0  0  0  0  0  0  0  0
    1.5000    0.0000    0.0000 C   0  0  0  0  0  0  0  0  0  0  0  0
    0.7500   -1.2990    0.0000 C   0  0  0  0  0  0  0  0  0  0  0  0
   -0.7500   -1.2990    0.0000 C   0  0  0  0  0  0  0  0  0  0  0  0
   -1.5000    0.0000    0.0000 C   0  0  0  0  0  0  0  0  0  0  0  0
   -3.0000    0.0000    0.0000 O   0  0  0  0  0  0  0  0  0  0  0  0
   -0.7500    1.2990    0.0000 C   0  0  0  0  0  0  0  0  0  0  0  0
    0.7500    1.2990    0.0000 C   0  0  0  0  0  0  0  0  0  0  0  0
    1.5000    2.5981    0.0000 O   0  0  0  0  0  0  0  0  0  0  0  0
    0.7500    3.8971    0.0000 C   0  0  0  0  0  0  0  0  0  0  0  0
  1  2  1  0
  2  3  3  0
  3  4  1  0
  4  5  2  0
  4  6  1  0
  6  7  1  0
  7  8  2  0
  8  9  1  0
  9 10  2  0
 10 11  1  0
 10 12  1  0
 12 13  2  0
 13 14  1  0
 14 15  1  0
 13  7  1  0
M  END
>  <Title>  (257) 
idAAHYgen8

$$$$

     RDKit          2D

 24 24  0  0  0  0  0  0  0  0999 V2000
   14.2500   -9.0933    0.0000 C   0  0  0  0  0  0  0  0  0  0  0  0
   13.5000   -7.7942    0.0000 C   0  0  0  0  0  0  0  0  0  0  0  0
   12.7500   -6.4952    0.0000 C   0  0  0  0  0  0  0  0  0  0  0  0
   12.0000   -5.1962    0.0000 C   0  0  0  0  0  0  0  0  0  0  0  0
   12.7500   -3.8971    0.0000 O   0  0  0  0  0  0  0  0  0  0  0  0
   10.5000   -5.1962    0.0000 N   0  0  0  0  0  0  0  0  0  0  0  0
    9.7500   -3.8971    0.0000 C   0  0  0  0  0  0  0  0  0  0  0  0
    8.2500   -3.8971    0.0000 C   0  0  0  0  0  0  0  0  0  0  0  0
    7.5000   -2.5981    0.0000 C   0  0  0  0  0  0  0  0  0  0  0  0
    6.0000   -2.5981    0.0000 C   0  0  0  0  0  0  0  0  0  0  0  0
    5.2500   -3.8971    0.0000 C   0  0  0  0  0  0  0  0  0  0  0  0
    3.7500   -3.8971    0.0000 O   0  0  0  0  0  0  0  0  0  0  0  0
    6.0000   -5.1962    0.0000 O   0  0  0  0  0  0  0  0  0  0  0  0
    5.2500   -1.2990    0.0000 C   0  0  0  0  0  0  0  0  0  0  0  0
    6.0000    0.0000    0.0000 O   0  0  0  0  0  0  0  0  0  0  0  0
    3.7500   -1.2990    0.0000 N   0  0  0  0  0  0  0  0  0  0  0  0
    3.0000    0.0000    0.0000 C   0  0  0  0  0  0  0  0  0  0  0  0
    3.7500    1.2990    0.0000 O   0  0  0  0  0  0  0  0  0  0  0  0
    1.5000    0.0000    0.0000 C   0  0  0  0  0  0  0  0  0  0  0  0
    0.7500   -1.2990    0.0000 C   0  0  0  0  0  0  0  0  0  0  0  0
   -0.7500   -1.2990    0.0000 C   0  0  0  0  0  0  0  0  0  0  0  0
   -1.5000    0.0000    0.0000 C   0  0  0  0  0  0  0  0  0  0  0  0
   -0.7500    1.2990    0.0000 C   0  0  0  0  0  0  0  0  0  0  0  0
    0.7500    1.2990    0.0000 C   0  0  0  0  0  0  0  0  0  0  0  0
  1  2  1  0
  2  3  3  0
  3  4  1  0
  4  5  2  0
  4  6  1  0
  6  7  1  0
  7  8  1  0
  8  9  2  3
  9 10  1  0
 10 11  1  0
 11 12  2  0
 11 13  1  0
 10 14  1  0
 14 15  2  0
 14 16  1  0
 16 17  1  0
 17 18  2  0
 17 19  1  0
 19 20  2  0
 20 21  1  0
 21 22  2  0
 22 23  1  0
 23 24  2  0
 24 19  1  0
M  END
>  <Title>  (258) 
idAAHZgen8

$$$$

     RDKit          2D

  6  5  0  0  0  0  0  0  0  0999 V2000
    0.0000    0.0000    0.0000 C   0  0  0  0  0  0  0  0  0  0  0  0
    1.2990    0.7500    0.0000 C   0  0  0  0  0  0  0  0  0  0  0  0
    2.5981   -0.0000    0.0000 C   0  0  0  0  0  0  0  0  0  0  0  0
    3.8971    0.7500    0.0000 C   0  0  0  0  0  0  0  0  0  0  0  0
    5.1962   -0.0000    0.0000 C   0  0  0  0  0  0  0  0  0  0  0  0
    6.4952    0.7500    0.0000 C   0  0  0  0  0  0  0  0  0  0  0  0
  1  2  2  0
  2  3  1  0
  3  4  1  0
  4  5  2  3
  5  6  1  0
M  END
>  <Title>  (259) 
idAAIAgen8

$$$$

     RDKit          2D

 89 90  0  0  0  0  0  0  0  0999 V2000
   -2.4138    0.0794    0.0000 C   0  0  0  0  0  0  0  0  0  0  0  0
   -2.2458   -1.4111    0.0000 C   0  0  0  0  0  0  0  0  0  0  0  0
   -3.7291   -1.6347    0.0000 C   0  0  0  0  0  0  0  0  0  0  0  0
   -5.1914   -1.9685    0.0000 C   0  0  0  0  0  0  0  0  0  0  0  0
   -6.6248   -2.4106    0.0000 C   0  0  0  0  0  0  0  0  0  0  0  0
   -8.0211   -2.9586    0.0000 C   0  0  0  0  0  0  0  0  0  0  0  0
   -9.3726   -3.6094    0.0000 C   0  0  0  0  0  0  0  0  0  0  0  0
  -10.6716   -4.3594    0.0000 C   0  0  0  0  0  0  0  0  0  0  0  0
  -11.9110   -5.2044    0.0000 C   0  0  0  0  0  0  0  0  0  0  0  0
  -13.0837   -6.1397    0.0000 C   0  0  0  0  0  0  0  0  0  0  0  0
  -14.1833   -7.1599    0.0000 C   0  0  0  0  0  0  0  0  0  0  0  0
  -15.2035   -8.2595    0.0000 C   0  0  0  0  0  0  0  0  0  0  0  0
  -16.1388   -9.4322    0.0000 C   0  0  0  0  0  0  0  0  0  0  0  0
  -16.9838  -10.6716    0.0000 C   0  0  0  0  0  0  0  0  0  0  0  0
  -17.7338  -11.9706    0.0000 C   0  0  0  0  0  0  0  0  0  0  0  0
  -18.3846  -13.3221    0.0000 C   0  0  0  0  0  0  0  0  0  0  0  0
  -18.9326  -14.7184    0.0000 C   0  0  0  0  0  0  0  0  0  0  0  0
  -19.3747  -16.1518    0.0000 C   0  0  0  0  0  0  0  0  0  0  0  0
  -19.7085  -17.6142    0.0000 C   0  0  0  0  0  0  0  0  0  0  0  0
  -19.9321  -19.0974    0.0000 C   0  0  0  0  0  0  0  0  0  0  0  0
  -20.0442  -20.5932    0.0000 C   0  0  0  0  0  0  0  0  0  0  0  0
  -20.0442  -22.0932    0.0000 C   0  0  0  0  0  0  0  0  0  0  0  0
  -19.9321  -23.5890    0.0000 C   0  0  0  0  0  0  0  0  0  0  0  0
  -19.7085  -25.0723    0.0000 C   0  0  0  0  0  0  0  0  0  0  0  0
  -19.3747  -26.5347    0.0000 C   0  0  0  0  0  0  0  0  0  0  0  0
  -18.9326  -27.9680    0.0000 C   0  0  0  0  0  0  0  0  0  0  0  0
  -18.3846  -29.3643    0.0000 C   0  0  0  0  0  0  0  0  0  0  0  0
  -17.7338  -30.7158    0.0000 C   0  0  0  0  0  0  0  0  0  0  0  0
  -16.9838  -32.0148    0.0000 C   0  0  0  0  0  0  0  0  0  0  0  0
  -16.1388  -33.2542    0.0000 C   0  0  0  0  0  0  0  0  0  0  0  0
  -15.2035  -34.4269    0.0000 C   0  0  0  0  0  0  0  0  0  0  0  0
  -14.1833  -35.5265    0.0000 C   0  0  0  0  0  0  0  0  0  0  0  0
  -13.0837  -36.5468    0.0000 C   0  0  0  0  0  0  0  0  0  0  0  0
  -11.9110  -37.4820    0.0000 C   0  0  0  0  0  0  0  0  0  0  0  0
  -10.6716  -38.3270    0.0000 C   0  0  0  0  0  0  0  0  0  0  0  0
   -9.3726  -39.0770    0.0000 C   0  0  0  0  0  0  0  0  0  0  0  0
   -8.0211  -39.7278    0.0000 C   0  0  0  0  0  0  0  0  0  0  0  0
   -6.6248  -40.2758    0.0000 C   0  0  0  0  0  0  0  0  0  0  0  0
   -5.1914  -40.7179    0.0000 C   0  0  0  0  0  0  0  0  0  0  0  0
   -3.7291  -41.0517    0.0000 C   0  0  0  0  0  0  0  0  0  0  0  0
   -2.2458  -41.2753    0.0000 C   0  0  0  0  0  0  0  0  0  0  0  0
   -0.7500  -41.3874    0.0000 C   0  0  0  0  0  0  0  0  0  0  0  0
    0.7500  -41.3874    0.0000 C   0  0  0  0  0  0  0  0  0  0  0  0
    2.2458  -41.2753    0.0000 C   0  0  0  0  0  0  0  0  0  0  0  0
    3.7291  -41.0517    0.0000 C   0  0  0  0  0  0  0  0  0  0  0  0
    5.1914  -40.7179    0.0000 C   0  0  0  0  0  0  0  0  0  0  0  0
    6.6248  -40.2758    0.0000 C   0  0  0  0  0  0  0  0  0  0  0  0
    8.0211  -39.7278    0.0000 C   0  0  0  0  0  0  0  0  0  0  0  0
    9.3726  -39.0770    0.0000 C   0  0  0  0  0  0  0  0  0  0  0  0
   10.6716  -38.3270    0.0000 C   0  0  0  0  0  0  0  0  0  0  0  0
   11.9110  -37.4820    0.0000 C   0  0  0  0  0  0  0  0  0  0  0  0
   13.0837  -36.5468    0.0000 C   0  0  0  0  0  0  0  0  0  0  0  0
   14.1833  -35.5265    0.0000 C   0  0  0  0  0  0  0  0  0  0  0  0
   15.2035  -34.4269    0.0000 C   0  0  0  0  0  0  0  0  0  0  0  0
   16.1388  -33.2542    0.0000 C   0  0  0  0  0  0  0  0  0  0  0  0
   16.9838  -32.0148    0.0000 C   0  0  0  0  0  0  0  0  0  0  0  0
   17.7338  -30.7158    0.0000 C   0  0  0  0  0  0  0  0  0  0  0  0
   18.3846  -29.3643    0.0000 C   0  0  0  0  0  0  0  0  0  0  0  0
   18.9326  -27.9680    0.0000 C   0  0  0  0  0  0  0  0  0  0  0  0
   19.3747  -26.5347    0.0000 C   0  0  0  0  0  0  0  0  0  0  0  0
   19.7085  -25.0723    0.0000 C   0  0  0  0  0  0  0  0  0  0  0  0
   19.9321  -23.5890    0.0000 C   0  0  0  0  0  0  0  0  0  0  0  0
   20.0442  -22.0932    0.0000 C   0  0  0  0  0  0  0  0  0  0  0  0
   20.0442  -20.5932    0.0000 C   0  0  0  0  0  0  0  0  0  0  0  0
   19.9321  -19.0974    0.0000 C   0  0  0  0  0  0  0  0  0  0  0  0
   19.7085  -17.6142    0.0000 C   0  0  0  0  0  0  0  0  0  0  0  0
   19.3747  -16.1518    0.0000 C   0  0  0  0  0  0  0  0  0  0  0  0
   18.9326  -14.7184    0.0000 C   0  0  0  0  0  0  0  0  0  0  0  0
   18.3846  -13.3221    0.0000 C   0  0  0  0  0  0  0  0  0  0  0  0
   17.7338  -11.9706    0.0000 C   0  0  0  0  0  0  0  0  0  0  0  0
   16.9838  -10.6716    0.0000 C   0  0  0  0  0  0  0  0  0  0  0  0
   16.1388   -9.4322    0.0000 C   0  0  0  0  0  0  0  0  0  0  0  0
   15.2035   -8.2595    0.0000 C   0  0  0  0  0  0  0  0  0  0  0  0
   14.1833   -7.1599    0.0000 C   0  0  0  0  0  0  0  0  0  0  0  0
   13.0837   -6.1397    0.0000 C   0  0  0  0  0  0  0  0  0  0  0  0
   11.9110   -5.2044    0.0000 C   0  0  0  0  0  0  0  0  0  0  0  0
   10.6716   -4.3594    0.0000 C   0  0  0  0  0  0  0  0  0  0  0  0
    9.3726   -3.6094    0.0000 C   0  0  0  0  0  0  0  0  0  0  0  0
    8.0211   -2.9586    0.0000 C   0  0  0  0  0  0  0  0  0  0  0  0
    6.6248   -2.4106    0.0000 C   0  0  0  0  0  0  0  0  0  0  0  0
    5.1914   -1.9685    0.0000 C   0  0  0  0  0  0  0  0  0  0  0  0
    3.7291   -1.6347    0.0000 C   0  0  0  0  0  0  0  0  0  0  0  0
    2.2458   -1.4111    0.0000 C   0  0  0  0  0  0  0  0  0  0  0  0
    0.7500   -1.2990    0.0000 C   0  0  0  0  0  0  0  0  0  0  0  0
    1.5000    0.0000    0.0000 C   0  0  0  0  0  0  0  0  0  0  0  0
    0.7500    1.2990    0.0000 C   0  0  0  0  0  0  0  0  0  0  0  0
   -0.7500    1.2990    0.0000 C   0  0  0  0  0  0  0  0  0  0  0  0
   -1.5000    0.0000    0.0000 C   0  0  0  0  0  0  0  0  0  0  0  0
   -0.7500   -1.2990    0.0000 C   0  0  0  0  0  0  0  0  0  0  0  0
  1  2  1  0
  2  3  1  0
  3  4  1  0
  4  5  1  0
  5  6  1  0
  6  7  1  0
  7  8  1  0
  8  9  1  0
  9 10  1  0
 10 11  1  0
 11 12  1  0
 12 13  1  0
 13 14  1  0
 14 15  1  0
 15 16  1  0
 16 17  1  0
 17 18  1  0
 18 19  1  0
 19 20  1  0
 20 21  1  0
 21 22  1  0
 22 23  1  0
 23 24  1  0
 24 25  1  0
 25 26  1  0
 26 27  1  0
 27 28  1  0
 28 29  1  0
 29 30  1  0
 30 31  1  0
 31 32  1  0
 32 33  1  0
 33 34  1  0
 34 35  1  0
 35 36  1  0
 36 37  1  0
 37 38  1  0
 38 39  1  0
 39 40  1  0
 40 41  1  0
 41 42  1  0
 42 43  1  0
 43 44  1  0
 44 45  1  0
 45 46  1  0
 46 47  1  0
 47 48  1  0
 48 49  1  0
 49 50  1  0
 50 51  1  0
 51 52  1  0
 52 53  1  0
 53 54  1  0
 54 55  1  0
 55 56  1  0
 56 57  1  0
 57 58  1  0
 58 59  1  0
 59 60  1  0
 60 61  1  0
 61 62  1  0
 62 63  1  0
 63 64  1  0
 64 65  1  0
 65 66  1  0
 66 67  1  0
 67 68  1  0
 68 69  1  0
 69 70  1  0
 70 71  1  0
 71 72  1  0
 72 73  1  0
 73 74  1  0
 74 75  1  0
 75 76  1  0
 76 77  1  0
 77 78  1  0
 78 79  1  0
 79 80  1  0
 80 81  1  0
 81 82  1  0
 82 83  1  0
 83 84  1  0
 84 85  2  0
 85 86  1  0
 86 87  2  0
 87 88  1  0
 88 89  2  0
 89  2  1  0
 89 84  1  0
M  END
>  <Title>  (260) 
idAAIBgen8

$$$$

     RDKit          2D

  6  5  0  0  0  0  0  0  0  0999 V2000
    0.0000    0.0000    0.0000 C   0  0  0  0  0  0  0  0  0  0  0  0
    1.2990    0.7500    0.0000 C   0  0  0  0  0  0  0  0  0  0  0  0
    2.5981   -0.0000    0.0000 C   0  0  0  0  0  0  0  0  0  0  0  0
    2.5981   -1.5000    0.0000 O   0  0  0  0  0  0  0  0  0  0  0  0
    3.8971    0.7500    0.0000 C   0  0  0  0  0  0  0  0  0  0  0  0
    5.1962   -0.0000    0.0000 C   0  0  0  0  0  0  0  0  0  0  0  0
  1  2  1  0
  2  3  1  0
  3  4  2  0
  3  5  1  0
  5  6  1  0
M  END
>  <Title>  (261) 
idAAICgen8

$$$$

     RDKit          2D

 67 77  0  0  0  0  0  0  0  0999 V2000
    3.4756   -1.0126    0.0000 C   0  0  0  0  0  0  0  0  0  0  0  0
    2.1766   -1.7626    0.0000 C   0  0  0  0  0  0  0  0  0  0  0  0
    2.3854   -0.2772    0.0000 C   0  0  0  0  0  0  0  0  0  0  0  0
    0.7500   -1.2990    0.0000 C   0  0  0  0  0  0  0  0  0  0  0  0
    1.5000    0.0000    0.0000 C   0  0  0  0  0  0  0  0  0  0  0  0
    0.7500    1.2990    0.0000 C   0  0  0  0  0  0  0  0  0  0  0  0
   -0.7500    1.2990    0.0000 C   0  0  0  0  0  0  0  0  0  0  0  0
   -1.5000    0.0000    0.0000 C   0  0  0  0  0  0  0  0  0  0  0  0
   -0.7500   -1.2990    0.0000 C   0  0  0  0  0  0  0  0  0  0  0  0
   -2.1766   -1.7626    0.0000 C   0  0  0  0  0  0  0  0  0  0  0  0
   -2.3334   -0.2708    0.0000 C   0  0  0  0  0  0  0  0  0  0  0  0
   -3.7037    0.3393    0.0000 C   0  0  0  0  0  0  0  0  0  0  0  0
   -4.9172   -0.5424    0.0000 C   0  0  0  0  0  0  0  0  0  0  0  0
   -4.7604   -2.0341    0.0000 C   0  0  0  0  0  0  0  0  0  0  0  0
   -3.3901   -2.6442    0.0000 C   0  0  0  0  0  0  0  0  0  0  0  0
   -4.2718   -3.8578    0.0000 C   0  0  0  0  0  0  0  0  0  0  0  0
   -5.2755   -2.7430    0.0000 C   0  0  0  0  0  0  0  0  0  0  0  0
   -6.7427   -3.0549    0.0000 C   0  0  0  0  0  0  0  0  0  0  0  0
   -7.2062   -4.4815    0.0000 C   0  0  0  0  0  0  0  0  0  0  0  0
   -6.2025   -5.5962    0.0000 C   0  0  0  0  0  0  0  0  0  0  0  0
   -4.7353   -5.2844    0.0000 C   0  0  0  0  0  0  0  0  0  0  0  0
   -4.7353   -6.7844    0.0000 C   0  0  0  0  0  0  0  0  0  0  0  0
   -6.2025   -6.4725    0.0000 C   0  0  0  0  0  0  0  0  0  0  0  0
   -7.2062   -7.5872    0.0000 C   0  0  0  0  0  0  0  0  0  0  0  0
   -6.7427   -9.0138    0.0000 C   0  0  0  0  0  0  0  0  0  0  0  0
   -5.2755   -9.3257    0.0000 C   0  0  0  0  0  0  0  0  0  0  0  0
   -4.2718   -8.2109    0.0000 C   0  0  0  0  0  0  0  0  0  0  0  0
   -3.3901   -9.4245    0.0000 C   0  0  0  0  0  0  0  0  0  0  0  0
   -4.7604  -10.0346    0.0000 C   0  0  0  0  0  0  0  0  0  0  0  0
   -4.9172  -11.5263    0.0000 C   0  0  0  0  0  0  0  0  0  0  0  0
   -3.7037  -12.4080    0.0000 C   0  0  0  0  0  0  0  0  0  0  0  0
   -2.3334  -11.7979    0.0000 C   0  0  0  0  0  0  0  0  0  0  0  0
   -2.1766  -10.3061    0.0000 C   0  0  0  0  0  0  0  0  0  0  0  0
   -0.7500  -10.7697    0.0000 C   0  0  0  0  0  0  0  0  0  0  0  0
   -1.5000  -12.0687    0.0000 C   0  0  0  0  0  0  0  0  0  0  0  0
   -0.7500  -13.3677    0.0000 C   0  0  0  0  0  0  0  0  0  0  0  0
    0.7500  -13.3677    0.0000 C   0  0  0  0  0  0  0  0  0  0  0  0
    1.5000  -12.0687    0.0000 C   0  0  0  0  0  0  0  0  0  0  0  0
    0.7500  -10.7697    0.0000 C   0  0  0  0  0  0  0  0  0  0  0  0
    2.1766  -10.3061    0.0000 C   0  0  0  0  0  0  0  0  0  0  0  0
    2.3334  -11.7979    0.0000 C   0  0  0  0  0  0  0  0  0  0  0  0
    3.7037  -12.4080    0.0000 C   0  0  0  0  0  0  0  0  0  0  0  0
    4.9172  -11.5263    0.0000 C   0  0  0  0  0  0  0  0  0  0  0  0
    4.7604  -10.0346    0.0000 C   0  0  0  0  0  0  0  0  0  0  0  0
    3.3901   -9.4245    0.0000 C   0  0  0  0  0  0  0  0  0  0  0  0
    4.2718   -8.2109    0.0000 C   0  0  0  0  0  0  0  0  0  0  0  0
    5.2755   -9.3257    0.0000 C   0  0  0  0  0  0  0  0  0  0  0  0
    6.7427   -9.0138    0.0000 C   0  0  0  0  0  0  0  0  0  0  0  0
    7.2062   -7.5872    0.0000 C   0  0  0  0  0  0  0  0  0  0  0  0
    6.2025   -6.4725    0.0000 C   0  0  0  0  0  0  0  0  0  0  0  0
    4.7353   -6.7844    0.0000 C   0  0  0  0  0  0  0  0  0  0  0  0
    4.7353   -5.2844    0.0000 C   0  0  0  0  0  0  0  0  0  0  0  0
    6.2025   -5.5962    0.0000 C   0  0  0  0  0  0  0  0  0  0  0  0
    7.2062   -4.4815    0.0000 C   0  0  0  0  0  0  0  0  0  0  0  0
    6.7427   -3.0549    0.0000 C   0  0  0  0  0  0  0  0  0  0  0  0
    5.2755   -2.7430    0.0000 C   0  0  0  0  0  0  0  0  0  0  0  0
    4.2718   -3.8578    0.0000 C   0  0  0  0  0  0  0  0  0  0  0  0
    3.3901   -2.6442    0.0000 C   0  0  0  0  0  0  0  0  0  0  0  0
    4.4508   -1.5836    0.0000 C   0  0  0  0  0  0  0  0  0  0  0  0
    5.8997   -1.9718    0.0000 O   0  0  0  0  0  0  0  0  0  0  0  0
    4.0625   -0.1347    0.0000 N   0  0  0  0  0  0  0  0  0  0  0  0
    5.1232    0.9260    0.0000 C   0  0  0  0  0  0  0  0  0  0  0  0
    6.5721    0.5377    0.0000 N   0  0  0  0  0  0  0  0  0  0  0  0
    7.6328    1.5984    0.0000 N   0  0  0  0  0  0  0  0  0  0  0  0
    7.2445    3.0473    0.0000 N   0  0  0  0  0  0  0  0  0  0  0  0
    5.7956    3.4355    0.0000 N   0  0  0  0  0  0  0  0  0  0  0  0
    4.7350    2.3749    0.0000 N   0  0  0  0  0  0  0  0  0  0  0  0
  1  2  1  0
  2  3  1  0
  2  4  1  0
  4  5  2  0
  5  6  1  0
  6  7  2  0
  7  8  1  0
  8  9  2  0
  9 10  1  0
 10 11  2  0
 11 12  1  0
 12 13  2  0
 13 14  1  0
 14 15  2  0
 15 16  1  0
 16 17  2  0
 17 18  1  0
 18 19  2  0
 19 20  1  0
 20 21  2  0
 21 22  1  0
 22 23  2  0
 23 24  1  0
 24 25  2  0
 25 26  1  0
 26 27  2  0
 27 28  1  0
 28 29  2  0
 29 30  1  0
 30 31  2  0
 31 32  1  0
 32 33  2  0
 33 34  1  0
 34 35  2  0
 35 36  1  0
 36 37  2  0
 37 38  1  0
 38 39  2  0
 39 40  1  0
 40 41  2  0
 41 42  1  0
 42 43  2  0
 43 44  1  0
 44 45  2  0
 45 46  1  0
 46 47  2  0
 47 48  1  0
 48 49  2  0
 49 50  1  0
 50 51  2  0
 51 52  1  0
 52 53  2  0
 53 54  1  0
 54 55  2  0
 55 56  1  0
 56 57  2  0
 57 58  1  0
 58 59  1  0
 59 60  2  0
 59 61  1  0
 61 62  1  0
 62 63  2  0
 63 64  1  0
 64 65  2  0
 65 66  1  0
 66 67  2  0
 58  2  1  0
 67 62  1  0
  9  4  1  0
 15 10  1  0
 21 16  1  0
 27 22  1  0
 33 28  1  0
 39 34  1  0
 45 40  1  0
 51 46  1  0
 57 52  1  0
M  END
>  <Title>  (262) 
idAAIDgen8

$$$$

     RDKit          2D

  6  6  0  0  0  0  0  0  0  0999 V2000
    2.7760    0.0000    0.0000 C   0  0  0  0  0  0  0  0  0  0  0  0
    1.2760    0.0000    0.0000 C   0  0  0  0  0  0  0  0  0  0  0  0
    0.3943    1.2135    0.0000 C   0  0  0  0  0  0  0  0  0  0  0  0
   -1.0323    0.7500    0.0000 C   0  0  0  0  0  0  0  0  0  0  0  0
   -1.0323   -0.7500    0.0000 C   0  0  0  0  0  0  0  0  0  0  0  0
    0.3943   -1.2135    0.0000 C   0  0  0  0  0  0  0  0  0  0  0  0
  1  2  1  0
  2  3  2  0
  3  4  1  0
  4  5  2  0
  5  6  1  0
  6  2  1  0
M  END
>  <Title>  (263) 
idAAIEgen8

$$$$

     RDKit          2D

 24 26  0  0  0  0  0  0  0  0999 V2000
    5.3566    3.2459    0.0000 C   0  0  0  0  0  0  0  0  0  0  0  0
    3.8942    3.5796    0.0000 C   0  0  0  0  0  0  0  0  0  0  0  0
    2.8739    2.4801    0.0000 C   0  0  0  0  0  0  0  0  0  0  0  0
    1.4115    2.8138    0.0000 C   0  0  0  0  0  0  0  0  0  0  0  0
    1.7453    4.2762    0.0000 C   0  0  0  0  0  0  0  0  0  0  0  0
    1.0777    1.3515    0.0000 C   0  0  0  0  0  0  0  0  0  0  0  0
    1.7286    0.0000    0.0000 C   0  0  0  0  0  0  0  0  0  0  0  0
    1.0777   -1.3515    0.0000 C   0  0  0  0  0  0  0  0  0  0  0  0
    2.0130   -2.5242    0.0000 C   0  0  0  0  0  0  0  0  0  0  0  0
    2.9482   -3.6969    0.0000 N   0  0  0  0  0  0  0  0  0  0  0  0
   -0.3846   -1.6852    0.0000 C   0  0  0  0  0  0  0  0  0  0  0  0
   -1.5574   -0.7500    0.0000 C   0  0  0  0  0  0  0  0  0  0  0  0
   -1.5574    0.7500    0.0000 C   0  0  0  0  0  0  0  0  0  0  0  0
   -0.3846    1.6852    0.0000 C   0  0  0  0  0  0  0  0  0  0  0  0
   -0.0509    3.1476    0.0000 C   0  0  0  0  0  0  0  0  0  0  0  0
   -0.8489    4.4177    0.0000 C   0  0  0  0  0  0  0  0  0  0  0  0
   -2.3479    4.3616    0.0000 O   0  0  0  0  0  0  0  0  0  0  0  0
   -0.1480    5.7439    0.0000 N   0  0  0  0  0  0  0  0  0  0  0  0
   -0.9461    7.0140    0.0000 C   0  0  0  0  0  0  0  0  0  0  0  0
   -0.2452    8.3401    0.0000 N   0  0  0  0  0  0  0  0  0  0  0  0
   -1.0432    9.6102    0.0000 N   0  0  0  0  0  0  0  0  0  0  0  0
   -2.5422    9.5541    0.0000 N   0  0  0  0  0  0  0  0  0  0  0  0
   -3.2431    8.2280    0.0000 N   0  0  0  0  0  0  0  0  0  0  0  0
   -2.4450    6.9579    0.0000 N   0  0  0  0  0  0  0  0  0  0  0  0
  1  2  1  0
  2  3  1  0
  3  4  1  0
  4  5  1  0
  4  6  1  0
  6  7  2  0
  7  8  1  0
  8  9  1  0
  9 10  3  0
  8 11  1  0
 11 12  2  0
 12 13  1  0
 13 14  2  0
 14 15  1  0
 15 16  1  0
 16 17  2  0
 16 18  1  0
 18 19  1  0
 19 20  2  0
 20 21  1  0
 21 22  2  0
 22 23  1  0
 23 24  2  0
 15  4  1  0
 24 19  1  0
 14  6  1  0
M  END
>  <Title>  (264) 
idAAIFgen8

$$$$

     RDKit          2D

  8  8  0  0  0  0  0  0  0  0999 V2000
    3.2286   -0.0000    0.0000 O   0  0  0  0  0  0  0  0  0  0  0  0
    1.7286    0.0000    0.0000 C   0  0  0  0  0  0  0  0  0  0  0  0
    1.0777    1.3515    0.0000 C   0  0  0  0  0  0  0  0  0  0  0  0
   -0.3846    1.6852    0.0000 C   0  0  0  0  0  0  0  0  0  0  0  0
   -1.5574    0.7500    0.0000 C   0  0  0  0  0  0  0  0  0  0  0  0
   -1.5574   -0.7500    0.0000 C   0  0  0  0  0  0  0  0  0  0  0  0
   -0.3846   -1.6852    0.0000 C   0  0  0  0  0  0  0  0  0  0  0  0
    1.0777   -1.3515    0.0000 C   0  0  0  0  0  0  0  0  0  0  0  0
  1  2  1  0
  2  3  2  0
  3  4  1  0
  4  5  1  0
  5  6  1  0
  6  7  1  0
  7  8  1  0
  8  2  1  0
M  END
>  <Title>  (265) 
idAAIGgen8

$$$$

     RDKit          2D

 10 11  0  0  0  0  0  0  0  0999 V2000
   -2.6401   -3.1891    0.0000 O   0  0  0  0  0  0  0  0  0  0  0  0
   -1.2135   -2.7256    0.0000 C   0  0  0  0  0  0  0  0  0  0  0  0
   -0.0000   -3.6073    0.0000 C   0  0  0  0  0  0  0  0  0  0  0  0
    1.2135   -2.7256    0.0000 C   0  0  0  0  0  0  0  0  0  0  0  0
    0.7500   -1.2990    0.0000 C   0  0  0  0  0  0  0  0  0  0  0  0
    1.5000    0.0000    0.0000 C   0  0  0  0  0  0  0  0  0  0  0  0
    0.7500    1.2990    0.0000 C   0  0  0  0  0  0  0  0  0  0  0  0
   -0.7500    1.2990    0.0000 C   0  0  0  0  0  0  0  0  0  0  0  0
   -1.5000    0.0000    0.0000 C   0  0  0  0  0  0  0  0  0  0  0  0
   -0.7500   -1.2990    0.0000 C   0  0  0  0  0  0  0  0  0  0  0  0
  1  2  1  0
  2  3  1  0
  3  4  1  0
  4  5  1  0
  5  6  2  0
  6  7  1  0
  7  8  2  0
  8  9  1  0
  9 10  2  0
 10  2  1  0
 10  5  1  0
M  END
>  <Title>  (266) 
idAAIHgen8

$$$$

     RDKit          2D

 19 19  0  0  0  0  0  0  0  0999 V2000
    2.7760  -12.9904    0.0000 C   0  0  0  0  0  0  0  0  0  0  0  0
    3.5260  -11.6913    0.0000 C   0  0  0  0  0  0  0  0  0  0  0  0
    2.7760  -10.3923    0.0000 C   0  0  0  0  0  0  0  0  0  0  0  0
    3.5260   -9.0933    0.0000 C   0  0  0  0  0  0  0  0  0  0  0  0
    5.0260   -9.0933    0.0000 O   0  0  0  0  0  0  0  0  0  0  0  0
    2.7760   -7.7942    0.0000 N   0  0  0  0  0  0  0  0  0  0  0  0
    3.5260   -6.4952    0.0000 C   0  0  0  0  0  0  0  0  0  0  0  0
    2.7760   -5.1962    0.0000 C   0  0  0  0  0  0  0  0  0  0  0  0
    3.5260   -3.8971    0.0000 C   0  0  0  0  0  0  0  0  0  0  0  0
    2.7760   -2.5981    0.0000 C   0  0  0  0  0  0  0  0  0  0  0  0
    3.5260   -1.2990    0.0000 N   0  0  0  0  0  0  0  0  0  0  0  0
    5.0260   -1.2990    0.0000 C   0  0  0  0  0  0  0  0  0  0  0  0
    2.7760    0.0000    0.0000 C   0  0  0  0  0  0  0  0  0  0  0  0
    3.5260    1.2990    0.0000 O   0  0  0  0  0  0  0  0  0  0  0  0
    1.2760    0.0000    0.0000 C   0  0  0  0  0  0  0  0  0  0  0  0
    0.3943    1.2135    0.0000 C   0  0  0  0  0  0  0  0  0  0  0  0
   -1.0323    0.7500    0.0000 C   0  0  0  0  0  0  0  0  0  0  0  0
   -1.0323   -0.7500    0.0000 C   0  0  0  0  0  0  0  0  0  0  0  0
    0.3943   -1.2135    0.0000 C   0  0  0  0  0  0  0  0  0  0  0  0
  1  2  1  0
  2  3  2  3
  3  4  1  0
  4  5  2  0
  4  6  1  0
  6  7  1  0
  7  8  1  0
  8  9  1  0
  9 10  1  0
 10 11  1  0
 11 12  1  0
 11 13  1  0
 13 14  2  0
 13 15  1  0
 15 16  2  0
 16 17  1  0
 17 18  1  0
 18 19  2  0
 19 15  1  0
M  END
>  <Title>  (267) 
idAAIIgen8

$$$$

     RDKit          2D

 57 57  0  0  0  0  0  0  0  0999 V2000
   14.8760    0.0000    0.0000 C   0  0  0  0  0  0  0  0  0  0  0  0
   13.3760    0.0000    0.0000 C   0  0  0  0  0  0  0  0  0  0  0  0
   13.2919   -1.4976    0.0000 C   0  0  0  0  0  0  0  0  0  0  0  0
   13.0407   -2.9764    0.0000 C   0  0  0  0  0  0  0  0  0  0  0  0
   12.6254   -4.4178    0.0000 C   0  0  0  0  0  0  0  0  0  0  0  0
   12.0514   -5.8036    0.0000 C   0  0  0  0  0  0  0  0  0  0  0  0
   11.3258   -7.1165    0.0000 C   0  0  0  0  0  0  0  0  0  0  0  0
   10.4578   -8.3398    0.0000 C   0  0  0  0  0  0  0  0  0  0  0  0
    9.4583   -9.4583    0.0000 C   0  0  0  0  0  0  0  0  0  0  0  0
    8.3398  -10.4578    0.0000 C   0  0  0  0  0  0  0  0  0  0  0  0
    7.1165  -11.3258    0.0000 C   0  0  0  0  0  0  0  0  0  0  0  0
    5.8036  -12.0514    0.0000 C   0  0  0  0  0  0  0  0  0  0  0  0
    4.4178  -12.6254    0.0000 C   0  0  0  0  0  0  0  0  0  0  0  0
    2.9764  -13.0407    0.0000 C   0  0  0  0  0  0  0  0  0  0  0  0
    1.4976  -13.2919    0.0000 C   0  0  0  0  0  0  0  0  0  0  0  0
   -0.0000  -13.3760    0.0000 C   0  0  0  0  0  0  0  0  0  0  0  0
   -1.4976  -13.2919    0.0000 C   0  0  0  0  0  0  0  0  0  0  0  0
   -2.9764  -13.0407    0.0000 C   0  0  0  0  0  0  0  0  0  0  0  0
   -4.4178  -12.6254    0.0000 C   0  0  0  0  0  0  0  0  0  0  0  0
   -5.8036  -12.0514    0.0000 C   0  0  0  0  0  0  0  0  0  0  0  0
   -7.1165  -11.3258    0.0000 C   0  0  0  0  0  0  0  0  0  0  0  0
   -8.3398  -10.4578    0.0000 C   0  0  0  0  0  0  0  0  0  0  0  0
   -9.4583   -9.4583    0.0000 C   0  0  0  0  0  0  0  0  0  0  0  0
  -10.4578   -8.3398    0.0000 C   0  0  0  0  0  0  0  0  0  0  0  0
  -11.3258   -7.1165    0.0000 C   0  0  0  0  0  0  0  0  0  0  0  0
  -12.0514   -5.8036    0.0000 C   0  0  0  0  0  0  0  0  0  0  0  0
  -12.6254   -4.4178    0.0000 C   0  0  0  0  0  0  0  0  0  0  0  0
  -13.0407   -2.9764    0.0000 C   0  0  0  0  0  0  0  0  0  0  0  0
  -13.2919   -1.4976    0.0000 C   0  0  0  0  0  0  0  0  0  0  0  0
  -13.3760    0.0000    0.0000 C   0  0  0  0  0  0  0  0  0  0  0  0
  -13.2919    1.4976    0.0000 C   0  0  0  0  0  0  0  0  0  0  0  0
  -13.0407    2.9764    0.0000 C   0  0  0  0  0  0  0  0  0  0  0  0
  -12.6254    4.4178    0.0000 C   0  0  0  0  0  0  0  0  0  0  0  0
  -12.0514    5.8036    0.0000 C   0  0  0  0  0  0  0  0  0  0  0  0
  -11.3258    7.1165    0.0000 C   0  0  0  0  0  0  0  0  0  0  0  0
  -10.4578    8.3398    0.0000 C   0  0  0  0  0  0  0  0  0  0  0  0
   -9.4583    9.4583    0.0000 C   0  0  0  0  0  0  0  0  0  0  0  0
   -8.3398   10.4578    0.0000 C   0  0  0  0  0  0  0  0  0  0  0  0
   -7.1165   11.3258    0.0000 C   0  0  0  0  0  0  0  0  0  0  0  0
   -5.8036   12.0514    0.0000 C   0  0  0  0  0  0  0  0  0  0  0  0
   -4.4178   12.6254    0.0000 C   0  0  0  0  0  0  0  0  0  0  0  0
   -2.9764   13.0407    0.0000 C   0  0  0  0  0  0  0  0  0  0  0  0
   -1.4976   13.2919    0.0000 C   0  0  0  0  0  0  0  0  0  0  0  0
    0.0000   13.3760    0.0000 C   0  0  0  0  0  0  0  0  0  0  0  0
    1.4976   13.2919    0.0000 C   0  0  0  0  0  0  0  0  0  0  0  0
    2.9764   13.0407    0.0000 C   0  0  0  0  0  0  0  0  0  0  0  0
    4.4178   12.6254    0.0000 C   0  0  0  0  0  0  0  0  0  0  0  0
    5.8036   12.0514    0.0000 C   0  0  0  0  0  0  0  0  0  0  0  0
    7.1165   11.3258    0.0000 C   0  0  0  0  0  0  0  0  0  0  0  0
    8.3398   10.4578    0.0000 C   0  0  0  0  0  0  0  0  0  0  0  0
    9.4583    9.4583    0.0000 C   0  0  0  0  0  0  0  0  0  0  0  0
   10.4578    8.3398    0.0000 C   0  0  0  0  0  0  0  0  0  0  0  0
   11.3258    7.1165    0.0000 C   0  0  0  0  0  0  0  0  0  0  0  0
   12.0514    5.8036    0.0000 C   0  0  0  0  0  0  0  0  0  0  0  0
   12.6254    4.4178    0.0000 C   0  0  0  0  0  0  0  0  0  0  0  0
   13.0407    2.9764    0.0000 C   0  0  0  0  0  0  0  0  0  0  0  0
   13.2919    1.4976    0.0000 C   0  0  0  0  0  0  0  0  0  0  0  0
  1  2  1  0
  2  3  2  0
  3  4  1  0
  4  5  1  0
  5  6  1  0
  6  7  1  0
  7  8  1  0
  8  9  1  0
  9 10  1  0
 10 11  1  0
 11 12  1  0
 12 13  1  0
 13 14  1  0
 14 15  1  0
 15 16  1  0
 16 17  1  0
 17 18  1  0
 18 19  1  0
 19 20  1  0
 20 21  1  0
 21 22  1  0
 22 23  1  0
 23 24  1  0
 24 25  1  0
 25 26  1  0
 26 27  1  0
 27 28  1  0
 28 29  1  0
 29 30  1  0
 30 31  1  0
 31 32  1  0
 32 33  1  0
 33 34  1  0
 34 35  1  0
 35 36  1  0
 36 37  1  0
 37 38  1  0
 38 39  1  0
 39 40  1  0
 40 41  1  0
 41 42  1  0
 42 43  1  0
 43 44  1  0
 44 45  1  0
 45 46  1  0
 46 47  1  0
 47 48  1  0
 48 49  1  0
 49 50  1  0
 50 51  1  0
 51 52  1  0
 52 53  1  0
 53 54  1  0
 54 55  1  0
 55 56  1  0
 56 57  1  0
 57  2  1  0
M  END
>  <Title>  (268) 
idAAIJgen8

$$$$

     RDKit          2D

120120  0  0  0  0  0  0  0  0999 V2000
   29.9125    0.0000    0.0000 C   0  0  0  0  0  0  0  0  0  0  0  0
   28.4125    0.0000    0.0000 C   0  0  0  0  0  0  0  0  0  0  0  0
   28.3729    1.4995    0.0000 C   0  0  0  0  0  0  0  0  0  0  0  0
   28.2542    2.9948    0.0000 C   0  0  0  0  0  0  0  0  0  0  0  0
   28.0568    4.4817    0.0000 C   0  0  0  0  0  0  0  0  0  0  0  0
   27.7811    5.9562    0.0000 C   0  0  0  0  0  0  0  0  0  0  0  0
   27.4281    7.4140    0.0000 C   0  0  0  0  0  0  0  0  0  0  0  0
   26.9986    8.8512    0.0000 C   0  0  0  0  0  0  0  0  0  0  0  0
   26.4938   10.2638    0.0000 C   0  0  0  0  0  0  0  0  0  0  0  0
   25.9152   11.6477    0.0000 C   0  0  0  0  0  0  0  0  0  0  0  0
   25.2644   12.9991    0.0000 C   0  0  0  0  0  0  0  0  0  0  0  0
   24.5432   14.3144    0.0000 C   0  0  0  0  0  0  0  0  0  0  0  0
   23.7535   15.5897    0.0000 C   0  0  0  0  0  0  0  0  0  0  0  0
   22.8977   16.8216    0.0000 C   0  0  0  0  0  0  0  0  0  0  0  0
   21.9780   18.0065    0.0000 C   0  0  0  0  0  0  0  0  0  0  0  0
   20.9971   19.1413    0.0000 C   0  0  0  0  0  0  0  0  0  0  0  0
   19.9576   20.2228    0.0000 C   0  0  0  0  0  0  0  0  0  0  0  0
   18.8625   21.2479    0.0000 C   0  0  0  0  0  0  0  0  0  0  0  0
   17.7149   22.2138    0.0000 C   0  0  0  0  0  0  0  0  0  0  0  0
   16.5179   23.1177    0.0000 C   0  0  0  0  0  0  0  0  0  0  0  0
   15.2748   23.9572    0.0000 C   0  0  0  0  0  0  0  0  0  0  0  0
   13.9892   24.7300    0.0000 C   0  0  0  0  0  0  0  0  0  0  0  0
   12.6645   25.4338    0.0000 C   0  0  0  0  0  0  0  0  0  0  0  0
   11.3046   26.0667    0.0000 C   0  0  0  0  0  0  0  0  0  0  0  0
    9.9132   26.6270    0.0000 C   0  0  0  0  0  0  0  0  0  0  0  0
    8.4941   27.1131    0.0000 C   0  0  0  0  0  0  0  0  0  0  0  0
    7.0514   27.5236    0.0000 C   0  0  0  0  0  0  0  0  0  0  0  0
    5.5890   27.8573    0.0000 C   0  0  0  0  0  0  0  0  0  0  0  0
    4.1110   28.1135    0.0000 C   0  0  0  0  0  0  0  0  0  0  0  0
    2.6216   28.2913    0.0000 C   0  0  0  0  0  0  0  0  0  0  0  0
    1.1248   28.3902    0.0000 C   0  0  0  0  0  0  0  0  0  0  0  0
   -0.3750   28.4100    0.0000 C   0  0  0  0  0  0  0  0  0  0  0  0
   -1.8739   28.3506    0.0000 C   0  0  0  0  0  0  0  0  0  0  0  0
   -3.3675   28.2122    0.0000 C   0  0  0  0  0  0  0  0  0  0  0  0
   -4.8517   27.9952    0.0000 C   0  0  0  0  0  0  0  0  0  0  0  0
   -6.3224   27.7001    0.0000 C   0  0  0  0  0  0  0  0  0  0  0  0
   -7.7754   27.3278    0.0000 C   0  0  0  0  0  0  0  0  0  0  0  0
   -9.2068   26.8794    0.0000 C   0  0  0  0  0  0  0  0  0  0  0  0
  -10.6126   26.3560    0.0000 C   0  0  0  0  0  0  0  0  0  0  0  0
  -11.9887   25.7592    0.0000 C   0  0  0  0  0  0  0  0  0  0  0  0
  -13.3315   25.0906    0.0000 C   0  0  0  0  0  0  0  0  0  0  0  0
  -14.6371   24.3521    0.0000 C   0  0  0  0  0  0  0  0  0  0  0  0
  -15.9019   23.5457    0.0000 C   0  0  0  0  0  0  0  0  0  0  0  0
  -17.1223   22.6736    0.0000 C   0  0  0  0  0  0  0  0  0  0  0  0
  -18.2951   21.7384    0.0000 C   0  0  0  0  0  0  0  0  0  0  0  0
  -19.4168   20.7426    0.0000 C   0  0  0  0  0  0  0  0  0  0  0  0
  -20.4845   19.6889    0.0000 C   0  0  0  0  0  0  0  0  0  0  0  0
  -21.4950   18.5804    0.0000 C   0  0  0  0  0  0  0  0  0  0  0  0
  -22.4456   17.4201    0.0000 C   0  0  0  0  0  0  0  0  0  0  0  0
  -23.3337   16.2113    0.0000 C   0  0  0  0  0  0  0  0  0  0  0  0
  -24.1568   14.9572    0.0000 C   0  0  0  0  0  0  0  0  0  0  0  0
  -24.9125   13.6615    0.0000 C   0  0  0  0  0  0  0  0  0  0  0  0
  -25.5987   12.3277    0.0000 C   0  0  0  0  0  0  0  0  0  0  0  0
  -26.2137   10.9595    0.0000 C   0  0  0  0  0  0  0  0  0  0  0  0
  -26.7555    9.5608    0.0000 C   0  0  0  0  0  0  0  0  0  0  0  0
  -27.2228    8.1355    0.0000 C   0  0  0  0  0  0  0  0  0  0  0  0
  -27.6142    6.6874    0.0000 C   0  0  0  0  0  0  0  0  0  0  0  0
  -27.9287    5.2208    0.0000 C   0  0  0  0  0  0  0  0  0  0  0  0
  -28.1653    3.7396    0.0000 C   0  0  0  0  0  0  0  0  0  0  0  0
  -28.3234    2.2479    0.0000 C   0  0  0  0  0  0  0  0  0  0  0  0
  -28.4026    0.7500    0.0000 C   0  0  0  0  0  0  0  0  0  0  0  0
  -28.4026   -0.7500    0.0000 C   0  0  0  0  0  0  0  0  0  0  0  0
  -28.3234   -2.2479    0.0000 C   0  0  0  0  0  0  0  0  0  0  0  0
  -28.1653   -3.7396    0.0000 C   0  0  0  0  0  0  0  0  0  0  0  0
  -27.9287   -5.2208    0.0000 C   0  0  0  0  0  0  0  0  0  0  0  0
  -27.6142   -6.6874    0.0000 C   0  0  0  0  0  0  0  0  0  0  0  0
  -27.2228   -8.1355    0.0000 C   0  0  0  0  0  0  0  0  0  0  0  0
  -26.7555   -9.5608    0.0000 C   0  0  0  0  0  0  0  0  0  0  0  0
  -26.2137  -10.9595    0.0000 C   0  0  0  0  0  0  0  0  0  0  0  0
  -25.5987  -12.3277    0.0000 C   0  0  0  0  0  0  0  0  0  0  0  0
  -24.9125  -13.6615    0.0000 C   0  0  0  0  0  0  0  0  0  0  0  0
  -24.1568  -14.9572    0.0000 C   0  0  0  0  0  0  0  0  0  0  0  0
  -23.3337  -16.2113    0.0000 C   0  0  0  0  0  0  0  0  0  0  0  0
  -22.4456  -17.4201    0.0000 C   0  0  0  0  0  0  0  0  0  0  0  0
  -21.4950  -18.5804    0.0000 C   0  0  0  0  0  0  0  0  0  0  0  0
  -20.4845  -19.6889    0.0000 C   0  0  0  0  0  0  0  0  0  0  0  0
  -19.4168  -20.7426    0.0000 C   0  0  0  0  0  0  0  0  0  0  0  0
  -18.2951  -21.7384    0.0000 C   0  0  0  0  0  0  0  0  0  0  0  0
  -17.1223  -22.6736    0.0000 C   0  0  0  0  0  0  0  0  0  0  0  0
  -15.9019  -23.5457    0.0000 C   0  0  0  0  0  0  0  0  0  0  0  0
  -14.6371  -24.3521    0.0000 C   0  0  0  0  0  0  0  0  0  0  0  0
  -13.3315  -25.0906    0.0000 C   0  0  0  0  0  0  0  0  0  0  0  0
  -11.9887  -25.7592    0.0000 C   0  0  0  0  0  0  0  0  0  0  0  0
  -10.6126  -26.3560    0.0000 C   0  0  0  0  0  0  0  0  0  0  0  0
   -9.2068  -26.8794    0.0000 C   0  0  0  0  0  0  0  0  0  0  0  0
   -7.7754  -27.3278    0.0000 C   0  0  0  0  0  0  0  0  0  0  0  0
   -6.3224  -27.7001    0.0000 C   0  0  0  0  0  0  0  0  0  0  0  0
   -4.8517  -27.9952    0.0000 C   0  0  0  0  0  0  0  0  0  0  0  0
   -3.3675  -28.2122    0.0000 C   0  0  0  0  0  0  0  0  0  0  0  0
   -1.8739  -28.3506    0.0000 C   0  0  0  0  0  0  0  0  0  0  0  0
   -0.3750  -28.4100    0.0000 C   0  0  0  0  0  0  0  0  0  0  0  0
    1.1248  -28.3902    0.0000 C   0  0  0  0  0  0  0  0  0  0  0  0
    2.6216  -28.2913    0.0000 C   0  0  0  0  0  0  0  0  0  0  0  0
    4.1110  -28.1135    0.0000 C   0  0  0  0  0  0  0  0  0  0  0  0
    5.5890  -27.8573    0.0000 C   0  0  0  0  0  0  0  0  0  0  0  0
    7.0514  -27.5236    0.0000 C   0  0  0  0  0  0  0  0  0  0  0  0
    8.4941  -27.1131    0.0000 C   0  0  0  0  0  0  0  0  0  0  0  0
    9.9132  -26.6270    0.0000 C   0  0  0  0  0  0  0  0  0  0  0  0
   11.3046  -26.0667    0.0000 C   0  0  0  0  0  0  0  0  0  0  0  0
   12.6645  -25.4338    0.0000 C   0  0  0  0  0  0  0  0  0  0  0  0
   13.9892  -24.7300    0.0000 C   0  0  0  0  0  0  0  0  0  0  0  0
   15.2748  -23.9572    0.0000 C   0  0  0  0  0  0  0  0  0  0  0  0
   16.5179  -23.1177    0.0000 C   0  0  0  0  0  0  0  0  0  0  0  0
   17.7149  -22.2138    0.0000 C   0  0  0  0  0  0  0  0  0  0  0  0
   18.8625  -21.2479    0.0000 C   0  0  0  0  0  0  0  0  0  0  0  0
   19.9576  -20.2228    0.0000 C   0  0  0  0  0  0  0  0  0  0  0  0
   20.9971  -19.1413    0.0000 C   0  0  0  0  0  0  0  0  0  0  0  0
   21.9780  -18.0065    0.0000 C   0  0  0  0  0  0  0  0  0  0  0  0
   22.8977  -16.8216    0.0000 C   0  0  0  0  0  0  0  0  0  0  0  0
   23.7535  -15.5897    0.0000 C   0  0  0  0  0  0  0  0  0  0  0  0
   24.5432  -14.3144    0.0000 C   0  0  0  0  0  0  0  0  0  0  0  0
   25.2644  -12.9991    0.0000 C   0  0  0  0  0  0  0  0  0  0  0  0
   25.9152  -11.6477    0.0000 C   0  0  0  0  0  0  0  0  0  0  0  0
   26.4938  -10.2638    0.0000 C   0  0  0  0  0  0  0  0  0  0  0  0
   26.9986   -8.8512    0.0000 C   0  0  0  0  0  0  0  0  0  0  0  0
   27.4281   -7.4140    0.0000 C   0  0  0  0  0  0  0  0  0  0  0  0
   27.7811   -5.9562    0.0000 C   0  0  0  0  0  0  0  0  0  0  0  0
   28.0568   -4.4817    0.0000 C   0  0  0  0  0  0  0  0  0  0  0  0
   28.2542   -2.9948    0.0000 C   0  0  0  0  0  0  0  0  0  0  0  0
   28.3729   -1.4995    0.0000 C   0  0  0  0  0  0  0  0  0  0  0  0
  1  2  1  0
  2  3  1  0
  3  4  2  0
  4  5  1  0
  5  6  2  0
  6  7  1  0
  7  8  2  0
  8  9  1  0
  9 10  1  0
 10 11  1  0
 11 12  1  0
 12 13  1  0
 13 14  1  0
 14 15  1  0
 15 16  1  0
 16 17  1  0
 17 18  1  0
 18 19  1  0
 19 20  1  0
 20 21  1  0
 21 22  1  0
 22 23  1  0
 23 24  1  0
 24 25  1  0
 25 26  1  0
 26 27  1  0
 27 28  1  0
 28 29  1  0
 29 30  1  0
 30 31  1  0
 31 32  1  0
 32 33  1  0
 33 34  1  0
 34 35  1  0
 35 36  1  0
 36 37  1  0
 37 38  1  0
 38 39  1  0
 39 40  1  0
 40 41  1  0
 41 42  1  0
 42 43  1  0
 43 44  1  0
 44 45  1  0
 45 46  1  0
 46 47  1  0
 47 48  1  0
 48 49  1  0
 49 50  1  0
 50 51  1  0
 51 52  1  0
 52 53  1  0
 53 54  1  0
 54 55  1  0
 55 56  1  0
 56 57  1  0
 57 58  1  0
 58 59  1  0
 59 60  1  0
 60 61  1  0
 61 62  1  0
 62 63  1  0
 63 64  1  0
 64 65  1  0
 65 66  1  0
 66 67  1  0
 67 68  1  0
 68 69  1  0
 69 70  1  0
 70 71  1  0
 71 72  1  0
 72 73  1  0
 73 74  1  0
 74 75  1  0
 75 76  1  0
 76 77  1  0
 77 78  1  0
 78 79  1  0
 79 80  1  0
 80 81  1  0
 81 82  1  0
 82 83  1  0
 83 84  1  0
 84 85  1  0
 85 86  1  0
 86 87  1  0
 87 88  1  0
 88 89  1  0
 89 90  1  0
 90 91  1  0
 91 92  1  0
 92 93  1  0
 93 94  1  0
 94 95  1  0
 95 96  1  0
 96 97  1  0
 97 98  1  0
 98 99  1  0
 99100  1  0
100101  1  0
101102  1  0
102103  1  0
103104  1  0
104105  1  0
105106  1  0
106107  1  0
107108  1  0
108109  1  0
109110  1  0
110111  1  0
111112  1  0
112113  1  0
113114  1  0
114115  1  0
115116  1  0
116117  1  0
117118  1  0
118119  1  0
119120  1  0
120  2  1  0
M  END
>  <Title>  (269) 
idAAIKgen8

$$$$

     RDKit          2D

 41 46  0  0  0  0  0  0  0  0999 V2000
    2.5171   -9.7755    0.0000 C   0  0  0  0  0  0  0  0  0  0  0  0
    1.0838   -9.3334    0.0000 C   0  0  0  0  0  0  0  0  0  0  0  0
    0.7500   -7.8710    0.0000 C   0  0  0  0  0  0  0  0  0  0  0  0
    2.1015   -7.2201    0.0000 C   0  0  0  0  0  0  0  0  0  0  0  0
    3.0367   -6.0474    0.0000 C   0  0  0  0  0  0  0  0  0  0  0  0
    3.3705   -4.5850    0.0000 C   0  0  0  0  0  0  0  0  0  0  0  0
    3.0367   -3.1226    0.0000 C   0  0  0  0  0  0  0  0  0  0  0  0
    2.1015   -1.9499    0.0000 C   0  0  0  0  0  0  0  0  0  0  0  0
    3.0367   -0.7771    0.0000 C   0  0  0  0  0  0  0  0  0  0  0  0
    2.4887    0.6192    0.0000 O   0  0  0  0  0  0  0  0  0  0  0  0
    4.5199   -1.0007    0.0000 N   0  0  0  0  0  0  0  0  0  0  0  0
    5.4552    0.1721    0.0000 C   0  0  0  0  0  0  0  0  0  0  0  0
    6.9384   -0.0515    0.0000 N   0  0  0  0  0  0  0  0  0  0  0  0
    7.8736    1.1213    0.0000 N   0  0  0  0  0  0  0  0  0  0  0  0
    7.3256    2.5176    0.0000 N   0  0  0  0  0  0  0  0  0  0  0  0
    5.8424    2.7411    0.0000 N   0  0  0  0  0  0  0  0  0  0  0  0
    4.9072    1.5684    0.0000 N   0  0  0  0  0  0  0  0  0  0  0  0
    0.7500   -1.2990    0.0000 C   0  0  0  0  0  0  0  0  0  0  0  0
    1.5000    0.0000    0.0000 C   0  0  0  0  0  0  0  0  0  0  0  0
    0.7500    1.2990    0.0000 C   0  0  0  0  0  0  0  0  0  0  0  0
   -0.7500    1.2990    0.0000 C   0  0  0  0  0  0  0  0  0  0  0  0
   -1.5000    0.0000    0.0000 C   0  0  0  0  0  0  0  0  0  0  0  0
   -0.7500   -1.2990    0.0000 C   0  0  0  0  0  0  0  0  0  0  0  0
   -2.1015   -1.9499    0.0000 C   0  0  0  0  0  0  0  0  0  0  0  0
   -2.6495   -0.5536    0.0000 C   0  0  0  0  0  0  0  0  0  0  0  0
   -4.1327   -0.3300    0.0000 C   0  0  0  0  0  0  0  0  0  0  0  0
   -5.0679   -1.5027    0.0000 C   0  0  0  0  0  0  0  0  0  0  0  0
   -4.5199   -2.8990    0.0000 C   0  0  0  0  0  0  0  0  0  0  0  0
   -3.0367   -3.1226    0.0000 C   0  0  0  0  0  0  0  0  0  0  0  0
   -3.3705   -4.5850    0.0000 C   0  0  0  0  0  0  0  0  0  0  0  0
   -4.8038   -4.1429    0.0000 C   0  0  0  0  0  0  0  0  0  0  0  0
   -5.9034   -5.1631    0.0000 C   0  0  0  0  0  0  0  0  0  0  0  0
   -5.5696   -6.6255    0.0000 C   0  0  0  0  0  0  0  0  0  0  0  0
   -4.1363   -7.0677    0.0000 C   0  0  0  0  0  0  0  0  0  0  0  0
   -3.0367   -6.0474    0.0000 C   0  0  0  0  0  0  0  0  0  0  0  0
   -2.1015   -7.2201    0.0000 C   0  0  0  0  0  0  0  0  0  0  0  0
   -3.3408   -8.0651    0.0000 C   0  0  0  0  0  0  0  0  0  0  0  0
   -3.2287   -9.5609    0.0000 C   0  0  0  0  0  0  0  0  0  0  0  0
   -1.8773  -10.2118    0.0000 C   0  0  0  0  0  0  0  0  0  0  0  0
   -0.6379   -9.3668    0.0000 C   0  0  0  0  0  0  0  0  0  0  0  0
   -0.7500   -7.8710    0.0000 C   0  0  0  0  0  0  0  0  0  0  0  0
  1  2  1  0
  2  3  1  0
  3  4  2  0
  4  5  1  0
  5  6  1  0
  6  7  1  0
  7  8  1  0
  8  9  1  0
  9 10  2  0
  9 11  1  0
 11 12  1  0
 12 13  2  0
 13 14  1  0
 14 15  2  0
 15 16  1  0
 16 17  2  0
  8 18  1  0
 18 19  2  0
 19 20  1  0
 20 21  2  0
 21 22  1  0
 22 23  2  0
 23 24  1  0
 24 25  2  0
 25 26  1  0
 26 27  2  0
 27 28  1  0
 28 29  2  0
 29 30  1  0
 30 31  2  0
 31 32  1  0
 32 33  2  0
 33 34  1  0
 34 35  2  0
 35 36  1  0
 36 37  2  0
 37 38  1  0
 38 39  2  0
 39 40  1  0
 40 41  2  0
 41  3  1  0
 17 12  1  0
 23 18  1  0
 29 24  1  0
 35 30  1  0
 41 36  1  0
M  END
>  <Title>  (270) 
idAAILgen8

$$$$

     RDKit          2D

106106  0  0  0  0  0  0  0  0999 V2000
   26.5706    0.0000    0.0000 C   0  0  0  0  0  0  0  0  0  0  0  0
   25.0706    0.0000    0.0000 C   0  0  0  0  0  0  0  0  0  0  0  0
   25.0258    1.4993    0.0000 C   0  0  0  0  0  0  0  0  0  0  0  0
   24.8913    2.9933    0.0000 C   0  0  0  0  0  0  0  0  0  0  0  0
   24.6677    4.4765    0.0000 C   0  0  0  0  0  0  0  0  0  0  0  0
   24.3559    5.9438    0.0000 C   0  0  0  0  0  0  0  0  0  0  0  0
   23.9568    7.3897    0.0000 C   0  0  0  0  0  0  0  0  0  0  0  0
   23.4720    8.8092    0.0000 C   0  0  0  0  0  0  0  0  0  0  0  0
   22.9032   10.1971    0.0000 C   0  0  0  0  0  0  0  0  0  0  0  0
   22.2523   11.5486    0.0000 C   0  0  0  0  0  0  0  0  0  0  0  0
   21.5219   12.8587    0.0000 C   0  0  0  0  0  0  0  0  0  0  0  0
   20.7143   14.1228    0.0000 C   0  0  0  0  0  0  0  0  0  0  0  0
   19.8327   15.3363    0.0000 C   0  0  0  0  0  0  0  0  0  0  0  0
   18.8800   16.4949    0.0000 C   0  0  0  0  0  0  0  0  0  0  0  0
   17.8597   17.5945    0.0000 C   0  0  0  0  0  0  0  0  0  0  0  0
   16.7755   18.6311    0.0000 C   0  0  0  0  0  0  0  0  0  0  0  0
   15.6313   19.6010    0.0000 C   0  0  0  0  0  0  0  0  0  0  0  0
   14.4311   20.5008    0.0000 C   0  0  0  0  0  0  0  0  0  0  0  0
   13.1792   21.3271    0.0000 C   0  0  0  0  0  0  0  0  0  0  0  0
   11.8802   22.0771    0.0000 C   0  0  0  0  0  0  0  0  0  0  0  0
   10.5386   22.7481    0.0000 C   0  0  0  0  0  0  0  0  0  0  0  0
    9.1593   23.3376    0.0000 C   0  0  0  0  0  0  0  0  0  0  0  0
    7.7473   23.8436    0.0000 C   0  0  0  0  0  0  0  0  0  0  0  0
    6.3074   24.2642    0.0000 C   0  0  0  0  0  0  0  0  0  0  0  0
    4.8451   24.5980    0.0000 C   0  0  0  0  0  0  0  0  0  0  0  0
    3.3653   24.8437    0.0000 C   0  0  0  0  0  0  0  0  0  0  0  0
    1.8735   25.0005    0.0000 C   0  0  0  0  0  0  0  0  0  0  0  0
    0.3750   25.0678    0.0000 C   0  0  0  0  0  0  0  0  0  0  0  0
   -1.1248   25.0454    0.0000 C   0  0  0  0  0  0  0  0  0  0  0  0
   -2.6206   24.9333    0.0000 C   0  0  0  0  0  0  0  0  0  0  0  0
   -4.1070   24.7320    0.0000 C   0  0  0  0  0  0  0  0  0  0  0  0
   -5.5787   24.4421    0.0000 C   0  0  0  0  0  0  0  0  0  0  0  0
   -7.0305   24.0647    0.0000 C   0  0  0  0  0  0  0  0  0  0  0  0
   -8.4571   23.6012    0.0000 C   0  0  0  0  0  0  0  0  0  0  0  0
   -9.8534   23.0532    0.0000 C   0  0  0  0  0  0  0  0  0  0  0  0
  -11.2144   22.4226    0.0000 C   0  0  0  0  0  0  0  0  0  0  0  0
  -12.5353   21.7118    0.0000 C   0  0  0  0  0  0  0  0  0  0  0  0
  -13.8113   20.9233    0.0000 C   0  0  0  0  0  0  0  0  0  0  0  0
  -15.0379   20.0599    0.0000 C   0  0  0  0  0  0  0  0  0  0  0  0
  -16.2107   19.1246    0.0000 C   0  0  0  0  0  0  0  0  0  0  0  0
  -17.3254   18.1209    0.0000 C   0  0  0  0  0  0  0  0  0  0  0  0
  -18.3781   17.0524    0.0000 C   0  0  0  0  0  0  0  0  0  0  0  0
  -19.3650   15.9228    0.0000 C   0  0  0  0  0  0  0  0  0  0  0  0
  -20.2826   14.7362    0.0000 C   0  0  0  0  0  0  0  0  0  0  0  0
  -21.1276   13.4968    0.0000 C   0  0  0  0  0  0  0  0  0  0  0  0
  -21.8969   12.2091    0.0000 C   0  0  0  0  0  0  0  0  0  0  0  0
  -22.5879   10.8777    0.0000 C   0  0  0  0  0  0  0  0  0  0  0  0
  -23.1980    9.5074    0.0000 C   0  0  0  0  0  0  0  0  0  0  0  0
  -23.7250    8.1031    0.0000 C   0  0  0  0  0  0  0  0  0  0  0  0
  -24.1672    6.6697    0.0000 C   0  0  0  0  0  0  0  0  0  0  0  0
  -24.5228    5.2125    0.0000 C   0  0  0  0  0  0  0  0  0  0  0  0
  -24.7906    3.7366    0.0000 C   0  0  0  0  0  0  0  0  0  0  0  0
  -24.9697    2.2473    0.0000 C   0  0  0  0  0  0  0  0  0  0  0  0
  -25.0594    0.7500    0.0000 C   0  0  0  0  0  0  0  0  0  0  0  0
  -25.0594   -0.7500    0.0000 C   0  0  0  0  0  0  0  0  0  0  0  0
  -24.9697   -2.2473    0.0000 C   0  0  0  0  0  0  0  0  0  0  0  0
  -24.7906   -3.7366    0.0000 C   0  0  0  0  0  0  0  0  0  0  0  0
  -24.5228   -5.2125    0.0000 C   0  0  0  0  0  0  0  0  0  0  0  0
  -24.1672   -6.6697    0.0000 C   0  0  0  0  0  0  0  0  0  0  0  0
  -23.7250   -8.1031    0.0000 C   0  0  0  0  0  0  0  0  0  0  0  0
  -23.1980   -9.5074    0.0000 C   0  0  0  0  0  0  0  0  0  0  0  0
  -22.5879  -10.8777    0.0000 C   0  0  0  0  0  0  0  0  0  0  0  0
  -21.8969  -12.2091    0.0000 C   0  0  0  0  0  0  0  0  0  0  0  0
  -21.1276  -13.4968    0.0000 C   0  0  0  0  0  0  0  0  0  0  0  0
  -20.2826  -14.7362    0.0000 C   0  0  0  0  0  0  0  0  0  0  0  0
  -19.3650  -15.9228    0.0000 C   0  0  0  0  0  0  0  0  0  0  0  0
  -18.3781  -17.0524    0.0000 C   0  0  0  0  0  0  0  0  0  0  0  0
  -17.3254  -18.1209    0.0000 C   0  0  0  0  0  0  0  0  0  0  0  0
  -16.2107  -19.1246    0.0000 C   0  0  0  0  0  0  0  0  0  0  0  0
  -15.0379  -20.0599    0.0000 C   0  0  0  0  0  0  0  0  0  0  0  0
  -13.8113  -20.9233    0.0000 C   0  0  0  0  0  0  0  0  0  0  0  0
  -12.5353  -21.7118    0.0000 C   0  0  0  0  0  0  0  0  0  0  0  0
  -11.2144  -22.4226    0.0000 C   0  0  0  0  0  0  0  0  0  0  0  0
   -9.8534  -23.0532    0.0000 C   0  0  0  0  0  0  0  0  0  0  0  0
   -8.4571  -23.6012    0.0000 C   0  0  0  0  0  0  0  0  0  0  0  0
   -7.0305  -24.0647    0.0000 C   0  0  0  0  0  0  0  0  0  0  0  0
   -5.5787  -24.4421    0.0000 C   0  0  0  0  0  0  0  0  0  0  0  0
   -4.1070  -24.7320    0.0000 C   0  0  0  0  0  0  0  0  0  0  0  0
   -2.6206  -24.9333    0.0000 C   0  0  0  0  0  0  0  0  0  0  0  0
   -1.1248  -25.0454    0.0000 C   0  0  0  0  0  0  0  0  0  0  0  0
    0.3750  -25.0678    0.0000 C   0  0  0  0  0  0  0  0  0  0  0  0
    1.8735  -25.0005    0.0000 C   0  0  0  0  0  0  0  0  0  0  0  0
    3.3653  -24.8437    0.0000 C   0  0  0  0  0  0  0  0  0  0  0  0
    4.8451  -24.5980    0.0000 C   0  0  0  0  0  0  0  0  0  0  0  0
    6.3074  -24.2642    0.0000 C   0  0  0  0  0  0  0  0  0  0  0  0
    7.7473  -23.8436    0.0000 C   0  0  0  0  0  0  0  0  0  0  0  0
    9.1593  -23.3376    0.0000 C   0  0  0  0  0  0  0  0  0  0  0  0
   10.5386  -22.7481    0.0000 C   0  0  0  0  0  0  0  0  0  0  0  0
   11.8802  -22.0771    0.0000 C   0  0  0  0  0  0  0  0  0  0  0  0
   13.1792  -21.3271    0.0000 C   0  0  0  0  0  0  0  0  0  0  0  0
   14.4311  -20.5008    0.0000 C   0  0  0  0  0  0  0  0  0  0  0  0
   15.6313  -19.6010    0.0000 C   0  0  0  0  0  0  0  0  0  0  0  0
   16.7755  -18.6311    0.0000 C   0  0  0  0  0  0  0  0  0  0  0  0
   17.8597  -17.5945    0.0000 C   0  0  0  0  0  0  0  0  0  0  0  0
   18.8800  -16.4949    0.0000 C   0  0  0  0  0  0  0  0  0  0  0  0
   19.8327  -15.3363    0.0000 C   0  0  0  0  0  0  0  0  0  0  0  0
   20.7143  -14.1228    0.0000 C   0  0  0  0  0  0  0  0  0  0  0  0
   21.5219  -12.8587    0.0000 C   0  0  0  0  0  0  0  0  0  0  0  0
   22.2523  -11.5486    0.0000 C   0  0  0  0  0  0  0  0  0  0  0  0
   22.9032  -10.1971    0.0000 C   0  0  0  0  0  0  0  0  0  0  0  0
   23.4720   -8.8092    0.0000 C   0  0  0  0  0  0  0  0  0  0  0  0
   23.9568   -7.3897    0.0000 C   0  0  0  0  0  0  0  0  0  0  0  0
   24.3559   -5.9438    0.0000 C   0  0  0  0  0  0  0  0  0  0  0  0
   24.6677   -4.4765    0.0000 C   0  0  0  0  0  0  0  0  0  0  0  0
   24.8913   -2.9933    0.0000 C   0  0  0  0  0  0  0  0  0  0  0  0
   25.0258   -1.4993    0.0000 C   0  0  0  0  0  0  0  0  0  0  0  0
  1  2  1  0
  2  3  1  0
  3  4  1  0
  4  5  1  0
  5  6  1  0
  6  7  1  0
  7  8  1  0
  8  9  1  0
  9 10  1  0
 10 11  1  0
 11 12  1  0
 12 13  1  0
 13 14  1  0
 14 15  1  0
 15 16  1  0
 16 17  1  0
 17 18  1  0
 18 19  1  0
 19 20  1  0
 20 21  1  0
 21 22  1  0
 22 23  1  0
 23 24  1  0
 24 25  1  0
 25 26  1  0
 26 27  1  0
 27 28  1  0
 28 29  1  0
 29 30  1  0
 30 31  1  0
 31 32  1  0
 32 33  1  0
 33 34  1  0
 34 35  1  0
 35 36  1  0
 36 37  1  0
 37 38  1  0
 38 39  1  0
 39 40  1  0
 40 41  1  0
 41 42  1  0
 42 43  1  0
 43 44  1  0
 44 45  1  0
 45 46  1  0
 46 47  1  0
 47 48  1  0
 48 49  1  0
 49 50  1  0
 50 51  1  0
 51 52  1  0
 52 53  1  0
 53 54  1  0
 54 55  1  0
 55 56  1  0
 56 57  1  0
 57 58  1  0
 58 59  1  0
 59 60  1  0
 60 61  1  0
 61 62  1  0
 62 63  1  0
 63 64  1  0
 64 65  1  0
 65 66  1  0
 66 67  1  0
 67 68  1  0
 68 69  1  0
 69 70  1  0
 70 71  1  0
 71 72  1  0
 72 73  1  0
 73 74  1  0
 74 75  1  0
 75 76  1  0
 76 77  1  0
 77 78  1  0
 78 79  1  0
 79 80  1  0
 80 81  1  0
 81 82  1  0
 82 83  1  0
 83 84  1  0
 84 85  1  0
 85 86  1  0
 86 87  1  0
 87 88  1  0
 88 89  1  0
 89 90  1  0
 90 91  1  0
 91 92  1  0
 92 93  1  0
 93 94  1  0
 94 95  1  0
 95 96  1  0
 96 97  1  0
 97 98  1  0
 98 99  1  0
 99100  1  0
100101  1  0
101102  1  0
102103  1  0
103104  1  0
104105  1  0
105106  1  0
106  2  1  0
M  END
>  <Title>  (271) 
idAAIMgen8

$$$$

     RDKit          2D

  9  8  0  0  0  0  0  0  0  0999 V2000
    0.0000    0.0000    0.0000 C   0  0  0  0  0  0  0  0  0  0  0  0
    1.2990    0.7500    0.0000 C   0  0  0  0  0  0  0  0  0  0  0  0
    2.5981    1.5000    0.0000 C   0  0  0  0  0  0  0  0  0  0  0  0
    3.8971    2.2500    0.0000 C   0  0  0  0  0  0  0  0  0  0  0  0
    5.1962    3.0000    0.0000 C   0  0  0  0  0  0  0  0  0  0  0  0
    6.4952    3.7500    0.0000 C   0  0  0  0  0  0  0  0  0  0  0  0
    7.7942    4.5000    0.0000 C   0  0  0  0  0  0  0  0  0  0  0  0
    9.0933    5.2500    0.0000 C   0  0  0  0  0  0  0  0  0  0  0  0
   10.3923    6.0000    0.0000 N   0  0  0  0  0  0  0  0  0  0  0  0
  1  2  1  0
  2  3  3  0
  3  4  1  0
  4  5  3  0
  5  6  1  0
  6  7  3  0
  7  8  1  0
  8  9  3  0
M  END
>  <Title>  (272) 
idAAINgen8

$$$$

     RDKit          2D

 97 97  0  0  0  0  0  0  0  0999 V2000
   24.4224   -0.0000    0.0000 C   0  0  0  0  0  0  0  0  0  0  0  0
   22.9224    0.0000    0.0000 C   0  0  0  0  0  0  0  0  0  0  0  0
   22.8733   -1.4992    0.0000 C   0  0  0  0  0  0  0  0  0  0  0  0
   22.7263   -2.9920    0.0000 C   0  0  0  0  0  0  0  0  0  0  0  0
   22.4820   -4.4719    0.0000 C   0  0  0  0  0  0  0  0  0  0  0  0
   22.1413   -5.9328    0.0000 C   0  0  0  0  0  0  0  0  0  0  0  0
   21.7059   -7.3682    0.0000 C   0  0  0  0  0  0  0  0  0  0  0  0
   21.1775   -8.7720    0.0000 C   0  0  0  0  0  0  0  0  0  0  0  0
   20.5585  -10.1383    0.0000 C   0  0  0  0  0  0  0  0  0  0  0  0
   19.8514  -11.4612    0.0000 C   0  0  0  0  0  0  0  0  0  0  0  0
   19.0593  -12.7350    0.0000 C   0  0  0  0  0  0  0  0  0  0  0  0
   18.1856  -13.9543    0.0000 C   0  0  0  0  0  0  0  0  0  0  0  0
   17.2340  -15.1138    0.0000 C   0  0  0  0  0  0  0  0  0  0  0  0
   16.2086  -16.2086    0.0000 C   0  0  0  0  0  0  0  0  0  0  0  0
   15.1138  -17.2340    0.0000 C   0  0  0  0  0  0  0  0  0  0  0  0
   13.9543  -18.1856    0.0000 C   0  0  0  0  0  0  0  0  0  0  0  0
   12.7350  -19.0593    0.0000 C   0  0  0  0  0  0  0  0  0  0  0  0
   11.4612  -19.8514    0.0000 C   0  0  0  0  0  0  0  0  0  0  0  0
   10.1383  -20.5585    0.0000 C   0  0  0  0  0  0  0  0  0  0  0  0
    8.7720  -21.1775    0.0000 C   0  0  0  0  0  0  0  0  0  0  0  0
    7.3682  -21.7059    0.0000 C   0  0  0  0  0  0  0  0  0  0  0  0
    5.9328  -22.1413    0.0000 C   0  0  0  0  0  0  0  0  0  0  0  0
    4.4719  -22.4820    0.0000 C   0  0  0  0  0  0  0  0  0  0  0  0
    2.9920  -22.7263    0.0000 C   0  0  0  0  0  0  0  0  0  0  0  0
    1.4992  -22.8733    0.0000 C   0  0  0  0  0  0  0  0  0  0  0  0
   -0.0000  -22.9224    0.0000 C   0  0  0  0  0  0  0  0  0  0  0  0
   -1.4992  -22.8733    0.0000 C   0  0  0  0  0  0  0  0  0  0  0  0
   -2.9920  -22.7263    0.0000 C   0  0  0  0  0  0  0  0  0  0  0  0
   -4.4719  -22.4820    0.0000 C   0  0  0  0  0  0  0  0  0  0  0  0
   -5.9328  -22.1413    0.0000 C   0  0  0  0  0  0  0  0  0  0  0  0
   -7.3682  -21.7059    0.0000 C   0  0  0  0  0  0  0  0  0  0  0  0
   -8.7720  -21.1775    0.0000 C   0  0  0  0  0  0  0  0  0  0  0  0
  -10.1383  -20.5585    0.0000 C   0  0  0  0  0  0  0  0  0  0  0  0
  -11.4612  -19.8514    0.0000 C   0  0  0  0  0  0  0  0  0  0  0  0
  -12.7350  -19.0593    0.0000 C   0  0  0  0  0  0  0  0  0  0  0  0
  -13.9543  -18.1856    0.0000 C   0  0  0  0  0  0  0  0  0  0  0  0
  -15.1138  -17.2340    0.0000 C   0  0  0  0  0  0  0  0  0  0  0  0
  -16.2086  -16.2086    0.0000 C   0  0  0  0  0  0  0  0  0  0  0  0
  -17.2340  -15.1138    0.0000 C   0  0  0  0  0  0  0  0  0  0  0  0
  -18.1856  -13.9543    0.0000 C   0  0  0  0  0  0  0  0  0  0  0  0
  -19.0593  -12.7350    0.0000 C   0  0  0  0  0  0  0  0  0  0  0  0
  -19.8514  -11.4612    0.0000 C   0  0  0  0  0  0  0  0  0  0  0  0
  -20.5585  -10.1383    0.0000 C   0  0  0  0  0  0  0  0  0  0  0  0
  -21.1775   -8.7720    0.0000 C   0  0  0  0  0  0  0  0  0  0  0  0
  -21.7059   -7.3682    0.0000 C   0  0  0  0  0  0  0  0  0  0  0  0
  -22.1413   -5.9328    0.0000 C   0  0  0  0  0  0  0  0  0  0  0  0
  -22.4820   -4.4719    0.0000 C   0  0  0  0  0  0  0  0  0  0  0  0
  -22.7263   -2.9920    0.0000 C   0  0  0  0  0  0  0  0  0  0  0  0
  -22.8733   -1.4992    0.0000 C   0  0  0  0  0  0  0  0  0  0  0  0
  -22.9224    0.0000    0.0000 C   0  0  0  0  0  0  0  0  0  0  0  0
  -22.8733    1.4992    0.0000 C   0  0  0  0  0  0  0  0  0  0  0  0
  -22.7263    2.9920    0.0000 C   0  0  0  0  0  0  0  0  0  0  0  0
  -22.4820    4.4719    0.0000 C   0  0  0  0  0  0  0  0  0  0  0  0
  -22.1413    5.9328    0.0000 C   0  0  0  0  0  0  0  0  0  0  0  0
  -21.7059    7.3682    0.0000 C   0  0  0  0  0  0  0  0  0  0  0  0
  -21.1775    8.7720    0.0000 C   0  0  0  0  0  0  0  0  0  0  0  0
  -20.5585   10.1383    0.0000 C   0  0  0  0  0  0  0  0  0  0  0  0
  -19.8514   11.4612    0.0000 C   0  0  0  0  0  0  0  0  0  0  0  0
  -19.0593   12.7350    0.0000 C   0  0  0  0  0  0  0  0  0  0  0  0
  -18.1856   13.9543    0.0000 C   0  0  0  0  0  0  0  0  0  0  0  0
  -17.2340   15.1138    0.0000 C   0  0  0  0  0  0  0  0  0  0  0  0
  -16.2086   16.2086    0.0000 C   0  0  0  0  0  0  0  0  0  0  0  0
  -15.1138   17.2340    0.0000 C   0  0  0  0  0  0  0  0  0  0  0  0
  -13.9543   18.1856    0.0000 C   0  0  0  0  0  0  0  0  0  0  0  0
  -12.7350   19.0593    0.0000 C   0  0  0  0  0  0  0  0  0  0  0  0
  -11.4612   19.8514    0.0000 C   0  0  0  0  0  0  0  0  0  0  0  0
  -10.1383   20.5585    0.0000 C   0  0  0  0  0  0  0  0  0  0  0  0
   -8.7720   21.1775    0.0000 C   0  0  0  0  0  0  0  0  0  0  0  0
   -7.3682   21.7059    0.0000 C   0  0  0  0  0  0  0  0  0  0  0  0
   -5.9328   22.1413    0.0000 C   0  0  0  0  0  0  0  0  0  0  0  0
   -4.4719   22.4820    0.0000 C   0  0  0  0  0  0  0  0  0  0  0  0
   -2.9920   22.7263    0.0000 C   0  0  0  0  0  0  0  0  0  0  0  0
   -1.4992   22.8733    0.0000 C   0  0  0  0  0  0  0  0  0  0  0  0
    0.0000   22.9224    0.0000 C   0  0  0  0  0  0  0  0  0  0  0  0
    1.4992   22.8733    0.0000 C   0  0  0  0  0  0  0  0  0  0  0  0
    2.9920   22.7263    0.0000 C   0  0  0  0  0  0  0  0  0  0  0  0
    4.4719   22.4820    0.0000 C   0  0  0  0  0  0  0  0  0  0  0  0
    5.9328   22.1413    0.0000 C   0  0  0  0  0  0  0  0  0  0  0  0
    7.3682   21.7059    0.0000 C   0  0  0  0  0  0  0  0  0  0  0  0
    8.7720   21.1775    0.0000 C   0  0  0  0  0  0  0  0  0  0  0  0
   10.1383   20.5585    0.0000 C   0  0  0  0  0  0  0  0  0  0  0  0
   11.4612   19.8514    0.0000 C   0  0  0  0  0  0  0  0  0  0  0  0
   12.7350   19.0593    0.0000 C   0  0  0  0  0  0  0  0  0  0  0  0
   13.9543   18.1856    0.0000 C   0  0  0  0  0  0  0  0  0  0  0  0
   15.1138   17.2340    0.0000 C   0  0  0  0  0  0  0  0  0  0  0  0
   16.2086   16.2086    0.0000 C   0  0  0  0  0  0  0  0  0  0  0  0
   17.2340   15.1138    0.0000 C   0  0  0  0  0  0  0  0  0  0  0  0
   18.1856   13.9543    0.0000 C   0  0  0  0  0  0  0  0  0  0  0  0
   19.0593   12.7350    0.0000 C   0  0  0  0  0  0  0  0  0  0  0  0
   19.8514   11.4612    0.0000 C   0  0  0  0  0  0  0  0  0  0  0  0
   20.5585   10.1383    0.0000 C   0  0  0  0  0  0  0  0  0  0  0  0
   21.1775    8.7720    0.0000 C   0  0  0  0  0  0  0  0  0  0  0  0
   21.7059    7.3682    0.0000 C   0  0  0  0  0  0  0  0  0  0  0  0
   22.1413    5.9328    0.0000 C   0  0  0  0  0  0  0  0  0  0  0  0
   22.4820    4.4719    0.0000 C   0  0  0  0  0  0  0  0  0  0  0  0
   22.7263    2.9920    0.0000 C   0  0  0  0  0  0  0  0  0  0  0  0
   22.8733    1.4992    0.0000 C   0  0  0  0  0  0  0  0  0  0  0  0
  1  2  1  0
  2  3  1  0
  3  4  1  0
  4  5  1  0
  5  6  1  0
  6  7  1  0
  7  8  1  0
  8  9  1  0
  9 10  1  0
 10 11  1  0
 11 12  1  0
 12 13  1  0
 13 14  1  0
 14 15  1  0
 15 16  1  0
 16 17  1  0
 17 18  1  0
 18 19  1  0
 19 20  1  0
 20 21  1  0
 21 22  1  0
 22 23  1  0
 23 24  1  0
 24 25  1  0
 25 26  1  0
 26 27  1  0
 27 28  1  0
 28 29  1  0
 29 30  1  0
 30 31  1  0
 31 32  1  0
 32 33  1  0
 33 34  1  0
 34 35  1  0
 35 36  1  0
 36 37  1  0
 37 38  1  0
 38 39  1  0
 39 40  1  0
 40 41  1  0
 41 42  1  0
 42 43  1  0
 43 44  1  0
 44 45  1  0
 45 46  1  0
 46 47  1  0
 47 48  1  0
 48 49  1  0
 49 50  1  0
 50 51  1  0
 51 52  1  0
 52 53  1  0
 53 54  1  0
 54 55  1  0
 55 56  1  0
 56 57  1  0
 57 58  1  0
 58 59  1  0
 59 60  1  0
 60 61  1  0
 61 62  1  0
 62 63  1  0
 63 64  1  0
 64 65  1  0
 65 66  1  0
 66 67  1  0
 67 68  1  0
 68 69  1  0
 69 70  1  0
 70 71  1  0
 71 72  1  0
 72 73  1  0
 73 74  1  0
 74 75  1  0
 75 76  1  0
 76 77  1  0
 77 78  1  0
 78 79  1  0
 79 80  1  0
 80 81  1  0
 81 82  1  0
 82 83  1  0
 83 84  1  0
 84 85  1  0
 85 86  1  0
 86 87  1  0
 87 88  1  0
 88 89  1  0
 89 90  1  0
 90 91  1  0
 91 92  1  0
 92 93  1  0
 93 94  1  0
 94 95  1  0
 95 96  1  0
 96 97  1  0
 97  2  1  0
M  END
>  <Title>  (273) 
idAAIOgen8

$$$$

     RDKit          2D

111111  0  0  0  0  0  0  0  0999 V2000
   27.7641    0.0000    0.0000 C   0  0  0  0  0  0  0  0  0  0  0  0
   26.2641    0.0000    0.0000 C   0  0  0  0  0  0  0  0  0  0  0  0
   26.2213   -1.4994    0.0000 C   0  0  0  0  0  0  0  0  0  0  0  0
   26.0929   -2.9939    0.0000 C   0  0  0  0  0  0  0  0  0  0  0  0
   25.8795   -4.4786    0.0000 C   0  0  0  0  0  0  0  0  0  0  0  0
   25.5816   -5.9487    0.0000 C   0  0  0  0  0  0  0  0  0  0  0  0
   25.2003   -7.3995    0.0000 C   0  0  0  0  0  0  0  0  0  0  0  0
   24.7367   -8.8260    0.0000 C   0  0  0  0  0  0  0  0  0  0  0  0
   24.1925  -10.2238    0.0000 C   0  0  0  0  0  0  0  0  0  0  0  0
   23.5694  -11.5883    0.0000 C   0  0  0  0  0  0  0  0  0  0  0  0
   22.8694  -12.9149    0.0000 C   0  0  0  0  0  0  0  0  0  0  0  0
   22.0948  -14.1995    0.0000 C   0  0  0  0  0  0  0  0  0  0  0  0
   21.2481  -15.4377    0.0000 C   0  0  0  0  0  0  0  0  0  0  0  0
   20.3322  -16.6255    0.0000 C   0  0  0  0  0  0  0  0  0  0  0  0
   19.3499  -17.7591    0.0000 C   0  0  0  0  0  0  0  0  0  0  0  0
   18.3045  -18.8348    0.0000 C   0  0  0  0  0  0  0  0  0  0  0  0
   17.1994  -19.8491    0.0000 C   0  0  0  0  0  0  0  0  0  0  0  0
   16.0381  -20.7986    0.0000 C   0  0  0  0  0  0  0  0  0  0  0  0
   14.8246  -21.6803    0.0000 C   0  0  0  0  0  0  0  0  0  0  0  0
   13.5627  -22.4913    0.0000 C   0  0  0  0  0  0  0  0  0  0  0  0
   12.2566  -23.2289    0.0000 C   0  0  0  0  0  0  0  0  0  0  0  0
   10.9105  -23.8907    0.0000 C   0  0  0  0  0  0  0  0  0  0  0  0
    9.5288  -24.4746    0.0000 C   0  0  0  0  0  0  0  0  0  0  0  0
    8.1161  -24.9787    0.0000 C   0  0  0  0  0  0  0  0  0  0  0  0
    6.6768  -25.4013    0.0000 C   0  0  0  0  0  0  0  0  0  0  0  0
    5.2158  -25.7410    0.0000 C   0  0  0  0  0  0  0  0  0  0  0  0
    3.7378  -25.9968    0.0000 C   0  0  0  0  0  0  0  0  0  0  0  0
    2.2476  -26.1678    0.0000 C   0  0  0  0  0  0  0  0  0  0  0  0
    0.7500  -26.2534    0.0000 C   0  0  0  0  0  0  0  0  0  0  0  0
   -0.7500  -26.2534    0.0000 C   0  0  0  0  0  0  0  0  0  0  0  0
   -2.2476  -26.1678    0.0000 C   0  0  0  0  0  0  0  0  0  0  0  0
   -3.7378  -25.9968    0.0000 C   0  0  0  0  0  0  0  0  0  0  0  0
   -5.2158  -25.7410    0.0000 C   0  0  0  0  0  0  0  0  0  0  0  0
   -6.6768  -25.4013    0.0000 C   0  0  0  0  0  0  0  0  0  0  0  0
   -8.1161  -24.9787    0.0000 C   0  0  0  0  0  0  0  0  0  0  0  0
   -9.5288  -24.4746    0.0000 C   0  0  0  0  0  0  0  0  0  0  0  0
  -10.9105  -23.8907    0.0000 C   0  0  0  0  0  0  0  0  0  0  0  0
  -12.2566  -23.2289    0.0000 C   0  0  0  0  0  0  0  0  0  0  0  0
  -13.5627  -22.4913    0.0000 C   0  0  0  0  0  0  0  0  0  0  0  0
  -14.8246  -21.6803    0.0000 C   0  0  0  0  0  0  0  0  0  0  0  0
  -16.0381  -20.7986    0.0000 C   0  0  0  0  0  0  0  0  0  0  0  0
  -17.1994  -19.8491    0.0000 C   0  0  0  0  0  0  0  0  0  0  0  0
  -18.3045  -18.8348    0.0000 C   0  0  0  0  0  0  0  0  0  0  0  0
  -19.3499  -17.7591    0.0000 C   0  0  0  0  0  0  0  0  0  0  0  0
  -20.3322  -16.6255    0.0000 C   0  0  0  0  0  0  0  0  0  0  0  0
  -21.2481  -15.4377    0.0000 C   0  0  0  0  0  0  0  0  0  0  0  0
  -22.0948  -14.1995    0.0000 C   0  0  0  0  0  0  0  0  0  0  0  0
  -22.8694  -12.9149    0.0000 C   0  0  0  0  0  0  0  0  0  0  0  0
  -23.5694  -11.5883    0.0000 C   0  0  0  0  0  0  0  0  0  0  0  0
  -24.1925  -10.2238    0.0000 C   0  0  0  0  0  0  0  0  0  0  0  0
  -24.7367   -8.8260    0.0000 C   0  0  0  0  0  0  0  0  0  0  0  0
  -25.2003   -7.3995    0.0000 C   0  0  0  0  0  0  0  0  0  0  0  0
  -25.5816   -5.9487    0.0000 C   0  0  0  0  0  0  0  0  0  0  0  0
  -25.8795   -4.4786    0.0000 C   0  0  0  0  0  0  0  0  0  0  0  0
  -26.0929   -2.9939    0.0000 C   0  0  0  0  0  0  0  0  0  0  0  0
  -26.2213   -1.4994    0.0000 C   0  0  0  0  0  0  0  0  0  0  0  0
  -26.2641    0.0000    0.0000 C   0  0  0  0  0  0  0  0  0  0  0  0
  -26.2213    1.4994    0.0000 C   0  0  0  0  0  0  0  0  0  0  0  0
  -26.0929    2.9939    0.0000 C   0  0  0  0  0  0  0  0  0  0  0  0
  -25.8795    4.4786    0.0000 C   0  0  0  0  0  0  0  0  0  0  0  0
  -25.5816    5.9487    0.0000 C   0  0  0  0  0  0  0  0  0  0  0  0
  -25.2003    7.3995    0.0000 C   0  0  0  0  0  0  0  0  0  0  0  0
  -24.7367    8.8260    0.0000 C   0  0  0  0  0  0  0  0  0  0  0  0
  -24.1925   10.2238    0.0000 C   0  0  0  0  0  0  0  0  0  0  0  0
  -23.5694   11.5883    0.0000 C   0  0  0  0  0  0  0  0  0  0  0  0
  -22.8694   12.9149    0.0000 C   0  0  0  0  0  0  0  0  0  0  0  0
  -22.0948   14.1995    0.0000 C   0  0  0  0  0  0  0  0  0  0  0  0
  -21.2481   15.4377    0.0000 C   0  0  0  0  0  0  0  0  0  0  0  0
  -20.3322   16.6255    0.0000 C   0  0  0  0  0  0  0  0  0  0  0  0
  -19.3499   17.7591    0.0000 C   0  0  0  0  0  0  0  0  0  0  0  0
  -18.3045   18.8348    0.0000 C   0  0  0  0  0  0  0  0  0  0  0  0
  -17.1994   19.8491    0.0000 C   0  0  0  0  0  0  0  0  0  0  0  0
  -16.0381   20.7986    0.0000 C   0  0  0  0  0  0  0  0  0  0  0  0
  -14.8246   21.6803    0.0000 C   0  0  0  0  0  0  0  0  0  0  0  0
  -13.5627   22.4913    0.0000 C   0  0  0  0  0  0  0  0  0  0  0  0
  -12.2566   23.2289    0.0000 C   0  0  0  0  0  0  0  0  0  0  0  0
  -10.9105   23.8907    0.0000 C   0  0  0  0  0  0  0  0  0  0  0  0
   -9.5288   24.4746    0.0000 C   0  0  0  0  0  0  0  0  0  0  0  0
   -8.1161   24.9787    0.0000 C   0  0  0  0  0  0  0  0  0  0  0  0
   -6.6768   25.4013    0.0000 C   0  0  0  0  0  0  0  0  0  0  0  0
   -5.2158   25.7410    0.0000 C   0  0  0  0  0  0  0  0  0  0  0  0
   -3.7378   25.9968    0.0000 C   0  0  0  0  0  0  0  0  0  0  0  0
   -2.2476   26.1678    0.0000 C   0  0  0  0  0  0  0  0  0  0  0  0
   -0.7500   26.2534    0.0000 C   0  0  0  0  0  0  0  0  0  0  0  0
    0.7500   26.2534    0.0000 C   0  0  0  0  0  0  0  0  0  0  0  0
    2.2476   26.1678    0.0000 C   0  0  0  0  0  0  0  0  0  0  0  0
    3.7378   25.9968    0.0000 C   0  0  0  0  0  0  0  0  0  0  0  0
    5.2158   25.7410    0.0000 C   0  0  0  0  0  0  0  0  0  0  0  0
    6.6768   25.4013    0.0000 C   0  0  0  0  0  0  0  0  0  0  0  0
    8.1161   24.9787    0.0000 C   0  0  0  0  0  0  0  0  0  0  0  0
    9.5288   24.4746    0.0000 C   0  0  0  0  0  0  0  0  0  0  0  0
   10.9105   23.8907    0.0000 C   0  0  0  0  0  0  0  0  0  0  0  0
   12.2566   23.2289    0.0000 C   0  0  0  0  0  0  0  0  0  0  0  0
   13.5627   22.4913    0.0000 C   0  0  0  0  0  0  0  0  0  0  0  0
   14.8246   21.6803    0.0000 C   0  0  0  0  0  0  0  0  0  0  0  0
   16.0381   20.7986    0.0000 C   0  0  0  0  0  0  0  0  0  0  0  0
   17.1994   19.8491    0.0000 C   0  0  0  0  0  0  0  0  0  0  0  0
   18.3045   18.8348    0.0000 C   0  0  0  0  0  0  0  0  0  0  0  0
   19.3499   17.7591    0.0000 C   0  0  0  0  0  0  0  0  0  0  0  0
   20.3322   16.6255    0.0000 C   0  0  0  0  0  0  0  0  0  0  0  0
   21.2481   15.4377    0.0000 C   0  0  0  0  0  0  0  0  0  0  0  0
   22.0948   14.1995    0.0000 C   0  0  0  0  0  0  0  0  0  0  0  0
   22.8694   12.9149    0.0000 C   0  0  0  0  0  0  0  0  0  0  0  0
   23.5694   11.5883    0.0000 C   0  0  0  0  0  0  0  0  0  0  0  0
   24.1925   10.2238    0.0000 C   0  0  0  0  0  0  0  0  0  0  0  0
   24.7367    8.8260    0.0000 C   0  0  0  0  0  0  0  0  0  0  0  0
   25.2003    7.3995    0.0000 C   0  0  0  0  0  0  0  0  0  0  0  0
   25.5816    5.9487    0.0000 C   0  0  0  0  0  0  0  0  0  0  0  0
   25.8795    4.4786    0.0000 C   0  0  0  0  0  0  0  0  0  0  0  0
   26.0929    2.9939    0.0000 C   0  0  0  0  0  0  0  0  0  0  0  0
   26.2213    1.4994    0.0000 C   0  0  0  0  0  0  0  0  0  0  0  0
  1  2  1  0
  2  3  1  0
  3  4  1  0
  4  5  1  0
  5  6  1  0
  6  7  1  0
  7  8  1  0
  8  9  1  0
  9 10  1  0
 10 11  1  0
 11 12  1  0
 12 13  1  0
 13 14  1  0
 14 15  1  0
 15 16  1  0
 16 17  1  0
 17 18  1  0
 18 19  1  0
 19 20  1  0
 20 21  1  0
 21 22  1  0
 22 23  1  0
 23 24  1  0
 24 25  1  0
 25 26  1  0
 26 27  1  0
 27 28  1  0
 28 29  1  0
 29 30  1  0
 30 31  1  0
 31 32  1  0
 32 33  1  0
 33 34  1  0
 34 35  1  0
 35 36  1  0
 36 37  1  0
 37 38  1  0
 38 39  1  0
 39 40  1  0
 40 41  2  0
 41 42  1  0
 42 43  2  0
 43 44  1  0
 44 45  2  0
 45 46  1  0
 46 47  1  0
 47 48  1  0
 48 49  1  0
 49 50  1  0
 50 51  1  0
 51 52  1  0
 52 53  1  0
 53 54  1  0
 54 55  1  0
 55 56  1  0
 56 57  1  0
 57 58  1  0
 58 59  1  0
 59 60  1  0
 60 61  1  0
 61 62  1  0
 62 63  1  0
 63 64  1  0
 64 65  2  0
 65 66  1  0
 66 67  1  0
 67 68  1  0
 68 69  1  0
 69 70  1  0
 70 71  1  0
 71 72  1  0
 72 73  1  0
 73 74  1  0
 74 75  1  0
 75 76  1  0
 76 77  1  0
 77 78  1  0
 78 79  1  0
 79 80  1  0
 80 81  1  0
 81 82  1  0
 82 83  1  0
 83 84  1  0
 84 85  1  0
 85 86  1  0
 86 87  1  0
 87 88  1  0
 88 89  1  0
 89 90  1  0
 90 91  1  0
 91 92  1  0
 92 93  1  0
 93 94  1  0
 94 95  1  0
 95 96  1  0
 96 97  1  0
 97 98  1  0
 98 99  1  0
 99100  1  0
100101  1  0
101102  1  0
102103  1  0
103104  1  0
104105  1  0
105106  1  0
106107  1  0
107108  1  0
108109  1  0
109110  1  0
110111  1  0
111  2  1  0
M  END
>  <Title>  (274) 
idAAIPgen8

$$$$

     RDKit          2D

 12 12  0  0  0  0  0  0  0  0999 V2000
    5.2077    1.4153    0.0000 C   0  0  0  0  0  0  0  0  0  0  0  0
    4.0586    0.4512    0.0000 C   0  0  0  0  0  0  0  0  0  0  0  0
    2.6491    0.9642    0.0000 C   0  0  0  0  0  0  0  0  0  0  0  0
    1.5000    0.0000    0.0000 C   0  0  0  0  0  0  0  0  0  0  0  0
    2.6491   -0.9642    0.0000 O   0  0  0  0  0  0  0  0  0  0  0  0
    0.7500   -1.2990    0.0000 C   0  0  0  0  0  0  0  0  0  0  0  0
   -0.7500   -1.2990    0.0000 C   0  0  0  0  0  0  0  0  0  0  0  0
   -1.5000    0.0000    0.0000 C   0  0  0  0  0  0  0  0  0  0  0  0
   -3.0000    0.0000    0.0000 O   0  0  0  0  0  0  0  0  0  0  0  0
   -0.7500    1.2990    0.0000 C   0  0  0  0  0  0  0  0  0  0  0  0
   -1.5000    2.5981    0.0000 O   0  0  0  0  0  0  0  0  0  0  0  0
    0.7500    1.2990    0.0000 C   0  0  0  0  0  0  0  0  0  0  0  0
  1  2  1  0
  2  3  1  0
  3  4  1  0
  4  5  1  0
  4  6  1  0
  6  7  1  0
  7  8  1  0
  8  9  1  0
  8 10  1  0
 10 11  1  0
 10 12  1  0
 12  4  1  0
M  END
>  <Title>  (275) 
idAAIQgen8

$$$$

     RDKit          2D

 27 29  0  0  0  0  0  0  0  0999 V2000
   -3.7500  -11.6913    0.0000 C   0  0  0  0  0  0  0  0  0  0  0  0
   -3.0000  -10.3923    0.0000 O   0  0  0  0  0  0  0  0  0  0  0  0
   -3.7500   -9.0933    0.0000 C   0  0  0  0  0  0  0  0  0  0  0  0
   -5.2500   -9.0933    0.0000 O   0  0  0  0  0  0  0  0  0  0  0  0
   -3.0000   -7.7942    0.0000 C   0  0  0  0  0  0  0  0  0  0  0  0
   -1.5000   -7.7942    0.0000 O   0  0  0  0  0  0  0  0  0  0  0  0
   -3.7500   -6.4952    0.0000 C   0  0  0  0  0  0  0  0  0  0  0  0
   -5.2500   -6.4952    0.0000 C   0  0  0  0  0  0  0  0  0  0  0  0
   -6.0000   -5.1962    0.0000 C   0  0  0  0  0  0  0  0  0  0  0  0
   -5.2500   -3.8971    0.0000 C   0  0  0  0  0  0  0  0  0  0  0  0
   -6.0000   -2.5981    0.0000 C   0  0  0  0  0  0  0  0  0  0  0  0
   -7.5000   -2.5981    0.0000 C   0  0  0  0  0  0  0  0  0  0  0  0
   -8.2500   -3.8971    0.0000 C   0  0  0  0  0  0  0  0  0  0  0  0
   -7.5000   -5.1962    0.0000 C   0  0  0  0  0  0  0  0  0  0  0  0
   -3.0000   -5.1962    0.0000 N   0  0  0  0  0  0  0  0  0  0  0  0
   -1.5000   -5.1962    0.0000 C   0  0  0  0  0  0  0  0  0  0  0  0
   -0.7500   -6.4952    0.0000 O   0  0  0  0  0  0  0  0  0  0  0  0
   -0.7500   -3.8971    0.0000 C   0  0  0  0  0  0  0  0  0  0  0  0
    0.7500   -3.8971    0.0000 C   0  0  0  0  0  0  0  0  0  0  0  0
    1.5000   -2.5981    0.0000 C   0  0  0  0  0  0  0  0  0  0  0  0
    0.7500   -1.2990    0.0000 C   0  0  0  0  0  0  0  0  0  0  0  0
    1.5000    0.0000    0.0000 C   0  0  0  0  0  0  0  0  0  0  0  0
    0.7500    1.2990    0.0000 C   0  0  0  0  0  0  0  0  0  0  0  0
   -0.7500    1.2990    0.0000 C   0  0  0  0  0  0  0  0  0  0  0  0
   -1.5000    0.0000    0.0000 C   0  0  0  0  0  0  0  0  0  0  0  0
   -0.7500   -1.2990    0.0000 C   0  0  0  0  0  0  0  0  0  0  0  0
   -1.5000   -2.5981    0.0000 C   0  0  0  0  0  0  0  0  0  0  0  0
  1  2  1  0
  2  3  1  0
  3  4  2  0
  3  5  1  0
  5  6  2  0
  5  7  1  0
  7  8  1  0
  8  9  1  0
  9 10  2  0
 10 11  1  0
 11 12  2  0
 12 13  1  0
 13 14  2  0
  7 15  1  0
 15 16  1  0
 16 17  2  0
 16 18  1  0
 18 19  1  0
 19 20  1  0
 20 21  1  0
 21 22  2  0
 22 23  1  0
 23 24  2  0
 24 25  1  0
 25 26  2  0
 26 27  1  0
 14  9  1  0
 27 18  1  0
 26 21  1  0
M  END
>  <Title>  (276) 
idAAIRgen8

$$$$

     RDKit          2D

 15 15  0  0  0  0  0  0  0  0999 V2000
    7.7286   -2.5981    0.0000 C   0  0  0  0  0  0  0  0  0  0  0  0
    6.2286   -2.5981    0.0000 C   0  0  0  0  0  0  0  0  0  0  0  0
    5.4786   -1.2990    0.0000 C   0  0  0  0  0  0  0  0  0  0  0  0
    3.9786   -1.2990    0.0000 C   0  0  0  0  0  0  0  0  0  0  0  0
    3.2286   -2.5981    0.0000 O   0  0  0  0  0  0  0  0  0  0  0  0
    3.2286   -0.0000    0.0000 N   0  0  0  0  0  0  0  0  0  0  0  0
    1.7286    0.0000    0.0000 C   0  0  0  0  0  0  0  0  0  0  0  0
    1.0777    1.3515    0.0000 C   0  0  0  0  0  0  0  0  0  0  0  0
   -0.3846    1.6852    0.0000 C   0  0  0  0  0  0  0  0  0  0  0  0
   -1.5574    0.7500    0.0000 C   0  0  0  0  0  0  0  0  0  0  0  0
   -2.9088    1.4008    0.0000 O   0  0  0  0  0  0  0  0  0  0  0  0
   -1.5574   -0.7500    0.0000 C   0  0  0  0  0  0  0  0  0  0  0  0
   -2.9088   -1.4008    0.0000 O   0  0  0  0  0  0  0  0  0  0  0  0
   -0.3846   -1.6852    0.0000 C   0  0  0  0  0  0  0  0  0  0  0  0
    1.0777   -1.3515    0.0000 C   0  0  0  0  0  0  0  0  0  0  0  0
  1  2  1  0
  2  3  2  3
  3  4  1  0
  4  5  2  0
  4  6  1  0
  6  7  1  0
  7  8  2  0
  8  9  1  0
  9 10  2  0
 10 11  1  0
 10 12  1  0
 12 13  1  0
 12 14  2  0
 14 15  1  0
 15  7  1  0
M  END
>  <Title>  (277) 
idAAISgen8

$$$$

     RDKit          2D

 47 51  0  0  0  0  0  0  0  0999 V2000
   -7.3515   -5.8335    0.0000 C   0  0  0  0  0  0  0  0  0  0  0  0
   -5.8781   -6.1146    0.0000 C   0  0  0  0  0  0  0  0  0  0  0  0
   -5.9722   -7.6116    0.0000 C   0  0  0  0  0  0  0  0  0  0  0  0
   -5.6912   -9.0851    0.0000 C   0  0  0  0  0  0  0  0  0  0  0  0
   -5.0525  -10.4423    0.0000 C   0  0  0  0  0  0  0  0  0  0  0  0
   -4.0964  -11.5981    0.0000 C   0  0  0  0  0  0  0  0  0  0  0  0
   -2.8828  -12.4798    0.0000 C   0  0  0  0  0  0  0  0  0  0  0  0
   -1.4882  -13.0319    0.0000 C   0  0  0  0  0  0  0  0  0  0  0  0
   -0.0000  -13.2199    0.0000 C   0  0  0  0  0  0  0  0  0  0  0  0
    1.4882  -13.0319    0.0000 C   0  0  0  0  0  0  0  0  0  0  0  0
    2.8828  -12.4798    0.0000 C   0  0  0  0  0  0  0  0  0  0  0  0
    4.0964  -11.5981    0.0000 C   0  0  0  0  0  0  0  0  0  0  0  0
    5.0525  -10.4423    0.0000 C   0  0  0  0  0  0  0  0  0  0  0  0
    5.6912   -9.0851    0.0000 C   0  0  0  0  0  0  0  0  0  0  0  0
    5.9722   -7.6116    0.0000 C   0  0  0  0  0  0  0  0  0  0  0  0
    5.8781   -6.1146    0.0000 C   0  0  0  0  0  0  0  0  0  0  0  0
    5.4145   -4.6880    0.0000 C   0  0  0  0  0  0  0  0  0  0  0  0
    4.6108   -3.4215    0.0000 C   0  0  0  0  0  0  0  0  0  0  0  0
    3.5173   -2.3947    0.0000 C   0  0  0  0  0  0  0  0  0  0  0  0
    2.2029   -1.6721    0.0000 C   0  0  0  0  0  0  0  0  0  0  0  0
    2.7551   -0.2774    0.0000 C   0  0  0  0  0  0  0  0  0  0  0  0
    1.8233    0.8981    0.0000 O   0  0  0  0  0  0  0  0  0  0  0  0
    4.2390   -0.0583    0.0000 N   0  0  0  0  0  0  0  0  0  0  0  0
    4.7912    1.3364    0.0000 C   0  0  0  0  0  0  0  0  0  0  0  0
    6.2751    1.5555    0.0000 N   0  0  0  0  0  0  0  0  0  0  0  0
    6.8273    2.9502    0.0000 N   0  0  0  0  0  0  0  0  0  0  0  0
    5.8955    4.1257    0.0000 N   0  0  0  0  0  0  0  0  0  0  0  0
    4.4116    3.9066    0.0000 N   0  0  0  0  0  0  0  0  0  0  0  0
    3.8594    2.5119    0.0000 N   0  0  0  0  0  0  0  0  0  0  0  0
    0.7500   -1.2990    0.0000 C   0  0  0  0  0  0  0  0  0  0  0  0
    1.5000    0.0000    0.0000 C   0  0  0  0  0  0  0  0  0  0  0  0
    0.7500    1.2990    0.0000 C   0  0  0  0  0  0  0  0  0  0  0  0
   -0.7500    1.2990    0.0000 C   0  0  0  0  0  0  0  0  0  0  0  0
   -1.5000    0.0000    0.0000 C   0  0  0  0  0  0  0  0  0  0  0  0
   -0.7500   -1.2990    0.0000 C   0  0  0  0  0  0  0  0  0  0  0  0
   -2.2029   -1.6721    0.0000 C   0  0  0  0  0  0  0  0  0  0  0  0
   -2.7849   -0.5096    0.0000 C   0  0  0  0  0  0  0  0  0  0  0  0
   -3.4692   -0.0952    0.0000 C   0  0  0  0  0  0  0  0  0  0  0  0
   -4.1702   -0.4806    0.0000 C   0  0  0  0  0  0  0  0  0  0  0  0
   -4.1870   -1.2804    0.0000 C   0  0  0  0  0  0  0  0  0  0  0  0
   -3.5173   -2.3947    0.0000 C   0  0  0  0  0  0  0  0  0  0  0  0
   -4.6108   -3.4215    0.0000 C   0  0  0  0  0  0  0  0  0  0  0  0
   -5.3057   -2.0922    0.0000 C   0  0  0  0  0  0  0  0  0  0  0  0
   -6.8044   -2.0294    0.0000 C   0  0  0  0  0  0  0  0  0  0  0  0
   -7.6082   -3.2959    0.0000 C   0  0  0  0  0  0  0  0  0  0  0  0
   -6.9132   -4.6252    0.0000 C   0  0  0  0  0  0  0  0  0  0  0  0
   -5.4145   -4.6880    0.0000 C   0  0  0  0  0  0  0  0  0  0  0  0
  1  2  1  0
  2  3  1  0
  3  4  1  0
  4  5  1  0
  5  6  1  0
  6  7  1  0
  7  8  1  0
  8  9  1  0
  9 10  1  0
 10 11  1  0
 11 12  1  0
 12 13  1  0
 13 14  1  0
 14 15  1  0
 15 16  1  0
 16 17  1  0
 17 18  1  0
 18 19  1  0
 19 20  1  0
 20 21  1  0
 21 22  2  0
 21 23  1  0
 23 24  1  0
 24 25  2  0
 25 26  1  0
 26 27  2  0
 27 28  1  0
 28 29  2  0
 20 30  1  0
 30 31  2  0
 31 32  1  0
 32 33  2  0
 33 34  1  0
 34 35  2  0
 35 36  1  0
 36 37  2  0
 37 38  1  0
 38 39  2  0
 39 40  1  0
 40 41  2  0
 41 42  1  0
 42 43  2  0
 43 44  1  0
 44 45  2  0
 45 46  1  0
 46 47  2  0
 47  2  1  0
 29 24  1  0
 35 30  1  0
 41 36  1  0
 47 42  1  0
M  END
>  <Title>  (278) 
idAAITgen8

$$$$

     RDKit          2D

 11 11  0  0  0  0  0  0  0  0999 V2000
    3.5377   -3.4056    0.0000 C   0  0  0  0  0  0  0  0  0  0  0  0
    2.3886   -2.4414    0.0000 C   0  0  0  0  0  0  0  0  0  0  0  0
    2.6491   -0.9642    0.0000 C   0  0  0  0  0  0  0  0  0  0  0  0
    1.5000    0.0000    0.0000 C   0  0  0  0  0  0  0  0  0  0  0  0
    2.6491    0.9642    0.0000 C   0  0  0  0  0  0  0  0  0  0  0  0
    0.7500   -1.2990    0.0000 C   0  0  0  0  0  0  0  0  0  0  0  0
   -0.7500   -1.2990    0.0000 C   0  0  0  0  0  0  0  0  0  0  0  0
   -1.5000    0.0000    0.0000 C   0  0  0  0  0  0  0  0  0  0  0  0
   -0.7500    1.2990    0.0000 C   0  0  0  0  0  0  0  0  0  0  0  0
    0.7500    1.2990    0.0000 C   0  0  0  0  0  0  0  0  0  0  0  0
    1.5000    2.5981    0.0000 C   0  0  0  0  0  0  0  0  0  0  0  0
  1  2  1  0
  2  3  1  0
  3  4  1  0
  4  5  1  0
  4  6  1  0
  6  7  1  0
  7  8  2  0
  8  9  1  0
  9 10  2  0
 10 11  1  0
 10  4  1  0
M  END
>  <Title>  (279) 
idAAIUgen8

$$$$

     RDKit          2D

 57 57  0  0  0  0  0  0  0  0999 V2000
   14.8760    0.0000    0.0000 C   0  0  0  0  0  0  0  0  0  0  0  0
   13.3760    0.0000    0.0000 C   0  0  0  0  0  0  0  0  0  0  0  0
   13.2919   -1.4976    0.0000 C   0  0  0  0  0  0  0  0  0  0  0  0
   13.0407   -2.9764    0.0000 C   0  0  0  0  0  0  0  0  0  0  0  0
   12.6254   -4.4178    0.0000 C   0  0  0  0  0  0  0  0  0  0  0  0
   12.0514   -5.8036    0.0000 C   0  0  0  0  0  0  0  0  0  0  0  0
   11.3258   -7.1165    0.0000 C   0  0  0  0  0  0  0  0  0  0  0  0
   10.4578   -8.3398    0.0000 C   0  0  0  0  0  0  0  0  0  0  0  0
    9.4583   -9.4583    0.0000 C   0  0  0  0  0  0  0  0  0  0  0  0
    8.3398  -10.4578    0.0000 C   0  0  0  0  0  0  0  0  0  0  0  0
    7.1165  -11.3258    0.0000 C   0  0  0  0  0  0  0  0  0  0  0  0
    5.8036  -12.0514    0.0000 C   0  0  0  0  0  0  0  0  0  0  0  0
    4.4178  -12.6254    0.0000 C   0  0  0  0  0  0  0  0  0  0  0  0
    2.9764  -13.0407    0.0000 C   0  0  0  0  0  0  0  0  0  0  0  0
    1.4976  -13.2919    0.0000 C   0  0  0  0  0  0  0  0  0  0  0  0
   -0.0000  -13.3760    0.0000 C   0  0  0  0  0  0  0  0  0  0  0  0
   -1.4976  -13.2919    0.0000 C   0  0  0  0  0  0  0  0  0  0  0  0
   -2.9764  -13.0407    0.0000 C   0  0  0  0  0  0  0  0  0  0  0  0
   -4.4178  -12.6254    0.0000 C   0  0  0  0  0  0  0  0  0  0  0  0
   -5.8036  -12.0514    0.0000 C   0  0  0  0  0  0  0  0  0  0  0  0
   -7.1165  -11.3258    0.0000 C   0  0  0  0  0  0  0  0  0  0  0  0
   -8.3398  -10.4578    0.0000 C   0  0  0  0  0  0  0  0  0  0  0  0
   -9.4583   -9.4583    0.0000 C   0  0  0  0  0  0  0  0  0  0  0  0
  -10.4578   -8.3398    0.0000 C   0  0  0  0  0  0  0  0  0  0  0  0
  -11.3258   -7.1165    0.0000 C   0  0  0  0  0  0  0  0  0  0  0  0
  -12.0514   -5.8036    0.0000 C   0  0  0  0  0  0  0  0  0  0  0  0
  -12.6254   -4.4178    0.0000 C   0  0  0  0  0  0  0  0  0  0  0  0
  -13.0407   -2.9764    0.0000 C   0  0  0  0  0  0  0  0  0  0  0  0
  -13.2919   -1.4976    0.0000 C   0  0  0  0  0  0  0  0  0  0  0  0
  -13.3760    0.0000    0.0000 C   0  0  0  0  0  0  0  0  0  0  0  0
  -13.2919    1.4976    0.0000 C   0  0  0  0  0  0  0  0  0  0  0  0
  -13.0407    2.9764    0.0000 C   0  0  0  0  0  0  0  0  0  0  0  0
  -12.6254    4.4178    0.0000 C   0  0  0  0  0  0  0  0  0  0  0  0
  -12.0514    5.8036    0.0000 C   0  0  0  0  0  0  0  0  0  0  0  0
  -11.3258    7.1165    0.0000 C   0  0  0  0  0  0  0  0  0  0  0  0
  -10.4578    8.3398    0.0000 C   0  0  0  0  0  0  0  0  0  0  0  0
   -9.4583    9.4583    0.0000 C   0  0  0  0  0  0  0  0  0  0  0  0
   -8.3398   10.4578    0.0000 C   0  0  0  0  0  0  0  0  0  0  0  0
   -7.1165   11.3258    0.0000 C   0  0  0  0  0  0  0  0  0  0  0  0
   -5.8036   12.0514    0.0000 C   0  0  0  0  0  0  0  0  0  0  0  0
   -4.4178   12.6254    0.0000 C   0  0  0  0  0  0  0  0  0  0  0  0
   -2.9764   13.0407    0.0000 C   0  0  0  0  0  0  0  0  0  0  0  0
   -1.4976   13.2919    0.0000 C   0  0  0  0  0  0  0  0  0  0  0  0
    0.0000   13.3760    0.0000 C   0  0  0  0  0  0  0  0  0  0  0  0
    1.4976   13.2919    0.0000 C   0  0  0  0  0  0  0  0  0  0  0  0
    2.9764   13.0407    0.0000 C   0  0  0  0  0  0  0  0  0  0  0  0
    4.4178   12.6254    0.0000 C   0  0  0  0  0  0  0  0  0  0  0  0
    5.8036   12.0514    0.0000 C   0  0  0  0  0  0  0  0  0  0  0  0
    7.1165   11.3258    0.0000 C   0  0  0  0  0  0  0  0  0  0  0  0
    8.3398   10.4578    0.0000 C   0  0  0  0  0  0  0  0  0  0  0  0
    9.4583    9.4583    0.0000 C   0  0  0  0  0  0  0  0  0  0  0  0
   10.4578    8.3398    0.0000 C   0  0  0  0  0  0  0  0  0  0  0  0
   11.3258    7.1165    0.0000 C   0  0  0  0  0  0  0  0  0  0  0  0
   12.0514    5.8036    0.0000 C   0  0  0  0  0  0  0  0  0  0  0  0
   12.6254    4.4178    0.0000 C   0  0  0  0  0  0  0  0  0  0  0  0
   13.0407    2.9764    0.0000 C   0  0  0  0  0  0  0  0  0  0  0  0
   13.2919    1.4976    0.0000 C   0  0  0  0  0  0  0  0  0  0  0  0
  1  2  1  0
  2  3  1  0
  3  4  2  0
  4  5  1  0
  5  6  1  0
  6  7  1  0
  7  8  1  0
  8  9  1  0
  9 10  1  0
 10 11  1  0
 11 12  1  0
 12 13  1  0
 13 14  1  0
 14 15  1  0
 15 16  1  0
 16 17  1  0
 17 18  1  0
 18 19  1  0
 19 20  1  0
 20 21  1  0
 21 22  1  0
 22 23  1  0
 23 24  1  0
 24 25  1  0
 25 26  1  0
 26 27  1  0
 27 28  1  0
 28 29  1  0
 29 30  1  0
 30 31  1  0
 31 32  1  0
 32 33  1  0
 33 34  1  0
 34 35  1  0
 35 36  1  0
 36 37  1  0
 37 38  1  0
 38 39  1  0
 39 40  1  0
 40 41  1  0
 41 42  1  0
 42 43  1  0
 43 44  1  0
 44 45  1  0
 45 46  1  0
 46 47  1  0
 47 48  1  0
 48 49  1  0
 49 50  1  0
 50 51  1  0
 51 52  1  0
 52 53  1  0
 53 54  1  0
 54 55  1  0
 55 56  1  0
 56 57  1  0
 57  2  1  0
M  END
>  <Title>  (280) 
idAAIVgen8

$$$$

     RDKit          2D

 21 21  0  0  0  0  0  0  0  0999 V2000
   14.2500   -6.4952    0.0000 C   0  0  0  0  0  0  0  0  0  0  0  0
   12.7500   -6.4952    0.0000 C   0  0  0  0  0  0  0  0  0  0  0  0
   12.0000   -5.1962    0.0000 C   0  0  0  0  0  0  0  0  0  0  0  0
   10.5000   -5.1962    0.0000 C   0  0  0  0  0  0  0  0  0  0  0  0
    9.7500   -6.4952    0.0000 O   0  0  0  0  0  0  0  0  0  0  0  0
    9.7500   -3.8971    0.0000 C   0  0  0  0  0  0  0  0  0  0  0  0
    8.2500   -3.8971    0.0000 C   0  0  0  0  0  0  0  0  0  0  0  0
    7.5000   -2.5981    0.0000 C   0  0  0  0  0  0  0  0  0  0  0  0
    8.2500   -1.2990    0.0000 O   0  0  0  0  0  0  0  0  0  0  0  0
    6.0000   -2.5981    0.0000 C   0  0  0  0  0  0  0  0  0  0  0  0
    5.2500   -1.2990    0.0000 C   0  0  0  0  0  0  0  0  0  0  0  0
    3.7500   -1.2990    0.0000 O   0  0  0  0  0  0  0  0  0  0  0  0
    3.0000    0.0000    0.0000 C   0  0  0  0  0  0  0  0  0  0  0  0
    3.7500    1.2990    0.0000 O   0  0  0  0  0  0  0  0  0  0  0  0
    1.5000    0.0000    0.0000 C   0  0  0  0  0  0  0  0  0  0  0  0
    0.7500   -1.2990    0.0000 C   0  0  0  0  0  0  0  0  0  0  0  0
   -0.7500   -1.2990    0.0000 C   0  0  0  0  0  0  0  0  0  0  0  0
   -1.5000    0.0000    0.0000 C   0  0  0  0  0  0  0  0  0  0  0  0
   -0.7500    1.2990    0.0000 C   0  0  0  0  0  0  0  0  0  0  0  0
    0.7500    1.2990    0.0000 C   0  0  0  0  0  0  0  0  0  0  0  0
    1.5000    2.5981    0.0000 O   0  0  0  0  0  0  0  0  0  0  0  0
  1  2  1  0
  2  3  2  3
  3  4  1  0
  4  5  2  0
  4  6  1  0
  6  7  1  0
  7  8  1  0
  8  9  2  0
  8 10  1  0
 10 11  1  0
 11 12  1  0
 12 13  1  0
 13 14  2  0
 13 15  1  0
 15 16  2  0
 16 17  1  0
 17 18  2  0
 18 19  1  0
 19 20  2  0
 20 21  1  0
 20 15  1  0
M  END
>  <Title>  (281) 
idAAIWgen8

$$$$

     RDKit          2D

  7  7  0  0  0  0  0  0  0  0999 V2000
    4.2760   -0.0000    0.0000 C   0  0  0  0  0  0  0  0  0  0  0  0
    2.7760    0.0000    0.0000 C   0  0  0  0  0  0  0  0  0  0  0  0
    1.2760    0.0000    0.0000 C   0  0  0  0  0  0  0  0  0  0  0  0
    0.3943    1.2135    0.0000 C   0  0  0  0  0  0  0  0  0  0  0  0
   -1.0323    0.7500    0.0000 C   0  0  0  0  0  0  0  0  0  0  0  0
   -1.0323   -0.7500    0.0000 C   0  0  0  0  0  0  0  0  0  0  0  0
    0.3943   -1.2135    0.0000 C   0  0  0  0  0  0  0  0  0  0  0  0
  1  2  3  0
  2  3  1  0
  3  4  1  0
  4  5  1  0
  5  6  2  0
  6  7  1  0
  7  3  1  0
M  END
>  <Title>  (282) 
idAAIXgen8

$$$$

     RDKit          2D

 12 12  0  0  0  0  0  0  0  0999 V2000
    8.0260   -1.2990    0.0000 C   0  0  0  0  0  0  0  0  0  0  0  0
    6.5260   -1.2990    0.0000 C   0  0  0  0  0  0  0  0  0  0  0  0
    5.0260   -1.2990    0.0000 C   0  0  0  0  0  0  0  0  0  0  0  0
    3.5260   -1.2990    0.0000 C   0  0  0  0  0  0  0  0  0  0  0  0
    2.7760   -2.5981    0.0000 O   0  0  0  0  0  0  0  0  0  0  0  0
    2.7760    0.0000    0.0000 C   0  0  0  0  0  0  0  0  0  0  0  0
    3.5260    1.2990    0.0000 O   0  0  0  0  0  0  0  0  0  0  0  0
    1.2760    0.0000    0.0000 C   0  0  0  0  0  0  0  0  0  0  0  0
    0.3943    1.2135    0.0000 C   0  0  0  0  0  0  0  0  0  0  0  0
   -1.0323    0.7500    0.0000 C   0  0  0  0  0  0  0  0  0  0  0  0
   -1.0323   -0.7500    0.0000 C   0  0  0  0  0  0  0  0  0  0  0  0
    0.3943   -1.2135    0.0000 C   0  0  0  0  0  0  0  0  0  0  0  0
  1  2  1  0
  2  3  3  0
  3  4  1  0
  4  5  2  0
  4  6  1  0
  6  7  2  0
  6  8  1  0
  8  9  2  0
  9 10  1  0
 10 11  2  0
 11 12  1  0
 12  8  1  0
M  END
>  <Title>  (283) 
idAAIYgen8

$$$$

     RDKit          2D

  7  7  0  0  0  0  0  0  0  0999 V2000
    3.0000    0.0000    0.0000 O   0  0  0  0  0  0  0  0  0  0  0  0
    1.5000    0.0000    0.0000 C   0  0  0  0  0  0  0  0  0  0  0  0
    0.7500   -1.2990    0.0000 C   0  0  0  0  0  0  0  0  0  0  0  0
   -0.7500   -1.2990    0.0000 C   0  0  0  0  0  0  0  0  0  0  0  0
   -1.5000    0.0000    0.0000 C   0  0  0  0  0  0  0  0  0  0  0  0
   -0.7500    1.2990    0.0000 C   0  0  0  0  0  0  0  0  0  0  0  0
    0.7500    1.2990    0.0000 C   0  0  0  0  0  0  0  0  0  0  0  0
  1  2  1  0
  2  3  2  0
  3  4  1  0
  4  5  1  0
  5  6  2  0
  6  7  1  0
  7  2  1  0
M  END
>  <Title>  (284) 
idAAIZgen8

$$$$

     RDKit          2D

  9  9  0  0  0  0  0  0  0  0999 V2000
    4.6309    1.7331    0.0000 C   0  0  0  0  0  0  0  0  0  0  0  0
    3.5702    0.6724    0.0000 C   0  0  0  0  0  0  0  0  0  0  0  0
    3.9584   -0.7765    0.0000 C   0  0  0  0  0  0  0  0  0  0  0  0
    2.1213    1.0607    0.0000 C   0  0  0  0  0  0  0  0  0  0  0  0
    1.0607    0.0000    0.0000 C   0  0  0  0  0  0  0  0  0  0  0  0
    2.1213   -1.0607    0.0000 O   0  0  0  0  0  0  0  0  0  0  0  0
   -0.0000   -1.0607    0.0000 C   0  0  0  0  0  0  0  0  0  0  0  0
   -1.0607    0.0000    0.0000 C   0  0  0  0  0  0  0  0  0  0  0  0
    0.0000    1.0607    0.0000 C   0  0  0  0  0  0  0  0  0  0  0  0
  1  2  1  0
  2  3  1  0
  2  4  1  0
  4  5  1  0
  5  6  1  0
  5  7  1  0
  7  8  2  0
  8  9  1  0
  9  5  1  0
M  END
>  <Title>  (285) 
idAAJAgen8

$$$$

     RDKit          2D

 18 19  0  0  0  0  0  0  0  0999 V2000
    3.2286   -0.0000    0.0000 C   0  0  0  0  0  0  0  0  0  0  0  0
    1.7286    0.0000    0.0000 C   0  0  0  0  0  0  0  0  0  0  0  0
    1.0777    1.3515    0.0000 C   0  0  0  0  0  0  0  0  0  0  0  0
   -0.3846    1.6852    0.0000 C   0  0  0  0  0  0  0  0  0  0  0  0
   -1.5574    0.7500    0.0000 C   0  0  0  0  0  0  0  0  0  0  0  0
   -1.5574   -0.7500    0.0000 C   0  0  0  0  0  0  0  0  0  0  0  0
   -0.3846   -1.6852    0.0000 N   0  0  0  0  0  0  0  0  0  0  0  0
    1.0777   -1.3515    0.0000 N   0  0  0  0  0  0  0  0  0  0  0  0
    2.0130   -2.5242    0.0000 N   0  0  0  0  0  0  0  0  0  0  0  0
    1.4650   -3.9205    0.0000 N   0  0  0  0  0  0  0  0  0  0  0  0
    2.4002   -5.0933    0.0000 N   0  0  0  0  0  0  0  0  0  0  0  0
    1.8522   -6.4896    0.0000 C   0  0  0  0  0  0  0  0  0  0  0  0
    0.3689   -6.7131    0.0000 O   0  0  0  0  0  0  0  0  0  0  0  0
    2.7874   -7.6623    0.0000 C   0  0  0  0  0  0  0  0  0  0  0  0
    4.2859   -7.5950    0.0000 C   0  0  0  0  0  0  0  0  0  0  0  0
    4.8130   -8.9994    0.0000 C   0  0  0  0  0  0  0  0  0  0  0  0
    3.6402   -9.9346    0.0000 C   0  0  0  0  0  0  0  0  0  0  0  0
    2.3884   -9.1083    0.0000 C   0  0  0  0  0  0  0  0  0  0  0  0
  1  2  1  0
  2  3  1  0
  3  4  2  0
  4  5  1  0
  5  6  1  0
  6  7  2  0
  7  8  1  0
  8  9  1  0
  9 10  2  3
 10 11  1  0
 11 12  1  0
 12 13  2  0
 12 14  1  0
 14 15  2  0
 15 16  1  0
 16 17  2  0
 17 18  1  0
  8  2  1  0
 18 14  1  0
M  END
>  <Title>  (286) 
idAAJBgen8

$$$$

     RDKit          2D

  7  7  0  0  0  0  0  0  0  0999 V2000
    3.0000    0.0000    0.0000 C   0  0  0  0  0  0  0  0  0  0  0  0
    1.5000    0.0000    0.0000 C   0  0  0  0  0  0  0  0  0  0  0  0
    0.7500   -1.2990    0.0000 C   0  0  0  0  0  0  0  0  0  0  0  0
   -0.7500   -1.2990    0.0000 C   0  0  0  0  0  0  0  0  0  0  0  0
   -1.5000    0.0000    0.0000 C   0  0  0  0  0  0  0  0  0  0  0  0
   -0.7500    1.2990    0.0000 C   0  0  0  0  0  0  0  0  0  0  0  0
    0.7500    1.2990    0.0000 C   0  0  0  0  0  0  0  0  0  0  0  0
  1  2  1  0
  2  3  1  0
  3  4  2  0
  4  5  1  0
  5  6  2  0
  6  7  1  0
  7  2  1  0
M  END
>  <Title>  (287) 
idAAJCgen8

$$$$

     RDKit          2D

  7  6  0  0  0  0  0  0  0  0999 V2000
    0.0000    0.0000    0.0000 C   0  0  0  0  0  0  0  0  0  0  0  0
   -0.0000   -1.5000    0.0000 C   0  0  0  0  0  0  0  0  0  0  0  0
   -0.0000   -3.0000    0.0000 C   0  0  0  0  0  0  0  0  0  0  0  0
   -0.0000   -4.5000    0.0000 C   0  0  0  0  0  0  0  0  0  0  0  0
   -0.0000   -6.0000    0.0000 C   0  0  0  0  0  0  0  0  0  0  0  0
    1.2990   -6.7500    0.0000 C   0  0  0  0  0  0  0  0  0  0  0  0
    1.2990   -8.2500    0.0000 C   0  0  0  0  0  0  0  0  0  0  0  0
  1  2  3  0
  2  3  1  0
  3  4  3  0
  4  5  1  0
  5  6  2  3
  6  7  1  0
M  END
>  <Title>  (288) 
idAAJDgen8

$$$$

     RDKit          2D

 25 27  0  0  0  0  0  0  0  0999 V2000
    4.0978  -10.3610    0.0000 C   0  0  0  0  0  0  0  0  0  0  0  0
    4.2546   -8.8692    0.0000 C   0  0  0  0  0  0  0  0  0  0  0  0
    5.5537   -8.1192    0.0000 C   0  0  0  0  0  0  0  0  0  0  0  0
    5.2418   -6.6520    0.0000 C   0  0  0  0  0  0  0  0  0  0  0  0
    3.7500   -6.4952    0.0000 C   0  0  0  0  0  0  0  0  0  0  0  0
    3.0000   -5.1962    0.0000 O   0  0  0  0  0  0  0  0  0  0  0  0
    1.5000   -5.1962    0.0000 C   0  0  0  0  0  0  0  0  0  0  0  0
    0.7500   -3.8971    0.0000 C   0  0  0  0  0  0  0  0  0  0  0  0
   -0.7500   -3.8971    0.0000 O   0  0  0  0  0  0  0  0  0  0  0  0
    1.5000   -2.5981    0.0000 N   0  0  0  0  0  0  0  0  0  0  0  0
    0.7500   -1.2990    0.0000 C   0  0  0  0  0  0  0  0  0  0  0  0
    1.5000    0.0000    0.0000 N   0  0  0  0  0  0  0  0  0  0  0  0
    0.7500    1.2990    0.0000 N   0  0  0  0  0  0  0  0  0  0  0  0
   -0.7500    1.2990    0.0000 N   0  0  0  0  0  0  0  0  0  0  0  0
   -1.5000    0.0000    0.0000 N   0  0  0  0  0  0  0  0  0  0  0  0
   -0.7500   -1.2990    0.0000 N   0  0  0  0  0  0  0  0  0  0  0  0
    0.7500   -6.4952    0.0000 C   0  0  0  0  0  0  0  0  0  0  0  0
   -0.7500   -6.4952    0.0000 C   0  0  0  0  0  0  0  0  0  0  0  0
   -1.5000   -7.7942    0.0000 C   0  0  0  0  0  0  0  0  0  0  0  0
   -3.0000   -7.7942    0.0000 C   0  0  0  0  0  0  0  0  0  0  0  0
   -4.5000   -7.7942    0.0000 N   0  0  0  0  0  0  0  0  0  0  0  0
   -0.7500   -9.0933    0.0000 N   0  0  0  0  0  0  0  0  0  0  0  0
    0.7500   -9.0933    0.0000 N   0  0  0  0  0  0  0  0  0  0  0  0
    1.5000   -7.7942    0.0000 N   0  0  0  0  0  0  0  0  0  0  0  0
    3.1399   -7.8655    0.0000 C   0  0  0  0  0  0  0  0  0  0  0  0
  1  2  1  0
  2  3  2  0
  3  4  1  0
  4  5  2  0
  5  6  1  0
  6  7  1  0
  7  8  1  0
  8  9  2  0
  8 10  1  0
 10 11  1  0
 11 12  2  0
 12 13  1  0
 13 14  2  0
 14 15  1  0
 15 16  2  0
  7 17  1  0
 17 18  2  0
 18 19  1  0
 19 20  1  0
 20 21  3  0
 19 22  2  0
 22 23  1  0
 23 24  2  0
  5 25  1  0
 25  2  1  0
 16 11  1  0
 24 17  1  0
M  END
>  <Title>  (289) 
idAAJEgen8

$$$$

     RDKit          2D

 18 19  0  0  0  0  0  0  0  0999 V2000
   -2.5981   -9.6073    0.0000 C   0  0  0  0  0  0  0  0  0  0  0  0
   -2.5981   -8.1073    0.0000 C   0  0  0  0  0  0  0  0  0  0  0  0
   -1.2990   -7.3573    0.0000 C   0  0  0  0  0  0  0  0  0  0  0  0
   -1.2990   -5.8573    0.0000 C   0  0  0  0  0  0  0  0  0  0  0  0
   -2.5981   -5.1073    0.0000 C   0  0  0  0  0  0  0  0  0  0  0  0
   -2.5981   -3.6073    0.0000 O   0  0  0  0  0  0  0  0  0  0  0  0
   -3.8971   -5.8573    0.0000 O   0  0  0  0  0  0  0  0  0  0  0  0
   -0.0000   -5.1073    0.0000 C   0  0  0  0  0  0  0  0  0  0  0  0
    1.2990   -5.8573    0.0000 O   0  0  0  0  0  0  0  0  0  0  0  0
   -0.0000   -3.6073    0.0000 C   0  0  0  0  0  0  0  0  0  0  0  0
    1.2135   -2.7256    0.0000 C   0  0  0  0  0  0  0  0  0  0  0  0
    0.7500   -1.2990    0.0000 C   0  0  0  0  0  0  0  0  0  0  0  0
    1.5000    0.0000    0.0000 C   0  0  0  0  0  0  0  0  0  0  0  0
    0.7500    1.2990    0.0000 C   0  0  0  0  0  0  0  0  0  0  0  0
   -0.7500    1.2990    0.0000 C   0  0  0  0  0  0  0  0  0  0  0  0
   -1.5000    0.0000    0.0000 C   0  0  0  0  0  0  0  0  0  0  0  0
   -0.7500   -1.2990    0.0000 C   0  0  0  0  0  0  0  0  0  0  0  0
   -1.2135   -2.7256    0.0000 C   0  0  0  0  0  0  0  0  0  0  0  0
  1  2  1  0
  2  3  2  3
  3  4  1  0
  4  5  1  0
  5  6  2  0
  5  7  1  0
  4  8  1  0
  8  9  2  0
  8 10  1  0
 10 11  1  0
 11 12  1  0
 12 13  2  0
 13 14  1  0
 14 15  2  0
 15 16  1  0
 16 17  2  0
 17 18  1  0
 18 10  1  0
 17 12  1  0
M  END
>  <Title>  (290) 
idAAJFgen8

$$$$

     RDKit          2D

 98 98  0  0  0  0  0  0  0  0999 V2000
   24.6611    0.0000    0.0000 C   0  0  0  0  0  0  0  0  0  0  0  0
   23.1611    0.0000    0.0000 C   0  0  0  0  0  0  0  0  0  0  0  0
   23.1125    1.4992    0.0000 C   0  0  0  0  0  0  0  0  0  0  0  0
   22.9670    2.9921    0.0000 C   0  0  0  0  0  0  0  0  0  0  0  0
   22.7252    4.4725    0.0000 C   0  0  0  0  0  0  0  0  0  0  0  0
   22.3880    5.9341    0.0000 C   0  0  0  0  0  0  0  0  0  0  0  0
   21.9569    7.3709    0.0000 C   0  0  0  0  0  0  0  0  0  0  0  0
   21.4338    8.7767    0.0000 C   0  0  0  0  0  0  0  0  0  0  0  0
   20.8207   10.1457    0.0000 C   0  0  0  0  0  0  0  0  0  0  0  0
   20.1203   11.4721    0.0000 C   0  0  0  0  0  0  0  0  0  0  0  0
   19.3355   12.7504    0.0000 C   0  0  0  0  0  0  0  0  0  0  0  0
   18.4696   13.9753    0.0000 C   0  0  0  0  0  0  0  0  0  0  0  0
   17.5263   15.1415    0.0000 C   0  0  0  0  0  0  0  0  0  0  0  0
   16.5094   16.2442    0.0000 C   0  0  0  0  0  0  0  0  0  0  0  0
   15.4233   17.2788    0.0000 C   0  0  0  0  0  0  0  0  0  0  0  0
   14.2725   18.2409    0.0000 C   0  0  0  0  0  0  0  0  0  0  0  0
   13.0619   19.1265    0.0000 C   0  0  0  0  0  0  0  0  0  0  0  0
   11.7964   19.9319    0.0000 C   0  0  0  0  0  0  0  0  0  0  0  0
   10.4815   20.6537    0.0000 C   0  0  0  0  0  0  0  0  0  0  0  0
    9.1226   21.2888    0.0000 C   0  0  0  0  0  0  0  0  0  0  0  0
    7.7254   21.8347    0.0000 C   0  0  0  0  0  0  0  0  0  0  0  0
    6.2959   22.2890    0.0000 C   0  0  0  0  0  0  0  0  0  0  0  0
    4.8399   22.6498    0.0000 C   0  0  0  0  0  0  0  0  0  0  0  0
    3.3637   22.9155    0.0000 C   0  0  0  0  0  0  0  0  0  0  0  0
    1.8733   23.0852    0.0000 C   0  0  0  0  0  0  0  0  0  0  0  0
    0.3750   23.1581    0.0000 C   0  0  0  0  0  0  0  0  0  0  0  0
   -1.1248   23.1338    0.0000 C   0  0  0  0  0  0  0  0  0  0  0  0
   -2.6198   23.0124    0.0000 C   0  0  0  0  0  0  0  0  0  0  0  0
   -4.1039   22.7946    0.0000 C   0  0  0  0  0  0  0  0  0  0  0  0
   -5.5708   22.4812    0.0000 C   0  0  0  0  0  0  0  0  0  0  0  0
   -7.0143   22.0734    0.0000 C   0  0  0  0  0  0  0  0  0  0  0  0
   -8.4284   21.5731    0.0000 C   0  0  0  0  0  0  0  0  0  0  0  0
   -9.8072   20.9823    0.0000 C   0  0  0  0  0  0  0  0  0  0  0  0
  -11.1448   20.3034    0.0000 C   0  0  0  0  0  0  0  0  0  0  0  0
  -12.4357   19.5395    0.0000 C   0  0  0  0  0  0  0  0  0  0  0  0
  -13.6744   18.6935    0.0000 C   0  0  0  0  0  0  0  0  0  0  0  0
  -14.8557   17.7692    0.0000 C   0  0  0  0  0  0  0  0  0  0  0  0
  -15.9748   16.7703    0.0000 C   0  0  0  0  0  0  0  0  0  0  0  0
  -17.0268   15.7011    0.0000 C   0  0  0  0  0  0  0  0  0  0  0  0
  -18.0074   14.5660    0.0000 C   0  0  0  0  0  0  0  0  0  0  0  0
  -18.9125   13.3699    0.0000 C   0  0  0  0  0  0  0  0  0  0  0  0
  -19.7383   12.1176    0.0000 C   0  0  0  0  0  0  0  0  0  0  0  0
  -20.4813   10.8146    0.0000 C   0  0  0  0  0  0  0  0  0  0  0  0
  -21.1383    9.4661    0.0000 C   0  0  0  0  0  0  0  0  0  0  0  0
  -21.7067    8.0780    0.0000 C   0  0  0  0  0  0  0  0  0  0  0  0
  -22.1841    6.6560    0.0000 C   0  0  0  0  0  0  0  0  0  0  0  0
  -22.5684    5.2061    0.0000 C   0  0  0  0  0  0  0  0  0  0  0  0
  -22.8581    3.7343    0.0000 C   0  0  0  0  0  0  0  0  0  0  0  0
  -23.0519    2.2469    0.0000 C   0  0  0  0  0  0  0  0  0  0  0  0
  -23.1489    0.7500    0.0000 C   0  0  0  0  0  0  0  0  0  0  0  0
  -23.1489   -0.7500    0.0000 C   0  0  0  0  0  0  0  0  0  0  0  0
  -23.0519   -2.2469    0.0000 C   0  0  0  0  0  0  0  0  0  0  0  0
  -22.8581   -3.7343    0.0000 C   0  0  0  0  0  0  0  0  0  0  0  0
  -22.5684   -5.2061    0.0000 C   0  0  0  0  0  0  0  0  0  0  0  0
  -22.1841   -6.6560    0.0000 C   0  0  0  0  0  0  0  0  0  0  0  0
  -21.7067   -8.0780    0.0000 C   0  0  0  0  0  0  0  0  0  0  0  0
  -21.1383   -9.4661    0.0000 C   0  0  0  0  0  0  0  0  0  0  0  0
  -20.4813  -10.8146    0.0000 C   0  0  0  0  0  0  0  0  0  0  0  0
  -19.7383  -12.1176    0.0000 C   0  0  0  0  0  0  0  0  0  0  0  0
  -18.9125  -13.3699    0.0000 C   0  0  0  0  0  0  0  0  0  0  0  0
  -18.0074  -14.5660    0.0000 C   0  0  0  0  0  0  0  0  0  0  0  0
  -17.0268  -15.7011    0.0000 C   0  0  0  0  0  0  0  0  0  0  0  0
  -15.9748  -16.7703    0.0000 C   0  0  0  0  0  0  0  0  0  0  0  0
  -14.8557  -17.7692    0.0000 C   0  0  0  0  0  0  0  0  0  0  0  0
  -13.6744  -18.6935    0.0000 C   0  0  0  0  0  0  0  0  0  0  0  0
  -12.4357  -19.5395    0.0000 C   0  0  0  0  0  0  0  0  0  0  0  0
  -11.1448  -20.3034    0.0000 C   0  0  0  0  0  0  0  0  0  0  0  0
   -9.8072  -20.9823    0.0000 C   0  0  0  0  0  0  0  0  0  0  0  0
   -8.4284  -21.5731    0.0000 C   0  0  0  0  0  0  0  0  0  0  0  0
   -7.0143  -22.0734    0.0000 C   0  0  0  0  0  0  0  0  0  0  0  0
   -5.5708  -22.4812    0.0000 C   0  0  0  0  0  0  0  0  0  0  0  0
   -4.1039  -22.7946    0.0000 C   0  0  0  0  0  0  0  0  0  0  0  0
   -2.6198  -23.0124    0.0000 C   0  0  0  0  0  0  0  0  0  0  0  0
   -1.1248  -23.1338    0.0000 C   0  0  0  0  0  0  0  0  0  0  0  0
    0.3750  -23.1581    0.0000 C   0  0  0  0  0  0  0  0  0  0  0  0
    1.8733  -23.0852    0.0000 C   0  0  0  0  0  0  0  0  0  0  0  0
    3.3637  -22.9155    0.0000 C   0  0  0  0  0  0  0  0  0  0  0  0
    4.8399  -22.6498    0.0000 C   0  0  0  0  0  0  0  0  0  0  0  0
    6.2959  -22.2890    0.0000 C   0  0  0  0  0  0  0  0  0  0  0  0
    7.7254  -21.8347    0.0000 C   0  0  0  0  0  0  0  0  0  0  0  0
    9.1226  -21.2888    0.0000 C   0  0  0  0  0  0  0  0  0  0  0  0
   10.4815  -20.6537    0.0000 C   0  0  0  0  0  0  0  0  0  0  0  0
   11.7964  -19.9319    0.0000 C   0  0  0  0  0  0  0  0  0  0  0  0
   13.0619  -19.1265    0.0000 C   0  0  0  0  0  0  0  0  0  0  0  0
   14.2725  -18.2409    0.0000 C   0  0  0  0  0  0  0  0  0  0  0  0
   15.4233  -17.2788    0.0000 C   0  0  0  0  0  0  0  0  0  0  0  0
   16.5094  -16.2442    0.0000 C   0  0  0  0  0  0  0  0  0  0  0  0
   17.5263  -15.1415    0.0000 C   0  0  0  0  0  0  0  0  0  0  0  0
   18.4696  -13.9753    0.0000 C   0  0  0  0  0  0  0  0  0  0  0  0
   19.3355  -12.7504    0.0000 C   0  0  0  0  0  0  0  0  0  0  0  0
   20.1203  -11.4721    0.0000 C   0  0  0  0  0  0  0  0  0  0  0  0
   20.8207  -10.1457    0.0000 C   0  0  0  0  0  0  0  0  0  0  0  0
   21.4338   -8.7767    0.0000 C   0  0  0  0  0  0  0  0  0  0  0  0
   21.9569   -7.3709    0.0000 C   0  0  0  0  0  0  0  0  0  0  0  0
   22.3880   -5.9341    0.0000 C   0  0  0  0  0  0  0  0  0  0  0  0
   22.7252   -4.4725    0.0000 C   0  0  0  0  0  0  0  0  0  0  0  0
   22.9670   -2.9921    0.0000 C   0  0  0  0  0  0  0  0  0  0  0  0
   23.1125   -1.4992    0.0000 C   0  0  0  0  0  0  0  0  0  0  0  0
  1  2  1  0
  2  3  1  0
  3  4  1  0
  4  5  1  0
  5  6  1  0
  6  7  1  0
  7  8  1  0
  8  9  1  0
  9 10  1  0
 10 11  1  0
 11 12  1  0
 12 13  1  0
 13 14  1  0
 14 15  1  0
 15 16  1  0
 16 17  1  0
 17 18  1  0
 18 19  1  0
 19 20  1  0
 20 21  1  0
 21 22  1  0
 22 23  1  0
 23 24  1  0
 24 25  1  0
 25 26  1  0
 26 27  1  0
 27 28  1  0
 28 29  1  0
 29 30  1  0
 30 31  1  0
 31 32  1  0
 32 33  1  0
 33 34  1  0
 34 35  1  0
 35 36  1  0
 36 37  1  0
 37 38  1  0
 38 39  1  0
 39 40  1  0
 40 41  1  0
 41 42  1  0
 42 43  1  0
 43 44  1  0
 44 45  1  0
 45 46  1  0
 46 47  1  0
 47 48  1  0
 48 49  1  0
 49 50  1  0
 50 51  1  0
 51 52  1  0
 52 53  1  0
 53 54  1  0
 54 55  1  0
 55 56  1  0
 56 57  1  0
 57 58  1  0
 58 59  1  0
 59 60  1  0
 60 61  1  0
 61 62  1  0
 62 63  1  0
 63 64  1  0
 64 65  1  0
 65 66  1  0
 66 67  1  0
 67 68  1  0
 68 69  1  0
 69 70  1  0
 70 71  1  0
 71 72  1  0
 72 73  1  0
 73 74  1  0
 74 75  1  0
 75 76  1  0
 76 77  1  0
 77 78  1  0
 78 79  1  0
 79 80  1  0
 80 81  1  0
 81 82  1  0
 82 83  1  0
 83 84  1  0
 84 85  1  0
 85 86  1  0
 86 87  1  0
 87 88  1  0
 88 89  1  0
 89 90  1  0
 90 91  1  0
 91 92  1  0
 92 93  1  0
 93 94  1  0
 94 95  1  0
 95 96  1  0
 96 97  1  0
 97 98  1  0
 98  2  1  0
M  END
>  <Title>  (291) 
idAAJGgen8

$$$$

     RDKit          2D

 93 93  0  0  0  0  0  0  0  0999 V2000
   23.2290   -0.0000    0.0000 C   0  0  0  0  0  0  0  0  0  0  0  0
   21.7290    0.0000    0.0000 C   0  0  0  0  0  0  0  0  0  0  0  0
   21.6772    1.4991    0.0000 C   0  0  0  0  0  0  0  0  0  0  0  0
   21.5221    2.9911    0.0000 C   0  0  0  0  0  0  0  0  0  0  0  0
   21.2645    4.4688    0.0000 C   0  0  0  0  0  0  0  0  0  0  0  0
   20.9055    5.9252    0.0000 C   0  0  0  0  0  0  0  0  0  0  0  0
   20.4469    7.3534    0.0000 C   0  0  0  0  0  0  0  0  0  0  0  0
   19.8909    8.7465    0.0000 C   0  0  0  0  0  0  0  0  0  0  0  0
   19.2400   10.0980    0.0000 C   0  0  0  0  0  0  0  0  0  0  0  0
   18.4975   11.4013    0.0000 C   0  0  0  0  0  0  0  0  0  0  0  0
   17.6669   12.6503    0.0000 C   0  0  0  0  0  0  0  0  0  0  0  0
   16.7520   13.8390    0.0000 C   0  0  0  0  0  0  0  0  0  0  0  0
   15.7573   14.9618    0.0000 C   0  0  0  0  0  0  0  0  0  0  0  0
   14.6876   16.0132    0.0000 C   0  0  0  0  0  0  0  0  0  0  0  0
   13.5478   16.9884    0.0000 C   0  0  0  0  0  0  0  0  0  0  0  0
   12.3435   17.8826    0.0000 C   0  0  0  0  0  0  0  0  0  0  0  0
   11.0803   18.6916    0.0000 C   0  0  0  0  0  0  0  0  0  0  0  0
    9.7644   19.4115    0.0000 C   0  0  0  0  0  0  0  0  0  0  0  0
    8.4019   20.0389    0.0000 C   0  0  0  0  0  0  0  0  0  0  0  0
    6.9993   20.5708    0.0000 C   0  0  0  0  0  0  0  0  0  0  0  0
    5.5635   21.0047    0.0000 C   0  0  0  0  0  0  0  0  0  0  0  0
    4.1011   21.3384    0.0000 C   0  0  0  0  0  0  0  0  0  0  0  0
    2.6191   21.5705    0.0000 C   0  0  0  0  0  0  0  0  0  0  0  0
    1.1247   21.6998    0.0000 C   0  0  0  0  0  0  0  0  0  0  0  0
   -0.3751   21.7257    0.0000 C   0  0  0  0  0  0  0  0  0  0  0  0
   -1.8730   21.6481    0.0000 C   0  0  0  0  0  0  0  0  0  0  0  0
   -3.3621   21.4673    0.0000 C   0  0  0  0  0  0  0  0  0  0  0  0
   -4.8351   21.1842    0.0000 C   0  0  0  0  0  0  0  0  0  0  0  0
   -6.2851   20.8001    0.0000 C   0  0  0  0  0  0  0  0  0  0  0  0
   -7.7052   20.3169    0.0000 C   0  0  0  0  0  0  0  0  0  0  0  0
   -9.0885   19.7369    0.0000 C   0  0  0  0  0  0  0  0  0  0  0  0
  -10.4285   19.0629    0.0000 C   0  0  0  0  0  0  0  0  0  0  0  0
  -11.7189   18.2980    0.0000 C   0  0  0  0  0  0  0  0  0  0  0  0
  -12.9533   17.4459    0.0000 C   0  0  0  0  0  0  0  0  0  0  0  0
  -14.1261   16.5106    0.0000 C   0  0  0  0  0  0  0  0  0  0  0  0
  -15.2315   15.4967    0.0000 C   0  0  0  0  0  0  0  0  0  0  0  0
  -16.2644   14.4090    0.0000 C   0  0  0  0  0  0  0  0  0  0  0  0
  -17.2197   13.2525    0.0000 C   0  0  0  0  0  0  0  0  0  0  0  0
  -18.0930   12.0330    0.0000 C   0  0  0  0  0  0  0  0  0  0  0  0
  -18.8800   10.7560    0.0000 C   0  0  0  0  0  0  0  0  0  0  0  0
  -19.5771    9.4278    0.0000 C   0  0  0  0  0  0  0  0  0  0  0  0
  -20.1809    8.0547    0.0000 C   0  0  0  0  0  0  0  0  0  0  0  0
  -20.6885    6.6432    0.0000 C   0  0  0  0  0  0  0  0  0  0  0  0
  -21.0976    5.2001    0.0000 C   0  0  0  0  0  0  0  0  0  0  0  0
  -21.4061    3.7321    0.0000 C   0  0  0  0  0  0  0  0  0  0  0  0
  -21.6125    2.2464    0.0000 C   0  0  0  0  0  0  0  0  0  0  0  0
  -21.7160    0.7500    0.0000 C   0  0  0  0  0  0  0  0  0  0  0  0
  -21.7160   -0.7500    0.0000 C   0  0  0  0  0  0  0  0  0  0  0  0
  -21.6125   -2.2464    0.0000 C   0  0  0  0  0  0  0  0  0  0  0  0
  -21.4061   -3.7321    0.0000 C   0  0  0  0  0  0  0  0  0  0  0  0
  -21.0976   -5.2001    0.0000 C   0  0  0  0  0  0  0  0  0  0  0  0
  -20.6885   -6.6432    0.0000 C   0  0  0  0  0  0  0  0  0  0  0  0
  -20.1809   -8.0547    0.0000 C   0  0  0  0  0  0  0  0  0  0  0  0
  -19.5771   -9.4278    0.0000 C   0  0  0  0  0  0  0  0  0  0  0  0
  -18.8800  -10.7560    0.0000 C   0  0  0  0  0  0  0  0  0  0  0  0
  -18.0930  -12.0330    0.0000 C   0  0  0  0  0  0  0  0  0  0  0  0
  -17.2197  -13.2525    0.0000 C   0  0  0  0  0  0  0  0  0  0  0  0
  -16.2644  -14.4090    0.0000 C   0  0  0  0  0  0  0  0  0  0  0  0
  -15.2315  -15.4967    0.0000 C   0  0  0  0  0  0  0  0  0  0  0  0
  -14.1261  -16.5106    0.0000 C   0  0  0  0  0  0  0  0  0  0  0  0
  -12.9533  -17.4459    0.0000 C   0  0  0  0  0  0  0  0  0  0  0  0
  -11.7189  -18.2980    0.0000 C   0  0  0  0  0  0  0  0  0  0  0  0
  -10.4285  -19.0629    0.0000 C   0  0  0  0  0  0  0  0  0  0  0  0
   -9.0885  -19.7369    0.0000 C   0  0  0  0  0  0  0  0  0  0  0  0
   -7.7052  -20.3169    0.0000 C   0  0  0  0  0  0  0  0  0  0  0  0
   -6.2851  -20.8001    0.0000 C   0  0  0  0  0  0  0  0  0  0  0  0
   -4.8351  -21.1842    0.0000 C   0  0  0  0  0  0  0  0  0  0  0  0
   -3.3621  -21.4673    0.0000 C   0  0  0  0  0  0  0  0  0  0  0  0
   -1.8730  -21.6481    0.0000 C   0  0  0  0  0  0  0  0  0  0  0  0
   -0.3751  -21.7257    0.0000 C   0  0  0  0  0  0  0  0  0  0  0  0
    1.1247  -21.6998    0.0000 C   0  0  0  0  0  0  0  0  0  0  0  0
    2.6191  -21.5705    0.0000 C   0  0  0  0  0  0  0  0  0  0  0  0
    4.1011  -21.3384    0.0000 C   0  0  0  0  0  0  0  0  0  0  0  0
    5.5635  -21.0047    0.0000 C   0  0  0  0  0  0  0  0  0  0  0  0
    6.9993  -20.5708    0.0000 C   0  0  0  0  0  0  0  0  0  0  0  0
    8.4019  -20.0389    0.0000 C   0  0  0  0  0  0  0  0  0  0  0  0
    9.7644  -19.4115    0.0000 C   0  0  0  0  0  0  0  0  0  0  0  0
   11.0803  -18.6916    0.0000 C   0  0  0  0  0  0  0  0  0  0  0  0
   12.3435  -17.8826    0.0000 C   0  0  0  0  0  0  0  0  0  0  0  0
   13.5478  -16.9884    0.0000 C   0  0  0  0  0  0  0  0  0  0  0  0
   14.6876  -16.0132    0.0000 C   0  0  0  0  0  0  0  0  0  0  0  0
   15.7573  -14.9618    0.0000 C   0  0  0  0  0  0  0  0  0  0  0  0
   16.7520  -13.8390    0.0000 C   0  0  0  0  0  0  0  0  0  0  0  0
   17.6669  -12.6503    0.0000 C   0  0  0  0  0  0  0  0  0  0  0  0
   18.4975  -11.4013    0.0000 C   0  0  0  0  0  0  0  0  0  0  0  0
   19.2400  -10.0980    0.0000 C   0  0  0  0  0  0  0  0  0  0  0  0
   19.8909   -8.7465    0.0000 C   0  0  0  0  0  0  0  0  0  0  0  0
   20.4469   -7.3534    0.0000 C   0  0  0  0  0  0  0  0  0  0  0  0
   20.9055   -5.9252    0.0000 C   0  0  0  0  0  0  0  0  0  0  0  0
   21.2645   -4.4688    0.0000 C   0  0  0  0  0  0  0  0  0  0  0  0
   21.5221   -2.9911    0.0000 C   0  0  0  0  0  0  0  0  0  0  0  0
   23.0078   -3.1975    0.0000 C   0  0  0  0  0  0  0  0  0  0  0  0
   21.6772   -1.4991    0.0000 C   0  0  0  0  0  0  0  0  0  0  0  0
  1  2  1  0
  2  3  1  0
  3  4  1  0
  4  5  1  0
  5  6  1  0
  6  7  1  0
  7  8  1  0
  8  9  1  0
  9 10  1  0
 10 11  1  0
 11 12  1  0
 12 13  1  0
 13 14  1  0
 14 15  1  0
 15 16  1  0
 16 17  1  0
 17 18  1  0
 18 19  2  0
 19 20  1  0
 20 21  1  0
 21 22  1  0
 22 23  1  0
 23 24  1  0
 24 25  1  0
 25 26  1  0
 26 27  1  0
 27 28  1  0
 28 29  1  0
 29 30  1  0
 30 31  1  0
 31 32  1  0
 32 33  1  0
 33 34  1  0
 34 35  1  0
 35 36  1  0
 36 37  1  0
 37 38  1  0
 38 39  1  0
 39 40  1  0
 40 41  1  0
 41 42  1  0
 42 43  1  0
 43 44  1  0
 44 45  1  0
 45 46  1  0
 46 47  1  0
 47 48  1  0
 48 49  1  0
 49 50  1  0
 50 51  1  0
 51 52  1  0
 52 53  1  0
 53 54  1  0
 54 55  1  0
 55 56  1  0
 56 57  1  0
 57 58  1  0
 58 59  1  0
 59 60  1  0
 60 61  1  0
 61 62  1  0
 62 63  1  0
 63 64  1  0
 64 65  1  0
 65 66  1  0
 66 67  1  0
 67 68  1  0
 68 69  1  0
 69 70  1  0
 70 71  1  0
 71 72  1  0
 72 73  1  0
 73 74  1  0
 74 75  1  0
 75 76  1  0
 76 77  1  0
 77 78  1  0
 78 79  1  0
 79 80  1  0
 80 81  1  0
 81 82  1  0
 82 83  1  0
 83 84  1  0
 84 85  1  0
 85 86  1  0
 86 87  1  0
 87 88  1  0
 88 89  1  0
 89 90  1  0
 90 91  1  0
 91 92  1  0
 91 93  1  0
 93  2  1  0
M  END
>  <Title>  (292) 
idAAJHgen8

$$$$

     RDKit          2D

  7  6  0  0  0  0  0  0  0  0999 V2000
    0.0000    0.0000    0.0000 C   0  0  0  0  0  0  0  0  0  0  0  0
    1.2990    0.7500    0.0000 C   0  0  0  0  0  0  0  0  0  0  0  0
    2.5981    1.5000    0.0000 C   0  0  0  0  0  0  0  0  0  0  0  0
    3.8971    2.2500    0.0000 C   0  0  0  0  0  0  0  0  0  0  0  0
    3.8971    3.7500    0.0000 O   0  0  0  0  0  0  0  0  0  0  0  0
    5.1962    1.5000    0.0000 O   0  0  0  0  0  0  0  0  0  0  0  0
    6.4952    2.2500    0.0000 C   0  0  0  0  0  0  0  0  0  0  0  0
  1  2  1  0
  2  3  3  0
  3  4  1  0
  4  5  2  0
  4  6  1  0
  6  7  1  0
M  END
>  <Title>  (293) 
idAAJIgen8

$$$$

     RDKit          2D

 83 83  0  0  0  0  0  0  0  0999 V2000
   21.0808    0.0000    0.0000 C   0  0  0  0  0  0  0  0  0  0  0  0
   19.5808    0.0000    0.0000 C   0  0  0  0  0  0  0  0  0  0  0  0
   19.5234   -1.4989    0.0000 C   0  0  0  0  0  0  0  0  0  0  0  0
   19.3514   -2.9890    0.0000 C   0  0  0  0  0  0  0  0  0  0  0  0
   19.0658   -4.4616    0.0000 C   0  0  0  0  0  0  0  0  0  0  0  0
   18.6683   -5.9079    0.0000 C   0  0  0  0  0  0  0  0  0  0  0  0
   18.1613   -7.3197    0.0000 C   0  0  0  0  0  0  0  0  0  0  0  0
   17.5477   -8.6884    0.0000 C   0  0  0  0  0  0  0  0  0  0  0  0
   16.8311  -10.0062    0.0000 C   0  0  0  0  0  0  0  0  0  0  0  0
   16.0158  -11.2652    0.0000 C   0  0  0  0  0  0  0  0  0  0  0  0
   15.1064  -12.4582    0.0000 C   0  0  0  0  0  0  0  0  0  0  0  0
   14.1084  -13.5780    0.0000 C   0  0  0  0  0  0  0  0  0  0  0  0
   13.0276  -14.6181    0.0000 C   0  0  0  0  0  0  0  0  0  0  0  0
   11.8704  -15.5725    0.0000 C   0  0  0  0  0  0  0  0  0  0  0  0
   10.6435  -16.4355    0.0000 C   0  0  0  0  0  0  0  0  0  0  0  0
    9.3542  -17.2020    0.0000 C   0  0  0  0  0  0  0  0  0  0  0  0
    8.0099  -17.8676    0.0000 C   0  0  0  0  0  0  0  0  0  0  0  0
    6.6187  -18.4283    0.0000 C   0  0  0  0  0  0  0  0  0  0  0  0
    5.1886  -18.8809    0.0000 C   0  0  0  0  0  0  0  0  0  0  0  0
    3.7280  -19.2227    0.0000 C   0  0  0  0  0  0  0  0  0  0  0  0
    2.2456  -19.4517    0.0000 C   0  0  0  0  0  0  0  0  0  0  0  0
    0.7500  -19.5665    0.0000 C   0  0  0  0  0  0  0  0  0  0  0  0
   -0.7500  -19.5665    0.0000 C   0  0  0  0  0  0  0  0  0  0  0  0
   -2.2456  -19.4517    0.0000 C   0  0  0  0  0  0  0  0  0  0  0  0
   -3.7280  -19.2227    0.0000 C   0  0  0  0  0  0  0  0  0  0  0  0
   -5.1886  -18.8809    0.0000 C   0  0  0  0  0  0  0  0  0  0  0  0
   -6.6187  -18.4283    0.0000 C   0  0  0  0  0  0  0  0  0  0  0  0
   -8.0099  -17.8676    0.0000 C   0  0  0  0  0  0  0  0  0  0  0  0
   -9.3542  -17.2020    0.0000 C   0  0  0  0  0  0  0  0  0  0  0  0
  -10.6435  -16.4355    0.0000 C   0  0  0  0  0  0  0  0  0  0  0  0
  -11.8704  -15.5725    0.0000 C   0  0  0  0  0  0  0  0  0  0  0  0
  -13.0276  -14.6181    0.0000 C   0  0  0  0  0  0  0  0  0  0  0  0
  -14.1084  -13.5780    0.0000 C   0  0  0  0  0  0  0  0  0  0  0  0
  -15.1064  -12.4582    0.0000 C   0  0  0  0  0  0  0  0  0  0  0  0
  -16.0158  -11.2652    0.0000 C   0  0  0  0  0  0  0  0  0  0  0  0
  -16.8311  -10.0062    0.0000 C   0  0  0  0  0  0  0  0  0  0  0  0
  -17.5477   -8.6884    0.0000 C   0  0  0  0  0  0  0  0  0  0  0  0
  -18.1613   -7.3197    0.0000 C   0  0  0  0  0  0  0  0  0  0  0  0
  -18.6683   -5.9079    0.0000 C   0  0  0  0  0  0  0  0  0  0  0  0
  -19.0658   -4.4616    0.0000 C   0  0  0  0  0  0  0  0  0  0  0  0
  -19.3514   -2.9890    0.0000 C   0  0  0  0  0  0  0  0  0  0  0  0
  -19.5234   -1.4989    0.0000 C   0  0  0  0  0  0  0  0  0  0  0  0
  -19.5808   -0.0000    0.0000 C   0  0  0  0  0  0  0  0  0  0  0  0
  -19.5234    1.4989    0.0000 C   0  0  0  0  0  0  0  0  0  0  0  0
  -19.3514    2.9890    0.0000 C   0  0  0  0  0  0  0  0  0  0  0  0
  -19.0658    4.4616    0.0000 C   0  0  0  0  0  0  0  0  0  0  0  0
  -18.6683    5.9079    0.0000 C   0  0  0  0  0  0  0  0  0  0  0  0
  -18.1613    7.3197    0.0000 C   0  0  0  0  0  0  0  0  0  0  0  0
  -17.5477    8.6884    0.0000 C   0  0  0  0  0  0  0  0  0  0  0  0
  -16.8311   10.0062    0.0000 C   0  0  0  0  0  0  0  0  0  0  0  0
  -16.0158   11.2652    0.0000 C   0  0  0  0  0  0  0  0  0  0  0  0
  -15.1064   12.4582    0.0000 C   0  0  0  0  0  0  0  0  0  0  0  0
  -14.1084   13.5780    0.0000 C   0  0  0  0  0  0  0  0  0  0  0  0
  -13.0276   14.6181    0.0000 C   0  0  0  0  0  0  0  0  0  0  0  0
  -11.8704   15.5725    0.0000 C   0  0  0  0  0  0  0  0  0  0  0  0
  -10.6435   16.4355    0.0000 C   0  0  0  0  0  0  0  0  0  0  0  0
   -9.3542   17.2020    0.0000 C   0  0  0  0  0  0  0  0  0  0  0  0
   -8.0099   17.8676    0.0000 C   0  0  0  0  0  0  0  0  0  0  0  0
   -6.6187   18.4283    0.0000 C   0  0  0  0  0  0  0  0  0  0  0  0
   -5.1886   18.8809    0.0000 C   0  0  0  0  0  0  0  0  0  0  0  0
   -3.7280   19.2227    0.0000 C   0  0  0  0  0  0  0  0  0  0  0  0
   -2.2456   19.4517    0.0000 C   0  0  0  0  0  0  0  0  0  0  0  0
   -0.7500   19.5665    0.0000 C   0  0  0  0  0  0  0  0  0  0  0  0
    0.7500   19.5665    0.0000 C   0  0  0  0  0  0  0  0  0  0  0  0
    2.2456   19.4517    0.0000 C   0  0  0  0  0  0  0  0  0  0  0  0
    3.7280   19.2227    0.0000 C   0  0  0  0  0  0  0  0  0  0  0  0
    5.1886   18.8809    0.0000 C   0  0  0  0  0  0  0  0  0  0  0  0
    6.6187   18.4283    0.0000 C   0  0  0  0  0  0  0  0  0  0  0  0
    8.0099   17.8676    0.0000 C   0  0  0  0  0  0  0  0  0  0  0  0
    9.3542   17.2020    0.0000 C   0  0  0  0  0  0  0  0  0  0  0  0
   10.6435   16.4355    0.0000 C   0  0  0  0  0  0  0  0  0  0  0  0
   11.8704   15.5725    0.0000 C   0  0  0  0  0  0  0  0  0  0  0  0
   13.0276   14.6181    0.0000 C   0  0  0  0  0  0  0  0  0  0  0  0
   14.1084   13.5780    0.0000 C   0  0  0  0  0  0  0  0  0  0  0  0
   15.1064   12.4582    0.0000 C   0  0  0  0  0  0  0  0  0  0  0  0
   16.0158   11.2652    0.0000 C   0  0  0  0  0  0  0  0  0  0  0  0
   16.8311   10.0062    0.0000 C   0  0  0  0  0  0  0  0  0  0  0  0
   17.5477    8.6884    0.0000 C   0  0  0  0  0  0  0  0  0  0  0  0
   18.1613    7.3197    0.0000 C   0  0  0  0  0  0  0  0  0  0  0  0
   18.6683    5.9079    0.0000 C   0  0  0  0  0  0  0  0  0  0  0  0
   19.0658    4.4616    0.0000 C   0  0  0  0  0  0  0  0  0  0  0  0
   19.3514    2.9890    0.0000 C   0  0  0  0  0  0  0  0  0  0  0  0
   19.5234    1.4989    0.0000 C   0  0  0  0  0  0  0  0  0  0  0  0
  1  2  1  0
  2  3  1  0
  3  4  1  0
  4  5  1  0
  5  6  1  0
  6  7  1  0
  7  8  1  0
  8  9  1  0
  9 10  1  0
 10 11  1  0
 11 12  1  0
 12 13  1  0
 13 14  1  0
 14 15  1  0
 15 16  1  0
 16 17  1  0
 17 18  1  0
 18 19  1  0
 19 20  1  0
 20 21  1  0
 21 22  1  0
 22 23  1  0
 23 24  1  0
 24 25  1  0
 25 26  1  0
 26 27  1  0
 27 28  1  0
 28 29  1  0
 29 30  1  0
 30 31  1  0
 31 32  1  0
 32 33  1  0
 33 34  1  0
 34 35  1  0
 35 36  1  0
 36 37  1  0
 37 38  1  0
 38 39  1  0
 39 40  1  0
 40 41  1  0
 41 42  1  0
 42 43  1  0
 43 44  1  0
 44 45  1  0
 45 46  1  0
 46 47  1  0
 47 48  1  0
 48 49  1  0
 49 50  1  0
 50 51  1  0
 51 52  1  0
 52 53  1  0
 53 54  1  0
 54 55  1  0
 55 56  1  0
 56 57  1  0
 57 58  1  0
 58 59  1  0
 59 60  1  0
 60 61  1  0
 61 62  1  0
 62 63  1  0
 63 64  1  0
 64 65  1  0
 65 66  1  0
 66 67  1  0
 67 68  1  0
 68 69  1  0
 69 70  1  0
 70 71  1  0
 71 72  1  0
 72 73  1  0
 73 74  1  0
 74 75  1  0
 75 76  1  0
 76 77  1  0
 77 78  1  0
 78 79  1  0
 79 80  1  0
 80 81  1  0
 81 82  1  0
 82 83  1  0
 83  2  1  0
M  END
>  <Title>  (294) 
idAAJJgen8

$$$$

     RDKit          2D

 41 46  0  0  0  0  0  0  0  0999 V2000
    5.5165   -8.0776    0.0000 C   0  0  0  0  0  0  0  0  0  0  0  0
    4.0393   -7.8171    0.0000 C   0  0  0  0  0  0  0  0  0  0  0  0
    3.5262   -6.4076    0.0000 C   0  0  0  0  0  0  0  0  0  0  0  0
    2.0490   -6.1471    0.0000 C   0  0  0  0  0  0  0  0  0  0  0  0
    2.3095   -7.6243    0.0000 C   0  0  0  0  0  0  0  0  0  0  0  0
    2.7990   -4.8481    0.0000 C   0  0  0  0  0  0  0  0  0  0  0  0
    2.7990   -3.3481    0.0000 C   0  0  0  0  0  0  0  0  0  0  0  0
    2.0490   -2.0490    0.0000 C   0  0  0  0  0  0  0  0  0  0  0  0
    3.1097   -0.9884    0.0000 C   0  0  0  0  0  0  0  0  0  0  0  0
    2.7215    0.4605    0.0000 O   0  0  0  0  0  0  0  0  0  0  0  0
    4.5586   -1.3766    0.0000 N   0  0  0  0  0  0  0  0  0  0  0  0
    5.6192   -0.3159    0.0000 C   0  0  0  0  0  0  0  0  0  0  0  0
    7.0681   -0.7042    0.0000 N   0  0  0  0  0  0  0  0  0  0  0  0
    8.1288    0.3565    0.0000 N   0  0  0  0  0  0  0  0  0  0  0  0
    7.7406    1.8054    0.0000 N   0  0  0  0  0  0  0  0  0  0  0  0
    6.2917    2.1936    0.0000 N   0  0  0  0  0  0  0  0  0  0  0  0
    5.2310    1.1329    0.0000 N   0  0  0  0  0  0  0  0  0  0  0  0
    0.7500   -1.2990    0.0000 C   0  0  0  0  0  0  0  0  0  0  0  0
    1.5000    0.0000    0.0000 C   0  0  0  0  0  0  0  0  0  0  0  0
    0.7500    1.2990    0.0000 C   0  0  0  0  0  0  0  0  0  0  0  0
   -0.7500    1.2990    0.0000 C   0  0  0  0  0  0  0  0  0  0  0  0
   -1.5000    0.0000    0.0000 C   0  0  0  0  0  0  0  0  0  0  0  0
   -0.7500   -1.2990    0.0000 C   0  0  0  0  0  0  0  0  0  0  0  0
   -2.0490   -2.0490    0.0000 C   0  0  0  0  0  0  0  0  0  0  0  0
   -2.7990   -0.7500    0.0000 C   0  0  0  0  0  0  0  0  0  0  0  0
   -4.2990   -0.7500    0.0000 C   0  0  0  0  0  0  0  0  0  0  0  0
   -5.0490   -2.0490    0.0000 C   0  0  0  0  0  0  0  0  0  0  0  0
   -4.2990   -3.3481    0.0000 C   0  0  0  0  0  0  0  0  0  0  0  0
   -2.7990   -3.3481    0.0000 C   0  0  0  0  0  0  0  0  0  0  0  0
   -2.7990   -4.8481    0.0000 C   0  0  0  0  0  0  0  0  0  0  0  0
   -4.2990   -4.8481    0.0000 C   0  0  0  0  0  0  0  0  0  0  0  0
   -5.0490   -6.1471    0.0000 C   0  0  0  0  0  0  0  0  0  0  0  0
   -4.2990   -7.4462    0.0000 C   0  0  0  0  0  0  0  0  0  0  0  0
   -2.7990   -7.4462    0.0000 C   0  0  0  0  0  0  0  0  0  0  0  0
   -2.0490   -6.1471    0.0000 C   0  0  0  0  0  0  0  0  0  0  0  0
   -0.7500   -6.8971    0.0000 C   0  0  0  0  0  0  0  0  0  0  0  0
   -1.5000   -8.1962    0.0000 C   0  0  0  0  0  0  0  0  0  0  0  0
   -0.7500   -9.4952    0.0000 C   0  0  0  0  0  0  0  0  0  0  0  0
    0.7500   -9.4952    0.0000 C   0  0  0  0  0  0  0  0  0  0  0  0
    1.5000   -8.1962    0.0000 C   0  0  0  0  0  0  0  0  0  0  0  0
    0.7500   -6.8971    0.0000 C   0  0  0  0  0  0  0  0  0  0  0  0
  1  2  1  0
  2  3  1  0
  3  4  1  0
  4  5  1  0
  4  6  1  0
  6  7  1  0
  7  8  1  0
  8  9  1  0
  9 10  2  0
  9 11  1  0
 11 12  1  0
 12 13  2  0
 13 14  1  0
 14 15  2  0
 15 16  1  0
 16 17  2  0
  8 18  1  0
 18 19  2  0
 19 20  1  0
 20 21  2  0
 21 22  1  0
 22 23  2  0
 23 24  1  0
 24 25  2  0
 25 26  1  0
 26 27  2  0
 27 28  1  0
 28 29  2  0
 29 30  1  0
 30 31  2  0
 31 32  1  0
 32 33  2  0
 33 34  1  0
 34 35  2  0
 35 36  1  0
 36 37  2  0
 37 38  1  0
 38 39  2  0
 39 40  1  0
 40 41  2  0
 41  4  1  0
 17 12  1  0
 23 18  1  0
 29 24  1  0
 35 30  1  0
 41 36  1  0
M  END
>  <Title>  (295) 
idAAJKgen8

$$$$

     RDKit          2D

 46 52  0  0  0  0  0  0  0  0999 V2000
   -4.4037   -8.4296    0.0000 C   0  0  0  0  0  0  0  0  0  0  0  0
   -3.6537   -7.1305    0.0000 C   0  0  0  0  0  0  0  0  0  0  0  0
   -5.1427   -7.3119    0.0000 C   0  0  0  0  0  0  0  0  0  0  0  0
   -2.7498   -8.3276    0.0000 C   0  0  0  0  0  0  0  0  0  0  0  0
   -3.7603   -9.4361    0.0000 O   0  0  0  0  0  0  0  0  0  0  0  0
   -1.4745   -9.1172    0.0000 O   0  0  0  0  0  0  0  0  0  0  0  0
   -0.0000   -9.3928    0.0000 C   0  0  0  0  0  0  0  0  0  0  0  0
    0.2756  -10.8673    0.0000 C   0  0  0  0  0  0  0  0  0  0  0  0
    1.7501  -10.5917    0.0000 C   0  0  0  0  0  0  0  0  0  0  0  0
    2.9876  -11.4394    0.0000 C   0  0  0  0  0  0  0  0  0  0  0  0
    4.3405  -10.7915    0.0000 O   0  0  0  0  0  0  0  0  0  0  0  0
    2.8722  -12.9349    0.0000 N   0  0  0  0  0  0  0  0  0  0  0  0
    4.1097  -13.7826    0.0000 C   0  0  0  0  0  0  0  0  0  0  0  0
    3.9943  -15.2782    0.0000 N   0  0  0  0  0  0  0  0  0  0  0  0
    5.2318  -16.1259    0.0000 N   0  0  0  0  0  0  0  0  0  0  0  0
    6.5847  -15.4780    0.0000 N   0  0  0  0  0  0  0  0  0  0  0  0
    6.7001  -13.9825    0.0000 N   0  0  0  0  0  0  0  0  0  0  0  0
    5.4626  -13.1348    0.0000 N   0  0  0  0  0  0  0  0  0  0  0  0
    1.4745   -9.1172    0.0000 C   0  0  0  0  0  0  0  0  0  0  0  0
    2.7498   -8.3276    0.0000 C   0  0  0  0  0  0  0  0  0  0  0  0
    3.6537   -7.1305    0.0000 C   0  0  0  0  0  0  0  0  0  0  0  0
    4.0642   -5.6878    0.0000 C   0  0  0  0  0  0  0  0  0  0  0  0
    3.9258   -4.1942    0.0000 C   0  0  0  0  0  0  0  0  0  0  0  0
    3.2572   -2.8514    0.0000 C   0  0  0  0  0  0  0  0  0  0  0  0
    4.5609   -2.1095    0.0000 C   0  0  0  0  0  0  0  0  0  0  0  0
    4.2580   -0.6403    0.0000 C   0  0  0  0  0  0  0  0  0  0  0  0
    2.7672   -0.4744    0.0000 C   0  0  0  0  0  0  0  0  0  0  0  0
    2.1487   -1.8409    0.0000 C   0  0  0  0  0  0  0  0  0  0  0  0
    0.7500   -1.2990    0.0000 C   0  0  0  0  0  0  0  0  0  0  0  0
    1.5000    0.0000    0.0000 C   0  0  0  0  0  0  0  0  0  0  0  0
    0.7500    1.2990    0.0000 C   0  0  0  0  0  0  0  0  0  0  0  0
   -0.7500    1.2990    0.0000 C   0  0  0  0  0  0  0  0  0  0  0  0
   -1.5000    0.0000    0.0000 C   0  0  0  0  0  0  0  0  0  0  0  0
   -0.7500   -1.2990    0.0000 C   0  0  0  0  0  0  0  0  0  0  0  0
   -2.1487   -1.8409    0.0000 C   0  0  0  0  0  0  0  0  0  0  0  0
   -2.4696   -0.3756    0.0000 C   0  0  0  0  0  0  0  0  0  0  0  0
   -3.8990    0.0791    0.0000 C   0  0  0  0  0  0  0  0  0  0  0  0
   -5.0075   -0.9314    0.0000 C   0  0  0  0  0  0  0  0  0  0  0  0
   -4.6866   -2.3967    0.0000 C   0  0  0  0  0  0  0  0  0  0  0  0
   -3.2572   -2.8514    0.0000 C   0  0  0  0  0  0  0  0  0  0  0  0
   -3.9258   -4.1942    0.0000 C   0  0  0  0  0  0  0  0  0  0  0  0
   -5.1501   -3.3275    0.0000 C   0  0  0  0  0  0  0  0  0  0  0  0
   -6.5128   -3.9545    0.0000 C   0  0  0  0  0  0  0  0  0  0  0  0
   -6.6512   -5.4481    0.0000 C   0  0  0  0  0  0  0  0  0  0  0  0
   -5.4269   -6.3147    0.0000 C   0  0  0  0  0  0  0  0  0  0  0  0
   -4.0642   -5.6878    0.0000 C   0  0  0  0  0  0  0  0  0  0  0  0
  1  2  1  0
  2  3  1  0
  2  4  1  0
  4  5  2  0
  4  6  1  0
  6  7  1  0
  7  8  2  0
  8  9  1  0
  9 10  1  0
 10 11  2  0
 10 12  1  0
 12 13  1  0
 13 14  2  0
 14 15  1  0
 15 16  2  0
 16 17  1  0
 17 18  2  0
  9 19  1  0
 19 20  2  0
 20 21  1  0
 21 22  2  0
 22 23  1  0
 23 24  2  0
 24 25  1  0
 25 26  2  0
 26 27  1  0
 27 28  2  0
 28 29  1  0
 29 30  2  0
 30 31  1  0
 31 32  2  0
 32 33  1  0
 33 34  2  0
 34 35  1  0
 35 36  2  0
 36 37  1  0
 37 38  2  0
 38 39  1  0
 39 40  2  0
 40 41  1  0
 41 42  2  0
 42 43  1  0
 43 44  2  0
 44 45  1  0
 45 46  2  0
 46  2  1  0
 19  7  1  0
 28 24  1  0
 34 29  1  0
 40 35  1  0
 46 41  1  0
 18 13  1  0
M  END
>  <Title>  (296) 
idAAJLgen8

$$$$

     RDKit          2D

 20 22  0  0  0  0  0  0  0  0999 V2000
   -3.0000   -2.5981    0.0000 C   0  0  0  0  0  0  0  0  0  0  0  0
   -1.5000   -2.5981    0.0000 C   0  0  0  0  0  0  0  0  0  0  0  0
   -0.7500   -3.8971    0.0000 C   0  0  0  0  0  0  0  0  0  0  0  0
    0.7500   -3.8971    0.0000 C   0  0  0  0  0  0  0  0  0  0  0  0
    1.5000   -2.5981    0.0000 C   0  0  0  0  0  0  0  0  0  0  0  0
    3.0000   -2.5981    0.0000 C   0  0  0  0  0  0  0  0  0  0  0  0
    3.7500   -1.2990    0.0000 O   0  0  0  0  0  0  0  0  0  0  0  0
    3.7500   -3.8971    0.0000 N   0  0  0  0  0  0  0  0  0  0  0  0
    5.2500   -3.8971    0.0000 C   0  0  0  0  0  0  0  0  0  0  0  0
    6.0000   -5.1962    0.0000 N   0  0  0  0  0  0  0  0  0  0  0  0
    7.5000   -5.1962    0.0000 N   0  0  0  0  0  0  0  0  0  0  0  0
    8.2500   -3.8971    0.0000 N   0  0  0  0  0  0  0  0  0  0  0  0
    7.5000   -2.5981    0.0000 N   0  0  0  0  0  0  0  0  0  0  0  0
    6.0000   -2.5981    0.0000 N   0  0  0  0  0  0  0  0  0  0  0  0
    0.7500   -1.2990    0.0000 C   0  0  0  0  0  0  0  0  0  0  0  0
    1.5000    0.0000    0.0000 C   0  0  0  0  0  0  0  0  0  0  0  0
    0.7500    1.2990    0.0000 C   0  0  0  0  0  0  0  0  0  0  0  0
   -0.7500    1.2990    0.0000 C   0  0  0  0  0  0  0  0  0  0  0  0
   -1.5000    0.0000    0.0000 C   0  0  0  0  0  0  0  0  0  0  0  0
   -0.7500   -1.2990    0.0000 C   0  0  0  0  0  0  0  0  0  0  0  0
  1  2  1  0
  2  3  1  0
  3  4  1  0
  4  5  1  0
  5  6  1  0
  6  7  2  0
  6  8  1  0
  8  9  1  0
  9 10  2  0
 10 11  1  0
 11 12  2  0
 12 13  1  0
 13 14  2  0
  5 15  1  0
 15 16  2  0
 16 17  1  0
 17 18  2  0
 18 19  1  0
 19 20  2  0
 20  2  1  0
 14  9  1  0
 20 15  1  0
M  END
>  <Title>  (297) 
idAAJMgen8

$$$$

     RDKit          2D

 94 94  0  0  0  0  0  0  0  0999 V2000
   23.4677   -0.0000    0.0000 C   0  0  0  0  0  0  0  0  0  0  0  0
   21.9677    0.0000    0.0000 C   0  0  0  0  0  0  0  0  0  0  0  0
   21.9164   -1.4991    0.0000 C   0  0  0  0  0  0  0  0  0  0  0  0
   21.7630   -2.9913    0.0000 C   0  0  0  0  0  0  0  0  0  0  0  0
   21.5082   -4.4695    0.0000 C   0  0  0  0  0  0  0  0  0  0  0  0
   22.9768   -4.7746    0.0000 C   0  0  0  0  0  0  0  0  0  0  0  0
   21.1530   -5.9268    0.0000 C   0  0  0  0  0  0  0  0  0  0  0  0
   20.6993   -7.3565    0.0000 C   0  0  0  0  0  0  0  0  0  0  0  0
   20.1490   -8.7519    0.0000 C   0  0  0  0  0  0  0  0  0  0  0  0
   19.5048  -10.1065    0.0000 C   0  0  0  0  0  0  0  0  0  0  0  0
   18.7696  -11.4140    0.0000 C   0  0  0  0  0  0  0  0  0  0  0  0
   17.9469  -12.6683    0.0000 C   0  0  0  0  0  0  0  0  0  0  0  0
   17.0406  -13.8635    0.0000 C   0  0  0  0  0  0  0  0  0  0  0  0
   16.0547  -14.9941    0.0000 C   0  0  0  0  0  0  0  0  0  0  0  0
   14.9941  -16.0547    0.0000 C   0  0  0  0  0  0  0  0  0  0  0  0
   13.8635  -17.0406    0.0000 C   0  0  0  0  0  0  0  0  0  0  0  0
   12.6683  -17.9469    0.0000 C   0  0  0  0  0  0  0  0  0  0  0  0
   11.4140  -18.7696    0.0000 C   0  0  0  0  0  0  0  0  0  0  0  0
   10.1065  -19.5048    0.0000 C   0  0  0  0  0  0  0  0  0  0  0  0
    8.7519  -20.1490    0.0000 C   0  0  0  0  0  0  0  0  0  0  0  0
    7.3565  -20.6993    0.0000 C   0  0  0  0  0  0  0  0  0  0  0  0
    5.9268  -21.1530    0.0000 C   0  0  0  0  0  0  0  0  0  0  0  0
    4.4695  -21.5082    0.0000 C   0  0  0  0  0  0  0  0  0  0  0  0
    2.9913  -21.7630    0.0000 C   0  0  0  0  0  0  0  0  0  0  0  0
    1.4991  -21.9164    0.0000 C   0  0  0  0  0  0  0  0  0  0  0  0
   -0.0000  -21.9677    0.0000 C   0  0  0  0  0  0  0  0  0  0  0  0
   -1.4991  -21.9164    0.0000 C   0  0  0  0  0  0  0  0  0  0  0  0
   -2.9913  -21.7630    0.0000 C   0  0  0  0  0  0  0  0  0  0  0  0
   -4.4695  -21.5082    0.0000 C   0  0  0  0  0  0  0  0  0  0  0  0
   -5.9268  -21.1530    0.0000 C   0  0  0  0  0  0  0  0  0  0  0  0
   -7.3565  -20.6993    0.0000 C   0  0  0  0  0  0  0  0  0  0  0  0
   -8.7519  -20.1490    0.0000 C   0  0  0  0  0  0  0  0  0  0  0  0
  -10.1065  -19.5048    0.0000 C   0  0  0  0  0  0  0  0  0  0  0  0
  -11.4140  -18.7696    0.0000 C   0  0  0  0  0  0  0  0  0  0  0  0
  -12.6683  -17.9469    0.0000 C   0  0  0  0  0  0  0  0  0  0  0  0
  -13.8635  -17.0406    0.0000 C   0  0  0  0  0  0  0  0  0  0  0  0
  -14.9941  -16.0547    0.0000 C   0  0  0  0  0  0  0  0  0  0  0  0
  -16.0547  -14.9941    0.0000 C   0  0  0  0  0  0  0  0  0  0  0  0
  -17.0406  -13.8635    0.0000 C   0  0  0  0  0  0  0  0  0  0  0  0
  -17.9469  -12.6683    0.0000 C   0  0  0  0  0  0  0  0  0  0  0  0
  -18.7696  -11.4140    0.0000 C   0  0  0  0  0  0  0  0  0  0  0  0
  -19.5048  -10.1065    0.0000 C   0  0  0  0  0  0  0  0  0  0  0  0
  -20.1490   -8.7519    0.0000 C   0  0  0  0  0  0  0  0  0  0  0  0
  -20.6993   -7.3565    0.0000 C   0  0  0  0  0  0  0  0  0  0  0  0
  -21.1530   -5.9268    0.0000 C   0  0  0  0  0  0  0  0  0  0  0  0
  -21.5082   -4.4695    0.0000 C   0  0  0  0  0  0  0  0  0  0  0  0
  -21.7630   -2.9913    0.0000 C   0  0  0  0  0  0  0  0  0  0  0  0
  -21.9164   -1.4991    0.0000 C   0  0  0  0  0  0  0  0  0  0  0  0
  -21.9677    0.0000    0.0000 C   0  0  0  0  0  0  0  0  0  0  0  0
  -21.9164    1.4991    0.0000 C   0  0  0  0  0  0  0  0  0  0  0  0
  -21.7630    2.9913    0.0000 C   0  0  0  0  0  0  0  0  0  0  0  0
  -21.5082    4.4695    0.0000 C   0  0  0  0  0  0  0  0  0  0  0  0
  -21.1530    5.9268    0.0000 C   0  0  0  0  0  0  0  0  0  0  0  0
  -20.6993    7.3565    0.0000 C   0  0  0  0  0  0  0  0  0  0  0  0
  -20.1490    8.7519    0.0000 C   0  0  0  0  0  0  0  0  0  0  0  0
  -19.5048   10.1065    0.0000 C   0  0  0  0  0  0  0  0  0  0  0  0
  -18.7696   11.4140    0.0000 C   0  0  0  0  0  0  0  0  0  0  0  0
  -17.9469   12.6683    0.0000 C   0  0  0  0  0  0  0  0  0  0  0  0
  -17.0406   13.8635    0.0000 C   0  0  0  0  0  0  0  0  0  0  0  0
  -16.0547   14.9941    0.0000 C   0  0  0  0  0  0  0  0  0  0  0  0
  -14.9941   16.0547    0.0000 C   0  0  0  0  0  0  0  0  0  0  0  0
  -13.8635   17.0406    0.0000 C   0  0  0  0  0  0  0  0  0  0  0  0
  -12.6683   17.9469    0.0000 C   0  0  0  0  0  0  0  0  0  0  0  0
  -11.4140   18.7696    0.0000 C   0  0  0  0  0  0  0  0  0  0  0  0
  -10.1065   19.5048    0.0000 C   0  0  0  0  0  0  0  0  0  0  0  0
   -8.7519   20.1490    0.0000 C   0  0  0  0  0  0  0  0  0  0  0  0
   -7.3565   20.6993    0.0000 C   0  0  0  0  0  0  0  0  0  0  0  0
   -5.9268   21.1530    0.0000 C   0  0  0  0  0  0  0  0  0  0  0  0
   -4.4695   21.5082    0.0000 C   0  0  0  0  0  0  0  0  0  0  0  0
   -2.9913   21.7630    0.0000 C   0  0  0  0  0  0  0  0  0  0  0  0
   -1.4991   21.9164    0.0000 C   0  0  0  0  0  0  0  0  0  0  0  0
    0.0000   21.9677    0.0000 C   0  0  0  0  0  0  0  0  0  0  0  0
    1.4991   21.9164    0.0000 C   0  0  0  0  0  0  0  0  0  0  0  0
    2.9913   21.7630    0.0000 C   0  0  0  0  0  0  0  0  0  0  0  0
    4.4695   21.5082    0.0000 C   0  0  0  0  0  0  0  0  0  0  0  0
    5.9268   21.1530    0.0000 C   0  0  0  0  0  0  0  0  0  0  0  0
    7.3565   20.6993    0.0000 C   0  0  0  0  0  0  0  0  0  0  0  0
    8.7519   20.1490    0.0000 C   0  0  0  0  0  0  0  0  0  0  0  0
   10.1065   19.5048    0.0000 C   0  0  0  0  0  0  0  0  0  0  0  0
   11.4140   18.7696    0.0000 C   0  0  0  0  0  0  0  0  0  0  0  0
   12.6683   17.9469    0.0000 C   0  0  0  0  0  0  0  0  0  0  0  0
   13.8635   17.0406    0.0000 C   0  0  0  0  0  0  0  0  0  0  0  0
   14.9941   16.0547    0.0000 C   0  0  0  0  0  0  0  0  0  0  0  0
   16.0547   14.9941    0.0000 C   0  0  0  0  0  0  0  0  0  0  0  0
   17.0406   13.8635    0.0000 C   0  0  0  0  0  0  0  0  0  0  0  0
   17.9469   12.6683    0.0000 C   0  0  0  0  0  0  0  0  0  0  0  0
   18.7696   11.4140    0.0000 C   0  0  0  0  0  0  0  0  0  0  0  0
   19.5048   10.1065    0.0000 C   0  0  0  0  0  0  0  0  0  0  0  0
   20.1490    8.7519    0.0000 C   0  0  0  0  0  0  0  0  0  0  0  0
   20.6993    7.3565    0.0000 C   0  0  0  0  0  0  0  0  0  0  0  0
   21.1530    5.9268    0.0000 C   0  0  0  0  0  0  0  0  0  0  0  0
   21.5082    4.4695    0.0000 C   0  0  0  0  0  0  0  0  0  0  0  0
   21.7630    2.9913    0.0000 C   0  0  0  0  0  0  0  0  0  0  0  0
   21.9164    1.4991    0.0000 C   0  0  0  0  0  0  0  0  0  0  0  0
  1  2  1  0
  2  3  2  0
  3  4  1  0
  4  5  1  0
  5  6  1  0
  5  7  1  0
  7  8  1  0
  8  9  1  0
  9 10  1  0
 10 11  1  0
 11 12  1  0
 12 13  1  0
 13 14  1  0
 14 15  1  0
 15 16  1  0
 16 17  1  0
 17 18  1  0
 18 19  1  0
 19 20  1  0
 20 21  1  0
 21 22  1  0
 22 23  1  0
 23 24  1  0
 24 25  1  0
 25 26  1  0
 26 27  1  0
 27 28  1  0
 28 29  1  0
 29 30  1  0
 30 31  1  0
 31 32  1  0
 32 33  1  0
 33 34  1  0
 34 35  1  0
 35 36  1  0
 36 37  1  0
 37 38  1  0
 38 39  1  0
 39 40  1  0
 40 41  1  0
 41 42  1  0
 42 43  1  0
 43 44  1  0
 44 45  1  0
 45 46  1  0
 46 47  1  0
 47 48  1  0
 48 49  1  0
 49 50  1  0
 50 51  1  0
 51 52  1  0
 52 53  1  0
 53 54  1  0
 54 55  1  0
 55 56  1  0
 56 57  1  0
 57 58  1  0
 58 59  1  0
 59 60  1  0
 60 61  1  0
 61 62  1  0
 62 63  1  0
 63 64  1  0
 64 65  1  0
 65 66  1  0
 66 67  1  0
 67 68  1  0
 68 69  1  0
 69 70  1  0
 70 71  1  0
 71 72  1  0
 72 73  1  0
 73 74  1  0
 74 75  1  0
 75 76  1  0
 76 77  1  0
 77 78  1  0
 78 79  1  0
 79 80  1  0
 80 81  1  0
 81 82  1  0
 82 83  1  0
 83 84  1  0
 84 85  1  0
 85 86  1  0
 86 87  1  0
 87 88  1  0
 88 89  1  0
 89 90  1  0
 90 91  1  0
 91 92  1  0
 92 93  1  0
 93 94  2  0
 94  2  1  0
M  END
>  <Title>  (298) 
idAAJNgen8

$$$$

     RDKit          2D

103103  0  0  0  0  0  0  0  0999 V2000
   24.5933    0.0000    0.0000 C   0  0  0  0  0  0  0  0  0  0  0  0
   24.5475    1.4993    0.0000 C   0  0  0  0  0  0  0  0  0  0  0  0
   24.4104    2.9930    0.0000 C   0  0  0  0  0  0  0  0  0  0  0  0
   24.1826    4.4756    0.0000 C   0  0  0  0  0  0  0  0  0  0  0  0
   23.8647    5.9416    0.0000 C   0  0  0  0  0  0  0  0  0  0  0  0
   23.4581    7.3854    0.0000 C   0  0  0  0  0  0  0  0  0  0  0  0
   22.9643    8.8018    0.0000 C   0  0  0  0  0  0  0  0  0  0  0  0
   22.3850   10.1854    0.0000 C   0  0  0  0  0  0  0  0  0  0  0  0
   21.7224   11.5311    0.0000 C   0  0  0  0  0  0  0  0  0  0  0  0
   20.9790   12.8339    0.0000 C   0  0  0  0  0  0  0  0  0  0  0  0
   20.1576   14.0890    0.0000 C   0  0  0  0  0  0  0  0  0  0  0  0
   19.2611   15.2917    0.0000 C   0  0  0  0  0  0  0  0  0  0  0  0
   18.2931   16.4375    0.0000 C   0  0  0  0  0  0  0  0  0  0  0  0
   17.2569   17.5222    0.0000 C   0  0  0  0  0  0  0  0  0  0  0  0
   16.1566   18.5416    0.0000 C   0  0  0  0  0  0  0  0  0  0  0  0
   14.9962   19.4921    0.0000 C   0  0  0  0  0  0  0  0  0  0  0  0
   13.7800   20.3701    0.0000 C   0  0  0  0  0  0  0  0  0  0  0  0
   12.5125   21.1723    0.0000 C   0  0  0  0  0  0  0  0  0  0  0  0
   11.1985   21.8957    0.0000 C   0  0  0  0  0  0  0  0  0  0  0  0
    9.8428   22.5377    0.0000 C   0  0  0  0  0  0  0  0  0  0  0  0
    8.4505   23.0958    0.0000 C   0  0  0  0  0  0  0  0  0  0  0  0
    7.0268   23.5680    0.0000 C   0  0  0  0  0  0  0  0  0  0  0  0
    5.5769   23.9526    0.0000 C   0  0  0  0  0  0  0  0  0  0  0  0
    4.1063   24.2480    0.0000 C   0  0  0  0  0  0  0  0  0  0  0  0
    2.6204   24.4532    0.0000 C   0  0  0  0  0  0  0  0  0  0  0  0
    1.1248   24.5675    0.0000 C   0  0  0  0  0  0  0  0  0  0  0  0
   -0.3750   24.5904    0.0000 C   0  0  0  0  0  0  0  0  0  0  0  0
   -1.8735   24.5218    0.0000 C   0  0  0  0  0  0  0  0  0  0  0  0
   -3.3649   24.3620    0.0000 C   0  0  0  0  0  0  0  0  0  0  0  0
   -4.8439   24.1115    0.0000 C   0  0  0  0  0  0  0  0  0  0  0  0
   -6.3048   23.7714    0.0000 C   0  0  0  0  0  0  0  0  0  0  0  0
   -7.7423   23.3428    0.0000 C   0  0  0  0  0  0  0  0  0  0  0  0
   -9.1509   22.8274    0.0000 C   0  0  0  0  0  0  0  0  0  0  0  0
  -10.5256   22.2270    0.0000 C   0  0  0  0  0  0  0  0  0  0  0  0
  -11.8610   21.5440    0.0000 C   0  0  0  0  0  0  0  0  0  0  0  0
  -13.1524   20.7808    0.0000 C   0  0  0  0  0  0  0  0  0  0  0  0
  -14.3948   19.9404    0.0000 C   0  0  0  0  0  0  0  0  0  0  0  0
  -15.5837   19.0257    0.0000 C   0  0  0  0  0  0  0  0  0  0  0  0
  -16.7146   18.0403    0.0000 C   0  0  0  0  0  0  0  0  0  0  0  0
  -17.7833   16.9877    0.0000 C   0  0  0  0  0  0  0  0  0  0  0  0
  -18.7858   15.8720    0.0000 C   0  0  0  0  0  0  0  0  0  0  0  0
  -19.7185   14.6972    0.0000 C   0  0  0  0  0  0  0  0  0  0  0  0
  -20.5778   13.4678    0.0000 C   0  0  0  0  0  0  0  0  0  0  0  0
  -21.3606   12.1882    0.0000 C   0  0  0  0  0  0  0  0  0  0  0  0
  -22.0639   10.8633    0.0000 C   0  0  0  0  0  0  0  0  0  0  0  0
  -22.6852    9.4980    0.0000 C   0  0  0  0  0  0  0  0  0  0  0  0
  -23.2220    8.0973    0.0000 C   0  0  0  0  0  0  0  0  0  0  0  0
  -23.6724    6.6666    0.0000 C   0  0  0  0  0  0  0  0  0  0  0  0
  -24.0348    5.2110    0.0000 C   0  0  0  0  0  0  0  0  0  0  0  0
  -24.3078    3.7361    0.0000 C   0  0  0  0  0  0  0  0  0  0  0  0
  -24.4904    2.2472    0.0000 C   0  0  0  0  0  0  0  0  0  0  0  0
  -24.5818    0.7500    0.0000 C   0  0  0  0  0  0  0  0  0  0  0  0
  -24.5818   -0.7500    0.0000 C   0  0  0  0  0  0  0  0  0  0  0  0
  -24.4904   -2.2472    0.0000 C   0  0  0  0  0  0  0  0  0  0  0  0
  -24.3078   -3.7361    0.0000 C   0  0  0  0  0  0  0  0  0  0  0  0
  -24.0348   -5.2110    0.0000 C   0  0  0  0  0  0  0  0  0  0  0  0
  -23.6724   -6.6666    0.0000 C   0  0  0  0  0  0  0  0  0  0  0  0
  -23.2220   -8.0973    0.0000 C   0  0  0  0  0  0  0  0  0  0  0  0
  -22.6852   -9.4980    0.0000 C   0  0  0  0  0  0  0  0  0  0  0  0
  -22.0639  -10.8633    0.0000 C   0  0  0  0  0  0  0  0  0  0  0  0
  -21.3606  -12.1882    0.0000 C   0  0  0  0  0  0  0  0  0  0  0  0
  -20.5778  -13.4678    0.0000 C   0  0  0  0  0  0  0  0  0  0  0  0
  -19.7185  -14.6972    0.0000 C   0  0  0  0  0  0  0  0  0  0  0  0
  -18.7858  -15.8720    0.0000 C   0  0  0  0  0  0  0  0  0  0  0  0
  -17.7833  -16.9877    0.0000 C   0  0  0  0  0  0  0  0  0  0  0  0
  -16.7146  -18.0403    0.0000 C   0  0  0  0  0  0  0  0  0  0  0  0
  -15.5837  -19.0257    0.0000 C   0  0  0  0  0  0  0  0  0  0  0  0
  -14.3948  -19.9404    0.0000 C   0  0  0  0  0  0  0  0  0  0  0  0
  -13.1524  -20.7808    0.0000 C   0  0  0  0  0  0  0  0  0  0  0  0
  -11.8610  -21.5440    0.0000 C   0  0  0  0  0  0  0  0  0  0  0  0
  -10.5256  -22.2270    0.0000 C   0  0  0  0  0  0  0  0  0  0  0  0
   -9.1509  -22.8274    0.0000 C   0  0  0  0  0  0  0  0  0  0  0  0
   -7.7423  -23.3428    0.0000 C   0  0  0  0  0  0  0  0  0  0  0  0
   -6.3048  -23.7714    0.0000 C   0  0  0  0  0  0  0  0  0  0  0  0
   -4.8439  -24.1115    0.0000 C   0  0  0  0  0  0  0  0  0  0  0  0
   -3.3649  -24.3620    0.0000 C   0  0  0  0  0  0  0  0  0  0  0  0
   -1.8735  -24.5218    0.0000 C   0  0  0  0  0  0  0  0  0  0  0  0
   -0.3750  -24.5904    0.0000 C   0  0  0  0  0  0  0  0  0  0  0  0
    1.1248  -24.5675    0.0000 C   0  0  0  0  0  0  0  0  0  0  0  0
    2.6204  -24.4532    0.0000 C   0  0  0  0  0  0  0  0  0  0  0  0
    4.1063  -24.2480    0.0000 C   0  0  0  0  0  0  0  0  0  0  0  0
    5.5769  -23.9526    0.0000 C   0  0  0  0  0  0  0  0  0  0  0  0
    7.0268  -23.5680    0.0000 C   0  0  0  0  0  0  0  0  0  0  0  0
    8.4505  -23.0958    0.0000 C   0  0  0  0  0  0  0  0  0  0  0  0
    9.8428  -22.5377    0.0000 C   0  0  0  0  0  0  0  0  0  0  0  0
   11.1985  -21.8957    0.0000 C   0  0  0  0  0  0  0  0  0  0  0  0
   12.5125  -21.1723    0.0000 C   0  0  0  0  0  0  0  0  0  0  0  0
   13.7800  -20.3701    0.0000 C   0  0  0  0  0  0  0  0  0  0  0  0
   14.9962  -19.4921    0.0000 C   0  0  0  0  0  0  0  0  0  0  0  0
   16.1566  -18.5416    0.0000 C   0  0  0  0  0  0  0  0  0  0  0  0
   17.2569  -17.5222    0.0000 C   0  0  0  0  0  0  0  0  0  0  0  0
   18.2931  -16.4375    0.0000 C   0  0  0  0  0  0  0  0  0  0  0  0
   19.2611  -15.2917    0.0000 C   0  0  0  0  0  0  0  0  0  0  0  0
   20.1576  -14.0890    0.0000 C   0  0  0  0  0  0  0  0  0  0  0  0
   20.9790  -12.8339    0.0000 C   0  0  0  0  0  0  0  0  0  0  0  0
   21.7224  -11.5311    0.0000 C   0  0  0  0  0  0  0  0  0  0  0  0
   22.3850  -10.1854    0.0000 C   0  0  0  0  0  0  0  0  0  0  0  0
   22.9643   -8.8018    0.0000 C   0  0  0  0  0  0  0  0  0  0  0  0
   23.4581   -7.3854    0.0000 C   0  0  0  0  0  0  0  0  0  0  0  0
   23.8647   -5.9416    0.0000 C   0  0  0  0  0  0  0  0  0  0  0  0
   24.1826   -4.4756    0.0000 C   0  0  0  0  0  0  0  0  0  0  0  0
   24.4104   -2.9930    0.0000 C   0  0  0  0  0  0  0  0  0  0  0  0
   24.5475   -1.4993    0.0000 C   0  0  0  0  0  0  0  0  0  0  0  0
  1  2  1  0
  2  3  1  0
  3  4  1  0
  4  5  1  0
  5  6  1  0
  6  7  1  0
  7  8  1  0
  8  9  1  0
  9 10  1  0
 10 11  1  0
 11 12  1  0
 12 13  1  0
 13 14  1  0
 14 15  1  0
 15 16  1  0
 16 17  1  0
 17 18  1  0
 18 19  1  0
 19 20  1  0
 20 21  1  0
 21 22  1  0
 22 23  1  0
 23 24  1  0
 24 25  1  0
 25 26  1  0
 26 27  1  0
 27 28  1  0
 28 29  1  0
 29 30  1  0
 30 31  1  0
 31 32  1  0
 32 33  1  0
 33 34  1  0
 34 35  1  0
 35 36  1  0
 36 37  1  0
 37 38  1  0
 38 39  1  0
 39 40  1  0
 40 41  1  0
 41 42  1  0
 42 43  1  0
 43 44  1  0
 44 45  1  0
 45 46  1  0
 46 47  1  0
 47 48  1  0
 48 49  1  0
 49 50  1  0
 50 51  1  0
 51 52  1  0
 52 53  1  0
 53 54  1  0
 54 55  1  0
 55 56  1  0
 56 57  1  0
 57 58  1  0
 58 59  1  0
 59 60  1  0
 60 61  1  0
 61 62  1  0
 62 63  1  0
 63 64  1  0
 64 65  1  0
 65 66  1  0
 66 67  1  0
 67 68  1  0
 68 69  1  0
 69 70  1  0
 70 71  1  0
 71 72  1  0
 72 73  1  0
 73 74  1  0
 74 75  1  0
 75 76  1  0
 76 77  1  0
 77 78  1  0
 78 79  1  0
 79 80  1  0
 80 81  1  0
 81 82  1  0
 82 83  1  0
 83 84  1  0
 84 85  1  0
 85 86  1  0
 86 87  1  0
 87 88  1  0
 88 89  1  0
 89 90  1  0
 90 91  1  0
 91 92  1  0
 92 93  1  0
 93 94  1  0
 94 95  1  0
 95 96  1  0
 96 97  1  0
 97 98  1  0
 98 99  1  0
 99100  1  0
100101  1  0
101102  1  0
102103  1  0
103  1  1  0
M  END
>  <Title>  (299) 
idAAJOgen8

$$$$

     RDKit          2D

 66 75  0  0  0  0  0  0  0  0999 V2000
    6.5139   -6.7631    0.0000 C   0  0  0  0  0  0  0  0  0  0  0  0
    5.0181   -6.6510    0.0000 C   0  0  0  0  0  0  0  0  0  0  0  0
    4.9060   -5.1552    0.0000 C   0  0  0  0  0  0  0  0  0  0  0  0
    4.3580   -3.7589    0.0000 C   0  0  0  0  0  0  0  0  0  0  0  0
    3.4227   -2.5862    0.0000 C   0  0  0  0  0  0  0  0  0  0  0  0
    4.4430   -1.4866    0.0000 O   0  0  0  0  0  0  0  0  0  0  0  0
    2.1834   -1.7412    0.0000 C   0  0  0  0  0  0  0  0  0  0  0  0
    2.8342   -0.3897    0.0000 C   0  0  0  0  0  0  0  0  0  0  0  0
    1.9892    0.8496    0.0000 O   0  0  0  0  0  0  0  0  0  0  0  0
    4.3300   -0.2776    0.0000 N   0  0  0  0  0  0  0  0  0  0  0  0
    4.9808    1.0738    0.0000 C   0  0  0  0  0  0  0  0  0  0  0  0
    6.4766    1.1859    0.0000 N   0  0  0  0  0  0  0  0  0  0  0  0
    7.1274    2.5374    0.0000 N   0  0  0  0  0  0  0  0  0  0  0  0
    6.2825    3.7767    0.0000 N   0  0  0  0  0  0  0  0  0  0  0  0
    4.7867    3.6646    0.0000 N   0  0  0  0  0  0  0  0  0  0  0  0
    4.1358    2.3132    0.0000 N   0  0  0  0  0  0  0  0  0  0  0  0
    0.7500   -1.2990    0.0000 C   0  0  0  0  0  0  0  0  0  0  0  0
    1.5000    0.0000    0.0000 C   0  0  0  0  0  0  0  0  0  0  0  0
    0.7500    1.2990    0.0000 C   0  0  0  0  0  0  0  0  0  0  0  0
   -0.7500    1.2990    0.0000 C   0  0  0  0  0  0  0  0  0  0  0  0
   -1.5000    0.0000    0.0000 C   0  0  0  0  0  0  0  0  0  0  0  0
   -0.7500   -1.2990    0.0000 C   0  0  0  0  0  0  0  0  0  0  0  0
   -2.1834   -1.7412    0.0000 C   0  0  0  0  0  0  0  0  0  0  0  0
   -2.2955   -0.2454    0.0000 C   0  0  0  0  0  0  0  0  0  0  0  0
   -3.6469    0.4055    0.0000 C   0  0  0  0  0  0  0  0  0  0  0  0
   -4.8863   -0.4395    0.0000 C   0  0  0  0  0  0  0  0  0  0  0  0
   -4.7742   -1.9353    0.0000 C   0  0  0  0  0  0  0  0  0  0  0  0
   -3.4227   -2.5862    0.0000 C   0  0  0  0  0  0  0  0  0  0  0  0
   -4.3580   -3.7589    0.0000 C   0  0  0  0  0  0  0  0  0  0  0  0
   -5.2932   -2.5862    0.0000 C   0  0  0  0  0  0  0  0  0  0  0  0
   -6.7764   -2.8097    0.0000 C   0  0  0  0  0  0  0  0  0  0  0  0
   -7.3244   -4.2060    0.0000 C   0  0  0  0  0  0  0  0  0  0  0  0
   -6.3892   -5.3788    0.0000 C   0  0  0  0  0  0  0  0  0  0  0  0
   -4.9060   -5.1552    0.0000 C   0  0  0  0  0  0  0  0  0  0  0  0
   -5.0181   -6.6510    0.0000 C   0  0  0  0  0  0  0  0  0  0  0  0
   -6.4514   -6.2089    0.0000 C   0  0  0  0  0  0  0  0  0  0  0  0
   -7.5510   -7.2291    0.0000 C   0  0  0  0  0  0  0  0  0  0  0  0
   -7.2172   -8.6915    0.0000 C   0  0  0  0  0  0  0  0  0  0  0  0
   -5.7839   -9.1337    0.0000 C   0  0  0  0  0  0  0  0  0  0  0  0
   -4.6843   -8.1134    0.0000 C   0  0  0  0  0  0  0  0  0  0  0  0
   -3.9343   -9.4124    0.0000 C   0  0  0  0  0  0  0  0  0  0  0  0
   -5.3676   -9.8546    0.0000 C   0  0  0  0  0  0  0  0  0  0  0  0
   -5.7014  -11.3170    0.0000 C   0  0  0  0  0  0  0  0  0  0  0  0
   -4.6018  -12.3372    0.0000 C   0  0  0  0  0  0  0  0  0  0  0  0
   -3.1685  -11.8951    0.0000 C   0  0  0  0  0  0  0  0  0  0  0  0
   -2.8347  -10.4327    0.0000 C   0  0  0  0  0  0  0  0  0  0  0  0
   -1.4832  -11.0835    0.0000 C   0  0  0  0  0  0  0  0  0  0  0  0
   -2.4185  -12.2563    0.0000 C   0  0  0  0  0  0  0  0  0  0  0  0
   -1.8705  -13.6526    0.0000 C   0  0  0  0  0  0  0  0  0  0  0  0
   -0.3872  -13.8762    0.0000 C   0  0  0  0  0  0  0  0  0  0  0  0
    0.1608  -15.2725    0.0000 C   0  0  0  0  0  0  0  0  0  0  0  0
    0.7088  -16.6688    0.0000 N   0  0  0  0  0  0  0  0  0  0  0  0
    0.5480  -12.7034    0.0000 C   0  0  0  0  0  0  0  0  0  0  0  0
   -0.0000  -11.3071    0.0000 C   0  0  0  0  0  0  0  0  0  0  0  0
    1.4832  -11.0835    0.0000 C   0  0  0  0  0  0  0  0  0  0  0  0
    1.3712  -12.5793    0.0000 C   0  0  0  0  0  0  0  0  0  0  0  0
    2.6105  -13.4243    0.0000 C   0  0  0  0  0  0  0  0  0  0  0  0
    3.9620  -12.7735    0.0000 C   0  0  0  0  0  0  0  0  0  0  0  0
    4.0741  -11.2777    0.0000 C   0  0  0  0  0  0  0  0  0  0  0  0
    2.8347  -10.4327    0.0000 C   0  0  0  0  0  0  0  0  0  0  0  0
    3.9343   -9.4124    0.0000 C   0  0  0  0  0  0  0  0  0  0  0  0
    4.6843  -10.7115    0.0000 C   0  0  0  0  0  0  0  0  0  0  0  0
    6.1843  -10.7115    0.0000 C   0  0  0  0  0  0  0  0  0  0  0  0
    6.9343   -9.4124    0.0000 C   0  0  0  0  0  0  0  0  0  0  0  0
    6.1843   -8.1134    0.0000 C   0  0  0  0  0  0  0  0  0  0  0  0
    4.6843   -8.1134    0.0000 C   0  0  0  0  0  0  0  0  0  0  0  0
  1  2  1  0
  2  3  2  0
  3  4  1  0
  4  5  1  0
  5  6  1  0
  5  7  2  0
  7  8  1  0
  8  9  2  0
  8 10  1  0
 10 11  1  0
 11 12  2  0
 12 13  1  0
 13 14  2  0
 14 15  1  0
 15 16  2  0
  7 17  1  0
 17 18  2  0
 18 19  1  0
 19 20  2  0
 20 21  1  0
 21 22  2  0
 22 23  1  0
 23 24  2  0
 24 25  1  0
 25 26  2  0
 26 27  1  0
 27 28  2  0
 28 29  1  0
 29 30  2  0
 30 31  1  0
 31 32  2  0
 32 33  1  0
 33 34  2  0
 34 35  1  0
 35 36  2  0
 36 37  1  0
 37 38  2  0
 38 39  1  0
 39 40  2  0
 40 41  1  0
 41 42  2  0
 42 43  1  0
 43 44  2  0
 44 45  1  0
 45 46  2  0
 46 47  1  0
 47 48  2  0
 48 49  1  0
 49 50  2  0
 50 51  1  0
 51 52  3  0
 50 53  1  0
 53 54  2  0
 54 55  1  0
 55 56  2  0
 56 57  1  0
 57 58  2  0
 58 59  1  0
 59 60  2  0
 60 61  1  0
 61 62  2  0
 62 63  1  0
 63 64  2  0
 64 65  1  0
 65 66  2  0
 66  2  1  0
 16 11  1  0
 22 17  1  0
 28 23  1  0
 34 29  1  0
 40 35  1  0
 46 41  1  0
 54 47  1  0
 60 55  1  0
 66 61  1  0
M  END
>  <Title>  (300) 
idAAJPgen8

$$$$

     RDKit          2D

  5  4  0  0  0  0  0  0  0  0999 V2000
    0.0000    0.0000    0.0000 C   0  0  0  0  0  0  0  0  0  0  0  0
    1.2990    0.7500    0.0000 C   0  0  0  0  0  0  0  0  0  0  0  0
    2.5981    1.5000    0.0000 C   0  0  0  0  0  0  0  0  0  0  0  0
    2.0490   -0.5490    0.0000 C   0  0  0  0  0  0  0  0  0  0  0  0
    0.5490    2.0490    0.0000 C   0  0  0  0  0  0  0  0  0  0  0  0
  1  2  1  0
  2  3  1  0
  2  4  1  0
  2  5  1  0
M  END
>  <Title>  (301) 
idAAJQgen8

$$$$

     RDKit          2D

 14 14  0  0  0  0  0  0  0  0999 V2000
    2.7760    0.0000    0.0000 C   0  0  0  0  0  0  0  0  0  0  0  0
    1.2760    0.0000    0.0000 C   0  0  0  0  0  0  0  0  0  0  0  0
    0.3943    1.2135    0.0000 C   0  0  0  0  0  0  0  0  0  0  0  0
   -1.0323    0.7500    0.0000 C   0  0  0  0  0  0  0  0  0  0  0  0
   -2.2458    1.6317    0.0000 O   0  0  0  0  0  0  0  0  0  0  0  0
   -2.0890    3.1235    0.0000 C   0  0  0  0  0  0  0  0  0  0  0  0
   -3.3025    4.0051    0.0000 C   0  0  0  0  0  0  0  0  0  0  0  0
   -4.6729    3.3950    0.0000 O   0  0  0  0  0  0  0  0  0  0  0  0
   -3.1458    5.4969    0.0000 C   0  0  0  0  0  0  0  0  0  0  0  0
   -4.3593    6.3786    0.0000 C   0  0  0  0  0  0  0  0  0  0  0  0
   -4.2025    7.8704    0.0000 C   0  0  0  0  0  0  0  0  0  0  0  0
   -5.7296    5.7685    0.0000 C   0  0  0  0  0  0  0  0  0  0  0  0
   -1.0323   -0.7500    0.0000 C   0  0  0  0  0  0  0  0  0  0  0  0
    0.3943   -1.2135    0.0000 C   0  0  0  0  0  0  0  0  0  0  0  0
  1  2  1  0
  2  3  2  0
  3  4  1  0
  4  5  1  0
  5  6  1  0
  6  7  1  0
  7  8  1  0
  7  9  1  0
  9 10  1  0
 10 11  1  0
 10 12  1  0
  4 13  1  0
 13 14  1  0
 14  2  1  0
M  END
>  <Title>  (302) 
idAAJRgen8

$$$$

     RDKit          2D

 17 16  0  0  0  0  0  0  0  0999 V2000
    0.0000    0.0000    0.0000 C   0  0  0  0  0  0  0  0  0  0  0  0
    1.2990    0.7500    0.0000 O   0  0  0  0  0  0  0  0  0  0  0  0
    2.5981   -0.0000    0.0000 C   0  0  0  0  0  0  0  0  0  0  0  0
    3.8971    0.7500    0.0000 C   0  0  0  0  0  0  0  0  0  0  0  0
    5.1962    1.5000    0.0000 C   0  0  0  0  0  0  0  0  0  0  0  0
    6.4952    2.2500    0.0000 C   0  0  0  0  0  0  0  0  0  0  0  0
    7.7942    3.0000    0.0000 C   0  0  0  0  0  0  0  0  0  0  0  0
    9.0933    3.7500    0.0000 C   0  0  0  0  0  0  0  0  0  0  0  0
   10.3923    4.5000    0.0000 C   0  0  0  0  0  0  0  0  0  0  0  0
   11.6913    5.2500    0.0000 C   0  0  0  0  0  0  0  0  0  0  0  0
   12.9904    6.0000    0.0000 C   0  0  0  0  0  0  0  0  0  0  0  0
   14.2894    6.7500    0.0000 C   0  0  0  0  0  0  0  0  0  0  0  0
   15.5885    7.5000    0.0000 C   0  0  0  0  0  0  0  0  0  0  0  0
   16.8875    8.2500    0.0000 C   0  0  0  0  0  0  0  0  0  0  0  0
   18.1865    9.0000    0.0000 C   0  0  0  0  0  0  0  0  0  0  0  0
   19.4856    9.7500    0.0000 C   0  0  0  0  0  0  0  0  0  0  0  0
   20.7846   10.5000    0.0000 N   0  0  0  0  0  0  0  0  0  0  0  0
  1  2  1  0
  2  3  1  0
  3  4  1  0
  4  5  3  0
  5  6  1  0
  6  7  3  0
  7  8  1  0
  8  9  3  0
  9 10  1  0
 10 11  3  0
 11 12  1  0
 12 13  3  0
 13 14  1  0
 14 15  3  0
 15 16  1  0
 16 17  3  0
M  END
>  <Title>  (303) 
idAAJSgen8

$$$$

     RDKit          2D

 13 13  0  0  0  0  0  0  0  0999 V2000
    6.0000   -2.5981    0.0000 C   0  0  0  0  0  0  0  0  0  0  0  0
    5.2500   -1.2990    0.0000 C   0  0  0  0  0  0  0  0  0  0  0  0
    6.0000    0.0000    0.0000 N   0  0  0  0  0  0  0  0  0  0  0  0
    3.7500   -1.2990    0.0000 C   0  0  0  0  0  0  0  0  0  0  0  0
    3.0000    0.0000    0.0000 C   0  0  0  0  0  0  0  0  0  0  0  0
    1.5000    0.0000    0.0000 C   0  0  0  0  0  0  0  0  0  0  0  0
    0.7500   -1.2990    0.0000 C   0  0  0  0  0  0  0  0  0  0  0  0
   -0.7500   -1.2990    0.0000 C   0  0  0  0  0  0  0  0  0  0  0  0
   -1.5000   -2.5981    0.0000 O   0  0  0  0  0  0  0  0  0  0  0  0
   -1.5000    0.0000    0.0000 C   0  0  0  0  0  0  0  0  0  0  0  0
   -0.7500    1.2990    0.0000 C   0  0  0  0  0  0  0  0  0  0  0  0
    0.7500    1.2990    0.0000 C   0  0  0  0  0  0  0  0  0  0  0  0
    1.5000    2.5981    0.0000 C   0  0  0  0  0  0  0  0  0  0  0  0
  1  2  1  0
  2  3  1  0
  2  4  2  3
  4  5  1  0
  5  6  2  3
  6  7  1  0
  7  8  1  0
  8  9  1  0
  8 10  1  0
 10 11  1  0
 11 12  2  0
 12 13  1  0
 12  6  1  0
M  END
>  <Title>  (304) 
idAAJTgen8

$$$$

     RDKit          2D

 11 11  0  0  0  0  0  0  0  0999 V2000
    8.0260   -1.2990    0.0000 C   0  0  0  0  0  0  0  0  0  0  0  0
    6.5260   -1.2990    0.0000 C   0  0  0  0  0  0  0  0  0  0  0  0
    5.0260   -1.2990    0.0000 C   0  0  0  0  0  0  0  0  0  0  0  0
    3.5260   -1.2990    0.0000 C   0  0  0  0  0  0  0  0  0  0  0  0
    2.7760   -2.5981    0.0000 O   0  0  0  0  0  0  0  0  0  0  0  0
    2.7760    0.0000    0.0000 N   0  0  0  0  0  0  0  0  0  0  0  0
    1.2760    0.0000    0.0000 C   0  0  0  0  0  0  0  0  0  0  0  0
    0.3943    1.2135    0.0000 C   0  0  0  0  0  0  0  0  0  0  0  0
   -1.0323    0.7500    0.0000 C   0  0  0  0  0  0  0  0  0  0  0  0
   -1.0323   -0.7500    0.0000 C   0  0  0  0  0  0  0  0  0  0  0  0
    0.3943   -1.2135    0.0000 N   0  0  0  0  0  0  0  0  0  0  0  0
  1  2  1  0
  2  3  3  0
  3  4  1  0
  4  5  2  0
  4  6  1  0
  6  7  1  0
  7  8  2  0
  8  9  1  0
  9 10  1  0
 10 11  2  0
 11  7  1  0
M  END
>  <Title>  (305) 
idAAJUgen8

$$$$

     RDKit          2D

  8  8  0  0  0  0  0  0  0  0999 V2000
    3.0000    0.0000    0.0000 C   0  0  0  0  0  0  0  0  0  0  0  0
    1.5000    0.0000    0.0000 C   0  0  0  0  0  0  0  0  0  0  0  0
    0.7500   -1.2990    0.0000 C   0  0  0  0  0  0  0  0  0  0  0  0
   -0.7500   -1.2990    0.0000 C   0  0  0  0  0  0  0  0  0  0  0  0
   -1.5000    0.0000    0.0000 C   0  0  0  0  0  0  0  0  0  0  0  0
   -3.0000    0.0000    0.0000 O   0  0  0  0  0  0  0  0  0  0  0  0
   -0.7500    1.2990    0.0000 C   0  0  0  0  0  0  0  0  0  0  0  0
    0.7500    1.2990    0.0000 C   0  0  0  0  0  0  0  0  0  0  0  0
  1  2  1  0
  2  3  2  0
  3  4  1  0
  4  5  2  0
  5  6  1  0
  5  7  1  0
  7  8  1  0
  8  2  1  0
M  END
>  <Title>  (306) 
idAAJVgen8

$$$$

     RDKit          2D

 37 40  0  0  0  0  0  0  0  0999 V2000
   -7.6383  -21.5502    0.0000 C   0  0  0  0  0  0  0  0  0  0  0  0
   -7.0643  -20.1644    0.0000 C   0  0  0  0  0  0  0  0  0  0  0  0
   -6.4903  -18.7786    0.0000 C   0  0  0  0  0  0  0  0  0  0  0  0
   -5.9162  -17.3927    0.0000 C   0  0  0  0  0  0  0  0  0  0  0  0
   -5.3422  -16.0069    0.0000 C   0  0  0  0  0  0  0  0  0  0  0  0
   -4.7682  -14.6211    0.0000 C   0  0  0  0  0  0  0  0  0  0  0  0
   -4.1942  -13.2353    0.0000 C   0  0  0  0  0  0  0  0  0  0  0  0
   -3.6201  -11.8495    0.0000 C   0  0  0  0  0  0  0  0  0  0  0  0
   -3.0461  -10.4636    0.0000 C   0  0  0  0  0  0  0  0  0  0  0  0
   -2.4721   -9.0778    0.0000 C   0  0  0  0  0  0  0  0  0  0  0  0
   -1.8981   -7.6920    0.0000 C   0  0  0  0  0  0  0  0  0  0  0  0
   -1.3240   -6.3062    0.0000 C   0  0  0  0  0  0  0  0  0  0  0  0
   -0.7500   -4.9204    0.0000 C   0  0  0  0  0  0  0  0  0  0  0  0
    0.7500   -4.9204    0.0000 C   0  0  0  0  0  0  0  0  0  0  0  0
    1.8107   -3.8597    0.0000 C   0  0  0  0  0  0  0  0  0  0  0  0
    1.8107   -2.3597    0.0000 C   0  0  0  0  0  0  0  0  0  0  0  0
    3.1965   -1.7857    0.0000 C   0  0  0  0  0  0  0  0  0  0  0  0
    3.3923   -0.2985    0.0000 O   0  0  0  0  0  0  0  0  0  0  0  0
    4.3865   -2.6988    0.0000 N   0  0  0  0  0  0  0  0  0  0  0  0
    5.7723   -2.1248    0.0000 C   0  0  0  0  0  0  0  0  0  0  0  0
    6.9624   -3.0379    0.0000 N   0  0  0  0  0  0  0  0  0  0  0  0
    8.3482   -2.4639    0.0000 N   0  0  0  0  0  0  0  0  0  0  0  0
    8.5440   -0.9767    0.0000 N   0  0  0  0  0  0  0  0  0  0  0  0
    7.3539   -0.0636    0.0000 N   0  0  0  0  0  0  0  0  0  0  0  0
    5.9681   -0.6376    0.0000 N   0  0  0  0  0  0  0  0  0  0  0  0
    0.7500   -1.2990    0.0000 C   0  0  0  0  0  0  0  0  0  0  0  0
    1.5000    0.0000    0.0000 C   0  0  0  0  0  0  0  0  0  0  0  0
    0.7500    1.2990    0.0000 C   0  0  0  0  0  0  0  0  0  0  0  0
   -0.7500    1.2990    0.0000 C   0  0  0  0  0  0  0  0  0  0  0  0
   -1.5000    0.0000    0.0000 C   0  0  0  0  0  0  0  0  0  0  0  0
   -0.7500   -1.2990    0.0000 C   0  0  0  0  0  0  0  0  0  0  0  0
   -1.8107   -2.3597    0.0000 C   0  0  0  0  0  0  0  0  0  0  0  0
   -3.1097   -1.6097    0.0000 C   0  0  0  0  0  0  0  0  0  0  0  0
   -4.4087   -2.3597    0.0000 C   0  0  0  0  0  0  0  0  0  0  0  0
   -4.4087   -3.8597    0.0000 C   0  0  0  0  0  0  0  0  0  0  0  0
   -3.1097   -4.6097    0.0000 C   0  0  0  0  0  0  0  0  0  0  0  0
   -1.8107   -3.8597    0.0000 C   0  0  0  0  0  0  0  0  0  0  0  0
  1  2  3  0
  2  3  1  0
  3  4  3  0
  4  5  1  0
  5  6  3  0
  6  7  1  0
  7  8  3  0
  8  9  1  0
  9 10  3  0
 10 11  1  0
 11 12  3  0
 12 13  1  0
 13 14  1  0
 14 15  1  0
 15 16  1  0
 16 17  1  0
 17 18  2  0
 17 19  1  0
 19 20  1  0
 20 21  2  0
 21 22  1  0
 22 23  2  0
 23 24  1  0
 24 25  2  0
 16 26  1  0
 26 27  2  0
 27 28  1  0
 28 29  2  0
 29 30  1  0
 30 31  2  0
 31 32  1  0
 32 33  2  0
 33 34  1  0
 34 35  2  0
 35 36  1  0
 36 37  2  0
 37 13  1  0
 25 20  1  0
 31 26  1  0
 37 32  1  0
M  END
>  <Title>  (307) 
idAAJWgen8

$$$$

     RDKit          2D

 21 22  0  0  0  0  0  0  0  0999 V2000
    4.5000    0.0000    0.0000 N   0  0  0  0  0  0  0  0  0  0  0  0
    3.0000    0.0000    0.0000 C   0  0  0  0  0  0  0  0  0  0  0  0
    1.5000    0.0000    0.0000 C   0  0  0  0  0  0  0  0  0  0  0  0
    0.7500   -1.2990    0.0000 C   0  0  0  0  0  0  0  0  0  0  0  0
   -0.7500   -1.2990    0.0000 C   0  0  0  0  0  0  0  0  0  0  0  0
   -1.5000    0.0000    0.0000 C   0  0  0  0  0  0  0  0  0  0  0  0
   -3.0000    0.0000    0.0000 O   0  0  0  0  0  0  0  0  0  0  0  0
   -3.7500    1.2990    0.0000 C   0  0  0  0  0  0  0  0  0  0  0  0
   -2.4510    2.0490    0.0000 F   0  0  0  0  0  0  0  0  0  0  0  0
   -5.0490    0.5490    0.0000 F   0  0  0  0  0  0  0  0  0  0  0  0
   -4.5000    2.5981    0.0000 C   0  0  0  0  0  0  0  0  0  0  0  0
   -6.0000    2.5981    0.0000 O   0  0  0  0  0  0  0  0  0  0  0  0
   -3.7500    3.8971    0.0000 N   0  0  0  0  0  0  0  0  0  0  0  0
   -4.5000    5.1962    0.0000 C   0  0  0  0  0  0  0  0  0  0  0  0
   -3.7500    6.4952    0.0000 N   0  0  0  0  0  0  0  0  0  0  0  0
   -4.5000    7.7942    0.0000 N   0  0  0  0  0  0  0  0  0  0  0  0
   -6.0000    7.7942    0.0000 N   0  0  0  0  0  0  0  0  0  0  0  0
   -6.7500    6.4952    0.0000 N   0  0  0  0  0  0  0  0  0  0  0  0
   -6.0000    5.1962    0.0000 N   0  0  0  0  0  0  0  0  0  0  0  0
   -0.7500    1.2990    0.0000 C   0  0  0  0  0  0  0  0  0  0  0  0
    0.7500    1.2990    0.0000 C   0  0  0  0  0  0  0  0  0  0  0  0
  1  2  3  0
  2  3  1  0
  3  4  2  0
  4  5  1  0
  5  6  2  0
  6  7  1  0
  7  8  1  0
  8  9  1  0
  8 10  1  0
  8 11  1  0
 11 12  2  0
 11 13  1  0
 13 14  1  0
 14 15  2  0
 15 16  1  0
 16 17  2  0
 17 18  1  0
 18 19  2  0
  6 20  1  0
 20 21  2  0
 21  3  1  0
 19 14  1  0
M  END
>  <Title>  (308) 
idAAJXgen8

$$$$

     RDKit          2D

100100  0  0  0  0  0  0  0  0999 V2000
   25.1385    0.0000    0.0000 C   0  0  0  0  0  0  0  0  0  0  0  0
   23.6385    0.0000    0.0000 C   0  0  0  0  0  0  0  0  0  0  0  0
   23.5909    1.4992    0.0000 C   0  0  0  0  0  0  0  0  0  0  0  0
   23.4483    2.9925    0.0000 C   0  0  0  0  0  0  0  0  0  0  0  0
   23.2113    4.4736    0.0000 C   0  0  0  0  0  0  0  0  0  0  0  0
   22.8808    5.9368    0.0000 C   0  0  0  0  0  0  0  0  0  0  0  0
   22.4582    7.3760    0.0000 C   0  0  0  0  0  0  0  0  0  0  0  0
   21.9452    8.7855    0.0000 C   0  0  0  0  0  0  0  0  0  0  0  0
   21.3438   10.1597    0.0000 C   0  0  0  0  0  0  0  0  0  0  0  0
   20.6565   11.4929    0.0000 C   0  0  0  0  0  0  0  0  0  0  0  0
   19.8860   12.7799    0.0000 C   0  0  0  0  0  0  0  0  0  0  0  0
   19.0354   14.0154    0.0000 C   0  0  0  0  0  0  0  0  0  0  0  0
   18.1081   15.1945    0.0000 C   0  0  0  0  0  0  0  0  0  0  0  0
   17.1080   16.3124    0.0000 C   0  0  0  0  0  0  0  0  0  0  0  0
   16.0389   17.3646    0.0000 C   0  0  0  0  0  0  0  0  0  0  0  0
   14.9053   18.3469    0.0000 C   0  0  0  0  0  0  0  0  0  0  0  0
   13.7117   19.2553    0.0000 C   0  0  0  0  0  0  0  0  0  0  0  0
   12.4628   20.0862    0.0000 C   0  0  0  0  0  0  0  0  0  0  0  0
   11.1638   20.8362    0.0000 C   0  0  0  0  0  0  0  0  0  0  0  0
    9.8198   21.5023    0.0000 C   0  0  0  0  0  0  0  0  0  0  0  0
    8.4362   22.0818    0.0000 C   0  0  0  0  0  0  0  0  0  0  0  0
    7.0187   22.5724    0.0000 C   0  0  0  0  0  0  0  0  0  0  0  0
    5.5730   22.9721    0.0000 C   0  0  0  0  0  0  0  0  0  0  0  0
    4.1048   23.2794    0.0000 C   0  0  0  0  0  0  0  0  0  0  0  0
    2.6200   23.4928    0.0000 C   0  0  0  0  0  0  0  0  0  0  0  0
    1.1248   23.6117    0.0000 C   0  0  0  0  0  0  0  0  0  0  0  0
   -0.3750   23.6355    0.0000 C   0  0  0  0  0  0  0  0  0  0  0  0
   -1.8733   23.5641    0.0000 C   0  0  0  0  0  0  0  0  0  0  0  0
   -3.3641   23.3979    0.0000 C   0  0  0  0  0  0  0  0  0  0  0  0
   -4.8413   23.1374    0.0000 C   0  0  0  0  0  0  0  0  0  0  0  0
   -6.2990   22.7838    0.0000 C   0  0  0  0  0  0  0  0  0  0  0  0
   -7.7314   22.3384    0.0000 C   0  0  0  0  0  0  0  0  0  0  0  0
   -9.1326   21.8031    0.0000 C   0  0  0  0  0  0  0  0  0  0  0  0
  -10.4971   21.1799    0.0000 C   0  0  0  0  0  0  0  0  0  0  0  0
  -11.8192   20.4715    0.0000 C   0  0  0  0  0  0  0  0  0  0  0  0
  -13.0938   19.6807    0.0000 C   0  0  0  0  0  0  0  0  0  0  0  0
  -14.3157   18.8106    0.0000 C   0  0  0  0  0  0  0  0  0  0  0  0
  -15.4799   17.8648    0.0000 C   0  0  0  0  0  0  0  0  0  0  0  0
  -16.5818   16.8470    0.0000 C   0  0  0  0  0  0  0  0  0  0  0  0
  -17.6169   15.7614    0.0000 C   0  0  0  0  0  0  0  0  0  0  0  0
  -18.5811   14.6123    0.0000 C   0  0  0  0  0  0  0  0  0  0  0  0
  -19.4705   13.4044    0.0000 C   0  0  0  0  0  0  0  0  0  0  0  0
  -20.2814   12.1426    0.0000 C   0  0  0  0  0  0  0  0  0  0  0  0
  -21.0107   10.8318    0.0000 C   0  0  0  0  0  0  0  0  0  0  0  0
  -21.6554    9.4774    0.0000 C   0  0  0  0  0  0  0  0  0  0  0  0
  -22.2129    8.0848    0.0000 C   0  0  0  0  0  0  0  0  0  0  0  0
  -22.6810    6.6597    0.0000 C   0  0  0  0  0  0  0  0  0  0  0  0
  -23.0577    5.2078    0.0000 C   0  0  0  0  0  0  0  0  0  0  0  0
  -23.3416    3.7349    0.0000 C   0  0  0  0  0  0  0  0  0  0  0  0
  -23.5314    2.2470    0.0000 C   0  0  0  0  0  0  0  0  0  0  0  0
  -23.6266    0.7500    0.0000 C   0  0  0  0  0  0  0  0  0  0  0  0
  -23.6266   -0.7500    0.0000 C   0  0  0  0  0  0  0  0  0  0  0  0
  -23.5314   -2.2470    0.0000 C   0  0  0  0  0  0  0  0  0  0  0  0
  -23.3416   -3.7349    0.0000 C   0  0  0  0  0  0  0  0  0  0  0  0
  -23.0577   -5.2078    0.0000 C   0  0  0  0  0  0  0  0  0  0  0  0
  -22.6810   -6.6597    0.0000 C   0  0  0  0  0  0  0  0  0  0  0  0
  -22.2129   -8.0848    0.0000 C   0  0  0  0  0  0  0  0  0  0  0  0
  -21.6554   -9.4774    0.0000 C   0  0  0  0  0  0  0  0  0  0  0  0
  -21.0107  -10.8318    0.0000 C   0  0  0  0  0  0  0  0  0  0  0  0
  -20.2814  -12.1426    0.0000 C   0  0  0  0  0  0  0  0  0  0  0  0
  -19.4705  -13.4044    0.0000 C   0  0  0  0  0  0  0  0  0  0  0  0
  -18.5811  -14.6123    0.0000 C   0  0  0  0  0  0  0  0  0  0  0  0
  -17.6169  -15.7614    0.0000 C   0  0  0  0  0  0  0  0  0  0  0  0
  -16.5818  -16.8470    0.0000 C   0  0  0  0  0  0  0  0  0  0  0  0
  -15.4799  -17.8648    0.0000 C   0  0  0  0  0  0  0  0  0  0  0  0
  -14.3157  -18.8106    0.0000 C   0  0  0  0  0  0  0  0  0  0  0  0
  -13.0938  -19.6807    0.0000 C   0  0  0  0  0  0  0  0  0  0  0  0
  -11.8192  -20.4715    0.0000 C   0  0  0  0  0  0  0  0  0  0  0  0
  -10.4971  -21.1799    0.0000 C   0  0  0  0  0  0  0  0  0  0  0  0
   -9.1326  -21.8031    0.0000 C   0  0  0  0  0  0  0  0  0  0  0  0
   -7.7314  -22.3384    0.0000 C   0  0  0  0  0  0  0  0  0  0  0  0
   -6.2990  -22.7838    0.0000 C   0  0  0  0  0  0  0  0  0  0  0  0
   -4.8413  -23.1374    0.0000 C   0  0  0  0  0  0  0  0  0  0  0  0
   -3.3641  -23.3979    0.0000 C   0  0  0  0  0  0  0  0  0  0  0  0
   -1.8733  -23.5641    0.0000 C   0  0  0  0  0  0  0  0  0  0  0  0
   -0.3750  -23.6355    0.0000 C   0  0  0  0  0  0  0  0  0  0  0  0
    1.1248  -23.6117    0.0000 C   0  0  0  0  0  0  0  0  0  0  0  0
    2.6200  -23.4928    0.0000 C   0  0  0  0  0  0  0  0  0  0  0  0
    4.1048  -23.2794    0.0000 C   0  0  0  0  0  0  0  0  0  0  0  0
    5.5730  -22.9721    0.0000 C   0  0  0  0  0  0  0  0  0  0  0  0
    7.0187  -22.5724    0.0000 C   0  0  0  0  0  0  0  0  0  0  0  0
    8.4362  -22.0818    0.0000 C   0  0  0  0  0  0  0  0  0  0  0  0
    9.8198  -21.5023    0.0000 C   0  0  0  0  0  0  0  0  0  0  0  0
   11.1638  -20.8362    0.0000 C   0  0  0  0  0  0  0  0  0  0  0  0
   12.4628  -20.0862    0.0000 C   0  0  0  0  0  0  0  0  0  0  0  0
   13.7117  -19.2553    0.0000 C   0  0  0  0  0  0  0  0  0  0  0  0
   14.9053  -18.3469    0.0000 C   0  0  0  0  0  0  0  0  0  0  0  0
   16.0389  -17.3646    0.0000 C   0  0  0  0  0  0  0  0  0  0  0  0
   17.1080  -16.3124    0.0000 C   0  0  0  0  0  0  0  0  0  0  0  0
   18.1081  -15.1945    0.0000 C   0  0  0  0  0  0  0  0  0  0  0  0
   19.0354  -14.0154    0.0000 C   0  0  0  0  0  0  0  0  0  0  0  0
   19.8860  -12.7799    0.0000 C   0  0  0  0  0  0  0  0  0  0  0  0
   20.6565  -11.4929    0.0000 C   0  0  0  0  0  0  0  0  0  0  0  0
   21.3438  -10.1597    0.0000 C   0  0  0  0  0  0  0  0  0  0  0  0
   21.9452   -8.7855    0.0000 C   0  0  0  0  0  0  0  0  0  0  0  0
   22.4582   -7.3760    0.0000 C   0  0  0  0  0  0  0  0  0  0  0  0
   22.8808   -5.9368    0.0000 C   0  0  0  0  0  0  0  0  0  0  0  0
   23.2113   -4.4736    0.0000 N   0  0  0  0  0  0  0  0  0  0  0  0
   23.4483   -2.9925    0.0000 C   0  0  0  0  0  0  0  0  0  0  0  0
   23.5909   -1.4992    0.0000 C   0  0  0  0  0  0  0  0  0  0  0  0
  1  2  1  0
  2  3  1  0
  3  4  1  0
  4  5  1  0
  5  6  1  0
  6  7  1  0
  7  8  1  0
  8  9  1  0
  9 10  1  0
 10 11  1  0
 11 12  1  0
 12 13  1  0
 13 14  1  0
 14 15  1  0
 15 16  1  0
 16 17  1  0
 17 18  1  0
 18 19  1  0
 19 20  1  0
 20 21  1  0
 21 22  1  0
 22 23  1  0
 23 24  1  0
 24 25  1  0
 25 26  1  0
 26 27  1  0
 27 28  1  0
 28 29  1  0
 29 30  1  0
 30 31  1  0
 31 32  1  0
 32 33  1  0
 33 34  1  0
 34 35  1  0
 35 36  1  0
 36 37  1  0
 37 38  1  0
 38 39  1  0
 39 40  1  0
 40 41  1  0
 41 42  1  0
 42 43  1  0
 43 44  1  0
 44 45  1  0
 45 46  1  0
 46 47  1  0
 47 48  1  0
 48 49  1  0
 49 50  1  0
 50 51  1  0
 51 52  1  0
 52 53  1  0
 53 54  1  0
 54 55  1  0
 55 56  1  0
 56 57  1  0
 57 58  1  0
 58 59  1  0
 59 60  1  0
 60 61  1  0
 61 62  1  0
 62 63  1  0
 63 64  1  0
 64 65  1  0
 65 66  1  0
 66 67  1  0
 67 68  1  0
 68 69  1  0
 69 70  1  0
 70 71  1  0
 71 72  1  0
 72 73  1  0
 73 74  1  0
 74 75  1  0
 75 76  1  0
 76 77  1  0
 77 78  1  0
 78 79  1  0
 79 80  1  0
 80 81  1  0
 81 82  1  0
 82 83  1  0
 83 84  1  0
 84 85  1  0
 85 86  1  0
 86 87  1  0
 87 88  1  0
 88 89  1  0
 89 90  1  0
 90 91  1  0
 91 92  1  0
 92 93  1  0
 93 94  1  0
 94 95  1  0
 95 96  2  0
 96 97  1  0
 97 98  1  0
 98 99  1  0
 99100  1  0
100  2  1  0
M  END
>  <Title>  (309) 
idAAJYgen8

$$$$

     RDKit          2D

 20 21  0  0  0  0  0  0  0  0999 V2000
    6.0000   -5.1962    0.0000 C   0  0  0  0  0  0  0  0  0  0  0  0
    4.5000   -5.1962    0.0000 C   0  0  0  0  0  0  0  0  0  0  0  0
    3.0000   -5.1962    0.0000 C   0  0  0  0  0  0  0  0  0  0  0  0
    1.5000   -5.1962    0.0000 C   0  0  0  0  0  0  0  0  0  0  0  0
    0.7500   -3.8971    0.0000 C   0  0  0  0  0  0  0  0  0  0  0  0
   -0.7500   -3.8971    0.0000 O   0  0  0  0  0  0  0  0  0  0  0  0
    1.5000   -2.5981    0.0000 N   0  0  0  0  0  0  0  0  0  0  0  0
    0.7500   -1.2990    0.0000 C   0  0  0  0  0  0  0  0  0  0  0  0
    1.5000    0.0000    0.0000 N   0  0  0  0  0  0  0  0  0  0  0  0
    0.7500    1.2990    0.0000 N   0  0  0  0  0  0  0  0  0  0  0  0
   -0.7500    1.2990    0.0000 N   0  0  0  0  0  0  0  0  0  0  0  0
   -1.5000    0.0000    0.0000 N   0  0  0  0  0  0  0  0  0  0  0  0
   -0.7500   -1.2990    0.0000 N   0  0  0  0  0  0  0  0  0  0  0  0
    0.7500   -6.4952    0.0000 C   0  0  0  0  0  0  0  0  0  0  0  0
   -0.7500   -6.4952    0.0000 C   0  0  0  0  0  0  0  0  0  0  0  0
   -1.5000   -7.7942    0.0000 C   0  0  0  0  0  0  0  0  0  0  0  0
   -0.7500   -9.0933    0.0000 C   0  0  0  0  0  0  0  0  0  0  0  0
   -1.5000  -10.3923    0.0000 O   0  0  0  0  0  0  0  0  0  0  0  0
    0.7500   -9.0933    0.0000 C   0  0  0  0  0  0  0  0  0  0  0  0
    1.5000   -7.7942    0.0000 C   0  0  0  0  0  0  0  0  0  0  0  0
  1  2  1  0
  2  3  3  0
  3  4  1  0
  4  5  1  0
  5  6  2  0
  5  7  1  0
  7  8  1  0
  8  9  2  0
  9 10  1  0
 10 11  2  0
 11 12  1  0
 12 13  2  0
  4 14  1  0
 14 15  2  0
 15 16  1  0
 16 17  2  0
 17 18  1  0
 17 19  1  0
 19 20  1  0
 13  8  1  0
 20 14  1  0
M  END
>  <Title>  (310) 
idAAJZgen8

$$$$

     RDKit          2D

 10 10  0  0  0  0  0  0  0  0999 V2000
    3.0000    0.0000    0.0000 C   0  0  0  0  0  0  0  0  0  0  0  0
    1.5000    0.0000    0.0000 C   0  0  0  0  0  0  0  0  0  0  0  0
    0.7500   -1.2990    0.0000 C   0  0  0  0  0  0  0  0  0  0  0  0
   -0.7500   -1.2990    0.0000 C   0  0  0  0  0  0  0  0  0  0  0  0
   -1.5000    0.0000    0.0000 C   0  0  0  0  0  0  0  0  0  0  0  0
   -0.7500    1.2990    0.0000 C   0  0  0  0  0  0  0  0  0  0  0  0
   -1.5000    2.5981    0.0000 C   0  0  0  0  0  0  0  0  0  0  0  0
   -0.7500    3.8971    0.0000 N   0  0  0  0  0  0  0  0  0  0  0  0
   -3.0000    2.5981    0.0000 O   0  0  0  0  0  0  0  0  0  0  0  0
    0.7500    1.2990    0.0000 C   0  0  0  0  0  0  0  0  0  0  0  0
  1  2  1  0
  2  3  2  0
  3  4  1  0
  4  5  1  0
  5  6  1  0
  6  7  1  0
  7  8  1  0
  7  9  2  0
  6 10  1  0
 10  2  1  0
M  END
>  <Title>  (311) 
idAAKAgen8

$$$$

     RDKit          2D

 60 61  0  0  0  0  0  0  0  0999 V2000
    9.2153    4.9943    0.0000 C   0  0  0  0  0  0  0  0  0  0  0  0
   10.6085    4.4384    0.0000 C   0  0  0  0  0  0  0  0  0  0  0  0
   11.4255    5.6965    0.0000 C   0  0  0  0  0  0  0  0  0  0  0  0
   12.6617    6.5461    0.0000 C   0  0  0  0  0  0  0  0  0  0  0  0
   14.1289    6.8579    0.0000 C   0  0  0  0  0  0  0  0  0  0  0  0
   15.6038    6.5846    0.0000 C   0  0  0  0  0  0  0  0  0  0  0  0
   16.8618    5.7676    0.0000 C   0  0  0  0  0  0  0  0  0  0  0  0
   17.7114    4.5314    0.0000 C   0  0  0  0  0  0  0  0  0  0  0  0
   18.0233    3.0642    0.0000 C   0  0  0  0  0  0  0  0  0  0  0  0
   17.7499    1.5893    0.0000 C   0  0  0  0  0  0  0  0  0  0  0  0
   16.9330    0.3313    0.0000 C   0  0  0  0  0  0  0  0  0  0  0  0
   15.6968   -0.5183    0.0000 C   0  0  0  0  0  0  0  0  0  0  0  0
   14.2296   -0.8302    0.0000 C   0  0  0  0  0  0  0  0  0  0  0  0
   12.7547   -0.5568    0.0000 C   0  0  0  0  0  0  0  0  0  0  0  0
   11.4967    0.2602    0.0000 C   0  0  0  0  0  0  0  0  0  0  0  0
   10.6471    1.4963    0.0000 C   0  0  0  0  0  0  0  0  0  0  0  0
   10.0517   -0.0000    0.0000 N   0  0  0  0  0  0  0  0  0  0  0  0
    9.9539   -1.3989    0.0000 C   0  0  0  0  0  0  0  0  0  0  0  0
    9.6623   -2.7706    0.0000 C   0  0  0  0  0  0  0  0  0  0  0  0
    9.1827   -4.0884    0.0000 C   0  0  0  0  0  0  0  0  0  0  0  0
    8.5243   -5.3266    0.0000 C   0  0  0  0  0  0  0  0  0  0  0  0
    7.7000   -6.4611    0.0000 C   0  0  0  0  0  0  0  0  0  0  0  0
    6.7259   -7.4699    0.0000 C   0  0  0  0  0  0  0  0  0  0  0  0
    5.6208   -8.3332    0.0000 C   0  0  0  0  0  0  0  0  0  0  0  0
    4.4064   -9.0344    0.0000 C   0  0  0  0  0  0  0  0  0  0  0  0
    3.1061   -9.5597    0.0000 C   0  0  0  0  0  0  0  0  0  0  0  0
    1.7455   -9.8990    0.0000 C   0  0  0  0  0  0  0  0  0  0  0  0
    0.3508  -10.0456    0.0000 C   0  0  0  0  0  0  0  0  0  0  0  0
   -1.0507   -9.9966    0.0000 C   0  0  0  0  0  0  0  0  0  0  0  0
   -2.4317   -9.7531    0.0000 C   0  0  0  0  0  0  0  0  0  0  0  0
   -3.7654   -9.3198    0.0000 C   0  0  0  0  0  0  0  0  0  0  0  0
   -5.0258   -8.7050    0.0000 C   0  0  0  0  0  0  0  0  0  0  0  0
   -6.1884   -7.9208    0.0000 C   0  0  0  0  0  0  0  0  0  0  0  0
   -7.2306   -6.9825    0.0000 C   0  0  0  0  0  0  0  0  0  0  0  0
   -8.1320   -5.9082    0.0000 C   0  0  0  0  0  0  0  0  0  0  0  0
   -8.8751   -4.7190    0.0000 C   0  0  0  0  0  0  0  0  0  0  0  0
   -9.4455   -3.4379    0.0000 C   0  0  0  0  0  0  0  0  0  0  0  0
   -9.8320   -2.0899    0.0000 C   0  0  0  0  0  0  0  0  0  0  0  0
  -10.0272   -0.7012    0.0000 C   0  0  0  0  0  0  0  0  0  0  0  0
  -10.0272    0.7012    0.0000 C   0  0  0  0  0  0  0  0  0  0  0  0
   -9.8320    2.0899    0.0000 C   0  0  0  0  0  0  0  0  0  0  0  0
   -9.4455    3.4379    0.0000 C   0  0  0  0  0  0  0  0  0  0  0  0
   -8.8751    4.7190    0.0000 C   0  0  0  0  0  0  0  0  0  0  0  0
   -8.1320    5.9082    0.0000 C   0  0  0  0  0  0  0  0  0  0  0  0
   -7.2306    6.9825    0.0000 C   0  0  0  0  0  0  0  0  0  0  0  0
   -6.1884    7.9208    0.0000 C   0  0  0  0  0  0  0  0  0  0  0  0
   -5.0258    8.7050    0.0000 C   0  0  0  0  0  0  0  0  0  0  0  0
   -3.7654    9.3198    0.0000 C   0  0  0  0  0  0  0  0  0  0  0  0
   -2.4317    9.7531    0.0000 C   0  0  0  0  0  0  0  0  0  0  0  0
   -1.0507    9.9966    0.0000 C   0  0  0  0  0  0  0  0  0  0  0  0
    0.3508   10.0456    0.0000 C   0  0  0  0  0  0  0  0  0  0  0  0
    1.7455    9.8990    0.0000 C   0  0  0  0  0  0  0  0  0  0  0  0
    3.1061    9.5597    0.0000 C   0  0  0  0  0  0  0  0  0  0  0  0
    4.4064    9.0344    0.0000 C   0  0  0  0  0  0  0  0  0  0  0  0
    5.6208    8.3332    0.0000 C   0  0  0  0  0  0  0  0  0  0  0  0
    6.7259    7.4699    0.0000 C   0  0  0  0  0  0  0  0  0  0  0  0
    7.7000    6.4611    0.0000 C   0  0  0  0  0  0  0  0  0  0  0  0
    8.5243    5.3266    0.0000 C   0  0  0  0  0  0  0  0  0  0  0  0
    9.1827    4.0884    0.0000 C   0  0  0  0  0  0  0  0  0  0  0  0
   10.3352    2.9636    0.0000 C   0  0  0  0  0  0  0  0  0  0  0  0
  1  2  1  0
  2  3  1  0
  3  4  1  0
  4  5  1  0
  5  6  1  0
  6  7  1  0
  7  8  1  0
  8  9  1  0
  9 10  1  0
 10 11  1  0
 11 12  1  0
 12 13  1  0
 13 14  1  0
 14 15  1  0
 15 16  1  0
 16 17  1  0
 17 18  1  0
 18 19  1  0
 19 20  2  0
 20 21  1  0
 21 22  2  0
 22 23  1  0
 23 24  2  0
 24 25  1  0
 25 26  2  0
 26 27  1  0
 27 28  2  0
 28 29  1  0
 29 30  2  0
 30 31  1  0
 31 32  2  0
 32 33  1  0
 33 34  2  0
 34 35  1  0
 35 36  2  0
 36 37  1  0
 37 38  2  0
 38 39  1  0
 39 40  2  0
 40 41  1  0
 41 42  2  0
 42 43  1  0
 43 44  2  0
 44 45  1  0
 45 46  2  0
 46 47  1  0
 47 48  2  0
 48 49  1  0
 49 50  2  0
 50 51  1  0
 51 52  2  0
 52 53  1  0
 53 54  2  0
 54 55  1  0
 55 56  2  0
 56 57  1  0
 57 58  2  0
 58 59  1  0
 59 60  2  0
 60  2  1  0
 60 16  1  0
M  END
>  <Title>  (312) 
idAAKBgen8

$$$$

     RDKit          2D

  9  9  0  0  0  0  0  0  0  0999 V2000
    3.0000    0.0000    0.0000 C   0  0  0  0  0  0  0  0  0  0  0  0
    1.5000    0.0000    0.0000 C   0  0  0  0  0  0  0  0  0  0  0  0
    0.7500   -1.2990    0.0000 C   0  0  0  0  0  0  0  0  0  0  0  0
   -0.7500   -1.2990    0.0000 C   0  0  0  0  0  0  0  0  0  0  0  0
   -1.5000   -2.5981    0.0000 O   0  0  0  0  0  0  0  0  0  0  0  0
   -1.5000    0.0000    0.0000 C   0  0  0  0  0  0  0  0  0  0  0  0
   -3.0000    0.0000    0.0000 O   0  0  0  0  0  0  0  0  0  0  0  0
   -0.7500    1.2990    0.0000 C   0  0  0  0  0  0  0  0  0  0  0  0
    0.7500    1.2990    0.0000 C   0  0  0  0  0  0  0  0  0  0  0  0
  1  2  1  0
  2  3  2  0
  3  4  1  0
  4  5  1  0
  4  6  1  0
  6  7  1  0
  6  8  2  0
  8  9  1  0
  9  2  1  0
M  END
>  <Title>  (313) 
idAAKCgen8

$$$$

     RDKit          2D

 84 85  0  0  0  0  0  0  0  0999 V2000
   -2.1982   -1.0713    0.0000 C   0  0  0  0  0  0  0  0  0  0  0  0
   -2.4908    0.3998    0.0000 C   0  0  0  0  0  0  0  0  0  0  0  0
   -3.9724    0.1652    0.0000 C   0  0  0  0  0  0  0  0  0  0  0  0
   -5.4677    0.0475    0.0000 C   0  0  0  0  0  0  0  0  0  0  0  0
   -6.9677    0.0475    0.0000 C   0  0  0  0  0  0  0  0  0  0  0  0
   -8.4631    0.1652    0.0000 C   0  0  0  0  0  0  0  0  0  0  0  0
   -9.9447    0.3998    0.0000 C   0  0  0  0  0  0  0  0  0  0  0  0
  -11.4032    0.7500    0.0000 C   0  0  0  0  0  0  0  0  0  0  0  0
  -12.8298    1.2135    0.0000 C   0  0  0  0  0  0  0  0  0  0  0  0
  -14.2156    1.7876    0.0000 C   0  0  0  0  0  0  0  0  0  0  0  0
  -15.5521    2.4685    0.0000 C   0  0  0  0  0  0  0  0  0  0  0  0
  -16.8311    3.2523    0.0000 C   0  0  0  0  0  0  0  0  0  0  0  0
  -18.0446    4.1340    0.0000 C   0  0  0  0  0  0  0  0  0  0  0  0
  -19.1852    5.1081    0.0000 C   0  0  0  0  0  0  0  0  0  0  0  0
  -20.2459    6.1688    0.0000 C   0  0  0  0  0  0  0  0  0  0  0  0
  -21.2201    7.3094    0.0000 C   0  0  0  0  0  0  0  0  0  0  0  0
  -22.1017    8.5229    0.0000 C   0  0  0  0  0  0  0  0  0  0  0  0
  -22.8855    9.8019    0.0000 C   0  0  0  0  0  0  0  0  0  0  0  0
  -23.5665   11.1384    0.0000 C   0  0  0  0  0  0  0  0  0  0  0  0
  -24.1405   12.5242    0.0000 C   0  0  0  0  0  0  0  0  0  0  0  0
  -24.6040   13.9508    0.0000 C   0  0  0  0  0  0  0  0  0  0  0  0
  -24.9542   15.4094    0.0000 C   0  0  0  0  0  0  0  0  0  0  0  0
  -25.1888   16.8909    0.0000 C   0  0  0  0  0  0  0  0  0  0  0  0
  -25.3065   18.3863    0.0000 C   0  0  0  0  0  0  0  0  0  0  0  0
  -25.3065   19.8863    0.0000 C   0  0  0  0  0  0  0  0  0  0  0  0
  -25.1888   21.3816    0.0000 C   0  0  0  0  0  0  0  0  0  0  0  0
  -24.9542   22.8632    0.0000 C   0  0  0  0  0  0  0  0  0  0  0  0
  -24.6040   24.3217    0.0000 C   0  0  0  0  0  0  0  0  0  0  0  0
  -24.1405   25.7483    0.0000 C   0  0  0  0  0  0  0  0  0  0  0  0
  -23.5665   27.1341    0.0000 C   0  0  0  0  0  0  0  0  0  0  0  0
  -22.8855   28.4706    0.0000 C   0  0  0  0  0  0  0  0  0  0  0  0
  -22.1017   29.7496    0.0000 C   0  0  0  0  0  0  0  0  0  0  0  0
  -21.2201   30.9631    0.0000 C   0  0  0  0  0  0  0  0  0  0  0  0
  -20.2459   32.1037    0.0000 C   0  0  0  0  0  0  0  0  0  0  0  0
  -19.1852   33.1644    0.0000 C   0  0  0  0  0  0  0  0  0  0  0  0
  -18.0446   34.1386    0.0000 C   0  0  0  0  0  0  0  0  0  0  0  0
  -16.8311   35.0202    0.0000 C   0  0  0  0  0  0  0  0  0  0  0  0
  -15.5521   35.8040    0.0000 C   0  0  0  0  0  0  0  0  0  0  0  0
  -14.2156   36.4850    0.0000 C   0  0  0  0  0  0  0  0  0  0  0  0
  -12.8298   37.0590    0.0000 C   0  0  0  0  0  0  0  0  0  0  0  0
  -11.4032   37.5225    0.0000 C   0  0  0  0  0  0  0  0  0  0  0  0
   -9.9447   37.8727    0.0000 C   0  0  0  0  0  0  0  0  0  0  0  0
   -8.4631   38.1074    0.0000 C   0  0  0  0  0  0  0  0  0  0  0  0
   -6.9677   38.2250    0.0000 C   0  0  0  0  0  0  0  0  0  0  0  0
   -5.4677   38.2250    0.0000 C   0  0  0  0  0  0  0  0  0  0  0  0
   -3.9724   38.1074    0.0000 C   0  0  0  0  0  0  0  0  0  0  0  0
   -2.4908   37.8727    0.0000 C   0  0  0  0  0  0  0  0  0  0  0  0
   -1.0323   37.5225    0.0000 C   0  0  0  0  0  0  0  0  0  0  0  0
    0.3943   37.0590    0.0000 C   0  0  0  0  0  0  0  0  0  0  0  0
    1.7801   36.4850    0.0000 C   0  0  0  0  0  0  0  0  0  0  0  0
    3.1166   35.8040    0.0000 C   0  0  0  0  0  0  0  0  0  0  0  0
    4.3956   35.0202    0.0000 C   0  0  0  0  0  0  0  0  0  0  0  0
    5.6091   34.1386    0.0000 C   0  0  0  0  0  0  0  0  0  0  0  0
    6.7497   33.1644    0.0000 C   0  0  0  0  0  0  0  0  0  0  0  0
    7.8104   32.1037    0.0000 C   0  0  0  0  0  0  0  0  0  0  0  0
    8.7846   30.9631    0.0000 C   0  0  0  0  0  0  0  0  0  0  0  0
    9.6662   29.7496    0.0000 C   0  0  0  0  0  0  0  0  0  0  0  0
   10.4500   28.4706    0.0000 C   0  0  0  0  0  0  0  0  0  0  0  0
   11.1310   27.1341    0.0000 C   0  0  0  0  0  0  0  0  0  0  0  0
   11.7050   25.7483    0.0000 C   0  0  0  0  0  0  0  0  0  0  0  0
   12.1685   24.3217    0.0000 C   0  0  0  0  0  0  0  0  0  0  0  0
   12.5187   22.8632    0.0000 C   0  0  0  0  0  0  0  0  0  0  0  0
   12.7533   21.3816    0.0000 C   0  0  0  0  0  0  0  0  0  0  0  0
   12.8710   19.8863    0.0000 C   0  0  0  0  0  0  0  0  0  0  0  0
   12.8710   18.3863    0.0000 C   0  0  0  0  0  0  0  0  0  0  0  0
   12.7533   16.8909    0.0000 C   0  0  0  0  0  0  0  0  0  0  0  0
   12.5187   15.4094    0.0000 C   0  0  0  0  0  0  0  0  0  0  0  0
   12.1685   13.9508    0.0000 C   0  0  0  0  0  0  0  0  0  0  0  0
   11.7050   12.5242    0.0000 C   0  0  0  0  0  0  0  0  0  0  0  0
   11.1310   11.1384    0.0000 C   0  0  0  0  0  0  0  0  0  0  0  0
   10.4500    9.8019    0.0000 C   0  0  0  0  0  0  0  0  0  0  0  0
    9.6662    8.5229    0.0000 C   0  0  0  0  0  0  0  0  0  0  0  0
    8.7846    7.3094    0.0000 C   0  0  0  0  0  0  0  0  0  0  0  0
    7.8104    6.1688    0.0000 C   0  0  0  0  0  0  0  0  0  0  0  0
    6.7497    5.1081    0.0000 C   0  0  0  0  0  0  0  0  0  0  0  0
    5.6091    4.1340    0.0000 C   0  0  0  0  0  0  0  0  0  0  0  0
    4.3956    3.2523    0.0000 C   0  0  0  0  0  0  0  0  0  0  0  0
    3.1166    2.4685    0.0000 C   0  0  0  0  0  0  0  0  0  0  0  0
    1.7801    1.7876    0.0000 C   0  0  0  0  0  0  0  0  0  0  0  0
    0.3943    1.2135    0.0000 C   0  0  0  0  0  0  0  0  0  0  0  0
    1.2760    0.0000    0.0000 C   0  0  0  0  0  0  0  0  0  0  0  0
    0.3943   -1.2135    0.0000 C   0  0  0  0  0  0  0  0  0  0  0  0
   -1.0323   -0.7500    0.0000 C   0  0  0  0  0  0  0  0  0  0  0  0
   -1.0323    0.7500    0.0000 C   0  0  0  0  0  0  0  0  0  0  0  0
  1  2  1  0
  2  3  1  0
  3  4  1  0
  4  5  1  0
  5  6  1  0
  6  7  1  0
  7  8  1  0
  8  9  1  0
  9 10  1  0
 10 11  1  0
 11 12  1  0
 12 13  1  0
 13 14  1  0
 14 15  1  0
 15 16  2  0
 16 17  1  0
 17 18  2  0
 18 19  1  0
 19 20  2  0
 20 21  1  0
 21 22  2  0
 22 23  1  0
 23 24  2  0
 24 25  1  0
 25 26  2  0
 26 27  1  0
 27 28  2  0
 28 29  1  0
 29 30  2  0
 30 31  1  0
 31 32  2  0
 32 33  1  0
 33 34  2  0
 34 35  1  0
 35 36  2  0
 36 37  1  0
 37 38  2  0
 38 39  1  0
 39 40  2  0
 40 41  1  0
 41 42  2  0
 42 43  1  0
 43 44  2  0
 44 45  1  0
 45 46  2  0
 46 47  1  0
 47 48  2  0
 48 49  1  0
 49 50  2  0
 50 51  1  0
 51 52  2  0
 52 53  1  0
 53 54  2  0
 54 55  1  0
 55 56  2  0
 56 57  1  0
 57 58  2  0
 58 59  1  0
 59 60  2  0
 60 61  1  0
 61 62  2  0
 62 63  1  0
 63 64  2  0
 64 65  1  0
 65 66  2  0
 66 67  1  0
 67 68  2  0
 68 69  1  0
 69 70  2  0
 70 71  1  0
 71 72  2  0
 72 73  1  0
 73 74  2  0
 74 75  1  0
 75 76  2  0
 76 77  1  0
 77 78  2  0
 78 79  1  0
 79 80  2  0
 80 81  1  0
 81 82  2  0
 82 83  1  0
 83 84  2  0
 84  2  1  0
 84 80  1  0
M  END
>  <Title>  (314) 
idAAKDgen8

$$$$

     RDKit          2D

 10 10  0  0  0  0  0  0  0  0999 V2000
    4.6309    1.7331    0.0000 C   0  0  0  0  0  0  0  0  0  0  0  0
    3.5702    0.6724    0.0000 C   0  0  0  0  0  0  0  0  0  0  0  0
    2.1213    1.0607    0.0000 C   0  0  0  0  0  0  0  0  0  0  0  0
    1.0607    0.0000    0.0000 C   0  0  0  0  0  0  0  0  0  0  0  0
    2.1213   -1.0607    0.0000 O   0  0  0  0  0  0  0  0  0  0  0  0
   -0.0000   -1.0607    0.0000 C   0  0  0  0  0  0  0  0  0  0  0  0
   -1.0607    0.0000    0.0000 C   0  0  0  0  0  0  0  0  0  0  0  0
   -2.5607    0.0000    0.0000 O   0  0  0  0  0  0  0  0  0  0  0  0
    0.0000    1.0607    0.0000 C   0  0  0  0  0  0  0  0  0  0  0  0
    0.0000    2.5607    0.0000 O   0  0  0  0  0  0  0  0  0  0  0  0
  1  2  1  0
  2  3  1  0
  3  4  1  0
  4  5  1  0
  4  6  1  0
  6  7  1  0
  7  8  1  0
  7  9  1  0
  9 10  1  0
  9  4  1  0
M  END
>  <Title>  (315) 
idAAKEgen8

$$$$

     RDKit          2D

  6  5  0  0  0  0  0  0  0  0999 V2000
    0.0000    0.0000    0.0000 C   0  0  0  0  0  0  0  0  0  0  0  0
    1.2990    0.7500    0.0000 C   0  0  0  0  0  0  0  0  0  0  0  0
    2.5981   -0.0000    0.0000 C   0  0  0  0  0  0  0  0  0  0  0  0
    3.8971    0.7500    0.0000 C   0  0  0  0  0  0  0  0  0  0  0  0
    2.5981   -1.5000    0.0000 C   0  0  0  0  0  0  0  0  0  0  0  0
    2.5981   -3.0000    0.0000 N   0  0  0  0  0  0  0  0  0  0  0  0
  1  2  1  0
  2  3  1  0
  3  4  1  0
  3  5  1  0
  5  6  3  0
M  END
>  <Title>  (316) 
idAAKFgen8

$$$$

     RDKit          2D

 10  9  0  0  0  0  0  0  0  0999 V2000
    0.0000    0.0000    0.0000 C   0  0  0  0  0  0  0  0  0  0  0  0
    1.2990    0.7500    0.0000 C   0  0  0  0  0  0  0  0  0  0  0  0
    2.5981    1.5000    0.0000 C   0  0  0  0  0  0  0  0  0  0  0  0
    3.8971    2.2500    0.0000 C   0  0  0  0  0  0  0  0  0  0  0  0
    3.8971    3.7500    0.0000 O   0  0  0  0  0  0  0  0  0  0  0  0
    5.1962    1.5000    0.0000 C   0  0  0  0  0  0  0  0  0  0  0  0
    6.4952    2.2500    0.0000 C   0  0  0  0  0  0  0  0  0  0  0  0
    7.7942    1.5000    0.0000 C   0  0  0  0  0  0  0  0  0  0  0  0
    9.0933    2.2500    0.0000 C   0  0  0  0  0  0  0  0  0  0  0  0
   10.3923    1.5000    0.0000 C   0  0  0  0  0  0  0  0  0  0  0  0
  1  2  1  0
  2  3  3  0
  3  4  1  0
  4  5  2  0
  4  6  1  0
  6  7  2  3
  7  8  1  0
  8  9  2  3
  9 10  1  0
M  END
>  <Title>  (317) 
idAAKGgen8

$$$$

     RDKit          2D

  9  9  0  0  0  0  0  0  0  0999 V2000
    4.9320    1.5439    0.0000 C   0  0  0  0  0  0  0  0  0  0  0  0
    3.8173    0.5402    0.0000 C   0  0  0  0  0  0  0  0  0  0  0  0
    2.3907    1.0037    0.0000 C   0  0  0  0  0  0  0  0  0  0  0  0
    1.2760    0.0000    0.0000 C   0  0  0  0  0  0  0  0  0  0  0  0
    2.3907   -1.0037    0.0000 O   0  0  0  0  0  0  0  0  0  0  0  0
    0.3943    1.2135    0.0000 C   0  0  0  0  0  0  0  0  0  0  0  0
   -1.0323    0.7500    0.0000 C   0  0  0  0  0  0  0  0  0  0  0  0
   -1.0323   -0.7500    0.0000 C   0  0  0  0  0  0  0  0  0  0  0  0
    0.3943   -1.2135    0.0000 C   0  0  0  0  0  0  0  0  0  0  0  0
  1  2  1  0
  2  3  1  0
  3  4  1  0
  4  5  1  0
  4  6  1  0
  6  7  1  0
  7  8  1  0
  8  9  1  0
  9  4  1  0
M  END
>  <Title>  (318) 
idAAKHgen8

$$$$

     RDKit          2D

  7  6  0  0  0  0  0  0  0  0999 V2000
    0.0000    0.0000    0.0000 C   0  0  0  0  0  0  0  0  0  0  0  0
    1.2990    0.7500    0.0000 C   0  0  0  0  0  0  0  0  0  0  0  0
    2.5981    1.5000    0.0000 C   0  0  0  0  0  0  0  0  0  0  0  0
    3.8971    2.2500    0.0000 C   0  0  0  0  0  0  0  0  0  0  0  0
    5.1962    1.5000    0.0000 C   0  0  0  0  0  0  0  0  0  0  0  0
    3.8971    3.7500    0.0000 O   0  0  0  0  0  0  0  0  0  0  0  0
    5.1962    4.5000    0.0000 C   0  0  0  0  0  0  0  0  0  0  0  0
  1  2  1  0
  2  3  3  0
  3  4  1  0
  4  5  1  0
  4  6  1  0
  6  7  1  0
M  END
>  <Title>  (319) 
idAAKIgen8

$$$$

     RDKit          2D

  9  9  0  0  0  0  0  0  0  0999 V2000
    2.7760    0.0000    0.0000 C   0  0  0  0  0  0  0  0  0  0  0  0
    1.2760    0.0000    0.0000 C   0  0  0  0  0  0  0  0  0  0  0  0
    0.3943    1.2135    0.0000 C   0  0  0  0  0  0  0  0  0  0  0  0
   -1.0323    0.7500    0.0000 C   0  0  0  0  0  0  0  0  0  0  0  0
   -1.0323   -0.7500    0.0000 C   0  0  0  0  0  0  0  0  0  0  0  0
   -2.2458   -1.6317    0.0000 C   0  0  0  0  0  0  0  0  0  0  0  0
   -3.6161   -1.0216    0.0000 N   0  0  0  0  0  0  0  0  0  0  0  0
   -2.0890   -3.1235    0.0000 O   0  0  0  0  0  0  0  0  0  0  0  0
    0.3943   -1.2135    0.0000 C   0  0  0  0  0  0  0  0  0  0  0  0
  1  2  1  0
  2  3  2  0
  3  4  1  0
  4  5  2  0
  5  6  1  0
  6  7  1  0
  6  8  2  0
  5  9  1  0
  9  2  1  0
M  END
>  <Title>  (320) 
idAAKJgen8

$$$$

     RDKit          2D

 10 10  0  0  0  0  0  0  0  0999 V2000
    4.5000    0.0000    0.0000 C   0  0  0  0  0  0  0  0  0  0  0  0
    3.0000    0.0000    0.0000 C   0  0  0  0  0  0  0  0  0  0  0  0
    1.5000    0.0000    0.0000 C   0  0  0  0  0  0  0  0  0  0  0  0
    0.7500   -1.2990    0.0000 C   0  0  0  0  0  0  0  0  0  0  0  0
   -0.7500   -1.2990    0.0000 C   0  0  0  0  0  0  0  0  0  0  0  0
   -1.5000    0.0000    0.0000 C   0  0  0  0  0  0  0  0  0  0  0  0
   -3.0000    0.0000    0.0000 O   0  0  0  0  0  0  0  0  0  0  0  0
   -0.7500    1.2990    0.0000 C   0  0  0  0  0  0  0  0  0  0  0  0
   -1.5000    2.5981    0.0000 O   0  0  0  0  0  0  0  0  0  0  0  0
    0.7500    1.2990    0.0000 C   0  0  0  0  0  0  0  0  0  0  0  0
  1  2  3  0
  2  3  1  0
  3  4  2  0
  4  5  1  0
  5  6  1  0
  6  7  1  0
  6  8  1  0
  8  9  1  0
  8 10  1  0
 10  3  1  0
M  END
>  <Title>  (321) 
idAAKKgen8

$$$$

     RDKit          2D

 10 10  0  0  0  0  0  0  0  0999 V2000
    3.0000    0.0000    0.0000 C   0  0  0  0  0  0  0  0  0  0  0  0
    1.5000    0.0000    0.0000 C   0  0  0  0  0  0  0  0  0  0  0  0
    0.7500   -1.2990    0.0000 C   0  0  0  0  0  0  0  0  0  0  0  0
   -0.7500   -1.2990    0.0000 C   0  0  0  0  0  0  0  0  0  0  0  0
   -1.5000   -2.5981    0.0000 O   0  0  0  0  0  0  0  0  0  0  0  0
   -1.5000    0.0000    0.0000 C   0  0  0  0  0  0  0  0  0  0  0  0
   -3.0000    0.0000    0.0000 O   0  0  0  0  0  0  0  0  0  0  0  0
   -0.7500    1.2990    0.0000 C   0  0  0  0  0  0  0  0  0  0  0  0
    0.7500    1.2990    0.0000 C   0  0  0  0  0  0  0  0  0  0  0  0
    1.5000    2.5981    0.0000 F   0  0  0  0  0  0  0  0  0  0  0  0
  1  2  1  0
  2  3  2  0
  3  4  1  0
  4  5  1  0
  4  6  1  0
  6  7  1  0
  6  8  2  0
  8  9  1  0
  9 10  1  0
  9  2  1  0
M  END
>  <Title>  (322) 
idAAKLgen8

$$$$

     RDKit          2D

 19 19  0  0  0  0  0  0  0  0999 V2000
    5.8191    0.0000    0.0000 C   0  0  0  0  0  0  0  0  0  0  0  0
    4.3191    0.0000    0.0000 C   0  0  0  0  0  0  0  0  0  0  0  0
    4.0586   -1.4772    0.0000 C   0  0  0  0  0  0  0  0  0  0  0  0
    3.3086   -2.7762    0.0000 C   0  0  0  0  0  0  0  0  0  0  0  0
    2.1595   -3.7404    0.0000 C   0  0  0  0  0  0  0  0  0  0  0  0
    0.7500   -4.2535    0.0000 N   0  0  0  0  0  0  0  0  0  0  0  0
   -0.7500   -4.2535    0.0000 C   0  0  0  0  0  0  0  0  0  0  0  0
   -2.1595   -3.7404    0.0000 C   0  0  0  0  0  0  0  0  0  0  0  0
   -3.3086   -2.7762    0.0000 C   0  0  0  0  0  0  0  0  0  0  0  0
   -4.0586   -1.4772    0.0000 C   0  0  0  0  0  0  0  0  0  0  0  0
   -4.3191    0.0000    0.0000 C   0  0  0  0  0  0  0  0  0  0  0  0
   -4.0586    1.4772    0.0000 C   0  0  0  0  0  0  0  0  0  0  0  0
   -3.3086    2.7762    0.0000 C   0  0  0  0  0  0  0  0  0  0  0  0
   -2.1595    3.7404    0.0000 C   0  0  0  0  0  0  0  0  0  0  0  0
   -0.7500    4.2535    0.0000 C   0  0  0  0  0  0  0  0  0  0  0  0
    0.7500    4.2535    0.0000 C   0  0  0  0  0  0  0  0  0  0  0  0
    2.1595    3.7404    0.0000 C   0  0  0  0  0  0  0  0  0  0  0  0
    3.3086    2.7762    0.0000 C   0  0  0  0  0  0  0  0  0  0  0  0
    4.0586    1.4772    0.0000 C   0  0  0  0  0  0  0  0  0  0  0  0
  1  2  1  0
  2  3  1  0
  3  4  1  0
  4  5  2  0
  5  6  1  0
  6  7  1  0
  7  8  1  0
  8  9  1  0
  9 10  1  0
 10 11  1  0
 11 12  1  0
 12 13  1  0
 13 14  1  0
 14 15  1  0
 15 16  1  0
 16 17  1  0
 17 18  1  0
 18 19  1  0
 19  2  1  0
M  END
>  <Title>  (323) 
idAAKMgen8

$$$$

     RDKit          2D

110110  0  0  0  0  0  0  0  0999 V2000
   27.5254    0.0000    0.0000 C   0  0  0  0  0  0  0  0  0  0  0  0
   26.0254    0.0000    0.0000 C   0  0  0  0  0  0  0  0  0  0  0  0
   25.9822    1.4994    0.0000 C   0  0  0  0  0  0  0  0  0  0  0  0
   25.8527    2.9938    0.0000 C   0  0  0  0  0  0  0  0  0  0  0  0
   25.6373    4.4782    0.0000 C   0  0  0  0  0  0  0  0  0  0  0  0
   25.3367    5.9478    0.0000 C   0  0  0  0  0  0  0  0  0  0  0  0
   24.9519    7.3976    0.0000 C   0  0  0  0  0  0  0  0  0  0  0  0
   24.4843    8.8229    0.0000 C   0  0  0  0  0  0  0  0  0  0  0  0
   23.9353   10.2188    0.0000 C   0  0  0  0  0  0  0  0  0  0  0  0
   23.3068   11.5808    0.0000 C   0  0  0  0  0  0  0  0  0  0  0  0
   22.6009   12.9043    0.0000 C   0  0  0  0  0  0  0  0  0  0  0  0
   21.8200   14.1850    0.0000 C   0  0  0  0  0  0  0  0  0  0  0  0
   20.9665   15.4185    0.0000 C   0  0  0  0  0  0  0  0  0  0  0  0
   20.0434   16.6008    0.0000 C   0  0  0  0  0  0  0  0  0  0  0  0
   19.0537   17.7280    0.0000 C   0  0  0  0  0  0  0  0  0  0  0  0
   18.0007   18.7962    0.0000 C   0  0  0  0  0  0  0  0  0  0  0  0
   16.8879   19.8021    0.0000 C   0  0  0  0  0  0  0  0  0  0  0  0
   15.7190   20.7421    0.0000 C   0  0  0  0  0  0  0  0  0  0  0  0
   14.4979   21.6133    0.0000 C   0  0  0  0  0  0  0  0  0  0  0  0
   13.2287   22.4126    0.0000 C   0  0  0  0  0  0  0  0  0  0  0  0
   11.9154   23.1375    0.0000 C   0  0  0  0  0  0  0  0  0  0  0  0
   10.5627   23.7856    0.0000 C   0  0  0  0  0  0  0  0  0  0  0  0
    9.1748   24.3546    0.0000 C   0  0  0  0  0  0  0  0  0  0  0  0
    7.7564   24.8427    0.0000 C   0  0  0  0  0  0  0  0  0  0  0  0
    6.3123   25.2483    0.0000 C   0  0  0  0  0  0  0  0  0  0  0  0
    4.8472   25.5701    0.0000 C   0  0  0  0  0  0  0  0  0  0  0  0
    3.3660   25.8068    0.0000 C   0  0  0  0  0  0  0  0  0  0  0  0
    1.8736   25.9579    0.0000 C   0  0  0  0  0  0  0  0  0  0  0  0
    0.3750   26.0227    0.0000 C   0  0  0  0  0  0  0  0  0  0  0  0
   -1.1248   26.0011    0.0000 C   0  0  0  0  0  0  0  0  0  0  0  0
   -2.6209   25.8931    0.0000 C   0  0  0  0  0  0  0  0  0  0  0  0
   -4.1083   25.6991    0.0000 C   0  0  0  0  0  0  0  0  0  0  0  0
   -5.5821   25.4198    0.0000 C   0  0  0  0  0  0  0  0  0  0  0  0
   -7.0373   25.0559    0.0000 C   0  0  0  0  0  0  0  0  0  0  0  0
   -8.4691   24.6089    0.0000 C   0  0  0  0  0  0  0  0  0  0  0  0
   -9.8728   24.0801    0.0000 C   0  0  0  0  0  0  0  0  0  0  0  0
  -11.2437   23.4713    0.0000 C   0  0  0  0  0  0  0  0  0  0  0  0
  -12.5773   22.7845    0.0000 C   0  0  0  0  0  0  0  0  0  0  0  0
  -13.8690   22.0221    0.0000 C   0  0  0  0  0  0  0  0  0  0  0  0
  -15.1147   21.1865    0.0000 C   0  0  0  0  0  0  0  0  0  0  0  0
  -16.3102   20.2805    0.0000 C   0  0  0  0  0  0  0  0  0  0  0  0
  -17.4515   19.3072    0.0000 C   0  0  0  0  0  0  0  0  0  0  0  0
  -18.5349   18.2697    0.0000 C   0  0  0  0  0  0  0  0  0  0  0  0
  -19.5567   17.1715    0.0000 C   0  0  0  0  0  0  0  0  0  0  0  0
  -20.5135   16.0163    0.0000 C   0  0  0  0  0  0  0  0  0  0  0  0
  -21.4021   14.8079    0.0000 C   0  0  0  0  0  0  0  0  0  0  0  0
  -22.2197   13.5503    0.0000 C   0  0  0  0  0  0  0  0  0  0  0  0
  -22.9634   12.2476    0.0000 C   0  0  0  0  0  0  0  0  0  0  0  0
  -23.6309   10.9043    0.0000 C   0  0  0  0  0  0  0  0  0  0  0  0
  -24.2199    9.5248    0.0000 C   0  0  0  0  0  0  0  0  0  0  0  0
  -24.7284    8.1136    0.0000 C   0  0  0  0  0  0  0  0  0  0  0  0
  -25.1547    6.6755    0.0000 C   0  0  0  0  0  0  0  0  0  0  0  0
  -25.4976    5.2152    0.0000 C   0  0  0  0  0  0  0  0  0  0  0  0
  -25.7557    3.7376    0.0000 C   0  0  0  0  0  0  0  0  0  0  0  0
  -25.9282    2.2475    0.0000 C   0  0  0  0  0  0  0  0  0  0  0  0
  -26.0146    0.7500    0.0000 C   0  0  0  0  0  0  0  0  0  0  0  0
  -26.0146   -0.7500    0.0000 C   0  0  0  0  0  0  0  0  0  0  0  0
  -25.9282   -2.2475    0.0000 C   0  0  0  0  0  0  0  0  0  0  0  0
  -25.7557   -3.7376    0.0000 C   0  0  0  0  0  0  0  0  0  0  0  0
  -25.4976   -5.2152    0.0000 C   0  0  0  0  0  0  0  0  0  0  0  0
  -25.1547   -6.6755    0.0000 C   0  0  0  0  0  0  0  0  0  0  0  0
  -24.7284   -8.1136    0.0000 C   0  0  0  0  0  0  0  0  0  0  0  0
  -24.2199   -9.5248    0.0000 C   0  0  0  0  0  0  0  0  0  0  0  0
  -23.6309  -10.9043    0.0000 C   0  0  0  0  0  0  0  0  0  0  0  0
  -22.9634  -12.2476    0.0000 C   0  0  0  0  0  0  0  0  0  0  0  0
  -22.2197  -13.5503    0.0000 C   0  0  0  0  0  0  0  0  0  0  0  0
  -21.4021  -14.8079    0.0000 C   0  0  0  0  0  0  0  0  0  0  0  0
  -20.5135  -16.0163    0.0000 C   0  0  0  0  0  0  0  0  0  0  0  0
  -19.5567  -17.1715    0.0000 C   0  0  0  0  0  0  0  0  0  0  0  0
  -18.5349  -18.2697    0.0000 C   0  0  0  0  0  0  0  0  0  0  0  0
  -17.4515  -19.3072    0.0000 C   0  0  0  0  0  0  0  0  0  0  0  0
  -16.3102  -20.2805    0.0000 C   0  0  0  0  0  0  0  0  0  0  0  0
  -15.1147  -21.1865    0.0000 C   0  0  0  0  0  0  0  0  0  0  0  0
  -13.8690  -22.0221    0.0000 C   0  0  0  0  0  0  0  0  0  0  0  0
  -12.5773  -22.7845    0.0000 C   0  0  0  0  0  0  0  0  0  0  0  0
  -11.2437  -23.4713    0.0000 C   0  0  0  0  0  0  0  0  0  0  0  0
   -9.8728  -24.0801    0.0000 C   0  0  0  0  0  0  0  0  0  0  0  0
   -8.4691  -24.6089    0.0000 C   0  0  0  0  0  0  0  0  0  0  0  0
   -7.0373  -25.0559    0.0000 C   0  0  0  0  0  0  0  0  0  0  0  0
   -5.5821  -25.4198    0.0000 C   0  0  0  0  0  0  0  0  0  0  0  0
   -4.1083  -25.6991    0.0000 C   0  0  0  0  0  0  0  0  0  0  0  0
   -2.6209  -25.8931    0.0000 C   0  0  0  0  0  0  0  0  0  0  0  0
   -1.1248  -26.0011    0.0000 C   0  0  0  0  0  0  0  0  0  0  0  0
    0.3750  -26.0227    0.0000 C   0  0  0  0  0  0  0  0  0  0  0  0
    1.8736  -25.9579    0.0000 C   0  0  0  0  0  0  0  0  0  0  0  0
    3.3660  -25.8068    0.0000 C   0  0  0  0  0  0  0  0  0  0  0  0
    4.8472  -25.5701    0.0000 C   0  0  0  0  0  0  0  0  0  0  0  0
    6.3123  -25.2483    0.0000 C   0  0  0  0  0  0  0  0  0  0  0  0
    7.7564  -24.8427    0.0000 C   0  0  0  0  0  0  0  0  0  0  0  0
    9.1748  -24.3546    0.0000 C   0  0  0  0  0  0  0  0  0  0  0  0
   10.5627  -23.7856    0.0000 C   0  0  0  0  0  0  0  0  0  0  0  0
   11.9154  -23.1375    0.0000 C   0  0  0  0  0  0  0  0  0  0  0  0
   13.2287  -22.4126    0.0000 C   0  0  0  0  0  0  0  0  0  0  0  0
   14.4979  -21.6133    0.0000 C   0  0  0  0  0  0  0  0  0  0  0  0
   15.7190  -20.7421    0.0000 C   0  0  0  0  0  0  0  0  0  0  0  0
   16.8879  -19.8021    0.0000 C   0  0  0  0  0  0  0  0  0  0  0  0
   18.0007  -18.7962    0.0000 C   0  0  0  0  0  0  0  0  0  0  0  0
   19.0537  -17.7280    0.0000 C   0  0  0  0  0  0  0  0  0  0  0  0
   20.0434  -16.6008    0.0000 C   0  0  0  0  0  0  0  0  0  0  0  0
   20.9665  -15.4185    0.0000 C   0  0  0  0  0  0  0  0  0  0  0  0
   21.8200  -14.1850    0.0000 C   0  0  0  0  0  0  0  0  0  0  0  0
   22.6009  -12.9043    0.0000 C   0  0  0  0  0  0  0  0  0  0  0  0
   23.3068  -11.5808    0.0000 C   0  0  0  0  0  0  0  0  0  0  0  0
   23.9353  -10.2188    0.0000 C   0  0  0  0  0  0  0  0  0  0  0  0
   24.4843   -8.8229    0.0000 C   0  0  0  0  0  0  0  0  0  0  0  0
   24.9519   -7.3976    0.0000 C   0  0  0  0  0  0  0  0  0  0  0  0
   25.3367   -5.9478    0.0000 C   0  0  0  0  0  0  0  0  0  0  0  0
   25.6373   -4.4782    0.0000 C   0  0  0  0  0  0  0  0  0  0  0  0
   25.8527   -2.9938    0.0000 C   0  0  0  0  0  0  0  0  0  0  0  0
   25.9822   -1.4994    0.0000 C   0  0  0  0  0  0  0  0  0  0  0  0
  1  2  1  0
  2  3  1  0
  3  4  1  0
  4  5  1  0
  5  6  1  0
  6  7  1  0
  7  8  1  0
  8  9  1  0
  9 10  1  0
 10 11  1  0
 11 12  1  0
 12 13  1  0
 13 14  1  0
 14 15  1  0
 15 16  1  0
 16 17  1  0
 17 18  1  0
 18 19  1  0
 19 20  1  0
 20 21  1  0
 21 22  1  0
 22 23  1  0
 23 24  1  0
 24 25  1  0
 25 26  1  0
 26 27  1  0
 27 28  1  0
 28 29  1  0
 29 30  2  0
 30 31  1  0
 31 32  1  0
 32 33  1  0
 33 34  1  0
 34 35  1  0
 35 36  1  0
 36 37  1  0
 37 38  1  0
 38 39  1  0
 39 40  1  0
 40 41  1  0
 41 42  1  0
 42 43  1  0
 43 44  1  0
 44 45  1  0
 45 46  1  0
 46 47  1  0
 47 48  1  0
 48 49  1  0
 49 50  1  0
 50 51  1  0
 51 52  1  0
 52 53  1  0
 53 54  1  0
 54 55  1  0
 55 56  1  0
 56 57  1  0
 57 58  1  0
 58 59  1  0
 59 60  1  0
 60 61  1  0
 61 62  1  0
 62 63  1  0
 63 64  1  0
 64 65  1  0
 65 66  1  0
 66 67  1  0
 67 68  1  0
 68 69  1  0
 69 70  1  0
 70 71  1  0
 71 72  1  0
 72 73  1  0
 73 74  1  0
 74 75  1  0
 75 76  1  0
 76 77  1  0
 77 78  1  0
 78 79  1  0
 79 80  1  0
 80 81  1  0
 81 82  1  0
 82 83  1  0
 83 84  1  0
 84 85  1  0
 85 86  1  0
 86 87  1  0
 87 88  1  0
 88 89  1  0
 89 90  1  0
 90 91  1  0
 91 92  1  0
 92 93  1  0
 93 94  1  0
 94 95  1  0
 95 96  1  0
 96 97  1  0
 97 98  1  0
 98 99  1  0
 99100  1  0
100101  1  0
101102  1  0
102103  1  0
103104  1  0
104105  1  0
105106  1  0
106107  1  0
107108  1  0
108109  1  0
109110  1  0
110  2  1  0
M  END
>  <Title>  (324) 
idAAKNgen8

$$$$

     RDKit          2D

 91 91  0  0  0  0  0  0  0  0999 V2000
   21.7290    0.0000    0.0000 C   0  0  0  0  0  0  0  0  0  0  0  0
   21.6772    1.4991    0.0000 C   0  0  0  0  0  0  0  0  0  0  0  0
   21.5221    2.9911    0.0000 C   0  0  0  0  0  0  0  0  0  0  0  0
   21.2645    4.4688    0.0000 C   0  0  0  0  0  0  0  0  0  0  0  0
   20.9055    5.9252    0.0000 C   0  0  0  0  0  0  0  0  0  0  0  0
   20.4469    7.3534    0.0000 C   0  0  0  0  0  0  0  0  0  0  0  0
   19.8909    8.7465    0.0000 C   0  0  0  0  0  0  0  0  0  0  0  0
   19.2400   10.0980    0.0000 C   0  0  0  0  0  0  0  0  0  0  0  0
   18.4975   11.4013    0.0000 C   0  0  0  0  0  0  0  0  0  0  0  0
   17.6669   12.6503    0.0000 C   0  0  0  0  0  0  0  0  0  0  0  0
   16.7520   13.8390    0.0000 C   0  0  0  0  0  0  0  0  0  0  0  0
   15.7573   14.9618    0.0000 C   0  0  0  0  0  0  0  0  0  0  0  0
   14.6876   16.0132    0.0000 C   0  0  0  0  0  0  0  0  0  0  0  0
   13.5478   16.9884    0.0000 C   0  0  0  0  0  0  0  0  0  0  0  0
   12.3435   17.8826    0.0000 C   0  0  0  0  0  0  0  0  0  0  0  0
   11.0803   18.6916    0.0000 C   0  0  0  0  0  0  0  0  0  0  0  0
    9.7644   19.4115    0.0000 C   0  0  0  0  0  0  0  0  0  0  0  0
    8.4019   20.0389    0.0000 C   0  0  0  0  0  0  0  0  0  0  0  0
    6.9993   20.5708    0.0000 C   0  0  0  0  0  0  0  0  0  0  0  0
    5.5635   21.0047    0.0000 C   0  0  0  0  0  0  0  0  0  0  0  0
    4.1011   21.3384    0.0000 C   0  0  0  0  0  0  0  0  0  0  0  0
    2.6191   21.5705    0.0000 C   0  0  0  0  0  0  0  0  0  0  0  0
    1.1247   21.6998    0.0000 C   0  0  0  0  0  0  0  0  0  0  0  0
   -0.3751   21.7257    0.0000 C   0  0  0  0  0  0  0  0  0  0  0  0
   -1.8730   21.6481    0.0000 C   0  0  0  0  0  0  0  0  0  0  0  0
   -3.3621   21.4673    0.0000 C   0  0  0  0  0  0  0  0  0  0  0  0
   -4.8351   21.1842    0.0000 C   0  0  0  0  0  0  0  0  0  0  0  0
   -6.2851   20.8001    0.0000 C   0  0  0  0  0  0  0  0  0  0  0  0
   -7.7052   20.3169    0.0000 C   0  0  0  0  0  0  0  0  0  0  0  0
   -9.0885   19.7369    0.0000 C   0  0  0  0  0  0  0  0  0  0  0  0
  -10.4285   19.0629    0.0000 C   0  0  0  0  0  0  0  0  0  0  0  0
  -11.7189   18.2980    0.0000 C   0  0  0  0  0  0  0  0  0  0  0  0
  -12.9533   17.4459    0.0000 C   0  0  0  0  0  0  0  0  0  0  0  0
  -14.1261   16.5106    0.0000 C   0  0  0  0  0  0  0  0  0  0  0  0
  -15.2315   15.4967    0.0000 C   0  0  0  0  0  0  0  0  0  0  0  0
  -16.2644   14.4090    0.0000 C   0  0  0  0  0  0  0  0  0  0  0  0
  -17.2197   13.2525    0.0000 C   0  0  0  0  0  0  0  0  0  0  0  0
  -18.0930   12.0330    0.0000 C   0  0  0  0  0  0  0  0  0  0  0  0
  -18.8800   10.7560    0.0000 C   0  0  0  0  0  0  0  0  0  0  0  0
  -19.5771    9.4278    0.0000 C   0  0  0  0  0  0  0  0  0  0  0  0
  -20.1809    8.0547    0.0000 C   0  0  0  0  0  0  0  0  0  0  0  0
  -20.6885    6.6432    0.0000 C   0  0  0  0  0  0  0  0  0  0  0  0
  -21.0976    5.2001    0.0000 C   0  0  0  0  0  0  0  0  0  0  0  0
  -21.4061    3.7321    0.0000 C   0  0  0  0  0  0  0  0  0  0  0  0
  -21.6125    2.2464    0.0000 C   0  0  0  0  0  0  0  0  0  0  0  0
  -21.7160    0.7500    0.0000 C   0  0  0  0  0  0  0  0  0  0  0  0
  -21.7160   -0.7500    0.0000 C   0  0  0  0  0  0  0  0  0  0  0  0
  -21.6125   -2.2464    0.0000 C   0  0  0  0  0  0  0  0  0  0  0  0
  -21.4061   -3.7321    0.0000 C   0  0  0  0  0  0  0  0  0  0  0  0
  -21.0976   -5.2001    0.0000 C   0  0  0  0  0  0  0  0  0  0  0  0
  -20.6885   -6.6432    0.0000 C   0  0  0  0  0  0  0  0  0  0  0  0
  -20.1809   -8.0547    0.0000 C   0  0  0  0  0  0  0  0  0  0  0  0
  -19.5771   -9.4278    0.0000 C   0  0  0  0  0  0  0  0  0  0  0  0
  -18.8800  -10.7560    0.0000 C   0  0  0  0  0  0  0  0  0  0  0  0
  -18.0930  -12.0330    0.0000 C   0  0  0  0  0  0  0  0  0  0  0  0
  -17.2197  -13.2525    0.0000 C   0  0  0  0  0  0  0  0  0  0  0  0
  -16.2644  -14.4090    0.0000 C   0  0  0  0  0  0  0  0  0  0  0  0
  -15.2315  -15.4967    0.0000 C   0  0  0  0  0  0  0  0  0  0  0  0
  -14.1261  -16.5106    0.0000 C   0  0  0  0  0  0  0  0  0  0  0  0
  -12.9533  -17.4459    0.0000 C   0  0  0  0  0  0  0  0  0  0  0  0
  -11.7189  -18.2980    0.0000 C   0  0  0  0  0  0  0  0  0  0  0  0
  -10.4285  -19.0629    0.0000 C   0  0  0  0  0  0  0  0  0  0  0  0
   -9.0885  -19.7369    0.0000 C   0  0  0  0  0  0  0  0  0  0  0  0
   -7.7052  -20.3169    0.0000 C   0  0  0  0  0  0  0  0  0  0  0  0
   -6.2851  -20.8001    0.0000 C   0  0  0  0  0  0  0  0  0  0  0  0
   -4.8351  -21.1842    0.0000 C   0  0  0  0  0  0  0  0  0  0  0  0
   -3.3621  -21.4673    0.0000 C   0  0  0  0  0  0  0  0  0  0  0  0
   -1.8730  -21.6481    0.0000 C   0  0  0  0  0  0  0  0  0  0  0  0
   -0.3751  -21.7257    0.0000 C   0  0  0  0  0  0  0  0  0  0  0  0
    1.1247  -21.6998    0.0000 C   0  0  0  0  0  0  0  0  0  0  0  0
    2.6191  -21.5705    0.0000 C   0  0  0  0  0  0  0  0  0  0  0  0
    4.1011  -21.3384    0.0000 C   0  0  0  0  0  0  0  0  0  0  0  0
    5.5635  -21.0047    0.0000 C   0  0  0  0  0  0  0  0  0  0  0  0
    6.9993  -20.5708    0.0000 C   0  0  0  0  0  0  0  0  0  0  0  0
    8.4019  -20.0389    0.0000 C   0  0  0  0  0  0  0  0  0  0  0  0
    9.7644  -19.4115    0.0000 C   0  0  0  0  0  0  0  0  0  0  0  0
   11.0803  -18.6916    0.0000 C   0  0  0  0  0  0  0  0  0  0  0  0
   12.3435  -17.8826    0.0000 C   0  0  0  0  0  0  0  0  0  0  0  0
   13.5478  -16.9884    0.0000 C   0  0  0  0  0  0  0  0  0  0  0  0
   14.6876  -16.0132    0.0000 C   0  0  0  0  0  0  0  0  0  0  0  0
   15.7573  -14.9618    0.0000 C   0  0  0  0  0  0  0  0  0  0  0  0
   16.7520  -13.8390    0.0000 C   0  0  0  0  0  0  0  0  0  0  0  0
   17.6669  -12.6503    0.0000 C   0  0  0  0  0  0  0  0  0  0  0  0
   18.4975  -11.4013    0.0000 C   0  0  0  0  0  0  0  0  0  0  0  0
   19.2400  -10.0980    0.0000 C   0  0  0  0  0  0  0  0  0  0  0  0
   19.8909   -8.7465    0.0000 C   0  0  0  0  0  0  0  0  0  0  0  0
   20.4469   -7.3534    0.0000 C   0  0  0  0  0  0  0  0  0  0  0  0
   20.9055   -5.9252    0.0000 C   0  0  0  0  0  0  0  0  0  0  0  0
   21.2645   -4.4688    0.0000 C   0  0  0  0  0  0  0  0  0  0  0  0
   21.5221   -2.9911    0.0000 C   0  0  0  0  0  0  0  0  0  0  0  0
   21.6772   -1.4991    0.0000 C   0  0  0  0  0  0  0  0  0  0  0  0
  1  2  2  0
  2  3  1  0
  3  4  1  0
  4  5  1  0
  5  6  1  0
  6  7  1  0
  7  8  1  0
  8  9  1  0
  9 10  1  0
 10 11  1  0
 11 12  1  0
 12 13  1  0
 13 14  1  0
 14 15  1  0
 15 16  1  0
 16 17  1  0
 17 18  1  0
 18 19  1  0
 19 20  1  0
 20 21  1  0
 21 22  1  0
 22 23  1  0
 23 24  1  0
 24 25  1  0
 25 26  1  0
 26 27  1  0
 27 28  1  0
 28 29  1  0
 29 30  1  0
 30 31  1  0
 31 32  1  0
 32 33  1  0
 33 34  1  0
 34 35  1  0
 35 36  1  0
 36 37  1  0
 37 38  1  0
 38 39  1  0
 39 40  1  0
 40 41  1  0
 41 42  1  0
 42 43  1  0
 43 44  1  0
 44 45  1  0
 45 46  1  0
 46 47  1  0
 47 48  1  0
 48 49  1  0
 49 50  1  0
 50 51  1  0
 51 52  1  0
 52 53  1  0
 53 54  1  0
 54 55  1  0
 55 56  1  0
 56 57  1  0
 57 58  1  0
 58 59  1  0
 59 60  1  0
 60 61  1  0
 61 62  1  0
 62 63  1  0
 63 64  1  0
 64 65  1  0
 65 66  1  0
 66 67  1  0
 67 68  1  0
 68 69  1  0
 69 70  1  0
 70 71  1  0
 71 72  1  0
 72 73  1  0
 73 74  1  0
 74 75  1  0
 75 76  1  0
 76 77  1  0
 77 78  1  0
 78 79  1  0
 79 80  1  0
 80 81  1  0
 81 82  1  0
 82 83  1  0
 83 84  1  0
 84 85  1  0
 85 86  1  0
 86 87  1  0
 87 88  1  0
 88 89  1  0
 89 90  1  0
 90 91  1  0
 91  1  1  0
M  END
>  <Title>  (325) 
idAAKOgen8

$$$$

     RDKit          2D

127126  0  0  0  0  0  0  0  0999 V2000
    0.0000    0.0000    0.0000 C   0  0  0  0  0  0  0  0  0  0  0  0
    1.2990    0.7500    0.0000 C   0  0  0  0  0  0  0  0  0  0  0  0
    2.5981   -0.0000    0.0000 C   0  0  0  0  0  0  0  0  0  0  0  0
    3.8971   -0.7500    0.0000 C   0  0  0  0  0  0  0  0  0  0  0  0
    5.1962   -1.5000    0.0000 C   0  0  0  0  0  0  0  0  0  0  0  0
    6.4952   -0.7500    0.0000 C   0  0  0  0  0  0  0  0  0  0  0  0
    7.7942   -1.5000    0.0000 C   0  0  0  0  0  0  0  0  0  0  0  0
    9.0933   -0.7500    0.0000 C   0  0  0  0  0  0  0  0  0  0  0  0
   10.3923   -1.5000    0.0000 C   0  0  0  0  0  0  0  0  0  0  0  0
   11.6913   -0.7500    0.0000 C   0  0  0  0  0  0  0  0  0  0  0  0
   12.9904   -1.5000    0.0000 C   0  0  0  0  0  0  0  0  0  0  0  0
   14.2894   -0.7500    0.0000 C   0  0  0  0  0  0  0  0  0  0  0  0
   15.5885   -1.5000    0.0000 C   0  0  0  0  0  0  0  0  0  0  0  0
   16.8875   -0.7500    0.0000 C   0  0  0  0  0  0  0  0  0  0  0  0
   18.1865   -1.5000    0.0000 C   0  0  0  0  0  0  0  0  0  0  0  0
   19.4856   -0.7500    0.0000 C   0  0  0  0  0  0  0  0  0  0  0  0
   20.7846   -1.5000    0.0000 C   0  0  0  0  0  0  0  0  0  0  0  0
   22.0836   -0.7500    0.0000 C   0  0  0  0  0  0  0  0  0  0  0  0
   23.3827   -1.5000    0.0000 C   0  0  0  0  0  0  0  0  0  0  0  0
   24.6817   -0.7500    0.0000 C   0  0  0  0  0  0  0  0  0  0  0  0
   25.9808   -1.5000    0.0000 C   0  0  0  0  0  0  0  0  0  0  0  0
   27.2798   -0.7500    0.0000 C   0  0  0  0  0  0  0  0  0  0  0  0
   28.5788   -1.5000    0.0000 C   0  0  0  0  0  0  0  0  0  0  0  0
   29.8779   -0.7500    0.0000 C   0  0  0  0  0  0  0  0  0  0  0  0
   31.1769   -1.5000    0.0000 C   0  0  0  0  0  0  0  0  0  0  0  0
   32.4760   -0.7500    0.0000 C   0  0  0  0  0  0  0  0  0  0  0  0
   33.7750   -1.5000    0.0000 C   0  0  0  0  0  0  0  0  0  0  0  0
   35.0740   -0.7500    0.0000 C   0  0  0  0  0  0  0  0  0  0  0  0
   36.3731   -1.5000    0.0000 C   0  0  0  0  0  0  0  0  0  0  0  0
   37.6721   -0.7500    0.0000 C   0  0  0  0  0  0  0  0  0  0  0  0
   38.9711   -1.5000    0.0000 C   0  0  0  0  0  0  0  0  0  0  0  0
   40.2702   -0.7500    0.0000 C   0  0  0  0  0  0  0  0  0  0  0  0
   41.5692   -1.5000    0.0000 C   0  0  0  0  0  0  0  0  0  0  0  0
   42.8683   -0.7500    0.0000 C   0  0  0  0  0  0  0  0  0  0  0  0
   44.1673   -1.5000    0.0000 C   0  0  0  0  0  0  0  0  0  0  0  0
   45.4663   -0.7500    0.0000 C   0  0  0  0  0  0  0  0  0  0  0  0
   46.7654   -1.5000    0.0000 C   0  0  0  0  0  0  0  0  0  0  0  0
   48.0644   -0.7500    0.0000 C   0  0  0  0  0  0  0  0  0  0  0  0
   49.3634   -1.5000    0.0000 C   0  0  0  0  0  0  0  0  0  0  0  0
   50.6625   -0.7500    0.0000 C   0  0  0  0  0  0  0  0  0  0  0  0
   51.9615   -1.5000    0.0000 C   0  0  0  0  0  0  0  0  0  0  0  0
   53.2606   -0.7500    0.0000 C   0  0  0  0  0  0  0  0  0  0  0  0
   54.5596   -1.5000    0.0000 C   0  0  0  0  0  0  0  0  0  0  0  0
   55.8586   -0.7500    0.0000 C   0  0  0  0  0  0  0  0  0  0  0  0
   57.1577   -1.5000    0.0000 C   0  0  0  0  0  0  0  0  0  0  0  0
   58.4567   -0.7500    0.0000 C   0  0  0  0  0  0  0  0  0  0  0  0
   59.7558   -1.5000    0.0000 C   0  0  0  0  0  0  0  0  0  0  0  0
   61.0548   -0.7500    0.0000 C   0  0  0  0  0  0  0  0  0  0  0  0
   62.3538   -1.5000    0.0000 C   0  0  0  0  0  0  0  0  0  0  0  0
   63.6529   -0.7500    0.0000 C   0  0  0  0  0  0  0  0  0  0  0  0
   64.9519   -1.5000    0.0000 C   0  0  0  0  0  0  0  0  0  0  0  0
   66.2509   -0.7500    0.0000 C   0  0  0  0  0  0  0  0  0  0  0  0
   67.5500   -1.5000    0.0000 C   0  0  0  0  0  0  0  0  0  0  0  0
   68.8490   -0.7500    0.0000 C   0  0  0  0  0  0  0  0  0  0  0  0
   70.1481   -1.5000    0.0000 C   0  0  0  0  0  0  0  0  0  0  0  0
   71.4471   -0.7500    0.0000 C   0  0  0  0  0  0  0  0  0  0  0  0
   72.7461   -1.5000    0.0000 C   0  0  0  0  0  0  0  0  0  0  0  0
   74.0452   -0.7500    0.0000 C   0  0  0  0  0  0  0  0  0  0  0  0
   75.3442   -1.5000    0.0000 C   0  0  0  0  0  0  0  0  0  0  0  0
   76.6432   -0.7500    0.0000 C   0  0  0  0  0  0  0  0  0  0  0  0
   77.9423   -1.5000    0.0000 C   0  0  0  0  0  0  0  0  0  0  0  0
   79.2413   -0.7500    0.0000 C   0  0  0  0  0  0  0  0  0  0  0  0
   80.5404   -1.5000    0.0000 C   0  0  0  0  0  0  0  0  0  0  0  0
   81.8394   -0.7500    0.0000 C   0  0  0  0  0  0  0  0  0  0  0  0
   83.1384   -1.5000    0.0000 C   0  0  0  0  0  0  0  0  0  0  0  0
   84.4375   -0.7500    0.0000 C   0  0  0  0  0  0  0  0  0  0  0  0
   85.7365   -1.5000    0.0000 C   0  0  0  0  0  0  0  0  0  0  0  0
   87.0356   -0.7500    0.0000 C   0  0  0  0  0  0  0  0  0  0  0  0
   88.3346   -1.5000    0.0000 C   0  0  0  0  0  0  0  0  0  0  0  0
   89.6336   -0.7500    0.0000 C   0  0  0  0  0  0  0  0  0  0  0  0
   90.9327   -1.5000    0.0000 C   0  0  0  0  0  0  0  0  0  0  0  0
   92.2317   -0.7500    0.0000 C   0  0  0  0  0  0  0  0  0  0  0  0
   93.5307   -1.5000    0.0000 C   0  0  0  0  0  0  0  0  0  0  0  0
   94.8298   -0.7500    0.0000 C   0  0  0  0  0  0  0  0  0  0  0  0
   96.1288   -1.5000    0.0000 C   0  0  0  0  0  0  0  0  0  0  0  0
   97.4279   -0.7500    0.0000 C   0  0  0  0  0  0  0  0  0  0  0  0
   98.7269   -1.5000    0.0000 C   0  0  0  0  0  0  0  0  0  0  0  0
  100.0259   -0.7500    0.0000 C   0  0  0  0  0  0  0  0  0  0  0  0
  101.3250   -1.5000    0.0000 C   0  0  0  0  0  0  0  0  0  0  0  0
  102.6240   -0.7500    0.0000 C   0  0  0  0  0  0  0  0  0  0  0  0
  103.9230   -1.5000    0.0000 C   0  0  0  0  0  0  0  0  0  0  0  0
  105.2221   -0.7500    0.0000 C   0  0  0  0  0  0  0  0  0  0  0  0
  106.5211   -1.5000    0.0000 C   0  0  0  0  0  0  0  0  0  0  0  0
  107.8202   -0.7500    0.0000 C   0  0  0  0  0  0  0  0  0  0  0  0
  109.1192   -1.5000    0.0000 C   0  0  0  0  0  0  0  0  0  0  0  0
  110.4182   -0.7500    0.0000 C   0  0  0  0  0  0  0  0  0  0  0  0
  111.7173   -1.5000    0.0000 C   0  0  0  0  0  0  0  0  0  0  0  0
  113.0163   -0.7500    0.0000 C   0  0  0  0  0  0  0  0  0  0  0  0
  114.3154   -1.5000    0.0000 C   0  0  0  0  0  0  0  0  0  0  0  0
  115.6144   -0.7500    0.0000 C   0  0  0  0  0  0  0  0  0  0  0  0
  116.9134   -1.5000    0.0000 C   0  0  0  0  0  0  0  0  0  0  0  0
  118.2125   -0.7500    0.0000 C   0  0  0  0  0  0  0  0  0  0  0  0
  119.5115   -1.5000    0.0000 C   0  0  0  0  0  0  0  0  0  0  0  0
  120.8105   -0.7500    0.0000 C   0  0  0  0  0  0  0  0  0  0  0  0
  122.1096   -1.5000    0.0000 C   0  0  0  0  0  0  0  0  0  0  0  0
  123.4086   -0.7500    0.0000 C   0  0  0  0  0  0  0  0  0  0  0  0
  124.7077   -1.5000    0.0000 C   0  0  0  0  0  0  0  0  0  0  0  0
  126.0067   -0.7500    0.0000 C   0  0  0  0  0  0  0  0  0  0  0  0
  127.3057   -1.5000    0.0000 C   0  0  0  0  0  0  0  0  0  0  0  0
  128.6048   -0.7500    0.0000 C   0  0  0  0  0  0  0  0  0  0  0  0
  129.9038   -1.5000    0.0000 C   0  0  0  0  0  0  0  0  0  0  0  0
  131.2028   -0.7500    0.0000 C   0  0  0  0  0  0  0  0  0  0  0  0
  132.5019   -1.5000    0.0000 C   0  0  0  0  0  0  0  0  0  0  0  0
  133.8009   -0.7500    0.0000 C   0  0  0  0  0  0  0  0  0  0  0  0
  135.1000   -1.5000    0.0000 C   0  0  0  0  0  0  0  0  0  0  0  0
  136.3990   -0.7500    0.0000 C   0  0  0  0  0  0  0  0  0  0  0  0
  137.6980   -1.5000    0.0000 C   0  0  0  0  0  0  0  0  0  0  0  0
  138.9971   -0.7500    0.0000 C   0  0  0  0  0  0  0  0  0  0  0  0
  140.2961   -1.5000    0.0000 C   0  0  0  0  0  0  0  0  0  0  0  0
  141.5952   -0.7500    0.0000 C   0  0  0  0  0  0  0  0  0  0  0  0
  142.8942   -1.5000    0.0000 C   0  0  0  0  0  0  0  0  0  0  0  0
  144.1932   -0.7500    0.0000 C   0  0  0  0  0  0  0  0  0  0  0  0
  145.4923   -1.5000    0.0000 C   0  0  0  0  0  0  0  0  0  0  0  0
  146.7913   -0.7500    0.0000 C   0  0  0  0  0  0  0  0  0  0  0  0
  148.0903   -1.5000    0.0000 C   0  0  0  0  0  0  0  0  0  0  0  0
  149.3894   -0.7500    0.0000 C   0  0  0  0  0  0  0  0  0  0  0  0
  150.6884   -1.5000    0.0000 C   0  0  0  0  0  0  0  0  0  0  0  0
  151.9875   -0.7500    0.0000 C   0  0  0  0  0  0  0  0  0  0  0  0
  153.2865   -1.5000    0.0000 C   0  0  0  0  0  0  0  0  0  0  0  0
  154.5855   -0.7500    0.0000 C   0  0  0  0  0  0  0  0  0  0  0  0
  155.8846   -1.5000    0.0000 C   0  0  0  0  0  0  0  0  0  0  0  0
  157.1836   -0.7500    0.0000 C   0  0  0  0  0  0  0  0  0  0  0  0
  158.4826   -1.5000    0.0000 C   0  0  0  0  0  0  0  0  0  0  0  0
  159.7817   -0.7500    0.0000 C   0  0  0  0  0  0  0  0  0  0  0  0
  161.0807   -1.5000    0.0000 C   0  0  0  0  0  0  0  0  0  0  0  0
  162.3798   -0.7500    0.0000 C   0  0  0  0  0  0  0  0  0  0  0  0
  163.6788   -1.5000    0.0000 C   0  0  0  0  0  0  0  0  0  0  0  0
  1  2  1  0
  2  3  1  0
  3  4  3  0
  4  5  1  0
  5  6  1  0
  6  7  1  0
  7  8  1  0
  8  9  1  0
  9 10  1  0
 10 11  1  0
 11 12  1  0
 12 13  1  0
 13 14  1  0
 14 15  1  0
 15 16  1  0
 16 17  1  0
 17 18  1  0
 18 19  1  0
 19 20  1  0
 20 21  1  0
 21 22  1  0
 22 23  1  0
 23 24  1  0
 24 25  1  0
 25 26  1  0
 26 27  1  0
 27 28  1  0
 28 29  1  0
 29 30  1  0
 30 31  1  0
 31 32  1  0
 32 33  1  0
 33 34  1  0
 34 35  1  0
 35 36  1  0
 36 37  1  0
 37 38  1  0
 38 39  1  0
 39 40  1  0
 40 41  1  0
 41 42  1  0
 42 43  1  0
 43 44  1  0
 44 45  1  0
 45 46  1  0
 46 47  1  0
 47 48  1  0
 48 49  1  0
 49 50  1  0
 50 51  1  0
 51 52  1  0
 52 53  1  0
 53 54  1  0
 54 55  1  0
 55 56  1  0
 56 57  1  0
 57 58  1  0
 58 59  1  0
 59 60  1  0
 60 61  1  0
 61 62  1  0
 62 63  1  0
 63 64  1  0
 64 65  1  0
 65 66  1  0
 66 67  1  0
 67 68  1  0
 68 69  1  0
 69 70  1  0
 70 71  1  0
 71 72  1  0
 72 73  1  0
 73 74  1  0
 74 75  1  0
 75 76  1  0
 76 77  1  0
 77 78  1  0
 78 79  1  0
 79 80  1  0
 80 81  1  0
 81 82  1  0
 82 83  1  0
 83 84  1  0
 84 85  1  0
 85 86  1  0
 86 87  1  0
 87 88  1  0
 88 89  1  0
 89 90  1  0
 90 91  1  0
 91 92  1  0
 92 93  1  0
 93 94  1  0
 94 95  1  0
 95 96  1  0
 96 97  1  0
 97 98  1  0
 98 99  1  0
 99100  1  0
100101  1  0
101102  1  0
102103  1  0
103104  1  0
104105  1  0
105106  1  0
106107  1  0
107108  1  0
108109  1  0
109110  1  0
110111  1  0
111112  1  0
112113  1  0
113114  1  0
114115  1  0
115116  1  0
116117  1  0
117118  1  0
118119  1  0
119120  1  0
120121  1  0
121122  1  0
122123  1  0
123124  1  0
124125  1  0
125126  1  0
126127  1  0
M  END
>  <Title>  (326) 
idAAKPgen8

$$$$

     RDKit          2D

 11 11  0  0  0  0  0  0  0  0999 V2000
    8.2500   -1.2990    0.0000 C   0  0  0  0  0  0  0  0  0  0  0  0
    6.7500   -1.2990    0.0000 O   0  0  0  0  0  0  0  0  0  0  0  0
    6.0000    0.0000    0.0000 C   0  0  0  0  0  0  0  0  0  0  0  0
    4.5000    0.0000    0.0000 C   0  0  0  0  0  0  0  0  0  0  0  0
    3.0000    0.0000    0.0000 C   0  0  0  0  0  0  0  0  0  0  0  0
    1.5000    0.0000    0.0000 C   0  0  0  0  0  0  0  0  0  0  0  0
    0.7500   -1.2990    0.0000 C   0  0  0  0  0  0  0  0  0  0  0  0
   -0.7500   -1.2990    0.0000 C   0  0  0  0  0  0  0  0  0  0  0  0
   -1.5000    0.0000    0.0000 C   0  0  0  0  0  0  0  0  0  0  0  0
   -0.7500    1.2990    0.0000 C   0  0  0  0  0  0  0  0  0  0  0  0
    0.7500    1.2990    0.0000 O   0  0  0  0  0  0  0  0  0  0  0  0
  1  2  1  0
  2  3  1  0
  3  4  1  0
  4  5  3  0
  5  6  1  0
  6  7  1  0
  7  8  1  0
  8  9  2  0
  9 10  1  0
 10 11  1  0
 11  6  1  0
M  END
>  <Title>  (327) 
idAAKQgen8

$$$$

     RDKit          2D

 44 50  0  0  0  0  0  0  0  0999 V2000
    7.5085   -5.0640    0.0000 C   0  0  0  0  0  0  0  0  0  0  0  0
    6.1840   -4.3598    0.0000 C   0  0  0  0  0  0  0  0  0  0  0  0
    4.9120   -5.1547    0.0000 C   0  0  0  0  0  0  0  0  0  0  0  0
    3.5875   -4.4504    0.0000 C   0  0  0  0  0  0  0  0  0  0  0  0
    4.7366   -3.4863    0.0000 C   0  0  0  0  0  0  0  0  0  0  0  0
    3.1240   -3.0239    0.0000 C   0  0  0  0  0  0  0  0  0  0  0  0
    4.4231   -2.2739    0.0000 O   0  0  0  0  0  0  0  0  0  0  0  0
    2.1203   -1.9091    0.0000 O   0  0  0  0  0  0  0  0  0  0  0  0
    0.7500   -1.2990    0.0000 C   0  0  0  0  0  0  0  0  0  0  0  0
    1.5000    0.0000    0.0000 C   0  0  0  0  0  0  0  0  0  0  0  0
    0.7500    1.2990    0.0000 C   0  0  0  0  0  0  0  0  0  0  0  0
   -0.7500    1.2990    0.0000 C   0  0  0  0  0  0  0  0  0  0  0  0
   -1.5000    0.0000    0.0000 C   0  0  0  0  0  0  0  0  0  0  0  0
   -0.7500   -1.2990    0.0000 C   0  0  0  0  0  0  0  0  0  0  0  0
   -2.1203   -1.9091    0.0000 C   0  0  0  0  0  0  0  0  0  0  0  0
   -2.5838   -0.4826    0.0000 C   0  0  0  0  0  0  0  0  0  0  0  0
   -4.0511   -0.1707    0.0000 C   0  0  0  0  0  0  0  0  0  0  0  0
   -5.0548   -1.2854    0.0000 C   0  0  0  0  0  0  0  0  0  0  0  0
   -4.5912   -2.7120    0.0000 C   0  0  0  0  0  0  0  0  0  0  0  0
   -3.1240   -3.0239    0.0000 C   0  0  0  0  0  0  0  0  0  0  0  0
   -3.5875   -4.4504    0.0000 C   0  0  0  0  0  0  0  0  0  0  0  0
   -4.9579   -3.8403    0.0000 C   0  0  0  0  0  0  0  0  0  0  0  0
   -6.1714   -4.7220    0.0000 C   0  0  0  0  0  0  0  0  0  0  0  0
   -6.0146   -6.2138    0.0000 C   0  0  0  0  0  0  0  0  0  0  0  0
   -4.6443   -6.8239    0.0000 C   0  0  0  0  0  0  0  0  0  0  0  0
   -3.4307   -5.9422    0.0000 C   0  0  0  0  0  0  0  0  0  0  0  0
   -2.6807   -7.2413    0.0000 C   0  0  0  0  0  0  0  0  0  0  0  0
   -4.0511   -7.8514    0.0000 C   0  0  0  0  0  0  0  0  0  0  0  0
   -4.2079   -9.3432    0.0000 C   0  0  0  0  0  0  0  0  0  0  0  0
   -2.9943  -10.2248    0.0000 C   0  0  0  0  0  0  0  0  0  0  0  0
   -1.6240   -9.6147    0.0000 C   0  0  0  0  0  0  0  0  0  0  0  0
   -1.4672   -8.1229    0.0000 C   0  0  0  0  0  0  0  0  0  0  0  0
   -0.0000   -8.4348    0.0000 C   0  0  0  0  0  0  0  0  0  0  0  0
   -0.4635   -9.8614    0.0000 C   0  0  0  0  0  0  0  0  0  0  0  0
    0.5402  -10.9761    0.0000 C   0  0  0  0  0  0  0  0  0  0  0  0
    2.0074  -10.6642    0.0000 C   0  0  0  0  0  0  0  0  0  0  0  0
    2.4709   -9.2377    0.0000 C   0  0  0  0  0  0  0  0  0  0  0  0
    1.4672   -8.1229    0.0000 C   0  0  0  0  0  0  0  0  0  0  0  0
    2.6807   -7.2413    0.0000 C   0  0  0  0  0  0  0  0  0  0  0  0
    3.4307   -8.5403    0.0000 C   0  0  0  0  0  0  0  0  0  0  0  0
    4.9307   -8.5403    0.0000 C   0  0  0  0  0  0  0  0  0  0  0  0
    5.6807   -7.2413    0.0000 C   0  0  0  0  0  0  0  0  0  0  0  0
    4.9307   -5.9422    0.0000 C   0  0  0  0  0  0  0  0  0  0  0  0
    3.4307   -5.9422    0.0000 C   0  0  0  0  0  0  0  0  0  0  0  0
  1  2  1  0
  2  3  1  0
  3  4  1  0
  4  5  1  0
  4  6  1  0
  6  7  2  0
  6  8  1  0
  8  9  1  0
  9 10  2  0
 10 11  1  0
 11 12  2  0
 12 13  1  0
 13 14  2  0
 14 15  1  0
 15 16  2  0
 16 17  1  0
 17 18  2  0
 18 19  1  0
 19 20  2  0
 20 21  1  0
 21 22  2  0
 22 23  1  0
 23 24  2  0
 24 25  1  0
 25 26  2  0
 26 27  1  0
 27 28  2  0
 28 29  1  0
 29 30  2  0
 30 31  1  0
 31 32  2  0
 32 33  1  0
 33 34  2  0
 34 35  1  0
 35 36  2  0
 36 37  1  0
 37 38  2  0
 38 39  1  0
 39 40  2  0
 40 41  1  0
 41 42  2  0
 42 43  1  0
 43 44  2  0
 44  4  1  0
 14  9  1  0
 20 15  1  0
 26 21  1  0
 32 27  1  0
 38 33  1  0
 44 39  1  0
M  END
>  <Title>  (328) 
idAAKRgen8

$$$$

     RDKit          2D

118119  0  0  0  0  0  0  0  0999 V2000
   -2.3726    0.1124    0.0000 C   0  0  0  0  0  0  0  0  0  0  0  0
   -2.2477   -1.3824    0.0000 C   0  0  0  0  0  0  0  0  0  0  0  0
   -3.7384   -1.5489    0.0000 C   0  0  0  0  0  0  0  0  0  0  0  0
   -5.2176   -1.7979    0.0000 C   0  0  0  0  0  0  0  0  0  0  0  0
   -6.6806   -2.1288    0.0000 C   0  0  0  0  0  0  0  0  0  0  0  0
   -8.1230   -2.5405    0.0000 C   0  0  0  0  0  0  0  0  0  0  0  0
   -9.5403   -3.0317    0.0000 C   0  0  0  0  0  0  0  0  0  0  0  0
  -10.9281   -3.6009    0.0000 C   0  0  0  0  0  0  0  0  0  0  0  0
  -12.2822   -4.2463    0.0000 C   0  0  0  0  0  0  0  0  0  0  0  0
  -13.5982   -4.9660    0.0000 C   0  0  0  0  0  0  0  0  0  0  0  0
  -14.8723   -5.7578    0.0000 C   0  0  0  0  0  0  0  0  0  0  0  0
  -16.1003   -6.6191    0.0000 C   0  0  0  0  0  0  0  0  0  0  0  0
  -17.2786   -7.5473    0.0000 C   0  0  0  0  0  0  0  0  0  0  0  0
  -18.4035   -8.5396    0.0000 C   0  0  0  0  0  0  0  0  0  0  0  0
  -19.4715   -9.5929    0.0000 C   0  0  0  0  0  0  0  0  0  0  0  0
  -20.4794  -10.7038    0.0000 C   0  0  0  0  0  0  0  0  0  0  0  0
  -21.4239  -11.8691    0.0000 C   0  0  0  0  0  0  0  0  0  0  0  0
  -22.3022  -13.0851    0.0000 C   0  0  0  0  0  0  0  0  0  0  0  0
  -23.1115  -14.3480    0.0000 C   0  0  0  0  0  0  0  0  0  0  0  0
  -23.8495  -15.6539    0.0000 C   0  0  0  0  0  0  0  0  0  0  0  0
  -24.5137  -16.9989    0.0000 C   0  0  0  0  0  0  0  0  0  0  0  0
  -25.1021  -18.3786    0.0000 C   0  0  0  0  0  0  0  0  0  0  0  0
  -25.6130  -19.7890    0.0000 C   0  0  0  0  0  0  0  0  0  0  0  0
  -26.0447  -21.2255    0.0000 C   0  0  0  0  0  0  0  0  0  0  0  0
  -26.3958  -22.6838    0.0000 C   0  0  0  0  0  0  0  0  0  0  0  0
  -26.6654  -24.1594    0.0000 C   0  0  0  0  0  0  0  0  0  0  0  0
  -26.8526  -25.6477    0.0000 C   0  0  0  0  0  0  0  0  0  0  0  0
  -26.9568  -27.1440    0.0000 C   0  0  0  0  0  0  0  0  0  0  0  0
  -26.9776  -28.6439    0.0000 C   0  0  0  0  0  0  0  0  0  0  0  0
  -26.9151  -30.1426    0.0000 C   0  0  0  0  0  0  0  0  0  0  0  0
  -26.7694  -31.6355    0.0000 C   0  0  0  0  0  0  0  0  0  0  0  0
  -26.5409  -33.1180    0.0000 C   0  0  0  0  0  0  0  0  0  0  0  0
  -26.2304  -34.5855    0.0000 C   0  0  0  0  0  0  0  0  0  0  0  0
  -25.8388  -36.0335    0.0000 C   0  0  0  0  0  0  0  0  0  0  0  0
  -25.3674  -37.4575    0.0000 C   0  0  0  0  0  0  0  0  0  0  0  0
  -24.8175  -38.8530    0.0000 C   0  0  0  0  0  0  0  0  0  0  0  0
  -24.1909  -40.2159    0.0000 C   0  0  0  0  0  0  0  0  0  0  0  0
  -23.4896  -41.5419    0.0000 C   0  0  0  0  0  0  0  0  0  0  0  0
  -22.7156  -42.8268    0.0000 C   0  0  0  0  0  0  0  0  0  0  0  0
  -21.8715  -44.0667    0.0000 C   0  0  0  0  0  0  0  0  0  0  0  0
  -20.9597  -45.2578    0.0000 C   0  0  0  0  0  0  0  0  0  0  0  0
  -19.9832  -46.3964    0.0000 C   0  0  0  0  0  0  0  0  0  0  0  0
  -18.9449  -47.4789    0.0000 C   0  0  0  0  0  0  0  0  0  0  0  0
  -17.8480  -48.5021    0.0000 C   0  0  0  0  0  0  0  0  0  0  0  0
  -16.6959  -49.4627    0.0000 C   0  0  0  0  0  0  0  0  0  0  0  0
  -15.4923  -50.3578    0.0000 C   0  0  0  0  0  0  0  0  0  0  0  0
  -14.2408  -51.1847    0.0000 C   0  0  0  0  0  0  0  0  0  0  0  0
  -12.9452  -51.9407    0.0000 C   0  0  0  0  0  0  0  0  0  0  0  0
  -11.6096  -52.6235    0.0000 C   0  0  0  0  0  0  0  0  0  0  0  0
  -10.2382  -53.2311    0.0000 C   0  0  0  0  0  0  0  0  0  0  0  0
   -8.8351  -53.7615    0.0000 C   0  0  0  0  0  0  0  0  0  0  0  0
   -7.4047  -54.2131    0.0000 C   0  0  0  0  0  0  0  0  0  0  0  0
   -5.9514  -54.5845    0.0000 C   0  0  0  0  0  0  0  0  0  0  0  0
   -4.4797  -54.8746    0.0000 C   0  0  0  0  0  0  0  0  0  0  0  0
   -2.9942  -55.0824    0.0000 C   0  0  0  0  0  0  0  0  0  0  0  0
   -1.4994  -55.2074    0.0000 C   0  0  0  0  0  0  0  0  0  0  0  0
   -0.0000  -55.2491    0.0000 C   0  0  0  0  0  0  0  0  0  0  0  0
    1.4994  -55.2074    0.0000 C   0  0  0  0  0  0  0  0  0  0  0  0
    2.9942  -55.0824    0.0000 C   0  0  0  0  0  0  0  0  0  0  0  0
    4.4797  -54.8746    0.0000 C   0  0  0  0  0  0  0  0  0  0  0  0
    5.9514  -54.5845    0.0000 C   0  0  0  0  0  0  0  0  0  0  0  0
    7.4047  -54.2131    0.0000 C   0  0  0  0  0  0  0  0  0  0  0  0
    8.8351  -53.7615    0.0000 C   0  0  0  0  0  0  0  0  0  0  0  0
   10.2382  -53.2311    0.0000 C   0  0  0  0  0  0  0  0  0  0  0  0
   11.6096  -52.6235    0.0000 C   0  0  0  0  0  0  0  0  0  0  0  0
   12.9452  -51.9407    0.0000 C   0  0  0  0  0  0  0  0  0  0  0  0
   14.2408  -51.1847    0.0000 C   0  0  0  0  0  0  0  0  0  0  0  0
   15.4923  -50.3578    0.0000 C   0  0  0  0  0  0  0  0  0  0  0  0
   16.6959  -49.4627    0.0000 C   0  0  0  0  0  0  0  0  0  0  0  0
   17.8480  -48.5021    0.0000 C   0  0  0  0  0  0  0  0  0  0  0  0
   18.9449  -47.4789    0.0000 C   0  0  0  0  0  0  0  0  0  0  0  0
   19.9832  -46.3964    0.0000 C   0  0  0  0  0  0  0  0  0  0  0  0
   20.9597  -45.2578    0.0000 C   0  0  0  0  0  0  0  0  0  0  0  0
   21.8715  -44.0667    0.0000 C   0  0  0  0  0  0  0  0  0  0  0  0
   22.7156  -42.8268    0.0000 C   0  0  0  0  0  0  0  0  0  0  0  0
   23.4896  -41.5419    0.0000 C   0  0  0  0  0  0  0  0  0  0  0  0
   24.1909  -40.2159    0.0000 C   0  0  0  0  0  0  0  0  0  0  0  0
   24.8175  -38.8530    0.0000 C   0  0  0  0  0  0  0  0  0  0  0  0
   25.3674  -37.4575    0.0000 C   0  0  0  0  0  0  0  0  0  0  0  0
   25.8388  -36.0335    0.0000 C   0  0  0  0  0  0  0  0  0  0  0  0
   26.2304  -34.5855    0.0000 C   0  0  0  0  0  0  0  0  0  0  0  0
   26.5409  -33.1180    0.0000 C   0  0  0  0  0  0  0  0  0  0  0  0
   26.7694  -31.6355    0.0000 C   0  0  0  0  0  0  0  0  0  0  0  0
   26.9151  -30.1426    0.0000 C   0  0  0  0  0  0  0  0  0  0  0  0
   26.9776  -28.6439    0.0000 C   0  0  0  0  0  0  0  0  0  0  0  0
   26.9568  -27.1440    0.0000 C   0  0  0  0  0  0  0  0  0  0  0  0
   26.8526  -25.6477    0.0000 C   0  0  0  0  0  0  0  0  0  0  0  0
   26.6654  -24.1594    0.0000 C   0  0  0  0  0  0  0  0  0  0  0  0
   26.3958  -22.6838    0.0000 C   0  0  0  0  0  0  0  0  0  0  0  0
   26.0447  -21.2255    0.0000 C   0  0  0  0  0  0  0  0  0  0  0  0
   25.6130  -19.7890    0.0000 C   0  0  0  0  0  0  0  0  0  0  0  0
   25.1021  -18.3786    0.0000 C   0  0  0  0  0  0  0  0  0  0  0  0
   24.5137  -16.9989    0.0000 C   0  0  0  0  0  0  0  0  0  0  0  0
   23.8495  -15.6539    0.0000 C   0  0  0  0  0  0  0  0  0  0  0  0
   23.1115  -14.3480    0.0000 C   0  0  0  0  0  0  0  0  0  0  0  0
   22.3022  -13.0851    0.0000 C   0  0  0  0  0  0  0  0  0  0  0  0
   21.4239  -11.8691    0.0000 C   0  0  0  0  0  0  0  0  0  0  0  0
   20.4794  -10.7038    0.0000 C   0  0  0  0  0  0  0  0  0  0  0  0
   19.4715   -9.5929    0.0000 C   0  0  0  0  0  0  0  0  0  0  0  0
   18.4035   -8.5396    0.0000 C   0  0  0  0  0  0  0  0  0  0  0  0
   17.2786   -7.5473    0.0000 C   0  0  0  0  0  0  0  0  0  0  0  0
   16.1003   -6.6191    0.0000 C   0  0  0  0  0  0  0  0  0  0  0  0
   14.8723   -5.7578    0.0000 C   0  0  0  0  0  0  0  0  0  0  0  0
   13.5982   -4.9660    0.0000 C   0  0  0  0  0  0  0  0  0  0  0  0
   12.2822   -4.2463    0.0000 C   0  0  0  0  0  0  0  0  0  0  0  0
   10.9281   -3.6009    0.0000 C   0  0  0  0  0  0  0  0  0  0  0  0
    9.5403   -3.0317    0.0000 C   0  0  0  0  0  0  0  0  0  0  0  0
    8.1230   -2.5405    0.0000 C   0  0  0  0  0  0  0  0  0  0  0  0
    6.6806   -2.1288    0.0000 C   0  0  0  0  0  0  0  0  0  0  0  0
    5.2176   -1.7979    0.0000 C   0  0  0  0  0  0  0  0  0  0  0  0
    3.7384   -1.5489    0.0000 C   0  0  0  0  0  0  0  0  0  0  0  0
    2.2477   -1.3824    0.0000 C   0  0  0  0  0  0  0  0  0  0  0  0
    0.7500   -1.2990    0.0000 C   0  0  0  0  0  0  0  0  0  0  0  0
    1.5000    0.0000    0.0000 C   0  0  0  0  0  0  0  0  0  0  0  0
    0.7500    1.2990    0.0000 C   0  0  0  0  0  0  0  0  0  0  0  0
   -0.7500    1.2990    0.0000 C   0  0  0  0  0  0  0  0  0  0  0  0
   -1.5000    0.0000    0.0000 C   0  0  0  0  0  0  0  0  0  0  0  0
   -0.7500   -1.2990    0.0000 C   0  0  0  0  0  0  0  0  0  0  0  0
  1  2  1  0
  2  3  1  0
  3  4  1  0
  4  5  1  0
  5  6  1  0
  6  7  1  0
  7  8  1  0
  8  9  1  0
  9 10  1  0
 10 11  1  0
 11 12  1  0
 12 13  1  0
 13 14  1  0
 14 15  1  0
 15 16  1  0
 16 17  1  0
 17 18  1  0
 18 19  1  0
 19 20  1  0
 20 21  1  0
 21 22  1  0
 22 23  1  0
 23 24  1  0
 24 25  1  0
 25 26  1  0
 26 27  1  0
 27 28  1  0
 28 29  1  0
 29 30  1  0
 30 31  1  0
 31 32  1  0
 32 33  1  0
 33 34  1  0
 34 35  1  0
 35 36  1  0
 36 37  1  0
 37 38  1  0
 38 39  1  0
 39 40  1  0
 40 41  1  0
 41 42  1  0
 42 43  1  0
 43 44  1  0
 44 45  1  0
 45 46  1  0
 46 47  1  0
 47 48  1  0
 48 49  1  0
 49 50  1  0
 50 51  1  0
 51 52  1  0
 52 53  1  0
 53 54  1  0
 54 55  1  0
 55 56  1  0
 56 57  1  0
 57 58  1  0
 58 59  1  0
 59 60  1  0
 60 61  1  0
 61 62  1  0
 62 63  1  0
 63 64  1  0
 64 65  1  0
 65 66  1  0
 66 67  1  0
 67 68  1  0
 68 69  1  0
 69 70  1  0
 70 71  1  0
 71 72  1  0
 72 73  1  0
 73 74  1  0
 74 75  1  0
 75 76  1  0
 76 77  1  0
 77 78  1  0
 78 79  1  0
 79 80  1  0
 80 81  1  0
 81 82  1  0
 82 83  1  0
 83 84  1  0
 84 85  1  0
 85 86  1  0
 86 87  1  0
 87 88  1  0
 88 89  1  0
 89 90  1  0
 90 91  1  0
 91 92  1  0
 92 93  1  0
 93 94  1  0
 94 95  1  0
 95 96  1  0
 96 97  1  0
 97 98  1  0
 98 99  1  0
 99100  1  0
100101  1  0
101102  1  0
102103  1  0
103104  1  0
104105  1  0
105106  1  0
106107  1  0
107108  1  0
108109  1  0
109110  1  0
110111  1  0
111112  1  0
112113  1  0
113114  2  0
114115  1  0
115116  2  0
116117  1  0
117118  2  0
118  2  1  0
118113  1  0
M  END
>  <Title>  (329) 
idAAKSgen8

$$$$

     RDKit          2D

102102  0  0  0  0  0  0  0  0999 V2000
   25.3772    0.0000    0.0000 C   0  0  0  0  0  0  0  0  0  0  0  0
   23.8772    0.0000    0.0000 C   0  0  0  0  0  0  0  0  0  0  0  0
   23.8301   -1.4993    0.0000 C   0  0  0  0  0  0  0  0  0  0  0  0
   23.6889   -2.9926    0.0000 C   0  0  0  0  0  0  0  0  0  0  0  0
   23.4542   -4.4741    0.0000 C   0  0  0  0  0  0  0  0  0  0  0  0
   23.1270   -5.9380    0.0000 C   0  0  0  0  0  0  0  0  0  0  0  0
   22.7085   -7.3785    0.0000 C   0  0  0  0  0  0  0  0  0  0  0  0
   22.2004   -8.7898    0.0000 C   0  0  0  0  0  0  0  0  0  0  0  0
   21.6047  -10.1664    0.0000 C   0  0  0  0  0  0  0  0  0  0  0  0
   20.9237  -11.5029    0.0000 C   0  0  0  0  0  0  0  0  0  0  0  0
   20.1602  -12.7940    0.0000 C   0  0  0  0  0  0  0  0  0  0  0  0
   19.3170  -14.0346    0.0000 C   0  0  0  0  0  0  0  0  0  0  0  0
   18.3977  -15.2199    0.0000 C   0  0  0  0  0  0  0  0  0  0  0  0
   17.4057  -16.3450    0.0000 C   0  0  0  0  0  0  0  0  0  0  0  0
   16.3450  -17.4057    0.0000 C   0  0  0  0  0  0  0  0  0  0  0  0
   15.2199  -18.3977    0.0000 C   0  0  0  0  0  0  0  0  0  0  0  0
   14.0346  -19.3170    0.0000 C   0  0  0  0  0  0  0  0  0  0  0  0
   12.7940  -20.1602    0.0000 C   0  0  0  0  0  0  0  0  0  0  0  0
   11.5029  -20.9237    0.0000 C   0  0  0  0  0  0  0  0  0  0  0  0
   10.1664  -21.6047    0.0000 C   0  0  0  0  0  0  0  0  0  0  0  0
    8.7898  -22.2004    0.0000 C   0  0  0  0  0  0  0  0  0  0  0  0
    7.3785  -22.7085    0.0000 C   0  0  0  0  0  0  0  0  0  0  0  0
    5.9380  -23.1270    0.0000 C   0  0  0  0  0  0  0  0  0  0  0  0
    4.4741  -23.4542    0.0000 C   0  0  0  0  0  0  0  0  0  0  0  0
    2.9926  -23.6889    0.0000 C   0  0  0  0  0  0  0  0  0  0  0  0
    1.4993  -23.8301    0.0000 C   0  0  0  0  0  0  0  0  0  0  0  0
   -0.0000  -23.8772    0.0000 C   0  0  0  0  0  0  0  0  0  0  0  0
   -1.4993  -23.8301    0.0000 C   0  0  0  0  0  0  0  0  0  0  0  0
   -2.9926  -23.6889    0.0000 C   0  0  0  0  0  0  0  0  0  0  0  0
   -4.4741  -23.4542    0.0000 C   0  0  0  0  0  0  0  0  0  0  0  0
   -5.9380  -23.1270    0.0000 C   0  0  0  0  0  0  0  0  0  0  0  0
   -7.3785  -22.7085    0.0000 C   0  0  0  0  0  0  0  0  0  0  0  0
   -8.7898  -22.2004    0.0000 C   0  0  0  0  0  0  0  0  0  0  0  0
  -10.1664  -21.6047    0.0000 C   0  0  0  0  0  0  0  0  0  0  0  0
  -11.5029  -20.9237    0.0000 C   0  0  0  0  0  0  0  0  0  0  0  0
  -12.7940  -20.1602    0.0000 C   0  0  0  0  0  0  0  0  0  0  0  0
  -14.0346  -19.3170    0.0000 C   0  0  0  0  0  0  0  0  0  0  0  0
  -15.2199  -18.3977    0.0000 C   0  0  0  0  0  0  0  0  0  0  0  0
  -16.3450  -17.4057    0.0000 C   0  0  0  0  0  0  0  0  0  0  0  0
  -17.4057  -16.3450    0.0000 C   0  0  0  0  0  0  0  0  0  0  0  0
  -18.3977  -15.2199    0.0000 C   0  0  0  0  0  0  0  0  0  0  0  0
  -19.3170  -14.0346    0.0000 C   0  0  0  0  0  0  0  0  0  0  0  0
  -20.1602  -12.7940    0.0000 C   0  0  0  0  0  0  0  0  0  0  0  0
  -20.9237  -11.5029    0.0000 C   0  0  0  0  0  0  0  0  0  0  0  0
  -21.6047  -10.1664    0.0000 C   0  0  0  0  0  0  0  0  0  0  0  0
  -22.2004   -8.7898    0.0000 C   0  0  0  0  0  0  0  0  0  0  0  0
  -22.7085   -7.3785    0.0000 C   0  0  0  0  0  0  0  0  0  0  0  0
  -23.1270   -5.9380    0.0000 C   0  0  0  0  0  0  0  0  0  0  0  0
  -23.4542   -4.4741    0.0000 C   0  0  0  0  0  0  0  0  0  0  0  0
  -23.6889   -2.9926    0.0000 C   0  0  0  0  0  0  0  0  0  0  0  0
  -23.8301   -1.4993    0.0000 C   0  0  0  0  0  0  0  0  0  0  0  0
  -23.8772   -0.0000    0.0000 C   0  0  0  0  0  0  0  0  0  0  0  0
  -23.8301    1.4993    0.0000 C   0  0  0  0  0  0  0  0  0  0  0  0
  -23.6889    2.9926    0.0000 C   0  0  0  0  0  0  0  0  0  0  0  0
  -23.4542    4.4741    0.0000 C   0  0  0  0  0  0  0  0  0  0  0  0
  -23.1270    5.9380    0.0000 C   0  0  0  0  0  0  0  0  0  0  0  0
  -22.7085    7.3785    0.0000 C   0  0  0  0  0  0  0  0  0  0  0  0
  -22.2004    8.7898    0.0000 C   0  0  0  0  0  0  0  0  0  0  0  0
  -21.6047   10.1664    0.0000 C   0  0  0  0  0  0  0  0  0  0  0  0
  -20.9237   11.5029    0.0000 C   0  0  0  0  0  0  0  0  0  0  0  0
  -20.1602   12.7940    0.0000 C   0  0  0  0  0  0  0  0  0  0  0  0
  -19.3170   14.0346    0.0000 C   0  0  0  0  0  0  0  0  0  0  0  0
  -18.3977   15.2199    0.0000 C   0  0  0  0  0  0  0  0  0  0  0  0
  -17.4057   16.3450    0.0000 C   0  0  0  0  0  0  0  0  0  0  0  0
  -16.3450   17.4057    0.0000 C   0  0  0  0  0  0  0  0  0  0  0  0
  -15.2199   18.3977    0.0000 C   0  0  0  0  0  0  0  0  0  0  0  0
  -14.0346   19.3170    0.0000 C   0  0  0  0  0  0  0  0  0  0  0  0
  -12.7940   20.1602    0.0000 C   0  0  0  0  0  0  0  0  0  0  0  0
  -11.5029   20.9237    0.0000 C   0  0  0  0  0  0  0  0  0  0  0  0
  -10.1664   21.6047    0.0000 C   0  0  0  0  0  0  0  0  0  0  0  0
   -8.7898   22.2004    0.0000 C   0  0  0  0  0  0  0  0  0  0  0  0
   -7.3785   22.7085    0.0000 C   0  0  0  0  0  0  0  0  0  0  0  0
   -5.9380   23.1270    0.0000 C   0  0  0  0  0  0  0  0  0  0  0  0
   -4.4741   23.4542    0.0000 C   0  0  0  0  0  0  0  0  0  0  0  0
   -2.9926   23.6889    0.0000 C   0  0  0  0  0  0  0  0  0  0  0  0
   -1.4993   23.8301    0.0000 C   0  0  0  0  0  0  0  0  0  0  0  0
   -0.0000   23.8772    0.0000 C   0  0  0  0  0  0  0  0  0  0  0  0
    1.4993   23.8301    0.0000 C   0  0  0  0  0  0  0  0  0  0  0  0
    2.9926   23.6889    0.0000 C   0  0  0  0  0  0  0  0  0  0  0  0
    4.4741   23.4542    0.0000 C   0  0  0  0  0  0  0  0  0  0  0  0
    5.9380   23.1270    0.0000 C   0  0  0  0  0  0  0  0  0  0  0  0
    7.3785   22.7085    0.0000 C   0  0  0  0  0  0  0  0  0  0  0  0
    8.7898   22.2004    0.0000 C   0  0  0  0  0  0  0  0  0  0  0  0
   10.1664   21.6047    0.0000 C   0  0  0  0  0  0  0  0  0  0  0  0
   11.5029   20.9237    0.0000 C   0  0  0  0  0  0  0  0  0  0  0  0
   12.7940   20.1602    0.0000 C   0  0  0  0  0  0  0  0  0  0  0  0
   14.0346   19.3170    0.0000 C   0  0  0  0  0  0  0  0  0  0  0  0
   15.2199   18.3977    0.0000 C   0  0  0  0  0  0  0  0  0  0  0  0
   16.3450   17.4057    0.0000 C   0  0  0  0  0  0  0  0  0  0  0  0
   17.4057   16.3450    0.0000 C   0  0  0  0  0  0  0  0  0  0  0  0
   18.3977   15.2199    0.0000 C   0  0  0  0  0  0  0  0  0  0  0  0
   19.3170   14.0346    0.0000 C   0  0  0  0  0  0  0  0  0  0  0  0
   20.1602   12.7940    0.0000 C   0  0  0  0  0  0  0  0  0  0  0  0
   20.9237   11.5029    0.0000 C   0  0  0  0  0  0  0  0  0  0  0  0
   21.6047   10.1664    0.0000 C   0  0  0  0  0  0  0  0  0  0  0  0
   22.2004    8.7898    0.0000 C   0  0  0  0  0  0  0  0  0  0  0  0
   22.7085    7.3785    0.0000 C   0  0  0  0  0  0  0  0  0  0  0  0
   23.1270    5.9380    0.0000 C   0  0  0  0  0  0  0  0  0  0  0  0
   23.4542    4.4741    0.0000 C   0  0  0  0  0  0  0  0  0  0  0  0
   23.6889    2.9926    0.0000 C   0  0  0  0  0  0  0  0  0  0  0  0
   23.8301    1.4993    0.0000 C   0  0  0  0  0  0  0  0  0  0  0  0
   25.3271    1.5934    0.0000 O   0  0  0  0  0  0  0  0  0  0  0  0
  1  2  1  0
  2  3  1  0
  3  4  1  0
  4  5  1  0
  5  6  1  0
  6  7  1  0
  7  8  1  0
  8  9  1  0
  9 10  1  0
 10 11  1  0
 11 12  1  0
 12 13  1  0
 13 14  1  0
 14 15  1  0
 15 16  1  0
 16 17  1  0
 17 18  1  0
 18 19  1  0
 19 20  1  0
 20 21  1  0
 21 22  1  0
 22 23  1  0
 23 24  1  0
 24 25  1  0
 25 26  1  0
 26 27  1  0
 27 28  1  0
 28 29  1  0
 29 30  1  0
 30 31  1  0
 31 32  1  0
 32 33  1  0
 33 34  1  0
 34 35  1  0
 35 36  1  0
 36 37  1  0
 37 38  1  0
 38 39  1  0
 39 40  1  0
 40 41  1  0
 41 42  1  0
 42 43  1  0
 43 44  1  0
 44 45  1  0
 45 46  1  0
 46 47  1  0
 47 48  1  0
 48 49  1  0
 49 50  1  0
 50 51  1  0
 51 52  1  0
 52 53  1  0
 53 54  1  0
 54 55  1  0
 55 56  1  0
 56 57  1  0
 57 58  1  0
 58 59  1  0
 59 60  1  0
 60 61  1  0
 61 62  1  0
 62 63  1  0
 63 64  1  0
 64 65  1  0
 65 66  1  0
 66 67  1  0
 67 68  1  0
 68 69  1  0
 69 70  1  0
 70 71  1  0
 71 72  1  0
 72 73  2  0
 73 74  1  0
 74 75  2  0
 75 76  1  0
 76 77  2  0
 77 78  1  0
 78 79  2  0
 79 80  1  0
 80 81  2  0
 81 82  1  0
 82 83  2  0
 83 84  1  0
 84 85  2  0
 85 86  1  0
 86 87  2  0
 87 88  1  0
 88 89  2  0
 89 90  1  0
 90 91  2  0
 91 92  1  0
 92 93  2  0
 93 94  1  0
 94 95  2  0
 95 96  1  0
 96 97  2  0
 97 98  1  0
 98 99  2  0
 99100  1  0
100101  2  0
101102  1  0
101  2  1  0
M  END
>  <Title>  (330) 
idAAKTgen8

$$$$

     RDKit          2D

  8  7  0  0  0  0  0  0  0  0999 V2000
    0.0000    0.0000    0.0000 C   0  0  0  0  0  0  0  0  0  0  0  0
    1.2990    0.7500    0.0000 C   0  0  0  0  0  0  0  0  0  0  0  0
    2.5981    1.5000    0.0000 C   0  0  0  0  0  0  0  0  0  0  0  0
    2.0490   -0.5490    0.0000 C   0  0  0  0  0  0  0  0  0  0  0  0
    0.5490    2.0490    0.0000 C   0  0  0  0  0  0  0  0  0  0  0  0
    1.2990    3.3481    0.0000 C   0  0  0  0  0  0  0  0  0  0  0  0
    2.7990    3.3481    0.0000 O   0  0  0  0  0  0  0  0  0  0  0  0
    0.5490    4.6471    0.0000 O   0  0  0  0  0  0  0  0  0  0  0  0
  1  2  1  0
  2  3  1  0
  2  4  1  0
  2  5  1  0
  5  6  1  0
  6  7  2  0
  6  8  1  0
M  END
>  <Title>  (331) 
idAAKUgen8

$$$$

     RDKit          2D

 50 57  0  0  0  0  0  0  0  0999 V2000
    5.2417   -6.1122    0.0000 C   0  0  0  0  0  0  0  0  0  0  0  0
    3.7705   -5.8195    0.0000 C   0  0  0  0  0  0  0  0  0  0  0  0
    3.7705   -4.3195    0.0000 C   0  0  0  0  0  0  0  0  0  0  0  0
    3.1965   -2.9337    0.0000 C   0  0  0  0  0  0  0  0  0  0  0  0
    2.1358   -1.8731    0.0000 C   0  0  0  0  0  0  0  0  0  0  0  0
    2.9692   -0.6259    0.0000 C   0  0  0  0  0  0  0  0  0  0  0  0
    2.3057    0.7195    0.0000 O   0  0  0  0  0  0  0  0  0  0  0  0
    4.4660   -0.7240    0.0000 N   0  0  0  0  0  0  0  0  0  0  0  0
    5.2993    0.5232    0.0000 C   0  0  0  0  0  0  0  0  0  0  0  0
    6.7961    0.4251    0.0000 N   0  0  0  0  0  0  0  0  0  0  0  0
    7.6295    1.6723    0.0000 N   0  0  0  0  0  0  0  0  0  0  0  0
    6.9660    3.0176    0.0000 N   0  0  0  0  0  0  0  0  0  0  0  0
    5.4692    3.1158    0.0000 N   0  0  0  0  0  0  0  0  0  0  0  0
    4.6359    1.8686    0.0000 N   0  0  0  0  0  0  0  0  0  0  0  0
    0.7500   -1.2990    0.0000 C   0  0  0  0  0  0  0  0  0  0  0  0
    1.5000    0.0000    0.0000 C   0  0  0  0  0  0  0  0  0  0  0  0
    0.7500    1.2990    0.0000 C   0  0  0  0  0  0  0  0  0  0  0  0
   -0.7500    1.2990    0.0000 C   0  0  0  0  0  0  0  0  0  0  0  0
   -1.5000    0.0000    0.0000 C   0  0  0  0  0  0  0  0  0  0  0  0
   -0.7500   -1.2990    0.0000 C   0  0  0  0  0  0  0  0  0  0  0  0
   -2.1358   -1.8731    0.0000 C   0  0  0  0  0  0  0  0  0  0  0  0
   -2.5240   -0.4242    0.0000 C   0  0  0  0  0  0  0  0  0  0  0  0
   -3.9729   -0.0359    0.0000 C   0  0  0  0  0  0  0  0  0  0  0  0
   -5.0336   -1.0966    0.0000 C   0  0  0  0  0  0  0  0  0  0  0  0
   -4.6454   -2.5455    0.0000 C   0  0  0  0  0  0  0  0  0  0  0  0
   -3.1965   -2.9337    0.0000 C   0  0  0  0  0  0  0  0  0  0  0  0
   -3.7705   -4.3195    0.0000 C   0  0  0  0  0  0  0  0  0  0  0  0
   -5.0695   -3.5695    0.0000 C   0  0  0  0  0  0  0  0  0  0  0  0
   -6.3686   -4.3195    0.0000 C   0  0  0  0  0  0  0  0  0  0  0  0
   -6.3686   -5.8195    0.0000 C   0  0  0  0  0  0  0  0  0  0  0  0
   -5.0695   -6.5695    0.0000 C   0  0  0  0  0  0  0  0  0  0  0  0
   -3.7705   -5.8195    0.0000 C   0  0  0  0  0  0  0  0  0  0  0  0
   -3.1965   -7.2054    0.0000 C   0  0  0  0  0  0  0  0  0  0  0  0
   -4.6454   -7.5936    0.0000 C   0  0  0  0  0  0  0  0  0  0  0  0
   -5.0336   -9.0425    0.0000 C   0  0  0  0  0  0  0  0  0  0  0  0
   -3.9729  -10.1031    0.0000 C   0  0  0  0  0  0  0  0  0  0  0  0
   -2.5240   -9.7149    0.0000 C   0  0  0  0  0  0  0  0  0  0  0  0
   -2.1358   -8.2660    0.0000 C   0  0  0  0  0  0  0  0  0  0  0  0
   -0.7500   -8.8400    0.0000 C   0  0  0  0  0  0  0  0  0  0  0  0
   -1.5000  -10.1391    0.0000 C   0  0  0  0  0  0  0  0  0  0  0  0
   -0.7500  -11.4381    0.0000 C   0  0  0  0  0  0  0  0  0  0  0  0
    0.7500  -11.4381    0.0000 C   0  0  0  0  0  0  0  0  0  0  0  0
    1.5000  -10.1391    0.0000 C   0  0  0  0  0  0  0  0  0  0  0  0
    0.7500   -8.8400    0.0000 C   0  0  0  0  0  0  0  0  0  0  0  0
    2.1358   -8.2660    0.0000 C   0  0  0  0  0  0  0  0  0  0  0  0
    2.5240   -9.7149    0.0000 C   0  0  0  0  0  0  0  0  0  0  0  0
    3.9729  -10.1031    0.0000 C   0  0  0  0  0  0  0  0  0  0  0  0
    5.0336   -9.0425    0.0000 C   0  0  0  0  0  0  0  0  0  0  0  0
    4.6454   -7.5936    0.0000 C   0  0  0  0  0  0  0  0  0  0  0  0
    3.1965   -7.2054    0.0000 C   0  0  0  0  0  0  0  0  0  0  0  0
  1  2  1  0
  2  3  1  0
  3  4  1  0
  4  5  1  0
  5  6  1  0
  6  7  2  0
  6  8  1  0
  8  9  1  0
  9 10  2  0
 10 11  1  0
 11 12  2  0
 12 13  1  0
 13 14  2  0
  5 15  1  0
 15 16  2  0
 16 17  1  0
 17 18  2  0
 18 19  1  0
 19 20  2  0
 20 21  1  0
 21 22  2  0
 22 23  1  0
 23 24  2  0
 24 25  1  0
 25 26  2  0
 26 27  1  0
 27 28  2  0
 28 29  1  0
 29 30  2  0
 30 31  1  0
 31 32  2  0
 32 33  1  0
 33 34  2  0
 34 35  1  0
 35 36  2  0
 36 37  1  0
 37 38  2  0
 38 39  1  0
 39 40  2  0
 40 41  1  0
 41 42  2  0
 42 43  1  0
 43 44  2  0
 44 45  1  0
 45 46  2  0
 46 47  1  0
 47 48  2  0
 48 49  1  0
 49 50  2  0
 50  2  1  0
 14  9  1  0
 20 15  1  0
 26 21  1  0
 32 27  1  0
 38 33  1  0
 44 39  1  0
 50 45  1  0
M  END
>  <Title>  (332) 
idAAKVgen8

$$$$

     RDKit          2D

  8  7  0  0  0  0  0  0  0  0999 V2000
    0.0000    0.0000    0.0000 C   0  0  0  0  0  0  0  0  0  0  0  0
    1.2990    0.7500    0.0000 C   0  0  0  0  0  0  0  0  0  0  0  0
    2.5981   -0.0000    0.0000 C   0  0  0  0  0  0  0  0  0  0  0  0
    3.8971    0.7500    0.0000 C   0  0  0  0  0  0  0  0  0  0  0  0
    5.1962   -0.0000    0.0000 C   0  0  0  0  0  0  0  0  0  0  0  0
    6.4952    0.7500    0.0000 C   0  0  0  0  0  0  0  0  0  0  0  0
    5.1962   -1.5000    0.0000 C   0  0  0  0  0  0  0  0  0  0  0  0
    6.4952   -2.2500    0.0000 C   0  0  0  0  0  0  0  0  0  0  0  0
  1  2  1  0
  2  3  2  3
  3  4  1  0
  4  5  1  0
  5  6  1  0
  5  7  1  0
  7  8  1  0
M  END
>  <Title>  (333) 
idAAKWgen8

$$$$

     RDKit          2D

 71 71  0  0  0  0  0  0  0  0999 V2000
   18.2169    0.0000    0.0000 C   0  0  0  0  0  0  0  0  0  0  0  0
   16.7169    0.0000    0.0000 C   0  0  0  0  0  0  0  0  0  0  0  0
   16.6496   -1.4985    0.0000 C   0  0  0  0  0  0  0  0  0  0  0  0
   16.4482   -2.9849    0.0000 C   0  0  0  0  0  0  0  0  0  0  0  0
   16.1145   -4.4473    0.0000 C   0  0  0  0  0  0  0  0  0  0  0  0
   15.6509   -5.8739    0.0000 C   0  0  0  0  0  0  0  0  0  0  0  0
   15.0614   -7.2532    0.0000 C   0  0  0  0  0  0  0  0  0  0  0  0
   14.3506   -8.5741    0.0000 C   0  0  0  0  0  0  0  0  0  0  0  0
   13.5242   -9.8259    0.0000 C   0  0  0  0  0  0  0  0  0  0  0  0
   12.5890  -10.9987    0.0000 C   0  0  0  0  0  0  0  0  0  0  0  0
   11.5524  -12.0829    0.0000 C   0  0  0  0  0  0  0  0  0  0  0  0
   10.4228  -13.0698    0.0000 C   0  0  0  0  0  0  0  0  0  0  0  0
    9.2093  -13.9515    0.0000 C   0  0  0  0  0  0  0  0  0  0  0  0
    7.9216  -14.7208    0.0000 C   0  0  0  0  0  0  0  0  0  0  0  0
    6.5702  -15.3716    0.0000 C   0  0  0  0  0  0  0  0  0  0  0  0
    5.1658  -15.8987    0.0000 C   0  0  0  0  0  0  0  0  0  0  0  0
    3.7199  -16.2978    0.0000 C   0  0  0  0  0  0  0  0  0  0  0  0
    2.2440  -16.5656    0.0000 C   0  0  0  0  0  0  0  0  0  0  0  0
    0.7500  -16.7000    0.0000 C   0  0  0  0  0  0  0  0  0  0  0  0
   -0.7500  -16.7000    0.0000 C   0  0  0  0  0  0  0  0  0  0  0  0
   -2.2440  -16.5656    0.0000 C   0  0  0  0  0  0  0  0  0  0  0  0
   -3.7199  -16.2978    0.0000 C   0  0  0  0  0  0  0  0  0  0  0  0
   -5.1658  -15.8987    0.0000 C   0  0  0  0  0  0  0  0  0  0  0  0
   -6.5702  -15.3716    0.0000 C   0  0  0  0  0  0  0  0  0  0  0  0
   -7.9216  -14.7208    0.0000 C   0  0  0  0  0  0  0  0  0  0  0  0
   -9.2093  -13.9515    0.0000 C   0  0  0  0  0  0  0  0  0  0  0  0
  -10.4228  -13.0698    0.0000 C   0  0  0  0  0  0  0  0  0  0  0  0
  -11.5524  -12.0829    0.0000 C   0  0  0  0  0  0  0  0  0  0  0  0
  -12.5890  -10.9987    0.0000 C   0  0  0  0  0  0  0  0  0  0  0  0
  -13.5242   -9.8259    0.0000 C   0  0  0  0  0  0  0  0  0  0  0  0
  -14.3506   -8.5741    0.0000 C   0  0  0  0  0  0  0  0  0  0  0  0
  -15.0614   -7.2532    0.0000 C   0  0  0  0  0  0  0  0  0  0  0  0
  -15.6509   -5.8739    0.0000 C   0  0  0  0  0  0  0  0  0  0  0  0
  -16.1145   -4.4473    0.0000 C   0  0  0  0  0  0  0  0  0  0  0  0
  -16.4482   -2.9849    0.0000 C   0  0  0  0  0  0  0  0  0  0  0  0
  -16.6496   -1.4985    0.0000 C   0  0  0  0  0  0  0  0  0  0  0  0
  -16.7169    0.0000    0.0000 C   0  0  0  0  0  0  0  0  0  0  0  0
  -16.6496    1.4985    0.0000 C   0  0  0  0  0  0  0  0  0  0  0  0
  -16.4482    2.9849    0.0000 C   0  0  0  0  0  0  0  0  0  0  0  0
  -16.1145    4.4473    0.0000 C   0  0  0  0  0  0  0  0  0  0  0  0
  -15.6509    5.8739    0.0000 C   0  0  0  0  0  0  0  0  0  0  0  0
  -15.0614    7.2532    0.0000 C   0  0  0  0  0  0  0  0  0  0  0  0
  -14.3506    8.5741    0.0000 C   0  0  0  0  0  0  0  0  0  0  0  0
  -13.5242    9.8259    0.0000 C   0  0  0  0  0  0  0  0  0  0  0  0
  -12.5890   10.9987    0.0000 C   0  0  0  0  0  0  0  0  0  0  0  0
  -11.5524   12.0829    0.0000 C   0  0  0  0  0  0  0  0  0  0  0  0
  -10.4228   13.0698    0.0000 C   0  0  0  0  0  0  0  0  0  0  0  0
   -9.2093   13.9515    0.0000 C   0  0  0  0  0  0  0  0  0  0  0  0
   -7.9216   14.7208    0.0000 C   0  0  0  0  0  0  0  0  0  0  0  0
   -6.5702   15.3716    0.0000 C   0  0  0  0  0  0  0  0  0  0  0  0
   -5.1658   15.8987    0.0000 C   0  0  0  0  0  0  0  0  0  0  0  0
   -3.7199   16.2978    0.0000 C   0  0  0  0  0  0  0  0  0  0  0  0
   -2.2440   16.5656    0.0000 C   0  0  0  0  0  0  0  0  0  0  0  0
   -0.7500   16.7000    0.0000 C   0  0  0  0  0  0  0  0  0  0  0  0
    0.7500   16.7000    0.0000 C   0  0  0  0  0  0  0  0  0  0  0  0
    2.2440   16.5656    0.0000 C   0  0  0  0  0  0  0  0  0  0  0  0
    3.7199   16.2978    0.0000 C   0  0  0  0  0  0  0  0  0  0  0  0
    5.1658   15.8987    0.0000 C   0  0  0  0  0  0  0  0  0  0  0  0
    6.5702   15.3716    0.0000 C   0  0  0  0  0  0  0  0  0  0  0  0
    7.9216   14.7208    0.0000 C   0  0  0  0  0  0  0  0  0  0  0  0
    9.2093   13.9515    0.0000 C   0  0  0  0  0  0  0  0  0  0  0  0
   10.4228   13.0698    0.0000 C   0  0  0  0  0  0  0  0  0  0  0  0
   11.5524   12.0829    0.0000 C   0  0  0  0  0  0  0  0  0  0  0  0
   12.5890   10.9987    0.0000 C   0  0  0  0  0  0  0  0  0  0  0  0
   13.5242    9.8259    0.0000 C   0  0  0  0  0  0  0  0  0  0  0  0
   14.3506    8.5741    0.0000 C   0  0  0  0  0  0  0  0  0  0  0  0
   15.0614    7.2532    0.0000 C   0  0  0  0  0  0  0  0  0  0  0  0
   15.6509    5.8739    0.0000 C   0  0  0  0  0  0  0  0  0  0  0  0
   16.1145    4.4473    0.0000 C   0  0  0  0  0  0  0  0  0  0  0  0
   16.4482    2.9849    0.0000 C   0  0  0  0  0  0  0  0  0  0  0  0
   16.6496    1.4985    0.0000 C   0  0  0  0  0  0  0  0  0  0  0  0
  1  2  1  0
  2  3  1  0
  3  4  1  0
  4  5  1  0
  5  6  1  0
  6  7  1  0
  7  8  1  0
  8  9  1  0
  9 10  1  0
 10 11  1  0
 11 12  1  0
 12 13  1  0
 13 14  1  0
 14 15  1  0
 15 16  2  0
 16 17  1  0
 17 18  1  0
 18 19  1  0
 19 20  1  0
 20 21  1  0
 21 22  1  0
 22 23  1  0
 23 24  1  0
 24 25  1  0
 25 26  1  0
 26 27  1  0
 27 28  1  0
 28 29  1  0
 29 30  1  0
 30 31  1  0
 31 32  1  0
 32 33  1  0
 33 34  1  0
 34 35  1  0
 35 36  1  0
 36 37  1  0
 37 38  1  0
 38 39  1  0
 39 40  1  0
 40 41  1  0
 41 42  1  0
 42 43  1  0
 43 44  1  0
 44 45  1  0
 45 46  1  0
 46 47  1  0
 47 48  1  0
 48 49  1  0
 49 50  1  0
 50 51  1  0
 51 52  1  0
 52 53  1  0
 53 54  1  0
 54 55  1  0
 55 56  1  0
 56 57  1  0
 57 58  1  0
 58 59  1  0
 59 60  1  0
 60 61  1  0
 61 62  1  0
 62 63  1  0
 63 64  1  0
 64 65  1  0
 65 66  1  0
 66 67  1  0
 67 68  1  0
 68 69  1  0
 69 70  1  0
 70 71  1  0
 71  2  1  0
M  END
>  <Title>  (334) 
idAAKXgen8

$$$$

     RDKit          2D

 64 73  0  0  0  0  0  0  0  0999 V2000
    6.2168   -5.0497    0.0000 C   0  0  0  0  0  0  0  0  0  0  0  0
    4.7353   -5.2844    0.0000 C   0  0  0  0  0  0  0  0  0  0  0  0
    4.2718   -3.8578    0.0000 C   0  0  0  0  0  0  0  0  0  0  0  0
    3.3901   -2.6442    0.0000 C   0  0  0  0  0  0  0  0  0  0  0  0
    2.1766   -1.7626    0.0000 C   0  0  0  0  0  0  0  0  0  0  0  0
    2.8576   -0.4261    0.0000 C   0  0  0  0  0  0  0  0  0  0  0  0
    2.0406    0.8320    0.0000 O   0  0  0  0  0  0  0  0  0  0  0  0
    4.3555   -0.3475    0.0000 N   0  0  0  0  0  0  0  0  0  0  0  0
    5.0365    0.9890    0.0000 C   0  0  0  0  0  0  0  0  0  0  0  0
    6.5344    1.0675    0.0000 N   0  0  0  0  0  0  0  0  0  0  0  0
    7.2154    2.4040    0.0000 N   0  0  0  0  0  0  0  0  0  0  0  0
    6.3985    3.6620    0.0000 N   0  0  0  0  0  0  0  0  0  0  0  0
    4.9005    3.5835    0.0000 N   0  0  0  0  0  0  0  0  0  0  0  0
    4.2195    2.2470    0.0000 N   0  0  0  0  0  0  0  0  0  0  0  0
    0.7500   -1.2990    0.0000 C   0  0  0  0  0  0  0  0  0  0  0  0
    1.5000    0.0000    0.0000 C   0  0  0  0  0  0  0  0  0  0  0  0
    0.7500    1.2990    0.0000 C   0  0  0  0  0  0  0  0  0  0  0  0
   -0.7500    1.2990    0.0000 C   0  0  0  0  0  0  0  0  0  0  0  0
   -1.5000    0.0000    0.0000 C   0  0  0  0  0  0  0  0  0  0  0  0
   -0.7500   -1.2990    0.0000 C   0  0  0  0  0  0  0  0  0  0  0  0
   -2.1766   -1.7626    0.0000 C   0  0  0  0  0  0  0  0  0  0  0  0
   -2.6401   -0.3360    0.0000 C   0  0  0  0  0  0  0  0  0  0  0  0
   -4.1401   -0.3360    0.0000 C   0  0  0  0  0  0  0  0  0  0  0  0
   -5.0218    0.8775    0.0000 C   0  0  0  0  0  0  0  0  0  0  0  0
   -6.5136    0.7208    0.0000 O   0  0  0  0  0  0  0  0  0  0  0  0
   -4.4117    2.2479    0.0000 O   0  0  0  0  0  0  0  0  0  0  0  0
   -4.6036   -1.7626    0.0000 C   0  0  0  0  0  0  0  0  0  0  0  0
   -3.3901   -2.6442    0.0000 C   0  0  0  0  0  0  0  0  0  0  0  0
   -4.2718   -3.8578    0.0000 C   0  0  0  0  0  0  0  0  0  0  0  0
   -5.2755   -2.7430    0.0000 C   0  0  0  0  0  0  0  0  0  0  0  0
   -6.7427   -3.0549    0.0000 C   0  0  0  0  0  0  0  0  0  0  0  0
   -7.2062   -4.4815    0.0000 C   0  0  0  0  0  0  0  0  0  0  0  0
   -6.2025   -5.5962    0.0000 C   0  0  0  0  0  0  0  0  0  0  0  0
   -4.7353   -5.2844    0.0000 C   0  0  0  0  0  0  0  0  0  0  0  0
   -4.7353   -6.7844    0.0000 C   0  0  0  0  0  0  0  0  0  0  0  0
   -6.2025   -6.4725    0.0000 C   0  0  0  0  0  0  0  0  0  0  0  0
   -7.2062   -7.5872    0.0000 C   0  0  0  0  0  0  0  0  0  0  0  0
   -6.7427   -9.0138    0.0000 C   0  0  0  0  0  0  0  0  0  0  0  0
   -5.2755   -9.3257    0.0000 C   0  0  0  0  0  0  0  0  0  0  0  0
   -4.2718   -8.2109    0.0000 C   0  0  0  0  0  0  0  0  0  0  0  0
   -3.3901   -9.4245    0.0000 C   0  0  0  0  0  0  0  0  0  0  0  0
   -4.7604  -10.0346    0.0000 C   0  0  0  0  0  0  0  0  0  0  0  0
   -4.9172  -11.5263    0.0000 C   0  0  0  0  0  0  0  0  0  0  0  0
   -3.7037  -12.4080    0.0000 C   0  0  0  0  0  0  0  0  0  0  0  0
   -2.3334  -11.7979    0.0000 C   0  0  0  0  0  0  0  0  0  0  0  0
   -2.1766  -10.3061    0.0000 C   0  0  0  0  0  0  0  0  0  0  0  0
   -0.7500  -10.7697    0.0000 C   0  0  0  0  0  0  0  0  0  0  0  0
   -1.5000  -12.0687    0.0000 C   0  0  0  0  0  0  0  0  0  0  0  0
   -0.7500  -13.3677    0.0000 C   0  0  0  0  0  0  0  0  0  0  0  0
    0.7500  -13.3677    0.0000 C   0  0  0  0  0  0  0  0  0  0  0  0
    1.5000  -12.0687    0.0000 C   0  0  0  0  0  0  0  0  0  0  0  0
    0.7500  -10.7697    0.0000 C   0  0  0  0  0  0  0  0  0  0  0  0
    2.1766  -10.3061    0.0000 C   0  0  0  0  0  0  0  0  0  0  0  0
    2.3334  -11.7979    0.0000 C   0  0  0  0  0  0  0  0  0  0  0  0
    3.7037  -12.4080    0.0000 C   0  0  0  0  0  0  0  0  0  0  0  0
    4.9172  -11.5263    0.0000 C   0  0  0  0  0  0  0  0  0  0  0  0
    4.7604  -10.0346    0.0000 C   0  0  0  0  0  0  0  0  0  0  0  0
    3.3901   -9.4245    0.0000 C   0  0  0  0  0  0  0  0  0  0  0  0
    4.2718   -8.2109    0.0000 C   0  0  0  0  0  0  0  0  0  0  0  0
    5.2755   -9.3257    0.0000 C   0  0  0  0  0  0  0  0  0  0  0  0
    6.7427   -9.0138    0.0000 C   0  0  0  0  0  0  0  0  0  0  0  0
    7.2062   -7.5872    0.0000 C   0  0  0  0  0  0  0  0  0  0  0  0
    6.2025   -6.4725    0.0000 C   0  0  0  0  0  0  0  0  0  0  0  0
    4.7353   -6.7844    0.0000 C   0  0  0  0  0  0  0  0  0  0  0  0
  1  2  1  0
  2  3  1  0
  3  4  1  0
  4  5  1  0
  5  6  1  0
  6  7  2  0
  6  8  1  0
  8  9  1  0
  9 10  2  0
 10 11  1  0
 11 12  2  0
 12 13  1  0
 13 14  2  0
  5 15  1  0
 15 16  2  0
 16 17  1  0
 17 18  2  0
 18 19  1  0
 19 20  2  0
 20 21  1  0
 21 22  2  0
 22 23  1  0
 23 24  1  0
 24 25  2  0
 24 26  1  0
 23 27  1  0
 27 28  2  0
 28 29  1  0
 29 30  2  0
 30 31  1  0
 31 32  2  0
 32 33  1  0
 33 34  2  0
 34 35  1  0
 35 36  2  0
 36 37  1  0
 37 38  2  0
 38 39  1  0
 39 40  2  0
 40 41  1  0
 41 42  2  0
 42 43  1  0
 43 44  2  0
 44 45  1  0
 45 46  2  0
 46 47  1  0
 47 48  2  0
 48 49  1  0
 49 50  2  0
 50 51  1  0
 51 52  2  0
 52 53  1  0
 53 54  2  0
 54 55  1  0
 55 56  2  0
 56 57  1  0
 57 58  2  0
 58 59  1  0
 59 60  2  0
 60 61  1  0
 61 62  2  0
 62 63  1  0
 63 64  2  0
 64  2  1  0
 14  9  1  0
 20 15  1  0
 28 21  1  0
 34 29  1  0
 40 35  1  0
 46 41  1  0
 52 47  1  0
 58 53  1  0
 64 59  1  0
M  END
>  <Title>  (335) 
idAAKYgen8

$$$$

     RDKit          2D

 54 61  0  0  0  0  0  0  0  0999 V2000
    5.1820    0.6231    0.0000 C   0  0  0  0  0  0  0  0  0  0  0  0
    4.2178   -0.5259    0.0000 C   0  0  0  0  0  0  0  0  0  0  0  0
    4.5807   -1.9814    0.0000 C   0  0  0  0  0  0  0  0  0  0  0  0
    3.3086   -2.7762    0.0000 C   0  0  0  0  0  0  0  0  0  0  0  0
    2.1595   -1.8121    0.0000 C   0  0  0  0  0  0  0  0  0  0  0  0
    2.7214   -0.4213    0.0000 C   0  0  0  0  0  0  0  0  0  0  0  0
    0.7500   -1.2990    0.0000 C   0  0  0  0  0  0  0  0  0  0  0  0
    1.5000    0.0000    0.0000 C   0  0  0  0  0  0  0  0  0  0  0  0
    0.7500    1.2990    0.0000 C   0  0  0  0  0  0  0  0  0  0  0  0
   -0.7500    1.2990    0.0000 C   0  0  0  0  0  0  0  0  0  0  0  0
   -1.5000    0.0000    0.0000 C   0  0  0  0  0  0  0  0  0  0  0  0
   -0.7500   -1.2990    0.0000 C   0  0  0  0  0  0  0  0  0  0  0  0
   -2.1595   -1.8121    0.0000 C   0  0  0  0  0  0  0  0  0  0  0  0
   -2.4200   -0.3349    0.0000 C   0  0  0  0  0  0  0  0  0  0  0  0
   -3.8296    0.1782    0.0000 C   0  0  0  0  0  0  0  0  0  0  0  0
   -4.9786   -0.7860    0.0000 C   0  0  0  0  0  0  0  0  0  0  0  0
   -4.7181   -2.2632    0.0000 C   0  0  0  0  0  0  0  0  0  0  0  0
   -3.3086   -2.7762    0.0000 C   0  0  0  0  0  0  0  0  0  0  0  0
   -4.0586   -4.0753    0.0000 C   0  0  0  0  0  0  0  0  0  0  0  0
   -5.2077   -3.1111    0.0000 C   0  0  0  0  0  0  0  0  0  0  0  0
   -6.6172   -3.6241    0.0000 C   0  0  0  0  0  0  0  0  0  0  0  0
   -6.8777   -5.1013    0.0000 C   0  0  0  0  0  0  0  0  0  0  0  0
   -5.7286   -6.0655    0.0000 C   0  0  0  0  0  0  0  0  0  0  0  0
   -4.3191   -5.5525    0.0000 C   0  0  0  0  0  0  0  0  0  0  0  0
   -4.0586   -7.0297    0.0000 C   0  0  0  0  0  0  0  0  0  0  0  0
   -5.5586   -7.0297    0.0000 C   0  0  0  0  0  0  0  0  0  0  0  0
   -6.3086   -8.3287    0.0000 C   0  0  0  0  0  0  0  0  0  0  0  0
   -5.5586   -9.6278    0.0000 C   0  0  0  0  0  0  0  0  0  0  0  0
   -4.0586   -9.6278    0.0000 C   0  0  0  0  0  0  0  0  0  0  0  0
   -3.3086   -8.3287    0.0000 C   0  0  0  0  0  0  0  0  0  0  0  0
   -2.1595   -9.2929    0.0000 C   0  0  0  0  0  0  0  0  0  0  0  0
   -3.3086  -10.2571    0.0000 C   0  0  0  0  0  0  0  0  0  0  0  0
   -3.0481  -11.7343    0.0000 C   0  0  0  0  0  0  0  0  0  0  0  0
   -1.6386  -12.2474    0.0000 C   0  0  0  0  0  0  0  0  0  0  0  0
   -0.4895  -11.2832    0.0000 C   0  0  0  0  0  0  0  0  0  0  0  0
   -0.7500   -9.8060    0.0000 C   0  0  0  0  0  0  0  0  0  0  0  0
    0.7500   -9.8060    0.0000 C   0  0  0  0  0  0  0  0  0  0  0  0
    1.0105  -11.2832    0.0000 C   0  0  0  0  0  0  0  0  0  0  0  0
    2.1595   -9.2929    0.0000 C   0  0  0  0  0  0  0  0  0  0  0  0
    3.3086   -8.3287    0.0000 C   0  0  0  0  0  0  0  0  0  0  0  0
    4.0586   -7.0297    0.0000 C   0  0  0  0  0  0  0  0  0  0  0  0
    4.3191   -5.5525    0.0000 C   0  0  0  0  0  0  0  0  0  0  0  0
    4.0586   -4.0753    0.0000 C   0  0  0  0  0  0  0  0  0  0  0  0
    5.4681   -3.5623    0.0000 C   0  0  0  0  0  0  0  0  0  0  0  0
    6.6172   -4.5264    0.0000 C   0  0  0  0  0  0  0  0  0  0  0  0
    8.0268   -4.0134    0.0000 C   0  0  0  0  0  0  0  0  0  0  0  0
    9.1758   -4.9776    0.0000 O   0  0  0  0  0  0  0  0  0  0  0  0
    5.7286   -2.0850    0.0000 N   0  0  0  0  0  0  0  0  0  0  0  0
    7.1382   -1.5720    0.0000 C   0  0  0  0  0  0  0  0  0  0  0  0
    8.2872   -2.5362    0.0000 N   0  0  0  0  0  0  0  0  0  0  0  0
    9.6968   -2.0232    0.0000 N   0  0  0  0  0  0  0  0  0  0  0  0
    9.9572   -0.5460    0.0000 N   0  0  0  0  0  0  0  0  0  0  0  0
    8.8082    0.4182    0.0000 N   0  0  0  0  0  0  0  0  0  0  0  0
    7.3986   -0.0948    0.0000 N   0  0  0  0  0  0  0  0  0  0  0  0
  1  2  1  0
  2  3  1  0
  3  4  2  0
  4  5  1  0
  5  6  1  0
  5  7  1  0
  7  8  2  0
  8  9  1  0
  9 10  2  0
 10 11  1  0
 11 12  2  0
 12 13  1  0
 13 14  2  0
 14 15  1  0
 15 16  2  0
 16 17  1  0
 17 18  2  0
 18 19  1  0
 19 20  2  0
 20 21  1  0
 21 22  2  0
 22 23  1  0
 23 24  2  0
 24 25  1  0
 25 26  2  0
 26 27  1  0
 27 28  2  0
 28 29  1  0
 29 30  2  0
 30 31  1  0
 31 32  2  0
 32 33  1  0
 33 34  2  0
 34 35  1  0
 35 36  2  0
 36 37  1  0
 37 38  1  0
 37 39  1  0
 39 40  2  0
 40 41  1  0
 41 42  1  0
 42 43  1  0
 43 44  1  0
 44 45  1  0
 45 46  1  0
 46 47  1  0
 44 48  1  0
 48 49  1  0
 49 50  2  0
 50 51  1  0
 51 52  2  0
 52 53  1  0
 53 54  2  0
  6  2  1  0
 12  7  1  0
 18 13  1  0
 24 19  1  0
 30 25  1  0
 36 31  1  0
 54 49  1  0
 43  4  1  0
M  END
>  <Title>  (336) 
idAAKZgen8

$$$$

     RDKit          2D

  6  5  0  0  0  0  0  0  0  0999 V2000
    0.0000    0.0000    0.0000 C   0  0  0  0  0  0  0  0  0  0  0  0
    1.2990    0.7500    0.0000 C   0  0  0  0  0  0  0  0  0  0  0  0
    2.5981    1.5000    0.0000 C   0  0  0  0  0  0  0  0  0  0  0  0
    3.8971    2.2500    0.0000 C   0  0  0  0  0  0  0  0  0  0  0  0
    5.1962    1.5000    0.0000 C   0  0  0  0  0  0  0  0  0  0  0  0
    6.4952    2.2500    0.0000 C   0  0  0  0  0  0  0  0  0  0  0  0
  1  2  1  0
  2  3  3  0
  3  4  1  0
  4  5  2  3
  5  6  1  0
M  END
>  <Title>  (337) 
idAALAgen8

$$$$

     RDKit          2D

 40 45  0  0  0  0  0  0  0  0999 V2000
    5.6192   -7.8802    0.0000 C   0  0  0  0  0  0  0  0  0  0  0  0
    4.5586   -6.8195    0.0000 C   0  0  0  0  0  0  0  0  0  0  0  0
    3.1097   -7.2078    0.0000 C   0  0  0  0  0  0  0  0  0  0  0  0
    2.0490   -6.1471    0.0000 C   0  0  0  0  0  0  0  0  0  0  0  0
    2.7990   -4.8481    0.0000 C   0  0  0  0  0  0  0  0  0  0  0  0
    2.7990   -3.3481    0.0000 C   0  0  0  0  0  0  0  0  0  0  0  0
    2.0490   -2.0490    0.0000 C   0  0  0  0  0  0  0  0  0  0  0  0
    3.1097   -0.9884    0.0000 C   0  0  0  0  0  0  0  0  0  0  0  0
    2.7215    0.4605    0.0000 O   0  0  0  0  0  0  0  0  0  0  0  0
    4.5586   -1.3766    0.0000 N   0  0  0  0  0  0  0  0  0  0  0  0
    5.6192   -0.3159    0.0000 C   0  0  0  0  0  0  0  0  0  0  0  0
    7.0681   -0.7042    0.0000 N   0  0  0  0  0  0  0  0  0  0  0  0
    8.1288    0.3565    0.0000 N   0  0  0  0  0  0  0  0  0  0  0  0
    7.7406    1.8054    0.0000 N   0  0  0  0  0  0  0  0  0  0  0  0
    6.2917    2.1936    0.0000 N   0  0  0  0  0  0  0  0  0  0  0  0
    5.2310    1.1329    0.0000 N   0  0  0  0  0  0  0  0  0  0  0  0
    0.7500   -1.2990    0.0000 C   0  0  0  0  0  0  0  0  0  0  0  0
    1.5000    0.0000    0.0000 C   0  0  0  0  0  0  0  0  0  0  0  0
    0.7500    1.2990    0.0000 C   0  0  0  0  0  0  0  0  0  0  0  0
   -0.7500    1.2990    0.0000 C   0  0  0  0  0  0  0  0  0  0  0  0
   -1.5000    0.0000    0.0000 C   0  0  0  0  0  0  0  0  0  0  0  0
   -0.7500   -1.2990    0.0000 C   0  0  0  0  0  0  0  0  0  0  0  0
   -2.0490   -2.0490    0.0000 C   0  0  0  0  0  0  0  0  0  0  0  0
   -2.7990   -0.7500    0.0000 C   0  0  0  0  0  0  0  0  0  0  0  0
   -4.2990   -0.7500    0.0000 C   0  0  0  0  0  0  0  0  0  0  0  0
   -5.0490   -2.0490    0.0000 C   0  0  0  0  0  0  0  0  0  0  0  0
   -4.2990   -3.3481    0.0000 C   0  0  0  0  0  0  0  0  0  0  0  0
   -2.7990   -3.3481    0.0000 C   0  0  0  0  0  0  0  0  0  0  0  0
   -2.7990   -4.8481    0.0000 C   0  0  0  0  0  0  0  0  0  0  0  0
   -4.2990   -4.8481    0.0000 C   0  0  0  0  0  0  0  0  0  0  0  0
   -5.0490   -6.1471    0.0000 C   0  0  0  0  0  0  0  0  0  0  0  0
   -4.2990   -7.4462    0.0000 C   0  0  0  0  0  0  0  0  0  0  0  0
   -2.7990   -7.4462    0.0000 C   0  0  0  0  0  0  0  0  0  0  0  0
   -2.0490   -6.1471    0.0000 C   0  0  0  0  0  0  0  0  0  0  0  0
   -0.7500   -6.8971    0.0000 C   0  0  0  0  0  0  0  0  0  0  0  0
   -1.5000   -8.1962    0.0000 C   0  0  0  0  0  0  0  0  0  0  0  0
   -0.7500   -9.4952    0.0000 C   0  0  0  0  0  0  0  0  0  0  0  0
    0.7500   -9.4952    0.0000 C   0  0  0  0  0  0  0  0  0  0  0  0
    1.5000   -8.1962    0.0000 C   0  0  0  0  0  0  0  0  0  0  0  0
    0.7500   -6.8971    0.0000 C   0  0  0  0  0  0  0  0  0  0  0  0
  1  2  1  0
  2  3  1  0
  3  4  1  0
  4  5  1  0
  5  6  1  0
  6  7  1  0
  7  8  1  0
  8  9  2  0
  8 10  1  0
 10 11  1  0
 11 12  2  0
 12 13  1  0
 13 14  2  0
 14 15  1  0
 15 16  2  0
  7 17  1  0
 17 18  2  0
 18 19  1  0
 19 20  2  0
 20 21  1  0
 21 22  2  0
 22 23  1  0
 23 24  2  0
 24 25  1  0
 25 26  2  0
 26 27  1  0
 27 28  2  0
 28 29  1  0
 29 30  2  0
 30 31  1  0
 31 32  2  0
 32 33  1  0
 33 34  2  0
 34 35  1  0
 35 36  2  0
 36 37  1  0
 37 38  2  0
 38 39  1  0
 39 40  2  0
 40  4  1  0
 16 11  1  0
 22 17  1  0
 28 23  1  0
 34 29  1  0
 40 35  1  0
M  END
>  <Title>  (338) 
idAALBgen8

$$$$

     RDKit          2D

 88 92  0  0  0  0  0  0  0  0999 V2000
   -8.6320   -1.8949    0.0000 C   0  0  0  0  0  0  0  0  0  0  0  0
   -7.9394   -3.2254    0.0000 C   0  0  0  0  0  0  0  0  0  0  0  0
   -9.2384   -3.9754    0.0000 C   0  0  0  0  0  0  0  0  0  0  0  0
  -10.4672   -4.8358    0.0000 C   0  0  0  0  0  0  0  0  0  0  0  0
  -11.6162   -5.8000    0.0000 C   0  0  0  0  0  0  0  0  0  0  0  0
  -12.6769   -6.8606    0.0000 C   0  0  0  0  0  0  0  0  0  0  0  0
  -13.6411   -8.0097    0.0000 C   0  0  0  0  0  0  0  0  0  0  0  0
  -14.5014   -9.2384    0.0000 C   0  0  0  0  0  0  0  0  0  0  0  0
  -15.2514  -10.5375    0.0000 C   0  0  0  0  0  0  0  0  0  0  0  0
  -15.8854  -11.8969    0.0000 C   0  0  0  0  0  0  0  0  0  0  0  0
  -16.3984  -13.3065    0.0000 C   0  0  0  0  0  0  0  0  0  0  0  0
  -16.7866  -14.7554    0.0000 C   0  0  0  0  0  0  0  0  0  0  0  0
  -17.0471  -16.2326    0.0000 C   0  0  0  0  0  0  0  0  0  0  0  0
  -17.1778  -17.7269    0.0000 C   0  0  0  0  0  0  0  0  0  0  0  0
  -17.1778  -19.2269    0.0000 C   0  0  0  0  0  0  0  0  0  0  0  0
  -17.0471  -20.7212    0.0000 C   0  0  0  0  0  0  0  0  0  0  0  0
  -16.7866  -22.1984    0.0000 C   0  0  0  0  0  0  0  0  0  0  0  0
  -16.3984  -23.6473    0.0000 C   0  0  0  0  0  0  0  0  0  0  0  0
  -15.8854  -25.0568    0.0000 C   0  0  0  0  0  0  0  0  0  0  0  0
  -15.2514  -26.4163    0.0000 C   0  0  0  0  0  0  0  0  0  0  0  0
  -14.5014  -27.7153    0.0000 C   0  0  0  0  0  0  0  0  0  0  0  0
  -13.6411  -28.9440    0.0000 C   0  0  0  0  0  0  0  0  0  0  0  0
  -12.6769  -30.0931    0.0000 C   0  0  0  0  0  0  0  0  0  0  0  0
  -11.6162  -31.1537    0.0000 C   0  0  0  0  0  0  0  0  0  0  0  0
  -10.4672  -32.1179    0.0000 C   0  0  0  0  0  0  0  0  0  0  0  0
   -9.2384  -32.9783    0.0000 C   0  0  0  0  0  0  0  0  0  0  0  0
   -7.9394  -33.7283    0.0000 C   0  0  0  0  0  0  0  0  0  0  0  0
   -6.5799  -34.3622    0.0000 C   0  0  0  0  0  0  0  0  0  0  0  0
   -5.1704  -34.8753    0.0000 C   0  0  0  0  0  0  0  0  0  0  0  0
   -3.7215  -35.2635    0.0000 C   0  0  0  0  0  0  0  0  0  0  0  0
   -2.2443  -35.5240    0.0000 N   0  0  0  0  0  0  0  0  0  0  0  0
   -0.7500  -35.6547    0.0000 C   0  0  0  0  0  0  0  0  0  0  0  0
    0.7500  -35.6547    0.0000 C   0  0  0  0  0  0  0  0  0  0  0  0
    2.2443  -35.5240    0.0000 C   0  0  0  0  0  0  0  0  0  0  0  0
    3.7215  -35.2635    0.0000 C   0  0  0  0  0  0  0  0  0  0  0  0
    5.1704  -34.8753    0.0000 C   0  0  0  0  0  0  0  0  0  0  0  0
    6.5799  -34.3622    0.0000 C   0  0  0  0  0  0  0  0  0  0  0  0
    7.9394  -33.7283    0.0000 C   0  0  0  0  0  0  0  0  0  0  0  0
    9.2384  -32.9783    0.0000 C   0  0  0  0  0  0  0  0  0  0  0  0
   10.4672  -32.1179    0.0000 C   0  0  0  0  0  0  0  0  0  0  0  0
   11.6162  -31.1537    0.0000 C   0  0  0  0  0  0  0  0  0  0  0  0
   12.6769  -30.0931    0.0000 C   0  0  0  0  0  0  0  0  0  0  0  0
   13.6411  -28.9440    0.0000 C   0  0  0  0  0  0  0  0  0  0  0  0
   14.5014  -27.7153    0.0000 C   0  0  0  0  0  0  0  0  0  0  0  0
   15.2514  -26.4163    0.0000 C   0  0  0  0  0  0  0  0  0  0  0  0
   15.8854  -25.0568    0.0000 C   0  0  0  0  0  0  0  0  0  0  0  0
   16.3984  -23.6473    0.0000 C   0  0  0  0  0  0  0  0  0  0  0  0
   16.7866  -22.1984    0.0000 C   0  0  0  0  0  0  0  0  0  0  0  0
   17.0471  -20.7212    0.0000 C   0  0  0  0  0  0  0  0  0  0  0  0
   17.1778  -19.2269    0.0000 C   0  0  0  0  0  0  0  0  0  0  0  0
   17.1778  -17.7269    0.0000 C   0  0  0  0  0  0  0  0  0  0  0  0
   17.0471  -16.2326    0.0000 C   0  0  0  0  0  0  0  0  0  0  0  0
   16.7866  -14.7554    0.0000 C   0  0  0  0  0  0  0  0  0  0  0  0
   16.3984  -13.3065    0.0000 C   0  0  0  0  0  0  0  0  0  0  0  0
   15.8854  -11.8969    0.0000 C   0  0  0  0  0  0  0  0  0  0  0  0
   15.2514  -10.5375    0.0000 C   0  0  0  0  0  0  0  0  0  0  0  0
   14.5014   -9.2384    0.0000 C   0  0  0  0  0  0  0  0  0  0  0  0
   13.6411   -8.0097    0.0000 C   0  0  0  0  0  0  0  0  0  0  0  0
   12.6769   -6.8606    0.0000 C   0  0  0  0  0  0  0  0  0  0  0  0
   11.6162   -5.8000    0.0000 C   0  0  0  0  0  0  0  0  0  0  0  0
   10.4672   -4.8358    0.0000 C   0  0  0  0  0  0  0  0  0  0  0  0
    9.2384   -3.9754    0.0000 C   0  0  0  0  0  0  0  0  0  0  0  0
    7.9394   -3.2254    0.0000 C   0  0  0  0  0  0  0  0  0  0  0  0
    6.5799   -2.5915    0.0000 C   0  0  0  0  0  0  0  0  0  0  0  0
    5.1704   -2.0785    0.0000 C   0  0  0  0  0  0  0  0  0  0  0  0
    3.7215   -1.6902    0.0000 C   0  0  0  0  0  0  0  0  0  0  0  0
    3.9303   -3.1756    0.0000 C   0  0  0  0  0  0  0  0  0  0  0  0
    2.5821   -3.8332    0.0000 C   0  0  0  0  0  0  0  0  0  0  0  0
    1.5401   -2.7542    0.0000 C   0  0  0  0  0  0  0  0  0  0  0  0
    2.2443   -1.4298    0.0000 C   0  0  0  0  0  0  0  0  0  0  0  0
    0.7500   -1.2990    0.0000 C   0  0  0  0  0  0  0  0  0  0  0  0
    1.5000    0.0000    0.0000 C   0  0  0  0  0  0  0  0  0  0  0  0
    0.7500    1.2990    0.0000 C   0  0  0  0  0  0  0  0  0  0  0  0
   -0.7500    1.2990    0.0000 C   0  0  0  0  0  0  0  0  0  0  0  0
   -1.5000    0.0000    0.0000 C   0  0  0  0  0  0  0  0  0  0  0  0
   -0.7500   -1.2990    0.0000 C   0  0  0  0  0  0  0  0  0  0  0  0
   -2.2443   -1.4298    0.0000 C   0  0  0  0  0  0  0  0  0  0  0  0
   -1.2801   -2.5788    0.0000 C   0  0  0  0  0  0  0  0  0  0  0  0
   -1.7931   -3.9884    0.0000 C   0  0  0  0  0  0  0  0  0  0  0  0
   -3.2704   -4.2488    0.0000 C   0  0  0  0  0  0  0  0  0  0  0  0
   -4.2345   -3.0998    0.0000 C   0  0  0  0  0  0  0  0  0  0  0  0
   -3.7215   -1.6902    0.0000 C   0  0  0  0  0  0  0  0  0  0  0  0
   -5.1704   -2.0785    0.0000 C   0  0  0  0  0  0  0  0  0  0  0  0
   -4.9099   -0.6013    0.0000 C   0  0  0  0  0  0  0  0  0  0  0  0
   -6.0590    0.3629    0.0000 C   0  0  0  0  0  0  0  0  0  0  0  0
   -7.4685   -0.1501    0.0000 C   0  0  0  0  0  0  0  0  0  0  0  0
   -7.7290   -1.6273    0.0000 C   0  0  0  0  0  0  0  0  0  0  0  0
   -6.5799   -2.5915    0.0000 C   0  0  0  0  0  0  0  0  0  0  0  0
  1  2  1  0
  2  3  1  0
  3  4  1  0
  4  5  1  0
  5  6  1  0
  6  7  1  0
  7  8  1  0
  8  9  1  0
  9 10  1  0
 10 11  1  0
 11 12  1  0
 12 13  1  0
 13 14  1  0
 14 15  1  0
 15 16  1  0
 16 17  1  0
 17 18  1  0
 18 19  1  0
 19 20  1  0
 20 21  1  0
 21 22  1  0
 22 23  1  0
 23 24  1  0
 24 25  1  0
 25 26  1  0
 26 27  1  0
 27 28  1  0
 28 29  1  0
 29 30  1  0
 30 31  1  0
 31 32  1  0
 32 33  1  0
 33 34  2  0
 34 35  1  0
 35 36  2  0
 36 37  1  0
 37 38  2  0
 38 39  1  0
 39 40  2  0
 40 41  1  0
 41 42  2  0
 42 43  1  0
 43 44  2  0
 44 45  1  0
 45 46  2  0
 46 47  1  0
 47 48  2  0
 48 49  1  0
 49 50  2  0
 50 51  1  0
 51 52  2  0
 52 53  1  0
 53 54  2  0
 54 55  1  0
 55 56  2  0
 56 57  1  0
 57 58  2  0
 58 59  1  0
 59 60  2  0
 60 61  1  0
 61 62  2  0
 62 63  1  0
 63 64  2  0
 64 65  1  0
 65 66  2  0
 66 67  1  0
 67 68  2  0
 68 69  1  0
 69 70  2  0
 70 71  1  0
 71 72  2  0
 72 73  1  0
 73 74  2  0
 74 75  1  0
 75 76  2  0
 76 77  1  0
 77 78  2  0
 78 79  1  0
 79 80  2  0
 80 81  1  0
 81 82  2  0
 82 83  1  0
 83 84  2  0
 84 85  1  0
 85 86  2  0
 86 87  1  0
 87 88  2  0
 88  2  1  0
 70 66  1  0
 76 71  1  0
 82 77  1  0
 88 83  1  0
M  END
>  <Title>  (339) 
idAALCgen8

$$$$

     RDKit          2D

  7  7  0  0  0  0  0  0  0  0999 V2000
    2.7760    0.0000    0.0000 C   0  0  0  0  0  0  0  0  0  0  0  0
    1.2760    0.0000    0.0000 C   0  0  0  0  0  0  0  0  0  0  0  0
    0.3943    1.2135    0.0000 C   0  0  0  0  0  0  0  0  0  0  0  0
   -1.0323    0.7500    0.0000 C   0  0  0  0  0  0  0  0  0  0  0  0
   -2.2458    1.6317    0.0000 O   0  0  0  0  0  0  0  0  0  0  0  0
   -1.0323   -0.7500    0.0000 C   0  0  0  0  0  0  0  0  0  0  0  0
    0.3943   -1.2135    0.0000 C   0  0  0  0  0  0  0  0  0  0  0  0
  1  2  1  0
  2  3  2  0
  3  4  1  0
  4  5  1  0
  4  6  1  0
  6  7  1  0
  7  2  1  0
M  END
>  <Title>  (340) 
idAALDgen8

$$$$

     RDKit          2D

107108  0  0  0  0  0  0  0  0999 V2000
   -2.3856    0.1022    0.0000 C   0  0  0  0  0  0  0  0  0  0  0  0
   -2.2472   -1.3914    0.0000 C   0  0  0  0  0  0  0  0  0  0  0  0
   -3.7358   -1.5757    0.0000 C   0  0  0  0  0  0  0  0  0  0  0  0
   -5.2102   -1.8513    0.0000 C   0  0  0  0  0  0  0  0  0  0  0  0
   -6.6649   -2.2172    0.0000 C   0  0  0  0  0  0  0  0  0  0  0  0
   -8.0944   -2.6719    0.0000 C   0  0  0  0  0  0  0  0  0  0  0  0
   -9.4931   -3.2138    0.0000 C   0  0  0  0  0  0  0  0  0  0  0  0
  -10.8558   -3.8407    0.0000 C   0  0  0  0  0  0  0  0  0  0  0  0
  -12.1773   -4.5504    0.0000 C   0  0  0  0  0  0  0  0  0  0  0  0
  -13.4526   -5.3400    0.0000 C   0  0  0  0  0  0  0  0  0  0  0  0
  -14.6769   -6.2067    0.0000 C   0  0  0  0  0  0  0  0  0  0  0  0
  -15.8455   -7.1471    0.0000 C   0  0  0  0  0  0  0  0  0  0  0  0
  -16.9540   -8.1576    0.0000 C   0  0  0  0  0  0  0  0  0  0  0  0
  -17.9982   -9.2345    0.0000 C   0  0  0  0  0  0  0  0  0  0  0  0
  -18.9742  -10.3736    0.0000 C   0  0  0  0  0  0  0  0  0  0  0  0
  -19.8781  -11.5706    0.0000 C   0  0  0  0  0  0  0  0  0  0  0  0
  -20.7067  -12.8210    0.0000 C   0  0  0  0  0  0  0  0  0  0  0  0
  -21.4567  -14.1201    0.0000 C   0  0  0  0  0  0  0  0  0  0  0  0
  -22.1253  -15.4628    0.0000 C   0  0  0  0  0  0  0  0  0  0  0  0
  -22.7099  -16.8442    0.0000 C   0  0  0  0  0  0  0  0  0  0  0  0
  -23.2085  -18.2589    0.0000 C   0  0  0  0  0  0  0  0  0  0  0  0
  -23.6190  -19.7016    0.0000 C   0  0  0  0  0  0  0  0  0  0  0  0
  -23.9399  -21.1669    0.0000 C   0  0  0  0  0  0  0  0  0  0  0  0
  -24.1700  -22.6492    0.0000 C   0  0  0  0  0  0  0  0  0  0  0  0
  -24.3084  -24.1428    0.0000 C   0  0  0  0  0  0  0  0  0  0  0  0
  -24.3546  -25.6420    0.0000 C   0  0  0  0  0  0  0  0  0  0  0  0
  -24.3084  -27.1413    0.0000 C   0  0  0  0  0  0  0  0  0  0  0  0
  -24.1700  -28.6349    0.0000 C   0  0  0  0  0  0  0  0  0  0  0  0
  -23.9399  -30.1172    0.0000 C   0  0  0  0  0  0  0  0  0  0  0  0
  -23.6190  -31.5825    0.0000 C   0  0  0  0  0  0  0  0  0  0  0  0
  -23.2085  -33.0252    0.0000 C   0  0  0  0  0  0  0  0  0  0  0  0
  -22.7099  -34.4399    0.0000 C   0  0  0  0  0  0  0  0  0  0  0  0
  -22.1253  -35.8213    0.0000 C   0  0  0  0  0  0  0  0  0  0  0  0
  -21.4567  -37.1640    0.0000 C   0  0  0  0  0  0  0  0  0  0  0  0
  -20.7067  -38.4631    0.0000 C   0  0  0  0  0  0  0  0  0  0  0  0
  -19.8781  -39.7135    0.0000 C   0  0  0  0  0  0  0  0  0  0  0  0
  -18.9742  -40.9105    0.0000 C   0  0  0  0  0  0  0  0  0  0  0  0
  -17.9982  -42.0496    0.0000 C   0  0  0  0  0  0  0  0  0  0  0  0
  -16.9540  -43.1265    0.0000 C   0  0  0  0  0  0  0  0  0  0  0  0
  -15.8455  -44.1370    0.0000 C   0  0  0  0  0  0  0  0  0  0  0  0
  -14.6769  -45.0774    0.0000 C   0  0  0  0  0  0  0  0  0  0  0  0
  -13.4526  -45.9441    0.0000 C   0  0  0  0  0  0  0  0  0  0  0  0
  -12.1773  -46.7337    0.0000 C   0  0  0  0  0  0  0  0  0  0  0  0
  -10.8558  -47.4433    0.0000 C   0  0  0  0  0  0  0  0  0  0  0  0
   -9.4931  -48.0703    0.0000 C   0  0  0  0  0  0  0  0  0  0  0  0
   -8.0944  -48.6122    0.0000 C   0  0  0  0  0  0  0  0  0  0  0  0
   -6.6649  -49.0669    0.0000 C   0  0  0  0  0  0  0  0  0  0  0  0
   -5.2102  -49.4328    0.0000 C   0  0  0  0  0  0  0  0  0  0  0  0
   -3.7358  -49.7084    0.0000 C   0  0  0  0  0  0  0  0  0  0  0  0
   -2.2472  -49.8927    0.0000 C   0  0  0  0  0  0  0  0  0  0  0  0
   -0.7500  -49.9850    0.0000 C   0  0  0  0  0  0  0  0  0  0  0  0
    0.7500  -49.9850    0.0000 C   0  0  0  0  0  0  0  0  0  0  0  0
    2.2472  -49.8927    0.0000 C   0  0  0  0  0  0  0  0  0  0  0  0
    3.7358  -49.7084    0.0000 C   0  0  0  0  0  0  0  0  0  0  0  0
    5.2102  -49.4328    0.0000 C   0  0  0  0  0  0  0  0  0  0  0  0
    6.6649  -49.0669    0.0000 C   0  0  0  0  0  0  0  0  0  0  0  0
    8.0944  -48.6122    0.0000 C   0  0  0  0  0  0  0  0  0  0  0  0
    9.4931  -48.0703    0.0000 C   0  0  0  0  0  0  0  0  0  0  0  0
   10.8558  -47.4433    0.0000 C   0  0  0  0  0  0  0  0  0  0  0  0
   12.1773  -46.7337    0.0000 C   0  0  0  0  0  0  0  0  0  0  0  0
   13.4526  -45.9441    0.0000 C   0  0  0  0  0  0  0  0  0  0  0  0
   14.6769  -45.0774    0.0000 C   0  0  0  0  0  0  0  0  0  0  0  0
   15.8455  -44.1370    0.0000 C   0  0  0  0  0  0  0  0  0  0  0  0
   16.9540  -43.1265    0.0000 C   0  0  0  0  0  0  0  0  0  0  0  0
   17.9982  -42.0496    0.0000 C   0  0  0  0  0  0  0  0  0  0  0  0
   18.9742  -40.9105    0.0000 C   0  0  0  0  0  0  0  0  0  0  0  0
   19.8781  -39.7135    0.0000 C   0  0  0  0  0  0  0  0  0  0  0  0
   20.7067  -38.4631    0.0000 C   0  0  0  0  0  0  0  0  0  0  0  0
   21.4567  -37.1640    0.0000 C   0  0  0  0  0  0  0  0  0  0  0  0
   22.1253  -35.8213    0.0000 C   0  0  0  0  0  0  0  0  0  0  0  0
   22.7099  -34.4399    0.0000 C   0  0  0  0  0  0  0  0  0  0  0  0
   23.2085  -33.0252    0.0000 C   0  0  0  0  0  0  0  0  0  0  0  0
   23.6190  -31.5825    0.0000 C   0  0  0  0  0  0  0  0  0  0  0  0
   23.9399  -30.1172    0.0000 C   0  0  0  0  0  0  0  0  0  0  0  0
   24.1700  -28.6349    0.0000 C   0  0  0  0  0  0  0  0  0  0  0  0
   24.3084  -27.1413    0.0000 C   0  0  0  0  0  0  0  0  0  0  0  0
   24.3546  -25.6420    0.0000 C   0  0  0  0  0  0  0  0  0  0  0  0
   24.3084  -24.1428    0.0000 C   0  0  0  0  0  0  0  0  0  0  0  0
   24.1700  -22.6492    0.0000 C   0  0  0  0  0  0  0  0  0  0  0  0
   23.9399  -21.1669    0.0000 C   0  0  0  0  0  0  0  0  0  0  0  0
   23.6190  -19.7016    0.0000 C   0  0  0  0  0  0  0  0  0  0  0  0
   23.2085  -18.2589    0.0000 C   0  0  0  0  0  0  0  0  0  0  0  0
   22.7099  -16.8442    0.0000 C   0  0  0  0  0  0  0  0  0  0  0  0
   22.1253  -15.4628    0.0000 C   0  0  0  0  0  0  0  0  0  0  0  0
   21.4567  -14.1201    0.0000 C   0  0  0  0  0  0  0  0  0  0  0  0
   20.7067  -12.8210    0.0000 C   0  0  0  0  0  0  0  0  0  0  0  0
   19.8781  -11.5706    0.0000 C   0  0  0  0  0  0  0  0  0  0  0  0
   18.9742  -10.3736    0.0000 C   0  0  0  0  0  0  0  0  0  0  0  0
   17.9982   -9.2345    0.0000 C   0  0  0  0  0  0  0  0  0  0  0  0
   16.9540   -8.1576    0.0000 C   0  0  0  0  0  0  0  0  0  0  0  0
   15.8455   -7.1471    0.0000 C   0  0  0  0  0  0  0  0  0  0  0  0
   14.6769   -6.2067    0.0000 C   0  0  0  0  0  0  0  0  0  0  0  0
   13.4526   -5.3400    0.0000 C   0  0  0  0  0  0  0  0  0  0  0  0
   12.1773   -4.5504    0.0000 C   0  0  0  0  0  0  0  0  0  0  0  0
   10.8558   -3.8407    0.0000 C   0  0  0  0  0  0  0  0  0  0  0  0
    9.4931   -3.2138    0.0000 C   0  0  0  0  0  0  0  0  0  0  0  0
    8.0944   -2.6719    0.0000 C   0  0  0  0  0  0  0  0  0  0  0  0
    6.6649   -2.2172    0.0000 C   0  0  0  0  0  0  0  0  0  0  0  0
    5.2102   -1.8513    0.0000 C   0  0  0  0  0  0  0  0  0  0  0  0
    3.7358   -1.5757    0.0000 C   0  0  0  0  0  0  0  0  0  0  0  0
    2.2472   -1.3914    0.0000 C   0  0  0  0  0  0  0  0  0  0  0  0
    0.7500   -1.2990    0.0000 C   0  0  0  0  0  0  0  0  0  0  0  0
    1.5000    0.0000    0.0000 C   0  0  0  0  0  0  0  0  0  0  0  0
    0.7500    1.2990    0.0000 C   0  0  0  0  0  0  0  0  0  0  0  0
   -0.7500    1.2990    0.0000 C   0  0  0  0  0  0  0  0  0  0  0  0
   -1.5000    0.0000    0.0000 C   0  0  0  0  0  0  0  0  0  0  0  0
   -0.7500   -1.2990    0.0000 C   0  0  0  0  0  0  0  0  0  0  0  0
  1  2  1  0
  2  3  1  0
  3  4  1  0
  4  5  1  0
  5  6  1  0
  6  7  1  0
  7  8  1  0
  8  9  1  0
  9 10  1  0
 10 11  1  0
 11 12  1  0
 12 13  1  0
 13 14  1  0
 14 15  1  0
 15 16  2  0
 16 17  1  0
 17 18  1  0
 18 19  1  0
 19 20  1  0
 20 21  1  0
 21 22  1  0
 22 23  1  0
 23 24  1  0
 24 25  1  0
 25 26  1  0
 26 27  1  0
 27 28  1  0
 28 29  1  0
 29 30  1  0
 30 31  1  0
 31 32  1  0
 32 33  1  0
 33 34  1  0
 34 35  1  0
 35 36  1  0
 36 37  1  0
 37 38  1  0
 38 39  1  0
 39 40  1  0
 40 41  1  0
 41 42  1  0
 42 43  1  0
 43 44  1  0
 44 45  1  0
 45 46  1  0
 46 47  1  0
 47 48  1  0
 48 49  1  0
 49 50  1  0
 50 51  1  0
 51 52  1  0
 52 53  1  0
 53 54  1  0
 54 55  1  0
 55 56  1  0
 56 57  1  0
 57 58  1  0
 58 59  1  0
 59 60  1  0
 60 61  1  0
 61 62  1  0
 62 63  1  0
 63 64  1  0
 64 65  1  0
 65 66  1  0
 66 67  1  0
 67 68  1  0
 68 69  1  0
 69 70  1  0
 70 71  1  0
 71 72  1  0
 72 73  1  0
 73 74  1  0
 74 75  1  0
 75 76  1  0
 76 77  1  0
 77 78  1  0
 78 79  1  0
 79 80  1  0
 80 81  1  0
 81 82  1  0
 82 83  1  0
 83 84  1  0
 84 85  1  0
 85 86  1  0
 86 87  1  0
 87 88  1  0
 88 89  1  0
 89 90  1  0
 90 91  1  0
 91 92  1  0
 92 93  1  0
 93 94  1  0
 94 95  1  0
 95 96  1  0
 96 97  1  0
 97 98  1  0
 98 99  1  0
 99100  1  0
100101  1  0
101102  1  0
102103  2  0
103104  1  0
104105  2  0
105106  1  0
106107  2  0
107  2  1  0
107102  1  0
M  END
>  <Title>  (341) 
idAALEgen8

$$$$

     RDKit          2D

114114  0  0  0  0  0  0  0  0999 V2000
   28.4802    0.0000    0.0000 C   0  0  0  0  0  0  0  0  0  0  0  0
   26.9802    0.0000    0.0000 C   0  0  0  0  0  0  0  0  0  0  0  0
   26.9385    1.4994    0.0000 C   0  0  0  0  0  0  0  0  0  0  0  0
   26.8136    2.9942    0.0000 C   0  0  0  0  0  0  0  0  0  0  0  0
   26.6057    4.4797    0.0000 C   0  0  0  0  0  0  0  0  0  0  0  0
   26.3157    5.9514    0.0000 C   0  0  0  0  0  0  0  0  0  0  0  0
   25.9442    7.4047    0.0000 C   0  0  0  0  0  0  0  0  0  0  0  0
   25.4926    8.8351    0.0000 C   0  0  0  0  0  0  0  0  0  0  0  0
   24.9622   10.2382    0.0000 C   0  0  0  0  0  0  0  0  0  0  0  0
   24.3547   11.6096    0.0000 C   0  0  0  0  0  0  0  0  0  0  0  0
   23.6718   12.9452    0.0000 C   0  0  0  0  0  0  0  0  0  0  0  0
   22.9158   14.2408    0.0000 C   0  0  0  0  0  0  0  0  0  0  0  0
   22.0890   15.4923    0.0000 C   0  0  0  0  0  0  0  0  0  0  0  0
   21.1938   16.6959    0.0000 C   0  0  0  0  0  0  0  0  0  0  0  0
   20.2332   17.8480    0.0000 C   0  0  0  0  0  0  0  0  0  0  0  0
   19.2100   18.9449    0.0000 C   0  0  0  0  0  0  0  0  0  0  0  0
   18.1275   19.9832    0.0000 C   0  0  0  0  0  0  0  0  0  0  0  0
   16.9889   20.9597    0.0000 C   0  0  0  0  0  0  0  0  0  0  0  0
   15.7978   21.8715    0.0000 C   0  0  0  0  0  0  0  0  0  0  0  0
   14.5579   22.7156    0.0000 C   0  0  0  0  0  0  0  0  0  0  0  0
   13.2730   23.4896    0.0000 C   0  0  0  0  0  0  0  0  0  0  0  0
   11.9471   24.1909    0.0000 C   0  0  0  0  0  0  0  0  0  0  0  0
   10.5842   24.8175    0.0000 C   0  0  0  0  0  0  0  0  0  0  0  0
    9.1886   25.3674    0.0000 C   0  0  0  0  0  0  0  0  0  0  0  0
    7.7646   25.8388    0.0000 C   0  0  0  0  0  0  0  0  0  0  0  0
    6.3166   26.2304    0.0000 C   0  0  0  0  0  0  0  0  0  0  0  0
    4.8491   26.5409    0.0000 C   0  0  0  0  0  0  0  0  0  0  0  0
    3.3666   26.7694    0.0000 C   0  0  0  0  0  0  0  0  0  0  0  0
    1.8737   26.9151    0.0000 C   0  0  0  0  0  0  0  0  0  0  0  0
    0.3750   26.9776    0.0000 C   0  0  0  0  0  0  0  0  0  0  0  0
   -1.1248   26.9568    0.0000 C   0  0  0  0  0  0  0  0  0  0  0  0
   -2.6212   26.8526    0.0000 C   0  0  0  0  0  0  0  0  0  0  0  0
   -4.1095   26.6654    0.0000 C   0  0  0  0  0  0  0  0  0  0  0  0
   -5.5850   26.3958    0.0000 C   0  0  0  0  0  0  0  0  0  0  0  0
   -7.0434   26.0447    0.0000 C   0  0  0  0  0  0  0  0  0  0  0  0
   -8.4799   25.6130    0.0000 C   0  0  0  0  0  0  0  0  0  0  0  0
   -9.8902   25.1021    0.0000 C   0  0  0  0  0  0  0  0  0  0  0  0
  -11.2700   24.5137    0.0000 C   0  0  0  0  0  0  0  0  0  0  0  0
  -12.6149   23.8495    0.0000 C   0  0  0  0  0  0  0  0  0  0  0  0
  -13.9208   23.1115    0.0000 C   0  0  0  0  0  0  0  0  0  0  0  0
  -15.1837   22.3022    0.0000 C   0  0  0  0  0  0  0  0  0  0  0  0
  -16.3997   21.4239    0.0000 C   0  0  0  0  0  0  0  0  0  0  0  0
  -17.5650   20.4794    0.0000 C   0  0  0  0  0  0  0  0  0  0  0  0
  -18.6760   19.4715    0.0000 C   0  0  0  0  0  0  0  0  0  0  0  0
  -19.7293   18.4035    0.0000 C   0  0  0  0  0  0  0  0  0  0  0  0
  -20.7215   17.2786    0.0000 C   0  0  0  0  0  0  0  0  0  0  0  0
  -21.6498   16.1003    0.0000 C   0  0  0  0  0  0  0  0  0  0  0  0
  -22.5111   14.8723    0.0000 C   0  0  0  0  0  0  0  0  0  0  0  0
  -23.3028   13.5982    0.0000 C   0  0  0  0  0  0  0  0  0  0  0  0
  -24.0225   12.2822    0.0000 C   0  0  0  0  0  0  0  0  0  0  0  0
  -24.6680   10.9281    0.0000 C   0  0  0  0  0  0  0  0  0  0  0  0
  -25.2372    9.5403    0.0000 C   0  0  0  0  0  0  0  0  0  0  0  0
  -25.7284    8.1230    0.0000 C   0  0  0  0  0  0  0  0  0  0  0  0
  -26.1401    6.6806    0.0000 C   0  0  0  0  0  0  0  0  0  0  0  0
  -26.4709    5.2176    0.0000 C   0  0  0  0  0  0  0  0  0  0  0  0
  -26.7200    3.7384    0.0000 C   0  0  0  0  0  0  0  0  0  0  0  0
  -26.8864    2.2477    0.0000 C   0  0  0  0  0  0  0  0  0  0  0  0
  -26.9698    0.7500    0.0000 C   0  0  0  0  0  0  0  0  0  0  0  0
  -26.9698   -0.7500    0.0000 C   0  0  0  0  0  0  0  0  0  0  0  0
  -26.8864   -2.2477    0.0000 C   0  0  0  0  0  0  0  0  0  0  0  0
  -26.7200   -3.7384    0.0000 C   0  0  0  0  0  0  0  0  0  0  0  0
  -26.4709   -5.2176    0.0000 C   0  0  0  0  0  0  0  0  0  0  0  0
  -26.1401   -6.6806    0.0000 C   0  0  0  0  0  0  0  0  0  0  0  0
  -25.7284   -8.1230    0.0000 C   0  0  0  0  0  0  0  0  0  0  0  0
  -25.2372   -9.5403    0.0000 C   0  0  0  0  0  0  0  0  0  0  0  0
  -24.6680  -10.9281    0.0000 C   0  0  0  0  0  0  0  0  0  0  0  0
  -24.0225  -12.2822    0.0000 C   0  0  0  0  0  0  0  0  0  0  0  0
  -23.3028  -13.5982    0.0000 C   0  0  0  0  0  0  0  0  0  0  0  0
  -22.5111  -14.8723    0.0000 C   0  0  0  0  0  0  0  0  0  0  0  0
  -21.6498  -16.1003    0.0000 C   0  0  0  0  0  0  0  0  0  0  0  0
  -20.7215  -17.2786    0.0000 C   0  0  0  0  0  0  0  0  0  0  0  0
  -19.7293  -18.4035    0.0000 C   0  0  0  0  0  0  0  0  0  0  0  0
  -18.6760  -19.4715    0.0000 C   0  0  0  0  0  0  0  0  0  0  0  0
  -17.5650  -20.4794    0.0000 C   0  0  0  0  0  0  0  0  0  0  0  0
  -16.3997  -21.4239    0.0000 C   0  0  0  0  0  0  0  0  0  0  0  0
  -15.1837  -22.3022    0.0000 C   0  0  0  0  0  0  0  0  0  0  0  0
  -13.9208  -23.1115    0.0000 C   0  0  0  0  0  0  0  0  0  0  0  0
  -12.6149  -23.8495    0.0000 C   0  0  0  0  0  0  0  0  0  0  0  0
  -11.2700  -24.5137    0.0000 C   0  0  0  0  0  0  0  0  0  0  0  0
   -9.8902  -25.1021    0.0000 C   0  0  0  0  0  0  0  0  0  0  0  0
   -8.4799  -25.6130    0.0000 C   0  0  0  0  0  0  0  0  0  0  0  0
   -7.0434  -26.0447    0.0000 C   0  0  0  0  0  0  0  0  0  0  0  0
   -5.5850  -26.3958    0.0000 C   0  0  0  0  0  0  0  0  0  0  0  0
   -4.1095  -26.6654    0.0000 C   0  0  0  0  0  0  0  0  0  0  0  0
   -2.6212  -26.8526    0.0000 C   0  0  0  0  0  0  0  0  0  0  0  0
   -1.1248  -26.9568    0.0000 C   0  0  0  0  0  0  0  0  0  0  0  0
    0.3750  -26.9776    0.0000 C   0  0  0  0  0  0  0  0  0  0  0  0
    1.8737  -26.9151    0.0000 C   0  0  0  0  0  0  0  0  0  0  0  0
    3.3666  -26.7694    0.0000 C   0  0  0  0  0  0  0  0  0  0  0  0
    4.8491  -26.5409    0.0000 C   0  0  0  0  0  0  0  0  0  0  0  0
    6.3166  -26.2304    0.0000 C   0  0  0  0  0  0  0  0  0  0  0  0
    7.7646  -25.8388    0.0000 C   0  0  0  0  0  0  0  0  0  0  0  0
    9.1886  -25.3674    0.0000 C   0  0  0  0  0  0  0  0  0  0  0  0
   10.5842  -24.8175    0.0000 C   0  0  0  0  0  0  0  0  0  0  0  0
   11.9471  -24.1909    0.0000 C   0  0  0  0  0  0  0  0  0  0  0  0
   13.2730  -23.4896    0.0000 C   0  0  0  0  0  0  0  0  0  0  0  0
   14.5579  -22.7156    0.0000 C   0  0  0  0  0  0  0  0  0  0  0  0
   15.7978  -21.8715    0.0000 C   0  0  0  0  0  0  0  0  0  0  0  0
   16.9889  -20.9597    0.0000 C   0  0  0  0  0  0  0  0  0  0  0  0
   18.1275  -19.9832    0.0000 C   0  0  0  0  0  0  0  0  0  0  0  0
   19.2100  -18.9449    0.0000 C   0  0  0  0  0  0  0  0  0  0  0  0
   20.2332  -17.8480    0.0000 C   0  0  0  0  0  0  0  0  0  0  0  0
   21.1938  -16.6959    0.0000 C   0  0  0  0  0  0  0  0  0  0  0  0
   22.0890  -15.4923    0.0000 C   0  0  0  0  0  0  0  0  0  0  0  0
   22.9158  -14.2408    0.0000 C   0  0  0  0  0  0  0  0  0  0  0  0
   23.6718  -12.9452    0.0000 C   0  0  0  0  0  0  0  0  0  0  0  0
   24.3547  -11.6096    0.0000 C   0  0  0  0  0  0  0  0  0  0  0  0
   24.9622  -10.2382    0.0000 C   0  0  0  0  0  0  0  0  0  0  0  0
   25.4926   -8.8351    0.0000 C   0  0  0  0  0  0  0  0  0  0  0  0
   25.9442   -7.4047    0.0000 C   0  0  0  0  0  0  0  0  0  0  0  0
   26.3157   -5.9514    0.0000 C   0  0  0  0  0  0  0  0  0  0  0  0
   26.6057   -4.4797    0.0000 C   0  0  0  0  0  0  0  0  0  0  0  0
   26.8136   -2.9942    0.0000 C   0  0  0  0  0  0  0  0  0  0  0  0
   26.9385   -1.4994    0.0000 C   0  0  0  0  0  0  0  0  0  0  0  0
  1  2  1  0
  2  3  1  0
  3  4  2  0
  4  5  1  0
  5  6  2  0
  6  7  1  0
  7  8  2  0
  8  9  1  0
  9 10  1  0
 10 11  1  0
 11 12  1  0
 12 13  1  0
 13 14  1  0
 14 15  1  0
 15 16  1  0
 16 17  1  0
 17 18  1  0
 18 19  1  0
 19 20  1  0
 20 21  1  0
 21 22  1  0
 22 23  1  0
 23 24  1  0
 24 25  1  0
 25 26  1  0
 26 27  1  0
 27 28  1  0
 28 29  1  0
 29 30  1  0
 30 31  1  0
 31 32  1  0
 32 33  1  0
 33 34  1  0
 34 35  1  0
 35 36  1  0
 36 37  1  0
 37 38  1  0
 38 39  1  0
 39 40  1  0
 40 41  1  0
 41 42  1  0
 42 43  1  0
 43 44  1  0
 44 45  1  0
 45 46  1  0
 46 47  1  0
 47 48  1  0
 48 49  1  0
 49 50  1  0
 50 51  1  0
 51 52  1  0
 52 53  1  0
 53 54  1  0
 54 55  1  0
 55 56  1  0
 56 57  1  0
 57 58  1  0
 58 59  1  0
 59 60  1  0
 60 61  1  0
 61 62  1  0
 62 63  1  0
 63 64  1  0
 64 65  1  0
 65 66  1  0
 66 67  1  0
 67 68  1  0
 68 69  1  0
 69 70  1  0
 70 71  1  0
 71 72  1  0
 72 73  1  0
 73 74  1  0
 74 75  1  0
 75 76  1  0
 76 77  1  0
 77 78  1  0
 78 79  1  0
 79 80  1  0
 80 81  1  0
 81 82  1  0
 82 83  1  0
 83 84  1  0
 84 85  1  0
 85 86  1  0
 86 87  1  0
 87 88  1  0
 88 89  1  0
 89 90  1  0
 90 91  1  0
 91 92  1  0
 92 93  1  0
 93 94  1  0
 94 95  1  0
 95 96  1  0
 96 97  1  0
 97 98  1  0
 98 99  1  0
 99100  1  0
100101  1  0
101102  1  0
102103  1  0
103104  1  0
104105  1  0
105106  1  0
106107  1  0
107108  1  0
108109  1  0
109110  1  0
110111  1  0
111112  1  0
112113  1  0
113114  1  0
114  2  1  0
M  END
>  <Title>  (342) 
idAALFgen8

$$$$

     RDKit          2D

  7  6  0  0  0  0  0  0  0  0999 V2000
    0.0000    0.0000    0.0000 C   0  0  0  0  0  0  0  0  0  0  0  0
    1.2990    0.7500    0.0000 C   0  0  0  0  0  0  0  0  0  0  0  0
    2.5981    1.5000    0.0000 C   0  0  0  0  0  0  0  0  0  0  0  0
    3.8971    2.2500    0.0000 C   0  0  0  0  0  0  0  0  0  0  0  0
    5.1962    1.5000    0.0000 C   0  0  0  0  0  0  0  0  0  0  0  0
    6.4952    2.2500    0.0000 C   0  0  0  0  0  0  0  0  0  0  0  0
    7.7942    1.5000    0.0000 C   0  0  0  0  0  0  0  0  0  0  0  0
  1  2  1  0
  2  3  3  0
  3  4  1  0
  4  5  2  3
  5  6  1  0
  6  7  1  0
M  END
>  <Title>  (343) 
idAALGgen8

$$$$

     RDKit          2D

  7  7  0  0  0  0  0  0  0  0999 V2000
    3.0000    0.0000    0.0000 C   0  0  0  0  0  0  0  0  0  0  0  0
    1.5000    0.0000    0.0000 C   0  0  0  0  0  0  0  0  0  0  0  0
    0.7500   -1.2990    0.0000 C   0  0  0  0  0  0  0  0  0  0  0  0
   -0.7500   -1.2990    0.0000 C   0  0  0  0  0  0  0  0  0  0  0  0
   -1.5000    0.0000    0.0000 C   0  0  0  0  0  0  0  0  0  0  0  0
   -0.7500    1.2990    0.0000 C   0  0  0  0  0  0  0  0  0  0  0  0
    0.7500    1.2990    0.0000 C   0  0  0  0  0  0  0  0  0  0  0  0
  1  2  1  0
  2  3  2  0
  3  4  1  0
  4  5  1  0
  5  6  2  0
  6  7  1  0
  7  2  1  0
M  END
>  <Title>  (344) 
idAALHgen8

$$$$

     RDKit          2D

 81 81  0  0  0  0  0  0  0  0999 V2000
   21.6262   -0.0000    0.0000 C   0  0  0  0  0  0  0  0  0  0  0  0
   20.1262    0.0000    0.0000 C   0  0  0  0  0  0  0  0  0  0  0  0
   18.6262    0.0000    0.0000 C   0  0  0  0  0  0  0  0  0  0  0  0
   18.5658   -1.4988    0.0000 C   0  0  0  0  0  0  0  0  0  0  0  0
   18.3850   -2.9878    0.0000 C   0  0  0  0  0  0  0  0  0  0  0  0
   18.0849   -4.4575    0.0000 C   0  0  0  0  0  0  0  0  0  0  0  0
   17.6676   -5.8983    0.0000 C   0  0  0  0  0  0  0  0  0  0  0  0
   17.1357   -7.3008    0.0000 C   0  0  0  0  0  0  0  0  0  0  0  0
   16.4926   -8.6560    0.0000 C   0  0  0  0  0  0  0  0  0  0  0  0
   15.7426   -9.9550    0.0000 C   0  0  0  0  0  0  0  0  0  0  0  0
   14.8906  -11.1895    0.0000 C   0  0  0  0  0  0  0  0  0  0  0  0
   13.9419  -12.3514    0.0000 C   0  0  0  0  0  0  0  0  0  0  0  0
   12.9028  -13.4332    0.0000 C   0  0  0  0  0  0  0  0  0  0  0  0
   11.7800  -14.4279    0.0000 C   0  0  0  0  0  0  0  0  0  0  0  0
   10.5809  -15.3290    0.0000 C   0  0  0  0  0  0  0  0  0  0  0  0
    9.3131  -16.1307    0.0000 C   0  0  0  0  0  0  0  0  0  0  0  0
    7.9849  -16.8278    0.0000 C   0  0  0  0  0  0  0  0  0  0  0  0
    6.6049  -17.4158    0.0000 C   0  0  0  0  0  0  0  0  0  0  0  0
    5.1821  -17.8908    0.0000 C   0  0  0  0  0  0  0  0  0  0  0  0
    3.7257  -18.2497    0.0000 C   0  0  0  0  0  0  0  0  0  0  0  0
    2.2451  -18.4904    0.0000 C   0  0  0  0  0  0  0  0  0  0  0  0
    0.7500  -18.6111    0.0000 C   0  0  0  0  0  0  0  0  0  0  0  0
   -0.7500  -18.6111    0.0000 C   0  0  0  0  0  0  0  0  0  0  0  0
   -2.2451  -18.4904    0.0000 C   0  0  0  0  0  0  0  0  0  0  0  0
   -3.7257  -18.2497    0.0000 C   0  0  0  0  0  0  0  0  0  0  0  0
   -5.1821  -17.8908    0.0000 C   0  0  0  0  0  0  0  0  0  0  0  0
   -6.6049  -17.4158    0.0000 C   0  0  0  0  0  0  0  0  0  0  0  0
   -7.9849  -16.8278    0.0000 C   0  0  0  0  0  0  0  0  0  0  0  0
   -9.3131  -16.1307    0.0000 C   0  0  0  0  0  0  0  0  0  0  0  0
  -10.5809  -15.3290    0.0000 C   0  0  0  0  0  0  0  0  0  0  0  0
  -11.7800  -14.4279    0.0000 C   0  0  0  0  0  0  0  0  0  0  0  0
  -12.9028  -13.4332    0.0000 C   0  0  0  0  0  0  0  0  0  0  0  0
  -13.9419  -12.3514    0.0000 C   0  0  0  0  0  0  0  0  0  0  0  0
  -14.8906  -11.1895    0.0000 C   0  0  0  0  0  0  0  0  0  0  0  0
  -15.7426   -9.9550    0.0000 C   0  0  0  0  0  0  0  0  0  0  0  0
  -16.4926   -8.6560    0.0000 C   0  0  0  0  0  0  0  0  0  0  0  0
  -17.1357   -7.3008    0.0000 C   0  0  0  0  0  0  0  0  0  0  0  0
  -17.6676   -5.8983    0.0000 C   0  0  0  0  0  0  0  0  0  0  0  0
  -18.0849   -4.4575    0.0000 C   0  0  0  0  0  0  0  0  0  0  0  0
  -18.3850   -2.9878    0.0000 C   0  0  0  0  0  0  0  0  0  0  0  0
  -18.5658   -1.4988    0.0000 C   0  0  0  0  0  0  0  0  0  0  0  0
  -18.6262    0.0000    0.0000 C   0  0  0  0  0  0  0  0  0  0  0  0
  -18.5658    1.4988    0.0000 C   0  0  0  0  0  0  0  0  0  0  0  0
  -18.3850    2.9878    0.0000 C   0  0  0  0  0  0  0  0  0  0  0  0
  -18.0849    4.4575    0.0000 C   0  0  0  0  0  0  0  0  0  0  0  0
  -17.6676    5.8983    0.0000 C   0  0  0  0  0  0  0  0  0  0  0  0
  -17.1357    7.3008    0.0000 C   0  0  0  0  0  0  0  0  0  0  0  0
  -16.4926    8.6560    0.0000 C   0  0  0  0  0  0  0  0  0  0  0  0
  -15.7426    9.9550    0.0000 C   0  0  0  0  0  0  0  0  0  0  0  0
  -14.8906   11.1895    0.0000 C   0  0  0  0  0  0  0  0  0  0  0  0
  -13.9419   12.3514    0.0000 C   0  0  0  0  0  0  0  0  0  0  0  0
  -12.9028   13.4332    0.0000 C   0  0  0  0  0  0  0  0  0  0  0  0
  -11.7800   14.4279    0.0000 C   0  0  0  0  0  0  0  0  0  0  0  0
  -10.5809   15.3290    0.0000 C   0  0  0  0  0  0  0  0  0  0  0  0
   -9.3131   16.1307    0.0000 C   0  0  0  0  0  0  0  0  0  0  0  0
   -7.9849   16.8278    0.0000 C   0  0  0  0  0  0  0  0  0  0  0  0
   -6.6049   17.4158    0.0000 C   0  0  0  0  0  0  0  0  0  0  0  0
   -5.1821   17.8908    0.0000 C   0  0  0  0  0  0  0  0  0  0  0  0
   -3.7257   18.2497    0.0000 C   0  0  0  0  0  0  0  0  0  0  0  0
   -2.2451   18.4904    0.0000 C   0  0  0  0  0  0  0  0  0  0  0  0
   -0.7500   18.6111    0.0000 C   0  0  0  0  0  0  0  0  0  0  0  0
    0.7500   18.6111    0.0000 C   0  0  0  0  0  0  0  0  0  0  0  0
    2.2451   18.4904    0.0000 C   0  0  0  0  0  0  0  0  0  0  0  0
    3.7257   18.2497    0.0000 C   0  0  0  0  0  0  0  0  0  0  0  0
    5.1821   17.8908    0.0000 C   0  0  0  0  0  0  0  0  0  0  0  0
    6.6049   17.4158    0.0000 C   0  0  0  0  0  0  0  0  0  0  0  0
    7.9849   16.8278    0.0000 C   0  0  0  0  0  0  0  0  0  0  0  0
    9.3131   16.1307    0.0000 C   0  0  0  0  0  0  0  0  0  0  0  0
   10.5809   15.3290    0.0000 C   0  0  0  0  0  0  0  0  0  0  0  0
   11.7800   14.4279    0.0000 C   0  0  0  0  0  0  0  0  0  0  0  0
   12.9028   13.4332    0.0000 C   0  0  0  0  0  0  0  0  0  0  0  0
   13.9419   12.3514    0.0000 C   0  0  0  0  0  0  0  0  0  0  0  0
   14.8906   11.1895    0.0000 C   0  0  0  0  0  0  0  0  0  0  0  0
   15.7426    9.9550    0.0000 C   0  0  0  0  0  0  0  0  0  0  0  0
   16.4926    8.6560    0.0000 C   0  0  0  0  0  0  0  0  0  0  0  0
   17.1357    7.3008    0.0000 C   0  0  0  0  0  0  0  0  0  0  0  0
   17.6676    5.8983    0.0000 C   0  0  0  0  0  0  0  0  0  0  0  0
   18.0849    4.4575    0.0000 C   0  0  0  0  0  0  0  0  0  0  0  0
   18.3850    2.9878    0.0000 C   0  0  0  0  0  0  0  0  0  0  0  0
   18.5658    1.4988    0.0000 C   0  0  0  0  0  0  0  0  0  0  0  0
   20.0609    1.6195    0.0000 C   0  0  0  0  0  0  0  0  0  0  0  0
  1  2  3  0
  2  3  1  0
  3  4  1  0
  4  5  1  0
  5  6  1  0
  6  7  1  0
  7  8  1  0
  8  9  1  0
  9 10  1  0
 10 11  1  0
 11 12  1  0
 12 13  1  0
 13 14  1  0
 14 15  1  0
 15 16  1  0
 16 17  1  0
 17 18  1  0
 18 19  1  0
 19 20  1  0
 20 21  1  0
 21 22  1  0
 22 23  1  0
 23 24  1  0
 24 25  1  0
 25 26  2  0
 26 27  1  0
 27 28  2  0
 28 29  1  0
 29 30  2  0
 30 31  1  0
 31 32  2  0
 32 33  1  0
 33 34  2  0
 34 35  1  0
 35 36  2  0
 36 37  1  0
 37 38  2  0
 38 39  1  0
 39 40  2  0
 40 41  1  0
 41 42  1  0
 42 43  1  0
 43 44  1  0
 44 45  1  0
 45 46  1  0
 46 47  1  0
 47 48  1  0
 48 49  1  0
 49 50  1  0
 50 51  1  0
 51 52  1  0
 52 53  1  0
 53 54  1  0
 54 55  1  0
 55 56  2  0
 56 57  1  0
 57 58  2  0
 58 59  1  0
 59 60  2  0
 60 61  1  0
 61 62  2  0
 62 63  1  0
 63 64  2  0
 64 65  1  0
 65 66  2  0
 66 67  1  0
 67 68  2  0
 68 69  1  0
 69 70  2  0
 70 71  1  0
 71 72  2  0
 72 73  1  0
 73 74  2  0
 74 75  1  0
 75 76  2  0
 76 77  1  0
 77 78  2  0
 78 79  1  0
 79 80  2  0
 80 81  1  0
 80  3  1  0
M  END
>  <Title>  (345) 
idAALIgen8

$$$$

     RDKit          2D

 62 71  0  0  0  0  0  0  0  0999 V2000
    6.2128    2.2940    0.0000 C   0  0  0  0  0  0  0  0  0  0  0  0
    5.0076    3.1871    0.0000 C   0  0  0  0  0  0  0  0  0  0  0  0
    3.9283    2.1454    0.0000 C   0  0  0  0  0  0  0  0  0  0  0  0
    2.5693    1.5106    0.0000 C   0  0  0  0  0  0  0  0  0  0  0  0
    2.9718    0.0656    0.0000 C   0  0  0  0  0  0  0  0  0  0  0  0
    1.9216   -1.0055    0.0000 O   0  0  0  0  0  0  0  0  0  0  0  0
    4.4244   -0.3084    0.0000 N   0  0  0  0  0  0  0  0  0  0  0  0
    4.8269   -1.7534    0.0000 C   0  0  0  0  0  0  0  0  0  0  0  0
    3.7767   -2.8244    0.0000 N   0  0  0  0  0  0  0  0  0  0  0  0
    4.1792   -4.2694    0.0000 N   0  0  0  0  0  0  0  0  0  0  0  0
    5.6318   -4.6433    0.0000 N   0  0  0  0  0  0  0  0  0  0  0  0
    6.6820   -3.5723    0.0000 N   0  0  0  0  0  0  0  0  0  0  0  0
    6.2795   -2.1273    0.0000 N   0  0  0  0  0  0  0  0  0  0  0  0
    1.0777    1.3515    0.0000 C   0  0  0  0  0  0  0  0  0  0  0  0
    1.7286    0.0000    0.0000 C   0  0  0  0  0  0  0  0  0  0  0  0
    1.0777   -1.3515    0.0000 C   0  0  0  0  0  0  0  0  0  0  0  0
   -0.3846   -1.6852    0.0000 C   0  0  0  0  0  0  0  0  0  0  0  0
   -1.5574   -0.7500    0.0000 C   0  0  0  0  0  0  0  0  0  0  0  0
   -1.5574    0.7500    0.0000 C   0  0  0  0  0  0  0  0  0  0  0  0
   -0.3846    1.6852    0.0000 C   0  0  0  0  0  0  0  0  0  0  0  0
   -1.6594    2.4758    0.0000 C   0  0  0  0  0  0  0  0  0  0  0  0
   -2.1909    1.0731    0.0000 C   0  0  0  0  0  0  0  0  0  0  0  0
   -3.6714    0.8320    0.0000 C   0  0  0  0  0  0  0  0  0  0  0  0
   -4.6204    1.9936    0.0000 C   0  0  0  0  0  0  0  0  0  0  0  0
   -4.0889    3.3963    0.0000 C   0  0  0  0  0  0  0  0  0  0  0  0
   -2.6084    3.6374    0.0000 C   0  0  0  0  0  0  0  0  0  0  0  0
   -3.1289    5.0442    0.0000 C   0  0  0  0  0  0  0  0  0  0  0  0
   -4.4098    4.2637    0.0000 C   0  0  0  0  0  0  0  0  0  0  0  0
   -5.7262    4.9829    0.0000 C   0  0  0  0  0  0  0  0  0  0  0  0
   -5.7616    6.4824    0.0000 C   0  0  0  0  0  0  0  0  0  0  0  0
   -4.4807    7.2629    0.0000 C   0  0  0  0  0  0  0  0  0  0  0  0
   -3.1643    6.5438    0.0000 C   0  0  0  0  0  0  0  0  0  0  0  0
   -2.7109    7.9736    0.0000 C   0  0  0  0  0  0  0  0  0  0  0  0
   -4.2011    8.1445    0.0000 C   0  0  0  0  0  0  0  0  0  0  0  0
   -4.7983    9.5205    0.0000 C   0  0  0  0  0  0  0  0  0  0  0  0
   -3.9051   10.7257    0.0000 C   0  0  0  0  0  0  0  0  0  0  0  0
   -2.4149   10.5548    0.0000 C   0  0  0  0  0  0  0  0  0  0  0  0
   -1.8178    9.1788    0.0000 C   0  0  0  0  0  0  0  0  0  0  0  0
   -0.5818   10.0286    0.0000 C   0  0  0  0  0  0  0  0  0  0  0  0
   -1.6528   11.0788    0.0000 C   0  0  0  0  0  0  0  0  0  0  0  0
   -1.2789   12.5314    0.0000 C   0  0  0  0  0  0  0  0  0  0  0  0
    0.1661   12.9339    0.0000 C   0  0  0  0  0  0  0  0  0  0  0  0
    1.2372   11.8837    0.0000 C   0  0  0  0  0  0  0  0  0  0  0  0
    0.8632   10.4311    0.0000 C   0  0  0  0  0  0  0  0  0  0  0  0
    2.3606   10.3426    0.0000 C   0  0  0  0  0  0  0  0  0  0  0  0
    2.1604   11.8291    0.0000 C   0  0  0  0  0  0  0  0  0  0  0  0
    3.3478   12.7458    0.0000 C   0  0  0  0  0  0  0  0  0  0  0  0
    4.7353   12.1759    0.0000 C   0  0  0  0  0  0  0  0  0  0  0  0
    4.9355   10.6893    0.0000 C   0  0  0  0  0  0  0  0  0  0  0  0
    3.7481    9.7726    0.0000 C   0  0  0  0  0  0  0  0  0  0  0  0
    4.8754    8.7831    0.0000 C   0  0  0  0  0  0  0  0  0  0  0  0
    5.6305   10.0791    0.0000 C   0  0  0  0  0  0  0  0  0  0  0  0
    7.1305   10.0732    0.0000 C   0  0  0  0  0  0  0  0  0  0  0  0
    7.8754    8.7713    0.0000 C   0  0  0  0  0  0  0  0  0  0  0  0
    7.1203    7.4752    0.0000 C   0  0  0  0  0  0  0  0  0  0  0  0
    5.6203    7.4811    0.0000 C   0  0  0  0  0  0  0  0  0  0  0  0
    5.9021    6.0078    0.0000 C   0  0  0  0  0  0  0  0  0  0  0  0
    7.2940    6.5668    0.0000 C   0  0  0  0  0  0  0  0  0  0  0  0
    8.4741    5.6408    0.0000 C   0  0  0  0  0  0  0  0  0  0  0  0
    8.2622    4.1558    0.0000 C   0  0  0  0  0  0  0  0  0  0  0  0
    6.8702    3.5969    0.0000 C   0  0  0  0  0  0  0  0  0  0  0  0
    5.6902    4.5228    0.0000 C   0  0  0  0  0  0  0  0  0  0  0  0
  1  2  1  0
  2  3  2  0
  3  4  1  0
  4  5  1  0
  5  6  2  0
  5  7  1  0
  7  8  1  0
  8  9  2  0
  9 10  1  0
 10 11  2  0
 11 12  1  0
 12 13  2  0
  4 14  1  0
 14 15  2  0
 15 16  1  0
 16 17  1  0
 17 18  1  0
 18 19  1  0
 19 20  2  0
 20 21  1  0
 21 22  2  0
 22 23  1  0
 23 24  2  0
 24 25  1  0
 25 26  2  0
 26 27  1  0
 27 28  2  0
 28 29  1  0
 29 30  2  0
 30 31  1  0
 31 32  2  0
 32 33  1  0
 33 34  2  0
 34 35  1  0
 35 36  2  0
 36 37  1  0
 37 38  2  0
 38 39  1  0
 39 40  2  0
 40 41  1  0
 41 42  2  0
 42 43  1  0
 43 44  2  0
 44 45  1  0
 45 46  2  0
 46 47  1  0
 47 48  2  0
 48 49  1  0
 49 50  2  0
 50 51  1  0
 51 52  2  0
 52 53  1  0
 53 54  2  0
 54 55  1  0
 55 56  2  0
 56 57  1  0
 57 58  2  0
 58 59  1  0
 59 60  2  0
 60 61  1  0
 61 62  2  0
 62  2  1  0
 13  8  1  0
 20 14  1  0
 26 21  1  0
 32 27  1  0
 38 33  1  0
 44 39  1  0
 50 45  1  0
 56 51  1  0
 62 57  1  0
M  END
>  <Title>  (346) 
idAALJgen8

$$$$

     RDKit          2D

 97 99  0  0  0  0  0  0  0  0999 V2000
    9.3850   -7.8081    0.0000 C   0  0  0  0  0  0  0  0  0  0  0  0
   10.8372   -7.4322    0.0000 C   0  0  0  0  0  0  0  0  0  0  0  0
   11.3072   -8.8567    0.0000 C   0  0  0  0  0  0  0  0  0  0  0  0
   11.9591  -10.2076    0.0000 C   0  0  0  0  0  0  0  0  0  0  0  0
   12.7818  -11.4619    0.0000 C   0  0  0  0  0  0  0  0  0  0  0  0
   13.7612  -12.5980    0.0000 C   0  0  0  0  0  0  0  0  0  0  0  0
   14.8804  -13.5966    0.0000 C   0  0  0  0  0  0  0  0  0  0  0  0
   16.1205  -14.4406    0.0000 C   0  0  0  0  0  0  0  0  0  0  0  0
   17.4601  -15.1155    0.0000 C   0  0  0  0  0  0  0  0  0  0  0  0
   18.8763  -15.6098    0.0000 C   0  0  0  0  0  0  0  0  0  0  0  0
   20.3449  -15.9150    0.0000 C   0  0  0  0  0  0  0  0  0  0  0  0
   21.8408  -16.0258    0.0000 C   0  0  0  0  0  0  0  0  0  0  0  0
   23.3384  -15.9405    0.0000 C   0  0  0  0  0  0  0  0  0  0  0  0
   24.8120  -15.6605    0.0000 C   0  0  0  0  0  0  0  0  0  0  0  0
   26.2365  -15.1904    0.0000 C   0  0  0  0  0  0  0  0  0  0  0  0
   27.5874  -14.5385    0.0000 C   0  0  0  0  0  0  0  0  0  0  0  0
   28.8417  -13.7158    0.0000 C   0  0  0  0  0  0  0  0  0  0  0  0
   29.9778  -12.7365    0.0000 C   0  0  0  0  0  0  0  0  0  0  0  0
   30.9765  -11.6172    0.0000 C   0  0  0  0  0  0  0  0  0  0  0  0
   31.8204  -10.3772    0.0000 C   0  0  0  0  0  0  0  0  0  0  0  0
   32.4953   -9.0376    0.0000 C   0  0  0  0  0  0  0  0  0  0  0  0
   32.9896   -7.6213    0.0000 C   0  0  0  0  0  0  0  0  0  0  0  0
   33.2948   -6.1527    0.0000 C   0  0  0  0  0  0  0  0  0  0  0  0
   33.4057   -4.6568    0.0000 C   0  0  0  0  0  0  0  0  0  0  0  0
   33.3203   -3.1592    0.0000 C   0  0  0  0  0  0  0  0  0  0  0  0
   33.0403   -1.6856    0.0000 C   0  0  0  0  0  0  0  0  0  0  0  0
   32.5702   -0.2612    0.0000 C   0  0  0  0  0  0  0  0  0  0  0  0
   31.9183    1.0898    0.0000 C   0  0  0  0  0  0  0  0  0  0  0  0
   31.0956    2.3440    0.0000 C   0  0  0  0  0  0  0  0  0  0  0  0
   30.1163    3.4802    0.0000 C   0  0  0  0  0  0  0  0  0  0  0  0
   28.9970    4.4788    0.0000 C   0  0  0  0  0  0  0  0  0  0  0  0
   27.7570    5.3228    0.0000 C   0  0  0  0  0  0  0  0  0  0  0  0
   26.4174    5.9977    0.0000 C   0  0  0  0  0  0  0  0  0  0  0  0
   25.0011    6.4919    0.0000 C   0  0  0  0  0  0  0  0  0  0  0  0
   23.5325    6.7971    0.0000 C   0  0  0  0  0  0  0  0  0  0  0  0
   22.0366    6.9080    0.0000 C   0  0  0  0  0  0  0  0  0  0  0  0
   20.5391    6.8227    0.0000 C   0  0  0  0  0  0  0  0  0  0  0  0
   19.0654    6.5426    0.0000 C   0  0  0  0  0  0  0  0  0  0  0  0
   17.6410    6.0726    0.0000 C   0  0  0  0  0  0  0  0  0  0  0  0
   16.2900    5.4207    0.0000 C   0  0  0  0  0  0  0  0  0  0  0  0
   15.0358    4.5980    0.0000 C   0  0  0  0  0  0  0  0  0  0  0  0
   13.8996    3.6186    0.0000 C   0  0  0  0  0  0  0  0  0  0  0  0
   12.9010    2.4994    0.0000 C   0  0  0  0  0  0  0  0  0  0  0  0
   12.0570    1.2593    0.0000 C   0  0  0  0  0  0  0  0  0  0  0  0
   11.3821   -0.0803    0.0000 C   0  0  0  0  0  0  0  0  0  0  0  0
   10.8879   -1.4965    0.0000 C   0  0  0  0  0  0  0  0  0  0  0  0
   10.2902   -0.0000    0.0000 C   0  0  0  0  0  0  0  0  0  0  0  0
   10.1944    1.4012    0.0000 C   0  0  0  0  0  0  0  0  0  0  0  0
    9.9086    2.7763    0.0000 C   0  0  0  0  0  0  0  0  0  0  0  0
    9.4383    4.0996    0.0000 C   0  0  0  0  0  0  0  0  0  0  0  0
    8.7922    5.3466    0.0000 C   0  0  0  0  0  0  0  0  0  0  0  0
    7.9822    6.4940    0.0000 C   0  0  0  0  0  0  0  0  0  0  0  0
    7.0236    7.5205    0.0000 C   0  0  0  0  0  0  0  0  0  0  0  0
    5.9342    8.4068    0.0000 C   0  0  0  0  0  0  0  0  0  0  0  0
    4.7342    9.1365    0.0000 C   0  0  0  0  0  0  0  0  0  0  0  0
    3.4460    9.6961    0.0000 C   0  0  0  0  0  0  0  0  0  0  0  0
    2.0936   10.0750    0.0000 C   0  0  0  0  0  0  0  0  0  0  0  0
    0.7022   10.2662    0.0000 C   0  0  0  0  0  0  0  0  0  0  0  0
   -0.7022   10.2662    0.0000 C   0  0  0  0  0  0  0  0  0  0  0  0
   -2.0936   10.0750    0.0000 C   0  0  0  0  0  0  0  0  0  0  0  0
   -3.4460    9.6961    0.0000 C   0  0  0  0  0  0  0  0  0  0  0  0
   -4.7342    9.1365    0.0000 C   0  0  0  0  0  0  0  0  0  0  0  0
   -5.9342    8.4068    0.0000 C   0  0  0  0  0  0  0  0  0  0  0  0
   -7.0236    7.5205    0.0000 C   0  0  0  0  0  0  0  0  0  0  0  0
   -7.9822    6.4940    0.0000 C   0  0  0  0  0  0  0  0  0  0  0  0
   -8.7922    5.3466    0.0000 C   0  0  0  0  0  0  0  0  0  0  0  0
   -9.4383    4.0996    0.0000 C   0  0  0  0  0  0  0  0  0  0  0  0
   -9.9086    2.7763    0.0000 C   0  0  0  0  0  0  0  0  0  0  0  0
  -10.1944    1.4012    0.0000 C   0  0  0  0  0  0  0  0  0  0  0  0
  -10.2902    0.0000    0.0000 C   0  0  0  0  0  0  0  0  0  0  0  0
  -10.1944   -1.4012    0.0000 C   0  0  0  0  0  0  0  0  0  0  0  0
   -9.9086   -2.7763    0.0000 C   0  0  0  0  0  0  0  0  0  0  0  0
   -9.4383   -4.0996    0.0000 C   0  0  0  0  0  0  0  0  0  0  0  0
   -8.7922   -5.3466    0.0000 C   0  0  0  0  0  0  0  0  0  0  0  0
   -7.9822   -6.4940    0.0000 C   0  0  0  0  0  0  0  0  0  0  0  0
   -7.0236   -7.5205    0.0000 C   0  0  0  0  0  0  0  0  0  0  0  0
   -5.9342   -8.4068    0.0000 C   0  0  0  0  0  0  0  0  0  0  0  0
   -4.7342   -9.1365    0.0000 C   0  0  0  0  0  0  0  0  0  0  0  0
   -3.4460   -9.6961    0.0000 C   0  0  0  0  0  0  0  0  0  0  0  0
   -2.0936  -10.0750    0.0000 C   0  0  0  0  0  0  0  0  0  0  0  0
   -0.7022  -10.2662    0.0000 C   0  0  0  0  0  0  0  0  0  0  0  0
    0.7022  -10.2662    0.0000 C   0  0  0  0  0  0  0  0  0  0  0  0
    2.0936  -10.0750    0.0000 C   0  0  0  0  0  0  0  0  0  0  0  0
    3.4460   -9.6961    0.0000 C   0  0  0  0  0  0  0  0  0  0  0  0
    4.7342   -9.1365    0.0000 C   0  0  0  0  0  0  0  0  0  0  0  0
    5.9342   -8.4068    0.0000 C   0  0  0  0  0  0  0  0  0  0  0  0
    7.0236   -7.5205    0.0000 C   0  0  0  0  0  0  0  0  0  0  0  0
    7.9822   -6.4940    0.0000 C   0  0  0  0  0  0  0  0  0  0  0  0
    8.7922   -5.3466    0.0000 C   0  0  0  0  0  0  0  0  0  0  0  0
    9.4383   -4.0996    0.0000 C   0  0  0  0  0  0  0  0  0  0  0  0
   10.5827   -2.9651    0.0000 C   0  0  0  0  0  0  0  0  0  0  0  0
   10.4718   -4.4610    0.0000 C   0  0  0  0  0  0  0  0  0  0  0  0
   11.7261   -3.6383    0.0000 C   0  0  0  0  0  0  0  0  0  0  0  0
   13.0657   -4.3132    0.0000 C   0  0  0  0  0  0  0  0  0  0  0  0
   13.1510   -5.8108    0.0000 C   0  0  0  0  0  0  0  0  0  0  0  0
   11.8967   -6.6335    0.0000 C   0  0  0  0  0  0  0  0  0  0  0  0
   10.5571   -5.9586    0.0000 C   0  0  0  0  0  0  0  0  0  0  0  0
  1  2  1  0
  2  3  1  0
  3  4  1  0
  4  5  1  0
  5  6  1  0
  6  7  1  0
  7  8  1  0
  8  9  1  0
  9 10  1  0
 10 11  1  0
 11 12  1  0
 12 13  1  0
 13 14  1  0
 14 15  1  0
 15 16  1  0
 16 17  1  0
 17 18  1  0
 18 19  1  0
 19 20  1  0
 20 21  1  0
 21 22  1  0
 22 23  1  0
 23 24  1  0
 24 25  1  0
 25 26  1  0
 26 27  1  0
 27 28  1  0
 28 29  1  0
 29 30  1  0
 30 31  1  0
 31 32  1  0
 32 33  1  0
 33 34  1  0
 34 35  1  0
 35 36  1  0
 36 37  1  0
 37 38  1  0
 38 39  1  0
 39 40  1  0
 40 41  1  0
 41 42  1  0
 42 43  1  0
 43 44  1  0
 44 45  1  0
 45 46  1  0
 46 47  1  0
 47 48  1  0
 48 49  1  0
 49 50  1  0
 50 51  2  0
 51 52  1  0
 52 53  1  0
 53 54  1  0
 54 55  1  0
 55 56  1  0
 56 57  1  0
 57 58  1  0
 58 59  1  0
 59 60  1  0
 60 61  1  0
 61 62  1  0
 62 63  1  0
 63 64  1  0
 64 65  1  0
 65 66  1  0
 66 67  1  0
 67 68  1  0
 68 69  1  0
 69 70  1  0
 70 71  1  0
 71 72  1  0
 72 73  1  0
 73 74  1  0
 74 75  1  0
 75 76  1  0
 76 77  1  0
 77 78  1  0
 78 79  1  0
 79 80  1  0
 80 81  2  0
 81 82  1  0
 82 83  2  0
 83 84  1  0
 84 85  2  0
 85 86  1  0
 86 87  2  0
 87 88  1  0
 88 89  2  0
 89 90  1  0
 90 91  2  0
 91 92  1  0
 92 93  2  0
 93 94  1  0
 94 95  2  0
 95 96  1  0
 96 97  2  0
 97  2  1  0
 91 46  1  0
 97 92  1  0
M  END
>  <Title>  (347) 
idAALKgen8

$$$$

     RDKit          2D

 10 10  0  0  0  0  0  0  0  0999 V2000
    4.9320    1.5439    0.0000 C   0  0  0  0  0  0  0  0  0  0  0  0
    3.8173    0.5402    0.0000 C   0  0  0  0  0  0  0  0  0  0  0  0
    2.3907    1.0037    0.0000 C   0  0  0  0  0  0  0  0  0  0  0  0
    1.2760    0.0000    0.0000 C   0  0  0  0  0  0  0  0  0  0  0  0
    2.3907   -1.0037    0.0000 N   0  0  0  0  0  0  0  0  0  0  0  0
    0.3943    1.2135    0.0000 C   0  0  0  0  0  0  0  0  0  0  0  0
   -1.0323    0.7500    0.0000 C   0  0  0  0  0  0  0  0  0  0  0  0
   -1.0323   -0.7500    0.0000 C   0  0  0  0  0  0  0  0  0  0  0  0
   -2.2458   -1.6317    0.0000 O   0  0  0  0  0  0  0  0  0  0  0  0
    0.3943   -1.2135    0.0000 C   0  0  0  0  0  0  0  0  0  0  0  0
  1  2  1  0
  2  3  1  0
  3  4  1  0
  4  5  1  0
  4  6  1  0
  6  7  1  0
  7  8  1  0
  8  9  1  0
  8 10  1  0
 10  4  1  0
M  END
>  <Title>  (348) 
idAALLgen8

$$$$

     RDKit          2D

 50 50  0  0  0  0  0  0  0  0999 V2000
   12.9673    0.0000    0.0000 C   0  0  0  0  0  0  0  0  0  0  0  0
   11.4673    0.0000    0.0000 C   0  0  0  0  0  0  0  0  0  0  0  0
   11.3692   -1.4968    0.0000 C   0  0  0  0  0  0  0  0  0  0  0  0
   11.0766   -2.9680    0.0000 C   0  0  0  0  0  0  0  0  0  0  0  0
   10.5944   -4.3884    0.0000 C   0  0  0  0  0  0  0  0  0  0  0  0
    9.9310   -5.7337    0.0000 C   0  0  0  0  0  0  0  0  0  0  0  0
    9.0977   -6.9809    0.0000 C   0  0  0  0  0  0  0  0  0  0  0  0
    8.1086   -8.1086    0.0000 C   0  0  0  0  0  0  0  0  0  0  0  0
    6.9809   -9.0977    0.0000 C   0  0  0  0  0  0  0  0  0  0  0  0
    5.7337   -9.9310    0.0000 C   0  0  0  0  0  0  0  0  0  0  0  0
    4.3884  -10.5944    0.0000 C   0  0  0  0  0  0  0  0  0  0  0  0
    2.9680  -11.0766    0.0000 C   0  0  0  0  0  0  0  0  0  0  0  0
    1.4968  -11.3692    0.0000 C   0  0  0  0  0  0  0  0  0  0  0  0
   -0.0000  -11.4673    0.0000 C   0  0  0  0  0  0  0  0  0  0  0  0
   -1.4968  -11.3692    0.0000 C   0  0  0  0  0  0  0  0  0  0  0  0
   -2.9680  -11.0766    0.0000 C   0  0  0  0  0  0  0  0  0  0  0  0
   -4.3884  -10.5944    0.0000 C   0  0  0  0  0  0  0  0  0  0  0  0
   -5.7337   -9.9310    0.0000 C   0  0  0  0  0  0  0  0  0  0  0  0
   -6.9809   -9.0977    0.0000 C   0  0  0  0  0  0  0  0  0  0  0  0
   -8.1086   -8.1086    0.0000 C   0  0  0  0  0  0  0  0  0  0  0  0
   -9.0977   -6.9809    0.0000 C   0  0  0  0  0  0  0  0  0  0  0  0
   -9.9310   -5.7337    0.0000 C   0  0  0  0  0  0  0  0  0  0  0  0
  -10.5944   -4.3884    0.0000 C   0  0  0  0  0  0  0  0  0  0  0  0
  -11.0766   -2.9680    0.0000 C   0  0  0  0  0  0  0  0  0  0  0  0
  -11.3692   -1.4968    0.0000 C   0  0  0  0  0  0  0  0  0  0  0  0
  -11.4673    0.0000    0.0000 C   0  0  0  0  0  0  0  0  0  0  0  0
  -11.3692    1.4968    0.0000 C   0  0  0  0  0  0  0  0  0  0  0  0
  -11.0766    2.9680    0.0000 C   0  0  0  0  0  0  0  0  0  0  0  0
  -10.5944    4.3884    0.0000 C   0  0  0  0  0  0  0  0  0  0  0  0
   -9.9310    5.7337    0.0000 C   0  0  0  0  0  0  0  0  0  0  0  0
   -9.0977    6.9809    0.0000 C   0  0  0  0  0  0  0  0  0  0  0  0
   -8.1086    8.1086    0.0000 C   0  0  0  0  0  0  0  0  0  0  0  0
   -6.9809    9.0977    0.0000 C   0  0  0  0  0  0  0  0  0  0  0  0
   -5.7337    9.9310    0.0000 C   0  0  0  0  0  0  0  0  0  0  0  0
   -6.4837   11.2300    0.0000 O   0  0  0  0  0  0  0  0  0  0  0  0
   -4.3884   10.5944    0.0000 C   0  0  0  0  0  0  0  0  0  0  0  0
   -2.9680   11.0766    0.0000 C   0  0  0  0  0  0  0  0  0  0  0  0
   -1.4968   11.3692    0.0000 C   0  0  0  0  0  0  0  0  0  0  0  0
    0.0000   11.4673    0.0000 C   0  0  0  0  0  0  0  0  0  0  0  0
    1.4968   11.3692    0.0000 C   0  0  0  0  0  0  0  0  0  0  0  0
    2.9680   11.0766    0.0000 C   0  0  0  0  0  0  0  0  0  0  0  0
    4.3884   10.5944    0.0000 C   0  0  0  0  0  0  0  0  0  0  0  0
    5.7337    9.9310    0.0000 C   0  0  0  0  0  0  0  0  0  0  0  0
    6.9809    9.0977    0.0000 C   0  0  0  0  0  0  0  0  0  0  0  0
    8.1086    8.1086    0.0000 C   0  0  0  0  0  0  0  0  0  0  0  0
    9.0977    6.9809    0.0000 C   0  0  0  0  0  0  0  0  0  0  0  0
    9.9310    5.7337    0.0000 C   0  0  0  0  0  0  0  0  0  0  0  0
   10.5944    4.3884    0.0000 C   0  0  0  0  0  0  0  0  0  0  0  0
   11.0766    2.9680    0.0000 C   0  0  0  0  0  0  0  0  0  0  0  0
   11.3692    1.4968    0.0000 C   0  0  0  0  0  0  0  0  0  0  0  0
  1  2  1  0
  2  3  1  0
  3  4  1  0
  4  5  1  0
  5  6  1  0
  6  7  1  0
  7  8  1  0
  8  9  1  0
  9 10  1  0
 10 11  1  0
 11 12  1  0
 12 13  1  0
 13 14  1  0
 14 15  1  0
 15 16  1  0
 16 17  1  0
 17 18  1  0
 18 19  1  0
 19 20  1  0
 20 21  1  0
 21 22  1  0
 22 23  1  0
 23 24  1  0
 24 25  1  0
 25 26  1  0
 26 27  1  0
 27 28  1  0
 28 29  1  0
 29 30  1  0
 30 31  1  0
 31 32  1  0
 32 33  1  0
 33 34  1  0
 34 35  1  0
 34 36  1  0
 36 37  1  0
 37 38  1  0
 38 39  1  0
 39 40  1  0
 40 41  1  0
 41 42  1  0
 42 43  1  0
 43 44  1  0
 44 45  1  0
 45 46  1  0
 46 47  1  0
 47 48  1  0
 48 49  1  0
 49 50  1  0
 50  2  1  0
M  END
>  <Title>  (349) 
idAALMgen8

$$$$

     RDKit          2D

 32 36  0  0  0  0  0  0  0  0999 V2000
    1.2135   -7.3421    0.0000 C   0  0  0  0  0  0  0  0  0  0  0  0
    0.7500   -5.9156    0.0000 C   0  0  0  0  0  0  0  0  0  0  0  0
    1.9635   -5.0339    0.0000 C   0  0  0  0  0  0  0  0  0  0  0  0
    2.4271   -3.6073    0.0000 C   0  0  0  0  0  0  0  0  0  0  0  0
    1.9635   -2.1807    0.0000 C   0  0  0  0  0  0  0  0  0  0  0  0
    3.1771   -1.2990    0.0000 C   0  0  0  0  0  0  0  0  0  0  0  0
    3.0203    0.1927    0.0000 O   0  0  0  0  0  0  0  0  0  0  0  0
    4.5474   -1.9091    0.0000 N   0  0  0  0  0  0  0  0  0  0  0  0
    5.7609   -1.0275    0.0000 C   0  0  0  0  0  0  0  0  0  0  0  0
    7.1312   -1.6376    0.0000 N   0  0  0  0  0  0  0  0  0  0  0  0
    8.3447   -0.7559    0.0000 N   0  0  0  0  0  0  0  0  0  0  0  0
    8.1879    0.7359    0.0000 N   0  0  0  0  0  0  0  0  0  0  0  0
    6.8176    1.3460    0.0000 N   0  0  0  0  0  0  0  0  0  0  0  0
    5.6041    0.4643    0.0000 N   0  0  0  0  0  0  0  0  0  0  0  0
    0.7500   -1.2990    0.0000 C   0  0  0  0  0  0  0  0  0  0  0  0
    1.5000    0.0000    0.0000 C   0  0  0  0  0  0  0  0  0  0  0  0
    0.7500    1.2990    0.0000 C   0  0  0  0  0  0  0  0  0  0  0  0
   -0.7500    1.2990    0.0000 C   0  0  0  0  0  0  0  0  0  0  0  0
   -1.5000    0.0000    0.0000 C   0  0  0  0  0  0  0  0  0  0  0  0
   -0.7500   -1.2990    0.0000 C   0  0  0  0  0  0  0  0  0  0  0  0
   -1.9635   -2.1807    0.0000 C   0  0  0  0  0  0  0  0  0  0  0  0
   -2.9672   -1.0660    0.0000 C   0  0  0  0  0  0  0  0  0  0  0  0
   -4.4344   -1.3779    0.0000 C   0  0  0  0  0  0  0  0  0  0  0  0
   -4.8980   -2.8045    0.0000 C   0  0  0  0  0  0  0  0  0  0  0  0
   -3.8943   -3.9192    0.0000 C   0  0  0  0  0  0  0  0  0  0  0  0
   -2.4271   -3.6073    0.0000 C   0  0  0  0  0  0  0  0  0  0  0  0
   -1.9635   -5.0339    0.0000 C   0  0  0  0  0  0  0  0  0  0  0  0
   -3.3338   -5.6440    0.0000 C   0  0  0  0  0  0  0  0  0  0  0  0
   -3.4906   -7.1358    0.0000 C   0  0  0  0  0  0  0  0  0  0  0  0
   -2.2771   -8.0175    0.0000 C   0  0  0  0  0  0  0  0  0  0  0  0
   -0.9068   -7.4073    0.0000 C   0  0  0  0  0  0  0  0  0  0  0  0
   -0.7500   -5.9156    0.0000 C   0  0  0  0  0  0  0  0  0  0  0  0
  1  2  1  0
  2  3  1  0
  3  4  2  0
  4  5  1  0
  5  6  1  0
  6  7  2  0
  6  8  1  0
  8  9  1  0
  9 10  2  0
 10 11  1  0
 11 12  2  0
 12 13  1  0
 13 14  2  0
  5 15  1  0
 15 16  2  0
 16 17  1  0
 17 18  2  0
 18 19  1  0
 19 20  2  0
 20 21  1  0
 21 22  2  0
 22 23  1  0
 23 24  2  0
 24 25  1  0
 25 26  2  0
 26 27  1  0
 27 28  2  0
 28 29  1  0
 29 30  2  0
 30 31  1  0
 31 32  2  0
 32  2  1  0
 14  9  1  0
 20 15  1  0
 26 21  1  0
 32 27  1  0
M  END
>  <Title>  (350) 
idAALNgen8

$$$$

     RDKit          2D

 21 22  0  0  0  0  0  0  0  0999 V2000
   -1.2064  -13.2657    0.0000 C   0  0  0  0  0  0  0  0  0  0  0  0
   -1.0496  -11.7739    0.0000 C   0  0  0  0  0  0  0  0  0  0  0  0
    0.3207  -11.1638    0.0000 C   0  0  0  0  0  0  0  0  0  0  0  0
    0.4775   -9.6721    0.0000 C   0  0  0  0  0  0  0  0  0  0  0  0
   -0.7360   -8.7904    0.0000 O   0  0  0  0  0  0  0  0  0  0  0  0
    1.8478   -9.0619    0.0000 C   0  0  0  0  0  0  0  0  0  0  0  0
    3.0613   -9.9436    0.0000 O   0  0  0  0  0  0  0  0  0  0  0  0
    2.0046   -7.5702    0.0000 C   0  0  0  0  0  0  0  0  0  0  0  0
    3.3037   -6.8202    0.0000 C   0  0  0  0  0  0  0  0  0  0  0  0
    2.9918   -5.3529    0.0000 C   0  0  0  0  0  0  0  0  0  0  0  0
    1.5000   -5.1962    0.0000 C   0  0  0  0  0  0  0  0  0  0  0  0
    0.7500   -3.8971    0.0000 C   0  0  0  0  0  0  0  0  0  0  0  0
   -0.7500   -3.8971    0.0000 O   0  0  0  0  0  0  0  0  0  0  0  0
    1.5000   -2.5981    0.0000 N   0  0  0  0  0  0  0  0  0  0  0  0
    0.7500   -1.2990    0.0000 C   0  0  0  0  0  0  0  0  0  0  0  0
    1.5000    0.0000    0.0000 N   0  0  0  0  0  0  0  0  0  0  0  0
    0.7500    1.2990    0.0000 N   0  0  0  0  0  0  0  0  0  0  0  0
   -0.7500    1.2990    0.0000 N   0  0  0  0  0  0  0  0  0  0  0  0
   -1.5000    0.0000    0.0000 N   0  0  0  0  0  0  0  0  0  0  0  0
   -0.7500   -1.2990    0.0000 N   0  0  0  0  0  0  0  0  0  0  0  0
    0.8899   -6.5665    0.0000 C   0  0  0  0  0  0  0  0  0  0  0  0
  1  2  1  0
  2  3  2  3
  3  4  1  0
  4  5  2  0
  4  6  1  0
  6  7  2  0
  6  8  1  0
  8  9  1  0
  9 10  1  0
 10 11  1  0
 11 12  1  0
 12 13  2  0
 12 14  1  0
 14 15  1  0
 15 16  2  0
 16 17  1  0
 17 18  2  0
 18 19  1  0
 19 20  2  0
 11 21  1  0
 21  8  1  0
 20 15  1  0
M  END
>  <Title>  (351) 
idAALOgen8

$$$$

     RDKit          2D

 10 10  0  0  0  0  0  0  0  0999 V2000
    3.9786   -1.2990    0.0000 C   0  0  0  0  0  0  0  0  0  0  0  0
    3.2286   -0.0000    0.0000 C   0  0  0  0  0  0  0  0  0  0  0  0
    1.7286    0.0000    0.0000 C   0  0  0  0  0  0  0  0  0  0  0  0
    1.0777    1.3515    0.0000 C   0  0  0  0  0  0  0  0  0  0  0  0
   -0.3846    1.6852    0.0000 C   0  0  0  0  0  0  0  0  0  0  0  0
   -1.5574    0.7500    0.0000 C   0  0  0  0  0  0  0  0  0  0  0  0
   -1.5574   -0.7500    0.0000 C   0  0  0  0  0  0  0  0  0  0  0  0
   -2.9088   -1.4008    0.0000 O   0  0  0  0  0  0  0  0  0  0  0  0
   -0.3846   -1.6852    0.0000 C   0  0  0  0  0  0  0  0  0  0  0  0
    1.0777   -1.3515    0.0000 C   0  0  0  0  0  0  0  0  0  0  0  0
  1  2  1  0
  2  3  1  0
  3  4  2  0
  4  5  1  0
  5  6  1  0
  6  7  1  0
  7  8  1  0
  7  9  1  0
  9 10  1  0
 10  3  1  0
M  END
>  <Title>  (352) 
idAALPgen8

$$$$

     RDKit          2D

  8  8  0  0  0  0  0  0  0  0999 V2000
    3.0000    0.0000    0.0000 C   0  0  0  0  0  0  0  0  0  0  0  0
    1.5000    0.0000    0.0000 C   0  0  0  0  0  0  0  0  0  0  0  0
    0.7500   -1.2990    0.0000 C   0  0  0  0  0  0  0  0  0  0  0  0
   -0.7500   -1.2990    0.0000 C   0  0  0  0  0  0  0  0  0  0  0  0
   -1.5000    0.0000    0.0000 C   0  0  0  0  0  0  0  0  0  0  0  0
   -3.0000    0.0000    0.0000 O   0  0  0  0  0  0  0  0  0  0  0  0
   -0.7500    1.2990    0.0000 C   0  0  0  0  0  0  0  0  0  0  0  0
    0.7500    1.2990    0.0000 C   0  0  0  0  0  0  0  0  0  0  0  0
  1  2  1  0
  2  3  2  0
  3  4  1  0
  4  5  1  0
  5  6  1  0
  5  7  1  0
  7  8  2  0
  8  2  1  0
M  END
>  <Title>  (353) 
idAALQgen8

$$$$

     RDKit          2D

 91 91  0  0  0  0  0  0  0  0999 V2000
   22.5129    0.0000    0.0000 C   0  0  0  0  0  0  0  0  0  0  0  0
   21.0129    0.0000    0.0000 C   0  0  0  0  0  0  0  0  0  0  0  0
   20.9594   -1.4990    0.0000 C   0  0  0  0  0  0  0  0  0  0  0  0
   20.7990   -2.9904    0.0000 C   0  0  0  0  0  0  0  0  0  0  0  0
   20.5327   -4.4666    0.0000 C   0  0  0  0  0  0  0  0  0  0  0  0
   20.1617   -5.9200    0.0000 C   0  0  0  0  0  0  0  0  0  0  0  0
   19.6880   -7.3433    0.0000 C   0  0  0  0  0  0  0  0  0  0  0  0
   19.1140   -8.7291    0.0000 C   0  0  0  0  0  0  0  0  0  0  0  0
   18.4426  -10.0704    0.0000 C   0  0  0  0  0  0  0  0  0  0  0  0
   17.6772  -11.3604    0.0000 C   0  0  0  0  0  0  0  0  0  0  0  0
   16.8217  -12.5926    0.0000 C   0  0  0  0  0  0  0  0  0  0  0  0
   15.8805  -13.7605    0.0000 C   0  0  0  0  0  0  0  0  0  0  0  0
   14.8584  -14.8584    0.0000 C   0  0  0  0  0  0  0  0  0  0  0  0
   13.7605  -15.8805    0.0000 C   0  0  0  0  0  0  0  0  0  0  0  0
   12.5926  -16.8217    0.0000 C   0  0  0  0  0  0  0  0  0  0  0  0
   11.3604  -17.6772    0.0000 C   0  0  0  0  0  0  0  0  0  0  0  0
   10.0704  -18.4426    0.0000 C   0  0  0  0  0  0  0  0  0  0  0  0
    8.7291  -19.1140    0.0000 C   0  0  0  0  0  0  0  0  0  0  0  0
    7.3433  -19.6880    0.0000 C   0  0  0  0  0  0  0  0  0  0  0  0
    5.9200  -20.1617    0.0000 C   0  0  0  0  0  0  0  0  0  0  0  0
    4.4666  -20.5327    0.0000 C   0  0  0  0  0  0  0  0  0  0  0  0
    2.9904  -20.7990    0.0000 C   0  0  0  0  0  0  0  0  0  0  0  0
    1.4990  -20.9594    0.0000 C   0  0  0  0  0  0  0  0  0  0  0  0
   -0.0000  -21.0129    0.0000 C   0  0  0  0  0  0  0  0  0  0  0  0
   -1.4990  -20.9594    0.0000 C   0  0  0  0  0  0  0  0  0  0  0  0
   -2.9904  -20.7990    0.0000 C   0  0  0  0  0  0  0  0  0  0  0  0
   -4.4666  -20.5327    0.0000 C   0  0  0  0  0  0  0  0  0  0  0  0
   -5.9200  -20.1617    0.0000 C   0  0  0  0  0  0  0  0  0  0  0  0
   -7.3433  -19.6880    0.0000 C   0  0  0  0  0  0  0  0  0  0  0  0
   -8.7291  -19.1140    0.0000 C   0  0  0  0  0  0  0  0  0  0  0  0
  -10.0704  -18.4426    0.0000 C   0  0  0  0  0  0  0  0  0  0  0  0
  -11.3604  -17.6772    0.0000 C   0  0  0  0  0  0  0  0  0  0  0  0
  -12.5926  -16.8217    0.0000 C   0  0  0  0  0  0  0  0  0  0  0  0
  -13.7605  -15.8805    0.0000 C   0  0  0  0  0  0  0  0  0  0  0  0
  -14.8584  -14.8584    0.0000 C   0  0  0  0  0  0  0  0  0  0  0  0
  -15.8805  -13.7605    0.0000 C   0  0  0  0  0  0  0  0  0  0  0  0
  -16.8217  -12.5926    0.0000 C   0  0  0  0  0  0  0  0  0  0  0  0
  -17.6772  -11.3604    0.0000 C   0  0  0  0  0  0  0  0  0  0  0  0
  -18.4426  -10.0704    0.0000 C   0  0  0  0  0  0  0  0  0  0  0  0
  -19.1140   -8.7291    0.0000 C   0  0  0  0  0  0  0  0  0  0  0  0
  -19.6880   -7.3433    0.0000 C   0  0  0  0  0  0  0  0  0  0  0  0
  -20.1617   -5.9200    0.0000 C   0  0  0  0  0  0  0  0  0  0  0  0
  -20.5327   -4.4666    0.0000 C   0  0  0  0  0  0  0  0  0  0  0  0
  -20.7990   -2.9904    0.0000 C   0  0  0  0  0  0  0  0  0  0  0  0
  -20.9594   -1.4990    0.0000 C   0  0  0  0  0  0  0  0  0  0  0  0
  -21.0129    0.0000    0.0000 C   0  0  0  0  0  0  0  0  0  0  0  0
  -20.9594    1.4990    0.0000 C   0  0  0  0  0  0  0  0  0  0  0  0
  -20.7990    2.9904    0.0000 C   0  0  0  0  0  0  0  0  0  0  0  0
  -20.5327    4.4666    0.0000 C   0  0  0  0  0  0  0  0  0  0  0  0
  -20.1617    5.9200    0.0000 C   0  0  0  0  0  0  0  0  0  0  0  0
  -19.6880    7.3433    0.0000 C   0  0  0  0  0  0  0  0  0  0  0  0
  -19.1140    8.7291    0.0000 C   0  0  0  0  0  0  0  0  0  0  0  0
  -18.4426   10.0704    0.0000 C   0  0  0  0  0  0  0  0  0  0  0  0
  -17.6772   11.3604    0.0000 C   0  0  0  0  0  0  0  0  0  0  0  0
  -16.8217   12.5926    0.0000 C   0  0  0  0  0  0  0  0  0  0  0  0
  -15.8805   13.7605    0.0000 C   0  0  0  0  0  0  0  0  0  0  0  0
  -14.8584   14.8584    0.0000 C   0  0  0  0  0  0  0  0  0  0  0  0
  -13.7605   15.8805    0.0000 C   0  0  0  0  0  0  0  0  0  0  0  0
  -12.5926   16.8217    0.0000 C   0  0  0  0  0  0  0  0  0  0  0  0
  -11.3604   17.6772    0.0000 C   0  0  0  0  0  0  0  0  0  0  0  0
  -10.0704   18.4426    0.0000 C   0  0  0  0  0  0  0  0  0  0  0  0
   -8.7291   19.1140    0.0000 C   0  0  0  0  0  0  0  0  0  0  0  0
   -7.3433   19.6880    0.0000 C   0  0  0  0  0  0  0  0  0  0  0  0
   -5.9200   20.1617    0.0000 C   0  0  0  0  0  0  0  0  0  0  0  0
   -4.4666   20.5327    0.0000 C   0  0  0  0  0  0  0  0  0  0  0  0
   -2.9904   20.7990    0.0000 C   0  0  0  0  0  0  0  0  0  0  0  0
   -1.4990   20.9594    0.0000 C   0  0  0  0  0  0  0  0  0  0  0  0
    0.0000   21.0129    0.0000 C   0  0  0  0  0  0  0  0  0  0  0  0
    1.4990   20.9594    0.0000 C   0  0  0  0  0  0  0  0  0  0  0  0
    2.9904   20.7990    0.0000 C   0  0  0  0  0  0  0  0  0  0  0  0
    4.4666   20.5327    0.0000 C   0  0  0  0  0  0  0  0  0  0  0  0
    5.9200   20.1617    0.0000 C   0  0  0  0  0  0  0  0  0  0  0  0
    7.3433   19.6880    0.0000 C   0  0  0  0  0  0  0  0  0  0  0  0
    8.7291   19.1140    0.0000 C   0  0  0  0  0  0  0  0  0  0  0  0
   10.0704   18.4426    0.0000 C   0  0  0  0  0  0  0  0  0  0  0  0
   11.3604   17.6772    0.0000 C   0  0  0  0  0  0  0  0  0  0  0  0
   12.5926   16.8217    0.0000 C   0  0  0  0  0  0  0  0  0  0  0  0
   13.7605   15.8805    0.0000 C   0  0  0  0  0  0  0  0  0  0  0  0
   14.8584   14.8584    0.0000 C   0  0  0  0  0  0  0  0  0  0  0  0
   15.8805   13.7605    0.0000 C   0  0  0  0  0  0  0  0  0  0  0  0
   16.8217   12.5926    0.0000 C   0  0  0  0  0  0  0  0  0  0  0  0
   17.6772   11.3604    0.0000 C   0  0  0  0  0  0  0  0  0  0  0  0
   18.9391   12.1714    0.0000 C   0  0  0  0  0  0  0  0  0  0  0  0
   20.2010   12.9824    0.0000 N   0  0  0  0  0  0  0  0  0  0  0  0
   18.4426   10.0704    0.0000 C   0  0  0  0  0  0  0  0  0  0  0  0
   19.1140    8.7291    0.0000 C   0  0  0  0  0  0  0  0  0  0  0  0
   19.6880    7.3433    0.0000 C   0  0  0  0  0  0  0  0  0  0  0  0
   20.1617    5.9200    0.0000 C   0  0  0  0  0  0  0  0  0  0  0  0
   20.5327    4.4666    0.0000 C   0  0  0  0  0  0  0  0  0  0  0  0
   20.7990    2.9904    0.0000 C   0  0  0  0  0  0  0  0  0  0  0  0
   20.9594    1.4990    0.0000 C   0  0  0  0  0  0  0  0  0  0  0  0
  1  2  1  0
  2  3  2  0
  3  4  1  0
  4  5  1  0
  5  6  1  0
  6  7  1  0
  7  8  1  0
  8  9  1  0
  9 10  1  0
 10 11  1  0
 11 12  1  0
 12 13  1  0
 13 14  1  0
 14 15  1  0
 15 16  1  0
 16 17  1  0
 17 18  1  0
 18 19  1  0
 19 20  1  0
 20 21  1  0
 21 22  1  0
 22 23  1  0
 23 24  1  0
 24 25  1  0
 25 26  1  0
 26 27  1  0
 27 28  1  0
 28 29  1  0
 29 30  1  0
 30 31  1  0
 31 32  1  0
 32 33  1  0
 33 34  1  0
 34 35  1  0
 35 36  1  0
 36 37  1  0
 37 38  1  0
 38 39  1  0
 39 40  1  0
 40 41  1  0
 41 42  1  0
 42 43  1  0
 43 44  1  0
 44 45  1  0
 45 46  1  0
 46 47  1  0
 47 48  1  0
 48 49  1  0
 49 50  1  0
 50 51  1  0
 51 52  1  0
 52 53  1  0
 53 54  1  0
 54 55  1  0
 55 56  1  0
 56 57  1  0
 57 58  1  0
 58 59  1  0
 59 60  1  0
 60 61  1  0
 61 62  1  0
 62 63  1  0
 63 64  1  0
 64 65  1  0
 65 66  1  0
 66 67  1  0
 67 68  1  0
 68 69  1  0
 69 70  1  0
 70 71  1  0
 71 72  1  0
 72 73  1  0
 73 74  1  0
 74 75  1  0
 75 76  1  0
 76 77  1  0
 77 78  1  0
 78 79  1  0
 79 80  1  0
 80 81  1  0
 81 82  1  0
 82 83  1  0
 83 84  3  0
 82 85  2  0
 85 86  1  0
 86 87  2  0
 87 88  1  0
 88 89  2  0
 89 90  1  0
 90 91  2  0
 91  2  1  0
M  END
>  <Title>  (354) 
idAALRgen8

$$$$

     RDKit          2D

100100  0  0  0  0  0  0  0  0999 V2000
   25.1385    0.0000    0.0000 C   0  0  0  0  0  0  0  0  0  0  0  0
   23.6385    0.0000    0.0000 C   0  0  0  0  0  0  0  0  0  0  0  0
   23.5909    1.4992    0.0000 C   0  0  0  0  0  0  0  0  0  0  0  0
   23.4483    2.9925    0.0000 C   0  0  0  0  0  0  0  0  0  0  0  0
   23.2113    4.4736    0.0000 C   0  0  0  0  0  0  0  0  0  0  0  0
   22.8808    5.9368    0.0000 C   0  0  0  0  0  0  0  0  0  0  0  0
   22.4582    7.3760    0.0000 C   0  0  0  0  0  0  0  0  0  0  0  0
   21.9452    8.7855    0.0000 C   0  0  0  0  0  0  0  0  0  0  0  0
   21.3438   10.1597    0.0000 C   0  0  0  0  0  0  0  0  0  0  0  0
   20.6565   11.4929    0.0000 C   0  0  0  0  0  0  0  0  0  0  0  0
   19.8860   12.7799    0.0000 C   0  0  0  0  0  0  0  0  0  0  0  0
   19.0354   14.0154    0.0000 C   0  0  0  0  0  0  0  0  0  0  0  0
   18.1081   15.1945    0.0000 C   0  0  0  0  0  0  0  0  0  0  0  0
   17.1080   16.3124    0.0000 C   0  0  0  0  0  0  0  0  0  0  0  0
   16.0389   17.3646    0.0000 C   0  0  0  0  0  0  0  0  0  0  0  0
   14.9053   18.3469    0.0000 C   0  0  0  0  0  0  0  0  0  0  0  0
   13.7117   19.2553    0.0000 C   0  0  0  0  0  0  0  0  0  0  0  0
   12.4628   20.0862    0.0000 C   0  0  0  0  0  0  0  0  0  0  0  0
   11.1638   20.8362    0.0000 C   0  0  0  0  0  0  0  0  0  0  0  0
    9.8198   21.5023    0.0000 C   0  0  0  0  0  0  0  0  0  0  0  0
    8.4362   22.0818    0.0000 C   0  0  0  0  0  0  0  0  0  0  0  0
    7.0187   22.5724    0.0000 C   0  0  0  0  0  0  0  0  0  0  0  0
    5.5730   22.9721    0.0000 C   0  0  0  0  0  0  0  0  0  0  0  0
    4.1048   23.2794    0.0000 C   0  0  0  0  0  0  0  0  0  0  0  0
    2.6200   23.4928    0.0000 C   0  0  0  0  0  0  0  0  0  0  0  0
    1.1248   23.6117    0.0000 C   0  0  0  0  0  0  0  0  0  0  0  0
   -0.3750   23.6355    0.0000 C   0  0  0  0  0  0  0  0  0  0  0  0
   -1.8733   23.5641    0.0000 C   0  0  0  0  0  0  0  0  0  0  0  0
   -3.3641   23.3979    0.0000 C   0  0  0  0  0  0  0  0  0  0  0  0
   -4.8413   23.1374    0.0000 C   0  0  0  0  0  0  0  0  0  0  0  0
   -6.2990   22.7838    0.0000 C   0  0  0  0  0  0  0  0  0  0  0  0
   -7.7314   22.3384    0.0000 C   0  0  0  0  0  0  0  0  0  0  0  0
   -9.1326   21.8031    0.0000 C   0  0  0  0  0  0  0  0  0  0  0  0
  -10.4971   21.1799    0.0000 C   0  0  0  0  0  0  0  0  0  0  0  0
  -11.8192   20.4715    0.0000 C   0  0  0  0  0  0  0  0  0  0  0  0
  -13.0938   19.6807    0.0000 C   0  0  0  0  0  0  0  0  0  0  0  0
  -14.3157   18.8106    0.0000 C   0  0  0  0  0  0  0  0  0  0  0  0
  -15.4799   17.8648    0.0000 C   0  0  0  0  0  0  0  0  0  0  0  0
  -16.5818   16.8470    0.0000 C   0  0  0  0  0  0  0  0  0  0  0  0
  -17.6169   15.7614    0.0000 C   0  0  0  0  0  0  0  0  0  0  0  0
  -18.5811   14.6123    0.0000 C   0  0  0  0  0  0  0  0  0  0  0  0
  -19.4705   13.4044    0.0000 C   0  0  0  0  0  0  0  0  0  0  0  0
  -20.2814   12.1426    0.0000 C   0  0  0  0  0  0  0  0  0  0  0  0
  -21.0107   10.8318    0.0000 C   0  0  0  0  0  0  0  0  0  0  0  0
  -21.6554    9.4774    0.0000 C   0  0  0  0  0  0  0  0  0  0  0  0
  -22.2129    8.0848    0.0000 C   0  0  0  0  0  0  0  0  0  0  0  0
  -22.6810    6.6597    0.0000 C   0  0  0  0  0  0  0  0  0  0  0  0
  -23.0577    5.2078    0.0000 C   0  0  0  0  0  0  0  0  0  0  0  0
  -23.3416    3.7349    0.0000 C   0  0  0  0  0  0  0  0  0  0  0  0
  -23.5314    2.2470    0.0000 C   0  0  0  0  0  0  0  0  0  0  0  0
  -23.6266    0.7500    0.0000 C   0  0  0  0  0  0  0  0  0  0  0  0
  -23.6266   -0.7500    0.0000 C   0  0  0  0  0  0  0  0  0  0  0  0
  -23.5314   -2.2470    0.0000 C   0  0  0  0  0  0  0  0  0  0  0  0
  -23.3416   -3.7349    0.0000 C   0  0  0  0  0  0  0  0  0  0  0  0
  -23.0577   -5.2078    0.0000 C   0  0  0  0  0  0  0  0  0  0  0  0
  -22.6810   -6.6597    0.0000 C   0  0  0  0  0  0  0  0  0  0  0  0
  -22.2129   -8.0848    0.0000 C   0  0  0  0  0  0  0  0  0  0  0  0
  -21.6554   -9.4774    0.0000 C   0  0  0  0  0  0  0  0  0  0  0  0
  -21.0107  -10.8318    0.0000 C   0  0  0  0  0  0  0  0  0  0  0  0
  -20.2814  -12.1426    0.0000 C   0  0  0  0  0  0  0  0  0  0  0  0
  -19.4705  -13.4044    0.0000 C   0  0  0  0  0  0  0  0  0  0  0  0
  -18.5811  -14.6123    0.0000 C   0  0  0  0  0  0  0  0  0  0  0  0
  -17.6169  -15.7614    0.0000 C   0  0  0  0  0  0  0  0  0  0  0  0
  -16.5818  -16.8470    0.0000 C   0  0  0  0  0  0  0  0  0  0  0  0
  -15.4799  -17.8648    0.0000 C   0  0  0  0  0  0  0  0  0  0  0  0
  -14.3157  -18.8106    0.0000 C   0  0  0  0  0  0  0  0  0  0  0  0
  -13.0938  -19.6807    0.0000 C   0  0  0  0  0  0  0  0  0  0  0  0
  -11.8192  -20.4715    0.0000 C   0  0  0  0  0  0  0  0  0  0  0  0
  -10.4971  -21.1799    0.0000 C   0  0  0  0  0  0  0  0  0  0  0  0
   -9.1326  -21.8031    0.0000 C   0  0  0  0  0  0  0  0  0  0  0  0
   -7.7314  -22.3384    0.0000 C   0  0  0  0  0  0  0  0  0  0  0  0
   -6.2990  -22.7838    0.0000 C   0  0  0  0  0  0  0  0  0  0  0  0
   -4.8413  -23.1374    0.0000 C   0  0  0  0  0  0  0  0  0  0  0  0
   -3.3641  -23.3979    0.0000 C   0  0  0  0  0  0  0  0  0  0  0  0
   -1.8733  -23.5641    0.0000 C   0  0  0  0  0  0  0  0  0  0  0  0
   -0.3750  -23.6355    0.0000 C   0  0  0  0  0  0  0  0  0  0  0  0
    1.1248  -23.6117    0.0000 C   0  0  0  0  0  0  0  0  0  0  0  0
    2.6200  -23.4928    0.0000 C   0  0  0  0  0  0  0  0  0  0  0  0
    4.1048  -23.2794    0.0000 C   0  0  0  0  0  0  0  0  0  0  0  0
    5.5730  -22.9721    0.0000 C   0  0  0  0  0  0  0  0  0  0  0  0
    7.0187  -22.5724    0.0000 C   0  0  0  0  0  0  0  0  0  0  0  0
    8.4362  -22.0818    0.0000 C   0  0  0  0  0  0  0  0  0  0  0  0
    9.8198  -21.5023    0.0000 C   0  0  0  0  0  0  0  0  0  0  0  0
   11.1638  -20.8362    0.0000 C   0  0  0  0  0  0  0  0  0  0  0  0
   12.4628  -20.0862    0.0000 C   0  0  0  0  0  0  0  0  0  0  0  0
   13.7117  -19.2553    0.0000 C   0  0  0  0  0  0  0  0  0  0  0  0
   14.9053  -18.3469    0.0000 C   0  0  0  0  0  0  0  0  0  0  0  0
   16.0389  -17.3646    0.0000 C   0  0  0  0  0  0  0  0  0  0  0  0
   17.1080  -16.3124    0.0000 C   0  0  0  0  0  0  0  0  0  0  0  0
   18.1081  -15.1945    0.0000 C   0  0  0  0  0  0  0  0  0  0  0  0
   19.0354  -14.0154    0.0000 C   0  0  0  0  0  0  0  0  0  0  0  0
   19.8860  -12.7799    0.0000 C   0  0  0  0  0  0  0  0  0  0  0  0
   20.6565  -11.4929    0.0000 C   0  0  0  0  0  0  0  0  0  0  0  0
   21.3438  -10.1597    0.0000 C   0  0  0  0  0  0  0  0  0  0  0  0
   21.9452   -8.7855    0.0000 C   0  0  0  0  0  0  0  0  0  0  0  0
   22.4582   -7.3760    0.0000 C   0  0  0  0  0  0  0  0  0  0  0  0
   22.8808   -5.9368    0.0000 C   0  0  0  0  0  0  0  0  0  0  0  0
   23.2113   -4.4736    0.0000 C   0  0  0  0  0  0  0  0  0  0  0  0
   23.4483   -2.9925    0.0000 C   0  0  0  0  0  0  0  0  0  0  0  0
   23.5909   -1.4992    0.0000 C   0  0  0  0  0  0  0  0  0  0  0  0
  1  2  1  0
  2  3  1  0
  3  4  2  0
  4  5  1  0
  5  6  2  0
  6  7  1  0
  7  8  2  0
  8  9  1  0
  9 10  2  0
 10 11  1  0
 11 12  2  0
 12 13  1  0
 13 14  1  0
 14 15  1  0
 15 16  1  0
 16 17  1  0
 17 18  1  0
 18 19  1  0
 19 20  1  0
 20 21  1  0
 21 22  1  0
 22 23  1  0
 23 24  1  0
 24 25  1  0
 25 26  1  0
 26 27  1  0
 27 28  1  0
 28 29  1  0
 29 30  1  0
 30 31  1  0
 31 32  1  0
 32 33  1  0
 33 34  1  0
 34 35  1  0
 35 36  1  0
 36 37  1  0
 37 38  1  0
 38 39  1  0
 39 40  1  0
 40 41  1  0
 41 42  1  0
 42 43  1  0
 43 44  1  0
 44 45  1  0
 45 46  1  0
 46 47  1  0
 47 48  1  0
 48 49  1  0
 49 50  1  0
 50 51  1  0
 51 52  1  0
 52 53  1  0
 53 54  1  0
 54 55  1  0
 55 56  1  0
 56 57  1  0
 57 58  1  0
 58 59  1  0
 59 60  1  0
 60 61  1  0
 61 62  1  0
 62 63  1  0
 63 64  1  0
 64 65  1  0
 65 66  1  0
 66 67  1  0
 67 68  1  0
 68 69  1  0
 69 70  1  0
 70 71  1  0
 71 72  1  0
 72 73  1  0
 73 74  1  0
 74 75  1  0
 75 76  1  0
 76 77  1  0
 77 78  1  0
 78 79  1  0
 79 80  1  0
 80 81  1  0
 81 82  1  0
 82 83  1  0
 83 84  1  0
 84 85  1  0
 85 86  1  0
 86 87  1  0
 87 88  1  0
 88 89  1  0
 89 90  1  0
 90 91  1  0
 91 92  1  0
 92 93  1  0
 93 94  1  0
 94 95  1  0
 95 96  1  0
 96 97  1  0
 97 98  1  0
 98 99  1  0
 99100  1  0
100  2  1  0
M  END
>  <Title>  (355) 
idAALSgen8

$$$$

     RDKit          2D

  8  8  0  0  0  0  0  0  0  0999 V2000
    3.0000    0.0000    0.0000 C   0  0  0  0  0  0  0  0  0  0  0  0
    1.5000    0.0000    0.0000 C   0  0  0  0  0  0  0  0  0  0  0  0
    0.7500   -1.2990    0.0000 C   0  0  0  0  0  0  0  0  0  0  0  0
   -0.7500   -1.2990    0.0000 C   0  0  0  0  0  0  0  0  0  0  0  0
   -1.5000    0.0000    0.0000 C   0  0  0  0  0  0  0  0  0  0  0  0
   -3.0000    0.0000    0.0000 O   0  0  0  0  0  0  0  0  0  0  0  0
   -0.7500    1.2990    0.0000 C   0  0  0  0  0  0  0  0  0  0  0  0
    0.7500    1.2990    0.0000 N   0  0  0  0  0  0  0  0  0  0  0  0
  1  2  1  0
  2  3  1  0
  3  4  1  0
  4  5  1  0
  5  6  1  0
  5  7  1  0
  7  8  1  0
  8  2  1  0
M  END
>  <Title>  (356) 
idAALTgen8

$$$$

     RDKit          2D

 35 38  0  0  0  0  0  0  0  0999 V2000
    3.0000    0.0000    0.0000 C   0  0  0  0  0  0  0  0  0  0  0  0
    1.5000    0.0000    0.0000 C   0  0  0  0  0  0  0  0  0  0  0  0
    0.7500   -1.2990    0.0000 C   0  0  0  0  0  0  0  0  0  0  0  0
   -0.7500   -1.2990    0.0000 C   0  0  0  0  0  0  0  0  0  0  0  0
   -1.5000    0.0000    0.0000 C   0  0  0  0  0  0  0  0  0  0  0  0
   -0.7500    1.2990    0.0000 C   0  0  0  0  0  0  0  0  0  0  0  0
   -1.5000    2.5981    0.0000 C   0  0  0  0  0  0  0  0  0  0  0  0
   -0.7500    3.8971    0.0000 C   0  0  0  0  0  0  0  0  0  0  0  0
   -1.5000    5.1962    0.0000 C   0  0  0  0  0  0  0  0  0  0  0  0
   -0.7500    6.4952    0.0000 C   0  0  0  0  0  0  0  0  0  0  0  0
   -1.5000    7.7942    0.0000 C   0  0  0  0  0  0  0  0  0  0  0  0
   -0.7500    9.0933    0.0000 C   0  0  0  0  0  0  0  0  0  0  0  0
    0.6989    9.4815    0.0000 C   0  0  0  0  0  0  0  0  0  0  0  0
    1.9979    8.7315    0.0000 O   0  0  0  0  0  0  0  0  0  0  0  0
    0.3107   10.9304    0.0000 N   0  0  0  0  0  0  0  0  0  0  0  0
   -1.1382   10.5422    0.0000 C   0  0  0  0  0  0  0  0  0  0  0  0
   -2.4373   11.2922    0.0000 N   0  0  0  0  0  0  0  0  0  0  0  0
   -2.4373   12.7922    0.0000 N   0  0  0  0  0  0  0  0  0  0  0  0
   -3.7363   13.5422    0.0000 N   0  0  0  0  0  0  0  0  0  0  0  0
   -3.7363   15.0422    0.0000 N   0  0  0  0  0  0  0  0  0  0  0  0
   -2.4373   15.7922    0.0000 C   0  0  0  0  0  0  0  0  0  0  0  0
   -2.4373   17.2922    0.0000 C   0  0  0  0  0  0  0  0  0  0  0  0
   -3.7363   18.0422    0.0000 N   0  0  0  0  0  0  0  0  0  0  0  0
   -3.7363   19.5422    0.0000 C   0  0  0  0  0  0  0  0  0  0  0  0
   -5.0353   20.2922    0.0000 O   0  0  0  0  0  0  0  0  0  0  0  0
   -2.4373   20.2922    0.0000 C   0  0  0  0  0  0  0  0  0  0  0  0
   -1.1382   19.5422    0.0000 C   0  0  0  0  0  0  0  0  0  0  0  0
    0.1608   20.2922    0.0000 C   0  0  0  0  0  0  0  0  0  0  0  0
    0.1608   21.7922    0.0000 C   0  0  0  0  0  0  0  0  0  0  0  0
   -1.1382   22.5422    0.0000 C   0  0  0  0  0  0  0  0  0  0  0  0
   -2.4373   21.7922    0.0000 C   0  0  0  0  0  0  0  0  0  0  0  0
   -5.0353   17.2922    0.0000 C   0  0  0  0  0  0  0  0  0  0  0  0
   -5.0353   15.7922    0.0000 C   0  0  0  0  0  0  0  0  0  0  0  0
    0.7500    1.2990    0.0000 C   0  0  0  0  0  0  0  0  0  0  0  0
    1.5000    2.5981    0.0000 O   0  0  0  0  0  0  0  0  0  0  0  0
  1  2  1  0
  2  3  1  0
  3  4  2  0
  4  5  1  0
  5  6  2  0
  6  7  1  0
  7  8  2  3
  8  9  1  0
  9 10  2  3
 10 11  1  0
 11 12  2  3
 12 13  1  0
 13 14  2  0
 13 15  1  0
 15 16  1  0
 16 17  2  3
 17 18  1  0
 18 19  2  3
 19 20  1  0
 20 21  1  0
 21 22  1  0
 22 23  1  0
 23 24  1  0
 24 25  2  0
 24 26  1  0
 26 27  2  0
 27 28  1  0
 28 29  2  0
 29 30  1  0
 30 31  2  0
 23 32  1  0
 32 33  1  0
  6 34  1  0
 34 35  2  0
 34  2  1  0
 16 12  1  0
 33 20  1  0
 31 26  1  0
M  END
>  <Title>  (357) 
idAALUgen8

$$$$

     RDKit          2D

  8  8  0  0  0  0  0  0  0  0999 V2000
    3.2286   -0.0000    0.0000 O   0  0  0  0  0  0  0  0  0  0  0  0
    1.7286    0.0000    0.0000 C   0  0  0  0  0  0  0  0  0  0  0  0
    1.0777    1.3515    0.0000 C   0  0  0  0  0  0  0  0  0  0  0  0
   -0.3846    1.6852    0.0000 C   0  0  0  0  0  0  0  0  0  0  0  0
   -1.5574    0.7500    0.0000 C   0  0  0  0  0  0  0  0  0  0  0  0
   -1.5574   -0.7500    0.0000 C   0  0  0  0  0  0  0  0  0  0  0  0
   -0.3846   -1.6852    0.0000 O   0  0  0  0  0  0  0  0  0  0  0  0
    1.0777   -1.3515    0.0000 C   0  0  0  0  0  0  0  0  0  0  0  0
  1  2  1  0
  2  3  2  0
  3  4  1  0
  4  5  1  0
  5  6  1  0
  6  7  1  0
  7  8  1  0
  8  2  1  0
M  END
>  <Title>  (358) 
idAALVgen8

$$$$

     RDKit          2D

 16 16  0  0  0  0  0  0  0  0999 V2000
   10.5000   -0.0000    0.0000 C   0  0  0  0  0  0  0  0  0  0  0  0
    9.0000   -0.0000    0.0000 C   0  0  0  0  0  0  0  0  0  0  0  0
    7.5000   -0.0000    0.0000 C   0  0  0  0  0  0  0  0  0  0  0  0
    6.0000    0.0000    0.0000 C   0  0  0  0  0  0  0  0  0  0  0  0
    5.2500   -1.2990    0.0000 C   0  0  0  0  0  0  0  0  0  0  0  0
    6.0000   -2.5981    0.0000 C   0  0  0  0  0  0  0  0  0  0  0  0
    3.7500   -1.2990    0.0000 C   0  0  0  0  0  0  0  0  0  0  0  0
    3.0000   -2.5981    0.0000 O   0  0  0  0  0  0  0  0  0  0  0  0
    3.0000    0.0000    0.0000 N   0  0  0  0  0  0  0  0  0  0  0  0
    1.5000    0.0000    0.0000 C   0  0  0  0  0  0  0  0  0  0  0  0
    0.7500   -1.2990    0.0000 C   0  0  0  0  0  0  0  0  0  0  0  0
   -0.7500   -1.2990    0.0000 C   0  0  0  0  0  0  0  0  0  0  0  0
   -1.5000    0.0000    0.0000 C   0  0  0  0  0  0  0  0  0  0  0  0
   -3.0000    0.0000    0.0000 O   0  0  0  0  0  0  0  0  0  0  0  0
   -0.7500    1.2990    0.0000 C   0  0  0  0  0  0  0  0  0  0  0  0
    0.7500    1.2990    0.0000 C   0  0  0  0  0  0  0  0  0  0  0  0
  1  2  1  0
  2  3  3  0
  3  4  1  0
  4  5  2  3
  5  6  1  0
  5  7  1  0
  7  8  2  0
  7  9  1  0
  9 10  1  0
 10 11  2  0
 11 12  1  0
 12 13  2  0
 13 14  1  0
 13 15  1  0
 15 16  2  0
 16 10  1  0
M  END
>  <Title>  (359) 
idAALWgen8

$$$$

     RDKit          2D

 91 92  0  0  0  0  0  0  0  0999 V2000
   -2.4101    0.0825    0.0000 C   0  0  0  0  0  0  0  0  0  0  0  0
   -2.2460   -1.4085    0.0000 C   0  0  0  0  0  0  0  0  0  0  0  0
   -3.7300   -1.6269    0.0000 C   0  0  0  0  0  0  0  0  0  0  0  0
   -5.1941   -1.9531    0.0000 C   0  0  0  0  0  0  0  0  0  0  0  0
   -6.6305   -2.3852    0.0000 C   0  0  0  0  0  0  0  0  0  0  0  0
   -8.0316   -2.9211    0.0000 C   0  0  0  0  0  0  0  0  0  0  0  0
   -9.3897   -3.5578    0.0000 C   0  0  0  0  0  0  0  0  0  0  0  0
  -10.6978   -4.2919    0.0000 C   0  0  0  0  0  0  0  0  0  0  0  0
  -11.9488   -5.1195    0.0000 C   0  0  0  0  0  0  0  0  0  0  0  0
  -13.1360   -6.0363    0.0000 C   0  0  0  0  0  0  0  0  0  0  0  0
  -14.2532   -7.0373    0.0000 C   0  0  0  0  0  0  0  0  0  0  0  0
  -15.2943   -8.1171    0.0000 C   0  0  0  0  0  0  0  0  0  0  0  0
  -16.2538   -9.2701    0.0000 C   0  0  0  0  0  0  0  0  0  0  0  0
  -17.1266  -10.4900    0.0000 C   0  0  0  0  0  0  0  0  0  0  0  0
  -17.9080  -11.7704    0.0000 C   0  0  0  0  0  0  0  0  0  0  0  0
  -18.5939  -13.1044    0.0000 C   0  0  0  0  0  0  0  0  0  0  0  0
  -19.1805  -14.4850    0.0000 C   0  0  0  0  0  0  0  0  0  0  0  0
  -19.6649  -15.9046    0.0000 C   0  0  0  0  0  0  0  0  0  0  0  0
  -20.0443  -17.3558    0.0000 C   0  0  0  0  0  0  0  0  0  0  0  0
  -20.3167  -18.8309    0.0000 C   0  0  0  0  0  0  0  0  0  0  0  0
  -20.4808  -20.3219    0.0000 C   0  0  0  0  0  0  0  0  0  0  0  0
  -20.5356  -21.8209    0.0000 C   0  0  0  0  0  0  0  0  0  0  0  0
  -20.4808  -23.3199    0.0000 C   0  0  0  0  0  0  0  0  0  0  0  0
  -20.3167  -24.8109    0.0000 C   0  0  0  0  0  0  0  0  0  0  0  0
  -20.0443  -26.2859    0.0000 C   0  0  0  0  0  0  0  0  0  0  0  0
  -19.6649  -27.7372    0.0000 C   0  0  0  0  0  0  0  0  0  0  0  0
  -19.1805  -29.1568    0.0000 C   0  0  0  0  0  0  0  0  0  0  0  0
  -18.5939  -30.5373    0.0000 C   0  0  0  0  0  0  0  0  0  0  0  0
  -17.9080  -31.8714    0.0000 C   0  0  0  0  0  0  0  0  0  0  0  0
  -17.1266  -33.1517    0.0000 C   0  0  0  0  0  0  0  0  0  0  0  0
  -16.2538  -34.3717    0.0000 C   0  0  0  0  0  0  0  0  0  0  0  0
  -15.2943  -35.5247    0.0000 C   0  0  0  0  0  0  0  0  0  0  0  0
  -14.2532  -36.6045    0.0000 C   0  0  0  0  0  0  0  0  0  0  0  0
  -13.1360  -37.6055    0.0000 C   0  0  0  0  0  0  0  0  0  0  0  0
  -11.9488  -38.5222    0.0000 C   0  0  0  0  0  0  0  0  0  0  0  0
  -10.6978  -39.3499    0.0000 C   0  0  0  0  0  0  0  0  0  0  0  0
   -9.3897  -40.0840    0.0000 C   0  0  0  0  0  0  0  0  0  0  0  0
   -8.0316  -40.7207    0.0000 C   0  0  0  0  0  0  0  0  0  0  0  0
   -6.6305  -41.2566    0.0000 C   0  0  0  0  0  0  0  0  0  0  0  0
   -5.1941  -41.6887    0.0000 C   0  0  0  0  0  0  0  0  0  0  0  0
   -3.7300  -42.0149    0.0000 C   0  0  0  0  0  0  0  0  0  0  0  0
   -2.2460  -42.2333    0.0000 C   0  0  0  0  0  0  0  0  0  0  0  0
   -0.7500  -42.3427    0.0000 C   0  0  0  0  0  0  0  0  0  0  0  0
    0.7500  -42.3427    0.0000 C   0  0  0  0  0  0  0  0  0  0  0  0
    2.2460  -42.2333    0.0000 C   0  0  0  0  0  0  0  0  0  0  0  0
    3.7300  -42.0149    0.0000 C   0  0  0  0  0  0  0  0  0  0  0  0
    5.1941  -41.6887    0.0000 C   0  0  0  0  0  0  0  0  0  0  0  0
    6.6305  -41.2566    0.0000 C   0  0  0  0  0  0  0  0  0  0  0  0
    8.0316  -40.7207    0.0000 C   0  0  0  0  0  0  0  0  0  0  0  0
    9.3897  -40.0840    0.0000 C   0  0  0  0  0  0  0  0  0  0  0  0
   10.6978  -39.3499    0.0000 C   0  0  0  0  0  0  0  0  0  0  0  0
   11.9488  -38.5222    0.0000 C   0  0  0  0  0  0  0  0  0  0  0  0
   13.1360  -37.6055    0.0000 C   0  0  0  0  0  0  0  0  0  0  0  0
   14.2532  -36.6045    0.0000 C   0  0  0  0  0  0  0  0  0  0  0  0
   15.2943  -35.5247    0.0000 C   0  0  0  0  0  0  0  0  0  0  0  0
   16.2538  -34.3717    0.0000 C   0  0  0  0  0  0  0  0  0  0  0  0
   17.1266  -33.1517    0.0000 C   0  0  0  0  0  0  0  0  0  0  0  0
   17.9080  -31.8714    0.0000 C   0  0  0  0  0  0  0  0  0  0  0  0
   18.5939  -30.5373    0.0000 C   0  0  0  0  0  0  0  0  0  0  0  0
   19.1805  -29.1568    0.0000 C   0  0  0  0  0  0  0  0  0  0  0  0
   19.6649  -27.7372    0.0000 C   0  0  0  0  0  0  0  0  0  0  0  0
   20.0443  -26.2859    0.0000 C   0  0  0  0  0  0  0  0  0  0  0  0
   20.3167  -24.8109    0.0000 C   0  0  0  0  0  0  0  0  0  0  0  0
   20.4808  -23.3199    0.0000 C   0  0  0  0  0  0  0  0  0  0  0  0
   20.5356  -21.8209    0.0000 C   0  0  0  0  0  0  0  0  0  0  0  0
   20.4808  -20.3219    0.0000 C   0  0  0  0  0  0  0  0  0  0  0  0
   20.3167  -18.8309    0.0000 C   0  0  0  0  0  0  0  0  0  0  0  0
   20.0443  -17.3558    0.0000 C   0  0  0  0  0  0  0  0  0  0  0  0
   19.6649  -15.9046    0.0000 C   0  0  0  0  0  0  0  0  0  0  0  0
   19.1805  -14.4850    0.0000 C   0  0  0  0  0  0  0  0  0  0  0  0
   18.5939  -13.1044    0.0000 C   0  0  0  0  0  0  0  0  0  0  0  0
   17.9080  -11.7704    0.0000 C   0  0  0  0  0  0  0  0  0  0  0  0
   17.1266  -10.4900    0.0000 C   0  0  0  0  0  0  0  0  0  0  0  0
   16.2538   -9.2701    0.0000 C   0  0  0  0  0  0  0  0  0  0  0  0
   15.2943   -8.1171    0.0000 C   0  0  0  0  0  0  0  0  0  0  0  0
   14.2532   -7.0373    0.0000 C   0  0  0  0  0  0  0  0  0  0  0  0
   13.1360   -6.0363    0.0000 C   0  0  0  0  0  0  0  0  0  0  0  0
   11.9488   -5.1195    0.0000 C   0  0  0  0  0  0  0  0  0  0  0  0
   10.6978   -4.2919    0.0000 C   0  0  0  0  0  0  0  0  0  0  0  0
    9.3897   -3.5578    0.0000 C   0  0  0  0  0  0  0  0  0  0  0  0
    8.0316   -2.9211    0.0000 C   0  0  0  0  0  0  0  0  0  0  0  0
    6.6305   -2.3852    0.0000 C   0  0  0  0  0  0  0  0  0  0  0  0
    5.1941   -1.9531    0.0000 C   0  0  0  0  0  0  0  0  0  0  0  0
    3.7300   -1.6269    0.0000 C   0  0  0  0  0  0  0  0  0  0  0  0
    2.2460   -1.4085    0.0000 C   0  0  0  0  0  0  0  0  0  0  0  0
    0.7500   -1.2990    0.0000 C   0  0  0  0  0  0  0  0  0  0  0  0
    1.5000    0.0000    0.0000 C   0  0  0  0  0  0  0  0  0  0  0  0
    0.7500    1.2990    0.0000 C   0  0  0  0  0  0  0  0  0  0  0  0
   -0.7500    1.2990    0.0000 C   0  0  0  0  0  0  0  0  0  0  0  0
   -1.5000    0.0000    0.0000 C   0  0  0  0  0  0  0  0  0  0  0  0
   -0.7500   -1.2990    0.0000 C   0  0  0  0  0  0  0  0  0  0  0  0
  1  2  1  0
  2  3  1  0
  3  4  1  0
  4  5  1  0
  5  6  1  0
  6  7  1  0
  7  8  1  0
  8  9  1  0
  9 10  1  0
 10 11  1  0
 11 12  1  0
 12 13  1  0
 13 14  1  0
 14 15  1  0
 15 16  1  0
 16 17  1  0
 17 18  1  0
 18 19  1  0
 19 20  1  0
 20 21  1  0
 21 22  1  0
 22 23  1  0
 23 24  1  0
 24 25  1  0
 25 26  1  0
 26 27  1  0
 27 28  1  0
 28 29  1  0
 29 30  1  0
 30 31  1  0
 31 32  1  0
 32 33  1  0
 33 34  1  0
 34 35  1  0
 35 36  1  0
 36 37  1  0
 37 38  1  0
 38 39  1  0
 39 40  1  0
 40 41  1  0
 41 42  1  0
 42 43  1  0
 43 44  1  0
 44 45  1  0
 45 46  1  0
 46 47  1  0
 47 48  1  0
 48 49  1  0
 49 50  1  0
 50 51  1  0
 51 52  1  0
 52 53  1  0
 53 54  2  0
 54 55  1  0
 55 56  2  0
 56 57  1  0
 57 58  2  0
 58 59  1  0
 59 60  2  0
 60 61  1  0
 61 62  2  0
 62 63  1  0
 63 64  2  0
 64 65  1  0
 65 66  2  0
 66 67  1  0
 67 68  2  0
 68 69  1  0
 69 70  2  0
 70 71  1  0
 71 72  2  0
 72 73  1  0
 73 74  2  0
 74 75  1  0
 75 76  2  0
 76 77  1  0
 77 78  2  0
 78 79  1  0
 79 80  2  0
 80 81  1  0
 81 82  2  0
 82 83  1  0
 83 84  2  0
 84 85  1  0
 85 86  2  0
 86 87  1  0
 87 88  1  0
 88 89  1  0
 89 90  1  0
 90 91  2  0
 91  2  1  0
 91 86  1  0
M  END
>  <Title>  (360) 
idAALXgen8

$$$$

     RDKit          2D

 21 22  0  0  0  0  0  0  0  0999 V2000
    1.0876  -11.0424    0.0000 C   0  0  0  0  0  0  0  0  0  0  0  0
    0.4775   -9.6721    0.0000 C   0  0  0  0  0  0  0  0  0  0  0  0
   -0.1326   -8.3017    0.0000 C   0  0  0  0  0  0  0  0  0  0  0  0
   -0.8928  -10.2822    0.0000 C   0  0  0  0  0  0  0  0  0  0  0  0
    1.8478   -9.0619    0.0000 C   0  0  0  0  0  0  0  0  0  0  0  0
    3.0613   -9.9436    0.0000 O   0  0  0  0  0  0  0  0  0  0  0  0
    2.0046   -7.5702    0.0000 N   0  0  0  0  0  0  0  0  0  0  0  0
    3.3037   -6.8202    0.0000 C   0  0  0  0  0  0  0  0  0  0  0  0
    2.9918   -5.3529    0.0000 C   0  0  0  0  0  0  0  0  0  0  0  0
    1.5000   -5.1962    0.0000 C   0  0  0  0  0  0  0  0  0  0  0  0
    0.7500   -3.8971    0.0000 C   0  0  0  0  0  0  0  0  0  0  0  0
   -0.7500   -3.8971    0.0000 O   0  0  0  0  0  0  0  0  0  0  0  0
    1.5000   -2.5981    0.0000 N   0  0  0  0  0  0  0  0  0  0  0  0
    0.7500   -1.2990    0.0000 C   0  0  0  0  0  0  0  0  0  0  0  0
    1.5000    0.0000    0.0000 N   0  0  0  0  0  0  0  0  0  0  0  0
    0.7500    1.2990    0.0000 N   0  0  0  0  0  0  0  0  0  0  0  0
   -0.7500    1.2990    0.0000 N   0  0  0  0  0  0  0  0  0  0  0  0
   -1.5000    0.0000    0.0000 N   0  0  0  0  0  0  0  0  0  0  0  0
   -0.7500   -1.2990    0.0000 N   0  0  0  0  0  0  0  0  0  0  0  0
    0.8899   -6.5665    0.0000 C   0  0  0  0  0  0  0  0  0  0  0  0
   -0.5773   -6.8783    0.0000 O   0  0  0  0  0  0  0  0  0  0  0  0
  1  2  1  0
  2  3  1  0
  2  4  1  0
  2  5  1  0
  5  6  2  0
  5  7  1  0
  7  8  1  0
  8  9  1  0
  9 10  1  0
 10 11  1  0
 11 12  2  0
 11 13  1  0
 13 14  1  0
 14 15  2  0
 15 16  1  0
 16 17  2  0
 17 18  1  0
 18 19  2  0
 10 20  1  0
 20 21  2  0
 20  7  1  0
 19 14  1  0
M  END
>  <Title>  (361) 
idAALYgen8

$$$$

     RDKit          2D

 55 62  0  0  0  0  0  0  0  0999 V2000
    4.4577   -9.2929    0.0000 C   0  0  0  0  0  0  0  0  0  0  0  0
    3.3086   -8.3287    0.0000 C   0  0  0  0  0  0  0  0  0  0  0  0
    4.0586   -7.0297    0.0000 C   0  0  0  0  0  0  0  0  0  0  0  0
    4.3191   -5.5525    0.0000 C   0  0  0  0  0  0  0  0  0  0  0  0
    5.8191   -5.5525    0.0000 O   0  0  0  0  0  0  0  0  0  0  0  0
    4.0586   -4.0753    0.0000 C   0  0  0  0  0  0  0  0  0  0  0  0
    3.3086   -2.7762    0.0000 C   0  0  0  0  0  0  0  0  0  0  0  0
    2.1595   -1.8121    0.0000 C   0  0  0  0  0  0  0  0  0  0  0  0
    2.9095   -0.5130    0.0000 C   0  0  0  0  0  0  0  0  0  0  0  0
    2.1595    0.7860    0.0000 O   0  0  0  0  0  0  0  0  0  0  0  0
    4.4095   -0.5130    0.0000 O   0  0  0  0  0  0  0  0  0  0  0  0
    5.1595    0.7860    0.0000 C   0  0  0  0  0  0  0  0  0  0  0  0
    6.6595    0.7860    0.0000 N   0  0  0  0  0  0  0  0  0  0  0  0
    7.4095    2.0850    0.0000 N   0  0  0  0  0  0  0  0  0  0  0  0
    6.6595    3.3841    0.0000 N   0  0  0  0  0  0  0  0  0  0  0  0
    5.1595    3.3841    0.0000 N   0  0  0  0  0  0  0  0  0  0  0  0
    4.4095    2.0850    0.0000 N   0  0  0  0  0  0  0  0  0  0  0  0
    0.7500   -1.2990    0.0000 C   0  0  0  0  0  0  0  0  0  0  0  0
    1.5000    0.0000    0.0000 C   0  0  0  0  0  0  0  0  0  0  0  0
    0.7500    1.2990    0.0000 C   0  0  0  0  0  0  0  0  0  0  0  0
   -0.7500    1.2990    0.0000 C   0  0  0  0  0  0  0  0  0  0  0  0
   -1.5000    0.0000    0.0000 C   0  0  0  0  0  0  0  0  0  0  0  0
   -0.7500   -1.2990    0.0000 C   0  0  0  0  0  0  0  0  0  0  0  0
   -2.1595   -1.8121    0.0000 C   0  0  0  0  0  0  0  0  0  0  0  0
   -2.4200   -0.3349    0.0000 C   0  0  0  0  0  0  0  0  0  0  0  0
   -3.8296    0.1782    0.0000 C   0  0  0  0  0  0  0  0  0  0  0  0
   -4.9786   -0.7860    0.0000 C   0  0  0  0  0  0  0  0  0  0  0  0
   -6.3882   -0.2730    0.0000 C   0  0  0  0  0  0  0  0  0  0  0  0
   -7.7977    0.2401    0.0000 N   0  0  0  0  0  0  0  0  0  0  0  0
   -4.7181   -2.2632    0.0000 C   0  0  0  0  0  0  0  0  0  0  0  0
   -3.3086   -2.7762    0.0000 C   0  0  0  0  0  0  0  0  0  0  0  0
   -4.0586   -4.0753    0.0000 C   0  0  0  0  0  0  0  0  0  0  0  0
   -5.2077   -3.1111    0.0000 C   0  0  0  0  0  0  0  0  0  0  0  0
   -6.6172   -3.6241    0.0000 C   0  0  0  0  0  0  0  0  0  0  0  0
   -6.8777   -5.1013    0.0000 C   0  0  0  0  0  0  0  0  0  0  0  0
   -5.7286   -6.0655    0.0000 C   0  0  0  0  0  0  0  0  0  0  0  0
   -4.3191   -5.5525    0.0000 C   0  0  0  0  0  0  0  0  0  0  0  0
   -4.0586   -7.0297    0.0000 C   0  0  0  0  0  0  0  0  0  0  0  0
   -5.5586   -7.0297    0.0000 C   0  0  0  0  0  0  0  0  0  0  0  0
   -6.3086   -8.3287    0.0000 C   0  0  0  0  0  0  0  0  0  0  0  0
   -5.5586   -9.6278    0.0000 C   0  0  0  0  0  0  0  0  0  0  0  0
   -4.0586   -9.6278    0.0000 C   0  0  0  0  0  0  0  0  0  0  0  0
   -3.3086   -8.3287    0.0000 C   0  0  0  0  0  0  0  0  0  0  0  0
   -2.1595   -9.2929    0.0000 C   0  0  0  0  0  0  0  0  0  0  0  0
   -3.3086  -10.2571    0.0000 C   0  0  0  0  0  0  0  0  0  0  0  0
   -3.0481  -11.7343    0.0000 C   0  0  0  0  0  0  0  0  0  0  0  0
   -1.6386  -12.2474    0.0000 C   0  0  0  0  0  0  0  0  0  0  0  0
   -0.4895  -11.2832    0.0000 C   0  0  0  0  0  0  0  0  0  0  0  0
   -0.7500   -9.8060    0.0000 C   0  0  0  0  0  0  0  0  0  0  0  0
    0.7500   -9.8060    0.0000 C   0  0  0  0  0  0  0  0  0  0  0  0
    0.4895  -11.2832    0.0000 C   0  0  0  0  0  0  0  0  0  0  0  0
    1.6386  -12.2474    0.0000 C   0  0  0  0  0  0  0  0  0  0  0  0
    3.0481  -11.7343    0.0000 C   0  0  0  0  0  0  0  0  0  0  0  0
    3.3086  -10.2571    0.0000 C   0  0  0  0  0  0  0  0  0  0  0  0
    2.1595   -9.2929    0.0000 C   0  0  0  0  0  0  0  0  0  0  0  0
  1  2  1  0
  2  3  2  0
  3  4  1  0
  4  5  1  0
  4  6  1  0
  6  7  1  0
  7  8  1  0
  8  9  1  0
  9 10  2  0
  9 11  1  0
 11 12  1  0
 12 13  2  0
 13 14  1  0
 14 15  2  0
 15 16  1  0
 16 17  2  0
  8 18  1  0
 18 19  2  0
 19 20  1  0
 20 21  2  0
 21 22  1  0
 22 23  2  0
 23 24  1  0
 24 25  2  0
 25 26  1  0
 26 27  2  0
 27 28  1  0
 28 29  3  0
 27 30  1  0
 30 31  2  0
 31 32  1  0
 32 33  2  0
 33 34  1  0
 34 35  2  0
 35 36  1  0
 36 37  2  0
 37 38  1  0
 38 39  2  0
 39 40  1  0
 40 41  2  0
 41 42  1  0
 42 43  2  0
 43 44  1  0
 44 45  2  0
 45 46  1  0
 46 47  2  0
 47 48  1  0
 48 49  2  0
 49 50  1  0
 50 51  2  0
 51 52  1  0
 52 53  2  0
 53 54  1  0
 54 55  2  0
 55  2  1  0
 17 12  1  0
 23 18  1  0
 31 24  1  0
 37 32  1  0
 43 38  1  0
 49 44  1  0
 55 50  1  0
M  END
>  <Title>  (362) 
idAALZgen8

$$$$

     RDKit          2D

 37 42  0  0  0  0  0  0  0  0999 V2000
    2.6491   -3.5623    0.0000 C   0  0  0  0  0  0  0  0  0  0  0  0
    1.5000   -2.5981    0.0000 C   0  0  0  0  0  0  0  0  0  0  0  0
    2.6491   -1.6339    0.0000 C   0  0  0  0  0  0  0  0  0  0  0  0
    0.7500   -1.2990    0.0000 C   0  0  0  0  0  0  0  0  0  0  0  0
    1.5000    0.0000    0.0000 C   0  0  0  0  0  0  0  0  0  0  0  0
    0.7500    1.2990    0.0000 C   0  0  0  0  0  0  0  0  0  0  0  0
   -0.7500    1.2990    0.0000 C   0  0  0  0  0  0  0  0  0  0  0  0
   -1.5000    0.0000    0.0000 C   0  0  0  0  0  0  0  0  0  0  0  0
   -0.7500   -1.2990    0.0000 C   0  0  0  0  0  0  0  0  0  0  0  0
   -1.5000   -2.5981    0.0000 C   0  0  0  0  0  0  0  0  0  0  0  0
   -3.0000   -2.5981    0.0000 C   0  0  0  0  0  0  0  0  0  0  0  0
   -3.7500   -3.8971    0.0000 C   0  0  0  0  0  0  0  0  0  0  0  0
   -3.0000   -5.1962    0.0000 C   0  0  0  0  0  0  0  0  0  0  0  0
   -1.5000   -5.1962    0.0000 C   0  0  0  0  0  0  0  0  0  0  0  0
   -0.7500   -3.8971    0.0000 C   0  0  0  0  0  0  0  0  0  0  0  0
    0.7500   -3.8971    0.0000 C   0  0  0  0  0  0  0  0  0  0  0  0
    1.5000   -5.1962    0.0000 C   0  0  0  0  0  0  0  0  0  0  0  0
    0.7500   -6.4952    0.0000 O   0  0  0  0  0  0  0  0  0  0  0  0
    3.0000   -5.1962    0.0000 N   0  0  0  0  0  0  0  0  0  0  0  0
    3.7500   -6.4952    0.0000 C   0  0  0  0  0  0  0  0  0  0  0  0
    5.2418   -6.6520    0.0000 N   0  0  0  0  0  0  0  0  0  0  0  0
    5.5537   -8.1192    0.0000 N   0  0  0  0  0  0  0  0  0  0  0  0
    4.2546   -8.8692    0.0000 N   0  0  0  0  0  0  0  0  0  0  0  0
    3.1399   -7.8655    0.0000 N   0  0  0  0  0  0  0  0  0  0  0  0
    1.6727   -8.1774    0.0000 N   0  0  0  0  0  0  0  0  0  0  0  0
    0.4147   -7.3604    0.0000 C   0  0  0  0  0  0  0  0  0  0  0  0
   -0.4023   -8.6184    0.0000 C   0  0  0  0  0  0  0  0  0  0  0  0
   -1.8695   -8.9303    0.0000 C   0  0  0  0  0  0  0  0  0  0  0  0
   -2.8732   -7.8156    0.0000 O   0  0  0  0  0  0  0  0  0  0  0  0
   -2.3330  -10.3569    0.0000 N   0  0  0  0  0  0  0  0  0  0  0  0
   -3.8003  -10.6687    0.0000 C   0  0  0  0  0  0  0  0  0  0  0  0
   -4.8040   -9.5540    0.0000 N   0  0  0  0  0  0  0  0  0  0  0  0
   -6.2712   -9.8659    0.0000 N   0  0  0  0  0  0  0  0  0  0  0  0
   -6.7347  -11.2925    0.0000 N   0  0  0  0  0  0  0  0  0  0  0  0
   -5.7310  -12.4072    0.0000 N   0  0  0  0  0  0  0  0  0  0  0  0
   -4.2638  -12.0953    0.0000 N   0  0  0  0  0  0  0  0  0  0  0  0
    0.8557   -9.4354    0.0000 C   0  0  0  0  0  0  0  0  0  0  0  0
  1  2  1  0
  2  3  1  0
  2  4  1  0
  4  5  2  0
  5  6  1  0
  6  7  1  0
  7  8  1  0
  8  9  2  0
  9 10  1  0
 10 11  2  0
 11 12  1  0
 12 13  2  0
 13 14  1  0
 14 15  2  0
 15 16  1  0
 16 17  1  0
 17 18  2  0
 17 19  1  0
 19 20  1  0
 20 21  2  0
 21 22  1  0
 22 23  2  0
 23 24  1  0
 24 25  1  0
 25 26  1  0
 26 27  2  0
 27 28  1  0
 28 29  2  0
 28 30  1  0
 30 31  1  0
 31 32  2  0
 32 33  1  0
 33 34  2  0
 34 35  1  0
 35 36  2  0
 27 37  1  0
 16  2  1  0
 24 20  1  0
 37 25  1  0
  9  4  1  0
 15 10  1  0
 36 31  1  0
M  END
>  <Title>  (363) 
idAAMAgen8

$$$$

     RDKit          2D

 12 12  0  0  0  0  0  0  0  0999 V2000
    3.0000    0.0000    0.0000 O   0  0  0  0  0  0  0  0  0  0  0  0
    1.5000    0.0000    0.0000 C   0  0  0  0  0  0  0  0  0  0  0  0
    0.7500   -1.2990    0.0000 C   0  0  0  0  0  0  0  0  0  0  0  0
   -0.7500   -1.2990    0.0000 C   0  0  0  0  0  0  0  0  0  0  0  0
   -1.5000    0.0000    0.0000 C   0  0  0  0  0  0  0  0  0  0  0  0
   -3.0000    0.0000    0.0000 O   0  0  0  0  0  0  0  0  0  0  0  0
   -3.7500    1.2990    0.0000 C   0  0  0  0  0  0  0  0  0  0  0  0
   -4.5000    2.5981    0.0000 F   0  0  0  0  0  0  0  0  0  0  0  0
   -5.0490    0.5490    0.0000 F   0  0  0  0  0  0  0  0  0  0  0  0
   -2.4510    2.0490    0.0000 F   0  0  0  0  0  0  0  0  0  0  0  0
   -0.7500    1.2990    0.0000 C   0  0  0  0  0  0  0  0  0  0  0  0
    0.7500    1.2990    0.0000 C   0  0  0  0  0  0  0  0  0  0  0  0
  1  2  1  0
  2  3  2  0
  3  4  1  0
  4  5  2  0
  5  6  1  0
  6  7  1  0
  7  8  1  0
  7  9  1  0
  7 10  1  0
  5 11  1  0
 11 12  2  0
 12  2  1  0
M  END
>  <Title>  (364) 
idAAMBgen8

$$$$

     RDKit          2D

 45 51  0  0  0  0  0  0  0  0999 V2000
    1.0838   -9.3334    0.0000 C   0  0  0  0  0  0  0  0  0  0  0  0
    0.7500   -7.8710    0.0000 C   0  0  0  0  0  0  0  0  0  0  0  0
    2.1015   -7.2201    0.0000 C   0  0  0  0  0  0  0  0  0  0  0  0
    3.0367   -6.0474    0.0000 C   0  0  0  0  0  0  0  0  0  0  0  0
    3.3705   -4.5850    0.0000 C   0  0  0  0  0  0  0  0  0  0  0  0
    4.8705   -4.5850    0.0000 C   0  0  0  0  0  0  0  0  0  0  0  0
    5.6205   -3.2860    0.0000 O   0  0  0  0  0  0  0  0  0  0  0  0
    5.6205   -5.8840    0.0000 N   0  0  0  0  0  0  0  0  0  0  0  0
    7.1205   -5.8840    0.0000 C   0  0  0  0  0  0  0  0  0  0  0  0
    7.8705   -7.1831    0.0000 N   0  0  0  0  0  0  0  0  0  0  0  0
    9.3705   -7.1831    0.0000 N   0  0  0  0  0  0  0  0  0  0  0  0
   10.1205   -5.8840    0.0000 N   0  0  0  0  0  0  0  0  0  0  0  0
    9.3705   -4.5850    0.0000 N   0  0  0  0  0  0  0  0  0  0  0  0
    7.8705   -4.5850    0.0000 N   0  0  0  0  0  0  0  0  0  0  0  0
    3.0367   -3.1226    0.0000 C   0  0  0  0  0  0  0  0  0  0  0  0
    4.5199   -2.8990    0.0000 C   0  0  0  0  0  0  0  0  0  0  0  0
    5.0679   -1.5027    0.0000 C   0  0  0  0  0  0  0  0  0  0  0  0
    6.5512   -1.2792    0.0000 O   0  0  0  0  0  0  0  0  0  0  0  0
    4.1327   -0.3300    0.0000 C   0  0  0  0  0  0  0  0  0  0  0  0
    2.6495   -0.5536    0.0000 C   0  0  0  0  0  0  0  0  0  0  0  0
    2.1015   -1.9499    0.0000 C   0  0  0  0  0  0  0  0  0  0  0  0
    0.7500   -1.2990    0.0000 C   0  0  0  0  0  0  0  0  0  0  0  0
    1.5000    0.0000    0.0000 C   0  0  0  0  0  0  0  0  0  0  0  0
    0.7500    1.2990    0.0000 C   0  0  0  0  0  0  0  0  0  0  0  0
   -0.7500    1.2990    0.0000 C   0  0  0  0  0  0  0  0  0  0  0  0
   -1.5000    0.0000    0.0000 C   0  0  0  0  0  0  0  0  0  0  0  0
   -0.7500   -1.2990    0.0000 C   0  0  0  0  0  0  0  0  0  0  0  0
   -2.1015   -1.9499    0.0000 C   0  0  0  0  0  0  0  0  0  0  0  0
   -2.6495   -0.5536    0.0000 C   0  0  0  0  0  0  0  0  0  0  0  0
   -4.1327   -0.3300    0.0000 C   0  0  0  0  0  0  0  0  0  0  0  0
   -5.0679   -1.5027    0.0000 C   0  0  0  0  0  0  0  0  0  0  0  0
   -4.5199   -2.8990    0.0000 C   0  0  0  0  0  0  0  0  0  0  0  0
   -3.0367   -3.1226    0.0000 C   0  0  0  0  0  0  0  0  0  0  0  0
   -3.3705   -4.5850    0.0000 C   0  0  0  0  0  0  0  0  0  0  0  0
   -4.8038   -4.1429    0.0000 C   0  0  0  0  0  0  0  0  0  0  0  0
   -5.9034   -5.1631    0.0000 C   0  0  0  0  0  0  0  0  0  0  0  0
   -5.5696   -6.6255    0.0000 C   0  0  0  0  0  0  0  0  0  0  0  0
   -4.1363   -7.0677    0.0000 C   0  0  0  0  0  0  0  0  0  0  0  0
   -3.0367   -6.0474    0.0000 C   0  0  0  0  0  0  0  0  0  0  0  0
   -2.1015   -7.2201    0.0000 C   0  0  0  0  0  0  0  0  0  0  0  0
   -3.3408   -8.0651    0.0000 C   0  0  0  0  0  0  0  0  0  0  0  0
   -3.2287   -9.5609    0.0000 C   0  0  0  0  0  0  0  0  0  0  0  0
   -1.8773  -10.2118    0.0000 C   0  0  0  0  0  0  0  0  0  0  0  0
   -0.6379   -9.3668    0.0000 C   0  0  0  0  0  0  0  0  0  0  0  0
   -0.7500   -7.8710    0.0000 C   0  0  0  0  0  0  0  0  0  0  0  0
  1  2  1  0
  2  3  1  0
  3  4  2  0
  4  5  1  0
  5  6  1  0
  6  7  2  0
  6  8  1  0
  8  9  1  0
  9 10  2  0
 10 11  1  0
 11 12  2  0
 12 13  1  0
 13 14  2  0
  5 15  1  0
 15 16  2  0
 16 17  1  0
 17 18  1  0
 17 19  2  0
 19 20  1  0
 20 21  2  0
 21 22  1  0
 22 23  2  0
 23 24  1  0
 24 25  2  0
 25 26  1  0
 26 27  2  0
 27 28  1  0
 28 29  2  0
 29 30  1  0
 30 31  2  0
 31 32  1  0
 32 33  2  0
 33 34  1  0
 34 35  2  0
 35 36  1  0
 36 37  2  0
 37 38  1  0
 38 39  2  0
 39 40  1  0
 40 41  2  0
 41 42  1  0
 42 43  2  0
 43 44  1  0
 44 45  2  0
 45  2  1  0
 14  9  1  0
 21 15  1  0
 27 22  1  0
 33 28  1  0
 39 34  1  0
 45 40  1  0
M  END
>  <Title>  (365) 
idAAMCgen8

$$$$

     RDKit          2D

 91 91  0  0  0  0  0  0  0  0999 V2000
   22.9903   -0.0000    0.0000 C   0  0  0  0  0  0  0  0  0  0  0  0
   21.4903    0.0000    0.0000 C   0  0  0  0  0  0  0  0  0  0  0  0
   21.4379   -1.4991    0.0000 C   0  0  0  0  0  0  0  0  0  0  0  0
   21.2811   -2.9909    0.0000 C   0  0  0  0  0  0  0  0  0  0  0  0
   21.0207   -4.4681    0.0000 C   0  0  0  0  0  0  0  0  0  0  0  0
   20.6578   -5.9235    0.0000 C   0  0  0  0  0  0  0  0  0  0  0  0
   20.1943   -7.3501    0.0000 C   0  0  0  0  0  0  0  0  0  0  0  0
   19.6323   -8.7409    0.0000 C   0  0  0  0  0  0  0  0  0  0  0  0
   18.9748  -10.0891    0.0000 C   0  0  0  0  0  0  0  0  0  0  0  0
   18.2248  -11.3881    0.0000 C   0  0  0  0  0  0  0  0  0  0  0  0
   17.3860  -12.6317    0.0000 C   0  0  0  0  0  0  0  0  0  0  0  0
   16.4625  -13.8137    0.0000 C   0  0  0  0  0  0  0  0  0  0  0  0
   15.4588  -14.9284    0.0000 C   0  0  0  0  0  0  0  0  0  0  0  0
   14.3798  -15.9704    0.0000 C   0  0  0  0  0  0  0  0  0  0  0  0
   13.2307  -16.9346    0.0000 C   0  0  0  0  0  0  0  0  0  0  0  0
   12.0172  -17.8163    0.0000 C   0  0  0  0  0  0  0  0  0  0  0  0
   10.7451  -18.6111    0.0000 C   0  0  0  0  0  0  0  0  0  0  0  0
    9.4207  -19.3153    0.0000 C   0  0  0  0  0  0  0  0  0  0  0  0
    8.0504  -19.9254    0.0000 C   0  0  0  0  0  0  0  0  0  0  0  0
    6.6409  -20.4385    0.0000 C   0  0  0  0  0  0  0  0  0  0  0  0
    5.1990  -20.8519    0.0000 C   0  0  0  0  0  0  0  0  0  0  0  0
    3.7317  -21.1638    0.0000 C   0  0  0  0  0  0  0  0  0  0  0  0
    2.2463  -21.3726    0.0000 C   0  0  0  0  0  0  0  0  0  0  0  0
    0.7500  -21.4772    0.0000 C   0  0  0  0  0  0  0  0  0  0  0  0
   -0.7500  -21.4772    0.0000 C   0  0  0  0  0  0  0  0  0  0  0  0
   -2.2463  -21.3726    0.0000 C   0  0  0  0  0  0  0  0  0  0  0  0
   -3.7317  -21.1638    0.0000 C   0  0  0  0  0  0  0  0  0  0  0  0
   -5.1990  -20.8519    0.0000 C   0  0  0  0  0  0  0  0  0  0  0  0
   -6.6409  -20.4385    0.0000 C   0  0  0  0  0  0  0  0  0  0  0  0
   -8.0504  -19.9254    0.0000 C   0  0  0  0  0  0  0  0  0  0  0  0
   -9.4207  -19.3153    0.0000 C   0  0  0  0  0  0  0  0  0  0  0  0
  -10.7451  -18.6111    0.0000 C   0  0  0  0  0  0  0  0  0  0  0  0
  -12.0172  -17.8163    0.0000 C   0  0  0  0  0  0  0  0  0  0  0  0
  -13.2307  -16.9346    0.0000 C   0  0  0  0  0  0  0  0  0  0  0  0
  -14.3798  -15.9704    0.0000 C   0  0  0  0  0  0  0  0  0  0  0  0
  -15.4588  -14.9284    0.0000 C   0  0  0  0  0  0  0  0  0  0  0  0
  -16.4625  -13.8137    0.0000 C   0  0  0  0  0  0  0  0  0  0  0  0
  -17.3860  -12.6317    0.0000 C   0  0  0  0  0  0  0  0  0  0  0  0
  -18.2248  -11.3881    0.0000 C   0  0  0  0  0  0  0  0  0  0  0  0
  -18.9748  -10.0891    0.0000 C   0  0  0  0  0  0  0  0  0  0  0  0
  -19.6323   -8.7409    0.0000 C   0  0  0  0  0  0  0  0  0  0  0  0
  -20.1943   -7.3501    0.0000 C   0  0  0  0  0  0  0  0  0  0  0  0
  -20.6578   -5.9235    0.0000 C   0  0  0  0  0  0  0  0  0  0  0  0
  -21.0207   -4.4681    0.0000 C   0  0  0  0  0  0  0  0  0  0  0  0
  -21.2811   -2.9909    0.0000 C   0  0  0  0  0  0  0  0  0  0  0  0
  -21.4379   -1.4991    0.0000 C   0  0  0  0  0  0  0  0  0  0  0  0
  -21.4903    0.0000    0.0000 C   0  0  0  0  0  0  0  0  0  0  0  0
  -21.4379    1.4991    0.0000 C   0  0  0  0  0  0  0  0  0  0  0  0
  -21.2811    2.9909    0.0000 C   0  0  0  0  0  0  0  0  0  0  0  0
  -21.0207    4.4681    0.0000 C   0  0  0  0  0  0  0  0  0  0  0  0
  -20.6578    5.9235    0.0000 C   0  0  0  0  0  0  0  0  0  0  0  0
  -20.1943    7.3501    0.0000 C   0  0  0  0  0  0  0  0  0  0  0  0
  -19.6323    8.7409    0.0000 C   0  0  0  0  0  0  0  0  0  0  0  0
  -18.9748   10.0891    0.0000 C   0  0  0  0  0  0  0  0  0  0  0  0
  -18.2248   11.3881    0.0000 C   0  0  0  0  0  0  0  0  0  0  0  0
  -17.3860   12.6317    0.0000 C   0  0  0  0  0  0  0  0  0  0  0  0
  -16.4625   13.8137    0.0000 C   0  0  0  0  0  0  0  0  0  0  0  0
  -15.4588   14.9284    0.0000 C   0  0  0  0  0  0  0  0  0  0  0  0
  -14.3798   15.9704    0.0000 C   0  0  0  0  0  0  0  0  0  0  0  0
  -13.2307   16.9346    0.0000 C   0  0  0  0  0  0  0  0  0  0  0  0
  -12.0172   17.8163    0.0000 C   0  0  0  0  0  0  0  0  0  0  0  0
  -10.7451   18.6111    0.0000 C   0  0  0  0  0  0  0  0  0  0  0  0
   -9.4207   19.3153    0.0000 C   0  0  0  0  0  0  0  0  0  0  0  0
   -8.0504   19.9254    0.0000 C   0  0  0  0  0  0  0  0  0  0  0  0
   -6.6409   20.4385    0.0000 C   0  0  0  0  0  0  0  0  0  0  0  0
   -5.1990   20.8519    0.0000 C   0  0  0  0  0  0  0  0  0  0  0  0
   -3.7317   21.1638    0.0000 C   0  0  0  0  0  0  0  0  0  0  0  0
   -2.2463   21.3726    0.0000 C   0  0  0  0  0  0  0  0  0  0  0  0
   -0.7500   21.4772    0.0000 C   0  0  0  0  0  0  0  0  0  0  0  0
    0.7500   21.4772    0.0000 C   0  0  0  0  0  0  0  0  0  0  0  0
    2.2463   21.3726    0.0000 C   0  0  0  0  0  0  0  0  0  0  0  0
    3.7317   21.1638    0.0000 C   0  0  0  0  0  0  0  0  0  0  0  0
    5.1990   20.8519    0.0000 C   0  0  0  0  0  0  0  0  0  0  0  0
    6.6409   20.4385    0.0000 C   0  0  0  0  0  0  0  0  0  0  0  0
    8.0504   19.9254    0.0000 C   0  0  0  0  0  0  0  0  0  0  0  0
    9.4207   19.3153    0.0000 C   0  0  0  0  0  0  0  0  0  0  0  0
   10.7451   18.6111    0.0000 C   0  0  0  0  0  0  0  0  0  0  0  0
   12.0172   17.8163    0.0000 C   0  0  0  0  0  0  0  0  0  0  0  0
   13.2307   16.9346    0.0000 C   0  0  0  0  0  0  0  0  0  0  0  0
   14.3798   15.9704    0.0000 C   0  0  0  0  0  0  0  0  0  0  0  0
   15.4588   14.9284    0.0000 C   0  0  0  0  0  0  0  0  0  0  0  0
   16.4625   13.8137    0.0000 C   0  0  0  0  0  0  0  0  0  0  0  0
   17.3860   12.6317    0.0000 C   0  0  0  0  0  0  0  0  0  0  0  0
   18.2248   11.3881    0.0000 C   0  0  0  0  0  0  0  0  0  0  0  0
   18.9748   10.0891    0.0000 C   0  0  0  0  0  0  0  0  0  0  0  0
   19.6323    8.7409    0.0000 C   0  0  0  0  0  0  0  0  0  0  0  0
   20.1943    7.3501    0.0000 C   0  0  0  0  0  0  0  0  0  0  0  0
   20.6578    5.9235    0.0000 C   0  0  0  0  0  0  0  0  0  0  0  0
   21.0207    4.4681    0.0000 C   0  0  0  0  0  0  0  0  0  0  0  0
   21.2811    2.9909    0.0000 C   0  0  0  0  0  0  0  0  0  0  0  0
   21.4379    1.4991    0.0000 C   0  0  0  0  0  0  0  0  0  0  0  0
  1  2  1  0
  2  3  2  0
  3  4  1  0
  4  5  1  0
  5  6  1  0
  6  7  1  0
  7  8  1  0
  8  9  1  0
  9 10  1  0
 10 11  1  0
 11 12  1  0
 12 13  1  0
 13 14  1  0
 14 15  1  0
 15 16  1  0
 16 17  1  0
 17 18  1  0
 18 19  1  0
 19 20  1  0
 20 21  1  0
 21 22  1  0
 22 23  1  0
 23 24  1  0
 24 25  1  0
 25 26  1  0
 26 27  1  0
 27 28  1  0
 28 29  1  0
 29 30  1  0
 30 31  1  0
 31 32  1  0
 32 33  1  0
 33 34  1  0
 34 35  1  0
 35 36  1  0
 36 37  1  0
 37 38  1  0
 38 39  1  0
 39 40  1  0
 40 41  1  0
 41 42  1  0
 42 43  1  0
 43 44  1  0
 44 45  1  0
 45 46  1  0
 46 47  1  0
 47 48  1  0
 48 49  1  0
 49 50  1  0
 50 51  1  0
 51 52  1  0
 52 53  1  0
 53 54  1  0
 54 55  1  0
 55 56  1  0
 56 57  1  0
 57 58  1  0
 58 59  1  0
 59 60  1  0
 60 61  1  0
 61 62  1  0
 62 63  1  0
 63 64  1  0
 64 65  1  0
 65 66  1  0
 66 67  1  0
 67 68  1  0
 68 69  1  0
 69 70  1  0
 70 71  1  0
 71 72  1  0
 72 73  1  0
 73 74  1  0
 74 75  1  0
 75 76  1  0
 76 77  1  0
 77 78  1  0
 78 79  1  0
 79 80  1  0
 80 81  1  0
 81 82  1  0
 82 83  1  0
 83 84  1  0
 84 85  1  0
 85 86  1  0
 86 87  1  0
 87 88  1  0
 88 89  1  0
 89 90  1  0
 90 91  1  0
 91  2  1  0
M  END
>  <Title>  (366) 
idAAMDgen8

$$$$

     RDKit          2D

 11 11  0  0  0  0  0  0  0  0999 V2000
    5.4786   -1.2990    0.0000 C   0  0  0  0  0  0  0  0  0  0  0  0
    3.9786   -1.2990    0.0000 C   0  0  0  0  0  0  0  0  0  0  0  0
    3.2286   -0.0000    0.0000 C   0  0  0  0  0  0  0  0  0  0  0  0
    1.7286    0.0000    0.0000 C   0  0  0  0  0  0  0  0  0  0  0  0
    1.0777    1.3515    0.0000 C   0  0  0  0  0  0  0  0  0  0  0  0
   -0.3846    1.6852    0.0000 C   0  0  0  0  0  0  0  0  0  0  0  0
   -1.5574    0.7500    0.0000 C   0  0  0  0  0  0  0  0  0  0  0  0
   -1.5574   -0.7500    0.0000 C   0  0  0  0  0  0  0  0  0  0  0  0
   -2.9088   -1.4008    0.0000 C   0  0  0  0  0  0  0  0  0  0  0  0
   -0.3846   -1.6852    0.0000 C   0  0  0  0  0  0  0  0  0  0  0  0
    1.0777   -1.3515    0.0000 C   0  0  0  0  0  0  0  0  0  0  0  0
  1  2  1  0
  2  3  1  0
  3  4  1  0
  4  5  2  0
  5  6  1  0
  6  7  1  0
  7  8  1  0
  8  9  1  0
  8 10  1  0
 10 11  1  0
 11  4  1  0
M  END
>  <Title>  (367) 
idAAMEgen8

$$$$

     RDKit          2D

 36 40  0  0  0  0  0  0  0  0999 V2000
   -3.1965   -1.7857    0.0000 C   0  0  0  0  0  0  0  0  0  0  0  0
   -1.8107   -2.3597    0.0000 C   0  0  0  0  0  0  0  0  0  0  0  0
   -1.8107   -3.8597    0.0000 C   0  0  0  0  0  0  0  0  0  0  0  0
   -0.7500   -4.9204    0.0000 C   0  0  0  0  0  0  0  0  0  0  0  0
    0.7500   -4.9204    0.0000 C   0  0  0  0  0  0  0  0  0  0  0  0
    1.8107   -3.8597    0.0000 C   0  0  0  0  0  0  0  0  0  0  0  0
    1.8107   -2.3597    0.0000 C   0  0  0  0  0  0  0  0  0  0  0  0
    3.1965   -1.7857    0.0000 C   0  0  0  0  0  0  0  0  0  0  0  0
    4.3865   -2.6988    0.0000 C   0  0  0  0  0  0  0  0  0  0  0  0
    3.3923   -0.2985    0.0000 N   0  0  0  0  0  0  0  0  0  0  0  0
    4.7781    0.2755    0.0000 C   0  0  0  0  0  0  0  0  0  0  0  0
    5.1283    1.7341    0.0000 N   0  0  0  0  0  0  0  0  0  0  0  0
    6.6236    1.8518    0.0000 N   0  0  0  0  0  0  0  0  0  0  0  0
    7.1977    0.4659    0.0000 N   0  0  0  0  0  0  0  0  0  0  0  0
    6.0570   -0.5082    0.0000 N   0  0  0  0  0  0  0  0  0  0  0  0
    6.1747   -2.0036    0.0000 N   0  0  0  0  0  0  0  0  0  0  0  0
    7.4537   -2.7874    0.0000 C   0  0  0  0  0  0  0  0  0  0  0  0
    7.1035   -4.2459    0.0000 C   0  0  0  0  0  0  0  0  0  0  0  0
    5.6082   -4.3636    0.0000 N   0  0  0  0  0  0  0  0  0  0  0  0
    4.8244   -5.6426    0.0000 C   0  0  0  0  0  0  0  0  0  0  0  0
    3.3249   -5.6033    0.0000 O   0  0  0  0  0  0  0  0  0  0  0  0
    5.5401   -6.9608    0.0000 N   0  0  0  0  0  0  0  0  0  0  0  0
    4.7564   -8.2397    0.0000 C   0  0  0  0  0  0  0  0  0  0  0  0
    3.2569   -8.2005    0.0000 N   0  0  0  0  0  0  0  0  0  0  0  0
    2.4732   -9.4794    0.0000 N   0  0  0  0  0  0  0  0  0  0  0  0
    3.1889  -10.7977    0.0000 N   0  0  0  0  0  0  0  0  0  0  0  0
    4.6884  -10.8369    0.0000 N   0  0  0  0  0  0  0  0  0  0  0  0
    5.4721   -9.5580    0.0000 N   0  0  0  0  0  0  0  0  0  0  0  0
    5.0341   -2.9778    0.0000 C   0  0  0  0  0  0  0  0  0  0  0  0
    3.5756   -2.6276    0.0000 O   0  0  0  0  0  0  0  0  0  0  0  0
    0.7500   -1.2990    0.0000 C   0  0  0  0  0  0  0  0  0  0  0  0
    1.5000    0.0000    0.0000 C   0  0  0  0  0  0  0  0  0  0  0  0
    0.7500    1.2990    0.0000 C   0  0  0  0  0  0  0  0  0  0  0  0
   -0.7500    1.2990    0.0000 C   0  0  0  0  0  0  0  0  0  0  0  0
   -1.5000    0.0000    0.0000 C   0  0  0  0  0  0  0  0  0  0  0  0
   -0.7500   -1.2990    0.0000 C   0  0  0  0  0  0  0  0  0  0  0  0
  1  2  1  0
  2  3  2  0
  3  4  1  0
  4  5  1  0
  5  6  1  0
  6  7  1  0
  7  8  1  0
  8  9  1  0
  8 10  1  0
 10 11  1  0
 11 12  2  0
 12 13  1  0
 13 14  2  0
 14 15  1  0
 15 16  1  0
 16 17  1  0
 17 18  1  0
 18 19  1  0
 19 20  1  0
 20 21  2  0
 20 22  1  0
 22 23  1  0
 23 24  2  0
 24 25  1  0
 25 26  2  0
 26 27  1  0
 27 28  2  0
 19 29  1  0
 29 30  2  0
  7 31  1  0
 31 32  2  0
 32 33  1  0
 33 34  2  0
 34 35  1  0
 35 36  2  0
 36  2  1  0
 15 11  1  0
 29 16  1  0
 36 31  1  0
 28 23  1  0
M  END
>  <Title>  (368) 
idAAMFgen8

$$$$

     RDKit          2D

 34 37  0  0  0  0  0  0  0  0999 V2000
   -3.1455   -1.1277    0.0000 C   0  0  0  0  0  0  0  0  0  0  0  0
   -2.0119   -2.1100    0.0000 C   0  0  0  0  0  0  0  0  0  0  0  0
   -2.6350   -3.4744    0.0000 C   0  0  0  0  0  0  0  0  0  0  0  0
   -2.4215   -4.9592    0.0000 C   0  0  0  0  0  0  0  0  0  0  0  0
   -1.4392   -6.0928    0.0000 C   0  0  0  0  0  0  0  0  0  0  0  0
   -0.0000   -6.5154    0.0000 C   0  0  0  0  0  0  0  0  0  0  0  0
    1.4392   -6.0928    0.0000 C   0  0  0  0  0  0  0  0  0  0  0  0
    2.4215   -4.9592    0.0000 C   0  0  0  0  0  0  0  0  0  0  0  0
    3.7860   -5.5823    0.0000 C   0  0  0  0  0  0  0  0  0  0  0  0
    5.0078   -4.7122    0.0000 O   0  0  0  0  0  0  0  0  0  0  0  0
    3.9286   -7.0755    0.0000 N   0  0  0  0  0  0  0  0  0  0  0  0
    5.2930   -7.6986    0.0000 C   0  0  0  0  0  0  0  0  0  0  0  0
    5.4356   -9.1918    0.0000 N   0  0  0  0  0  0  0  0  0  0  0  0
    6.8000   -9.8150    0.0000 N   0  0  0  0  0  0  0  0  0  0  0  0
    8.0219   -8.9449    0.0000 N   0  0  0  0  0  0  0  0  0  0  0  0
    7.8793   -7.4517    0.0000 N   0  0  0  0  0  0  0  0  0  0  0  0
    6.5149   -6.8285    0.0000 N   0  0  0  0  0  0  0  0  0  0  0  0
    2.6350   -3.4744    0.0000 C   0  0  0  0  0  0  0  0  0  0  0  0
    4.0903   -3.8380    0.0000 C   0  0  0  0  0  0  0  0  0  0  0  0
    5.2819   -2.9269    0.0000 C   0  0  0  0  0  0  0  0  0  0  0  0
    5.3125   -1.4272    0.0000 C   0  0  0  0  0  0  0  0  0  0  0  0
    4.1590   -0.4682    0.0000 N   0  0  0  0  0  0  0  0  0  0  0  0
    4.5226    0.9871    0.0000 C   0  0  0  0  0  0  0  0  0  0  0  0
    5.9647    1.3999    0.0000 C   0  0  0  0  0  0  0  0  0  0  0  0
    7.0432    0.3574    0.0000 O   0  0  0  0  0  0  0  0  0  0  0  0
    6.3282    2.8551    0.0000 O   0  0  0  0  0  0  0  0  0  0  0  0
    2.6901   -0.7721    0.0000 C   0  0  0  0  0  0  0  0  0  0  0  0
    2.0119   -2.1100    0.0000 C   0  0  0  0  0  0  0  0  0  0  0  0
    0.7500   -1.2990    0.0000 C   0  0  0  0  0  0  0  0  0  0  0  0
    1.5000    0.0000    0.0000 C   0  0  0  0  0  0  0  0  0  0  0  0
    0.7500    1.2990    0.0000 C   0  0  0  0  0  0  0  0  0  0  0  0
   -0.7500    1.2990    0.0000 C   0  0  0  0  0  0  0  0  0  0  0  0
   -1.5000    0.0000    0.0000 C   0  0  0  0  0  0  0  0  0  0  0  0
   -0.7500   -1.2990    0.0000 C   0  0  0  0  0  0  0  0  0  0  0  0
  1  2  1  0
  2  3  1  0
  3  4  1  0
  4  5  1  0
  5  6  1  0
  6  7  1  0
  7  8  1  0
  8  9  1  0
  9 10  2  0
  9 11  1  0
 11 12  1  0
 12 13  2  0
 13 14  1  0
 14 15  2  0
 15 16  1  0
 16 17  2  0
  8 18  1  0
 18 19  2  0
 19 20  1  0
 20 21  2  0
 21 22  1  0
 22 23  1  0
 23 24  1  0
 24 25  2  0
 24 26  1  0
 22 27  1  0
 27 28  2  0
 28 29  1  0
 29 30  2  0
 30 31  1  0
 31 32  2  0
 32 33  1  0
 33 34  2  0
 34  2  1  0
 17 12  1  0
 28 18  1  0
 34 29  1  0
M  END
>  <Title>  (369) 
idAAMGgen8

$$$$

     RDKit          2D

  9  9  0  0  0  0  0  0  0  0999 V2000
    3.2286   -0.0000    0.0000 C   0  0  0  0  0  0  0  0  0  0  0  0
    1.7286    0.0000    0.0000 C   0  0  0  0  0  0  0  0  0  0  0  0
    1.0777    1.3515    0.0000 C   0  0  0  0  0  0  0  0  0  0  0  0
   -0.3846    1.6852    0.0000 C   0  0  0  0  0  0  0  0  0  0  0  0
   -1.5574    0.7500    0.0000 C   0  0  0  0  0  0  0  0  0  0  0  0
   -1.5574   -0.7500    0.0000 C   0  0  0  0  0  0  0  0  0  0  0  0
   -2.9088   -1.4008    0.0000 C   0  0  0  0  0  0  0  0  0  0  0  0
   -0.3846   -1.6852    0.0000 C   0  0  0  0  0  0  0  0  0  0  0  0
    1.0777   -1.3515    0.0000 C   0  0  0  0  0  0  0  0  0  0  0  0
  1  2  1  0
  2  3  2  0
  3  4  1  0
  4  5  1  0
  5  6  1  0
  6  7  1  0
  6  8  1  0
  8  9  1  0
  9  2  1  0
M  END
>  <Title>  (370) 
idAAMHgen8

$$$$

     RDKit          2D

 11 12  0  0  0  0  0  0  0  0999 V2000
   -3.0000   -2.5981    0.0000 C   0  0  0  0  0  0  0  0  0  0  0  0
   -1.5000   -2.5981    0.0000 C   0  0  0  0  0  0  0  0  0  0  0  0
   -0.7500   -3.8971    0.0000 C   0  0  0  0  0  0  0  0  0  0  0  0
    0.7500   -3.8971    0.0000 C   0  0  0  0  0  0  0  0  0  0  0  0
    1.5000   -2.5981    0.0000 C   0  0  0  0  0  0  0  0  0  0  0  0
    0.7500   -1.2990    0.0000 C   0  0  0  0  0  0  0  0  0  0  0  0
    1.5000    0.0000    0.0000 C   0  0  0  0  0  0  0  0  0  0  0  0
    0.7500    1.2990    0.0000 C   0  0  0  0  0  0  0  0  0  0  0  0
   -0.7500    1.2990    0.0000 C   0  0  0  0  0  0  0  0  0  0  0  0
   -1.5000    0.0000    0.0000 C   0  0  0  0  0  0  0  0  0  0  0  0
   -0.7500   -1.2990    0.0000 C   0  0  0  0  0  0  0  0  0  0  0  0
  1  2  1  0
  2  3  1  0
  3  4  1  0
  4  5  1  0
  5  6  1  0
  6  7  2  0
  7  8  1  0
  8  9  2  0
  9 10  1  0
 10 11  2  0
 11  2  1  0
 11  6  1  0
M  END
>  <Title>  (371) 
idAAMIgen8

$$$$

     RDKit          2D

 82 82  0  0  0  0  0  0  0  0999 V2000
   20.6035    0.0000    0.0000 C   0  0  0  0  0  0  0  0  0  0  0  0
   19.1035    0.0000    0.0000 C   0  0  0  0  0  0  0  0  0  0  0  0
   19.0446   -1.4988    0.0000 C   0  0  0  0  0  0  0  0  0  0  0  0
   18.8683   -2.9884    0.0000 C   0  0  0  0  0  0  0  0  0  0  0  0
   18.5757   -4.4596    0.0000 C   0  0  0  0  0  0  0  0  0  0  0  0
   18.1685   -5.9033    0.0000 C   0  0  0  0  0  0  0  0  0  0  0  0
   17.6493   -7.3106    0.0000 C   0  0  0  0  0  0  0  0  0  0  0  0
   17.0213   -8.6728    0.0000 C   0  0  0  0  0  0  0  0  0  0  0  0
   18.3579   -9.3538    0.0000 C   0  0  0  0  0  0  0  0  0  0  0  0
   16.2884   -9.9816    0.0000 C   0  0  0  0  0  0  0  0  0  0  0  0
   15.4551  -11.2288    0.0000 C   0  0  0  0  0  0  0  0  0  0  0  0
   14.5264  -12.4067    0.0000 C   0  0  0  0  0  0  0  0  0  0  0  0
   13.5082  -13.5082    0.0000 C   0  0  0  0  0  0  0  0  0  0  0  0
   12.4067  -14.5264    0.0000 C   0  0  0  0  0  0  0  0  0  0  0  0
   11.2288  -15.4551    0.0000 C   0  0  0  0  0  0  0  0  0  0  0  0
    9.9816  -16.2884    0.0000 C   0  0  0  0  0  0  0  0  0  0  0  0
    8.6728  -17.0213    0.0000 C   0  0  0  0  0  0  0  0  0  0  0  0
    7.3106  -17.6493    0.0000 C   0  0  0  0  0  0  0  0  0  0  0  0
    5.9033  -18.1685    0.0000 C   0  0  0  0  0  0  0  0  0  0  0  0
    4.4596  -18.5757    0.0000 C   0  0  0  0  0  0  0  0  0  0  0  0
    2.9884  -18.8683    0.0000 C   0  0  0  0  0  0  0  0  0  0  0  0
    1.4988  -19.0446    0.0000 C   0  0  0  0  0  0  0  0  0  0  0  0
   -0.0000  -19.1035    0.0000 C   0  0  0  0  0  0  0  0  0  0  0  0
   -1.4988  -19.0446    0.0000 C   0  0  0  0  0  0  0  0  0  0  0  0
   -2.9884  -18.8683    0.0000 C   0  0  0  0  0  0  0  0  0  0  0  0
   -4.4596  -18.5757    0.0000 C   0  0  0  0  0  0  0  0  0  0  0  0
   -5.9033  -18.1685    0.0000 C   0  0  0  0  0  0  0  0  0  0  0  0
   -7.3106  -17.6493    0.0000 C   0  0  0  0  0  0  0  0  0  0  0  0
   -8.6728  -17.0213    0.0000 C   0  0  0  0  0  0  0  0  0  0  0  0
   -9.9816  -16.2884    0.0000 C   0  0  0  0  0  0  0  0  0  0  0  0
  -11.2288  -15.4551    0.0000 C   0  0  0  0  0  0  0  0  0  0  0  0
  -12.4067  -14.5264    0.0000 C   0  0  0  0  0  0  0  0  0  0  0  0
  -13.5082  -13.5082    0.0000 C   0  0  0  0  0  0  0  0  0  0  0  0
  -14.5264  -12.4067    0.0000 C   0  0  0  0  0  0  0  0  0  0  0  0
  -15.4551  -11.2288    0.0000 C   0  0  0  0  0  0  0  0  0  0  0  0
  -16.2884   -9.9816    0.0000 C   0  0  0  0  0  0  0  0  0  0  0  0
  -17.0213   -8.6728    0.0000 C   0  0  0  0  0  0  0  0  0  0  0  0
  -17.6493   -7.3106    0.0000 C   0  0  0  0  0  0  0  0  0  0  0  0
  -18.1685   -5.9033    0.0000 C   0  0  0  0  0  0  0  0  0  0  0  0
  -18.5757   -4.4596    0.0000 C   0  0  0  0  0  0  0  0  0  0  0  0
  -18.8683   -2.9884    0.0000 C   0  0  0  0  0  0  0  0  0  0  0  0
  -19.0446   -1.4988    0.0000 C   0  0  0  0  0  0  0  0  0  0  0  0
  -19.1035    0.0000    0.0000 C   0  0  0  0  0  0  0  0  0  0  0  0
  -19.0446    1.4988    0.0000 C   0  0  0  0  0  0  0  0  0  0  0  0
  -18.8683    2.9884    0.0000 C   0  0  0  0  0  0  0  0  0  0  0  0
  -18.5757    4.4596    0.0000 C   0  0  0  0  0  0  0  0  0  0  0  0
  -18.1685    5.9033    0.0000 C   0  0  0  0  0  0  0  0  0  0  0  0
  -17.6493    7.3106    0.0000 C   0  0  0  0  0  0  0  0  0  0  0  0
  -17.0213    8.6728    0.0000 C   0  0  0  0  0  0  0  0  0  0  0  0
  -16.2884    9.9816    0.0000 C   0  0  0  0  0  0  0  0  0  0  0  0
  -15.4551   11.2288    0.0000 C   0  0  0  0  0  0  0  0  0  0  0  0
  -14.5264   12.4067    0.0000 C   0  0  0  0  0  0  0  0  0  0  0  0
  -13.5082   13.5082    0.0000 C   0  0  0  0  0  0  0  0  0  0  0  0
  -12.4067   14.5264    0.0000 C   0  0  0  0  0  0  0  0  0  0  0  0
  -11.2288   15.4551    0.0000 C   0  0  0  0  0  0  0  0  0  0  0  0
   -9.9816   16.2884    0.0000 C   0  0  0  0  0  0  0  0  0  0  0  0
   -8.6728   17.0213    0.0000 C   0  0  0  0  0  0  0  0  0  0  0  0
   -7.3106   17.6493    0.0000 C   0  0  0  0  0  0  0  0  0  0  0  0
   -5.9033   18.1685    0.0000 C   0  0  0  0  0  0  0  0  0  0  0  0
   -4.4596   18.5757    0.0000 C   0  0  0  0  0  0  0  0  0  0  0  0
   -2.9884   18.8683    0.0000 C   0  0  0  0  0  0  0  0  0  0  0  0
   -1.4988   19.0446    0.0000 C   0  0  0  0  0  0  0  0  0  0  0  0
    0.0000   19.1035    0.0000 C   0  0  0  0  0  0  0  0  0  0  0  0
    1.4988   19.0446    0.0000 C   0  0  0  0  0  0  0  0  0  0  0  0
    2.9884   18.8683    0.0000 C   0  0  0  0  0  0  0  0  0  0  0  0
    4.4596   18.5757    0.0000 C   0  0  0  0  0  0  0  0  0  0  0  0
    5.9033   18.1685    0.0000 C   0  0  0  0  0  0  0  0  0  0  0  0
    7.3106   17.6493    0.0000 C   0  0  0  0  0  0  0  0  0  0  0  0
    8.6728   17.0213    0.0000 C   0  0  0  0  0  0  0  0  0  0  0  0
    9.9816   16.2884    0.0000 C   0  0  0  0  0  0  0  0  0  0  0  0
   11.2288   15.4551    0.0000 C   0  0  0  0  0  0  0  0  0  0  0  0
   12.4067   14.5264    0.0000 C   0  0  0  0  0  0  0  0  0  0  0  0
   13.5082   13.5082    0.0000 C   0  0  0  0  0  0  0  0  0  0  0  0
   14.5264   12.4067    0.0000 C   0  0  0  0  0  0  0  0  0  0  0  0
   15.4551   11.2288    0.0000 C   0  0  0  0  0  0  0  0  0  0  0  0
   16.2884    9.9816    0.0000 C   0  0  0  0  0  0  0  0  0  0  0  0
   17.0213    8.6728    0.0000 C   0  0  0  0  0  0  0  0  0  0  0  0
   17.6493    7.3106    0.0000 C   0  0  0  0  0  0  0  0  0  0  0  0
   18.1685    5.9033    0.0000 C   0  0  0  0  0  0  0  0  0  0  0  0
   18.5757    4.4596    0.0000 C   0  0  0  0  0  0  0  0  0  0  0  0
   18.8683    2.9884    0.0000 C   0  0  0  0  0  0  0  0  0  0  0  0
   19.0446    1.4988    0.0000 C   0  0  0  0  0  0  0  0  0  0  0  0
  1  2  1  0
  2  3  2  0
  3  4  1  0
  4  5  1  0
  5  6  1  0
  6  7  1  0
  7  8  1  0
  8  9  1  0
  8 10  1  0
 10 11  1  0
 11 12  1  0
 12 13  1  0
 13 14  1  0
 14 15  1  0
 15 16  1  0
 16 17  1  0
 17 18  1  0
 18 19  1  0
 19 20  1  0
 20 21  1  0
 21 22  1  0
 22 23  1  0
 23 24  1  0
 24 25  1  0
 25 26  1  0
 26 27  1  0
 27 28  1  0
 28 29  1  0
 29 30  1  0
 30 31  1  0
 31 32  1  0
 32 33  1  0
 33 34  1  0
 34 35  1  0
 35 36  1  0
 36 37  1  0
 37 38  1  0
 38 39  1  0
 39 40  1  0
 40 41  1  0
 41 42  1  0
 42 43  1  0
 43 44  1  0
 44 45  1  0
 45 46  1  0
 46 47  1  0
 47 48  1  0
 48 49  1  0
 49 50  1  0
 50 51  1  0
 51 52  1  0
 52 53  1  0
 53 54  1  0
 54 55  1  0
 55 56  1  0
 56 57  1  0
 57 58  1  0
 58 59  1  0
 59 60  1  0
 60 61  1  0
 61 62  1  0
 62 63  1  0
 63 64  1  0
 64 65  1  0
 65 66  1  0
 66 67  1  0
 67 68  1  0
 68 69  1  0
 69 70  1  0
 70 71  1  0
 71 72  1  0
 72 73  1  0
 73 74  1  0
 74 75  1  0
 75 76  1  0
 76 77  1  0
 77 78  1  0
 78 79  1  0
 79 80  1  0
 80 81  1  0
 81 82  1  0
 82  2  1  0
M  END
>  <Title>  (372) 
idAAMJgen8

$$$$

     RDKit          2D

  6  6  0  0  0  0  0  0  0  0999 V2000
    1.5000    0.0000    0.0000 C   0  0  0  0  0  0  0  0  0  0  0  0
    0.7500   -1.2990    0.0000 C   0  0  0  0  0  0  0  0  0  0  0  0
   -0.7500   -1.2990    0.0000 C   0  0  0  0  0  0  0  0  0  0  0  0
   -1.5000    0.0000    0.0000 C   0  0  0  0  0  0  0  0  0  0  0  0
   -0.7500    1.2990    0.0000 C   0  0  0  0  0  0  0  0  0  0  0  0
    0.7500    1.2990    0.0000 C   0  0  0  0  0  0  0  0  0  0  0  0
  1  2  2  0
  2  3  1  0
  3  4  1  0
  4  5  1  0
  5  6  1  0
  6  1  1  0
M  END
>  <Title>  (373) 
idAAMKgen8

$$$$

     RDKit          2D

 27 28  0  0  0  0  0  0  0  0999 V2000
   -1.5000   -5.1962    0.0000 C   0  0  0  0  0  0  0  0  0  0  0  0
   -0.7500   -3.8971    0.0000 C   0  0  0  0  0  0  0  0  0  0  0  0
   -1.5000   -2.5981    0.0000 N   0  0  0  0  0  0  0  0  0  0  0  0
   -3.0000   -2.5981    0.0000 C   0  0  0  0  0  0  0  0  0  0  0  0
   -3.7500   -3.8971    0.0000 O   0  0  0  0  0  0  0  0  0  0  0  0
   -3.7500   -1.2990    0.0000 C   0  0  0  0  0  0  0  0  0  0  0  0
   -5.2418   -1.1422    0.0000 C   0  0  0  0  0  0  0  0  0  0  0  0
   -5.5537    0.3250    0.0000 C   0  0  0  0  0  0  0  0  0  0  0  0
   -4.2546    1.0750    0.0000 C   0  0  0  0  0  0  0  0  0  0  0  0
   -4.0978    2.5668    0.0000 C   0  0  0  0  0  0  0  0  0  0  0  0
   -2.7275    3.1769    0.0000 O   0  0  0  0  0  0  0  0  0  0  0  0
   -5.3113    3.4484    0.0000 O   0  0  0  0  0  0  0  0  0  0  0  0
   -3.1399    0.0713    0.0000 C   0  0  0  0  0  0  0  0  0  0  0  0
   -1.6727    0.3831    0.0000 O   0  0  0  0  0  0  0  0  0  0  0  0
    0.7500   -3.8971    0.0000 C   0  0  0  0  0  0  0  0  0  0  0  0
    1.5000   -5.1962    0.0000 C   0  0  0  0  0  0  0  0  0  0  0  0
    0.7500   -6.4952    0.0000 C   0  0  0  0  0  0  0  0  0  0  0  0
   -0.7500   -6.4952    0.0000 O   0  0  0  0  0  0  0  0  0  0  0  0
    1.5000   -7.7942    0.0000 O   0  0  0  0  0  0  0  0  0  0  0  0
    1.5000   -2.5981    0.0000 C   0  0  0  0  0  0  0  0  0  0  0  0
    0.7500   -1.2990    0.0000 O   0  0  0  0  0  0  0  0  0  0  0  0
    3.0000   -2.5981    0.0000 C   0  0  0  0  0  0  0  0  0  0  0  0
    3.7500   -1.2990    0.0000 C   0  0  0  0  0  0  0  0  0  0  0  0
    5.2500   -1.2990    0.0000 C   0  0  0  0  0  0  0  0  0  0  0  0
    6.0000   -2.5981    0.0000 C   0  0  0  0  0  0  0  0  0  0  0  0
    5.2500   -3.8971    0.0000 C   0  0  0  0  0  0  0  0  0  0  0  0
    3.7500   -3.8971    0.0000 C   0  0  0  0  0  0  0  0  0  0  0  0
  1  2  1  0
  2  3  1  0
  3  4  1  0
  4  5  2  0
  4  6  1  0
  6  7  1  0
  7  8  1  0
  8  9  1  0
  9 10  1  0
 10 11  2  0
 10 12  1  0
  9 13  1  0
 13 14  2  0
  2 15  2  3
 15 16  1  0
 16 17  1  0
 17 18  2  0
 17 19  1  0
 15 20  1  0
 20 21  2  0
 20 22  1  0
 22 23  1  0
 23 24  2  0
 24 25  1  0
 25 26  2  0
 26 27  1  0
 13  6  1  0
 27 22  1  0
M  END
>  <Title>  (374) 
idAAMLgen8

$$$$

     RDKit          2D

 20 19  0  0  0  0  0  0  0  0999 V2000
    0.0000    0.0000    0.0000 C   0  0  0  0  0  0  0  0  0  0  0  0
    1.2990    0.7500    0.0000 C   0  0  0  0  0  0  0  0  0  0  0  0
    2.5981   -0.0000    0.0000 C   0  0  0  0  0  0  0  0  0  0  0  0
    1.2990    2.2500    0.0000 C   0  0  0  0  0  0  0  0  0  0  0  0
   -0.0000    3.0000    0.0000 C   0  0  0  0  0  0  0  0  0  0  0  0
   -1.2990    2.2500    0.0000 O   0  0  0  0  0  0  0  0  0  0  0  0
   -0.0000    4.5000    0.0000 O   0  0  0  0  0  0  0  0  0  0  0  0
    2.5981    3.0000    0.0000 C   0  0  0  0  0  0  0  0  0  0  0  0
    3.8971    2.2500    0.0000 O   0  0  0  0  0  0  0  0  0  0  0  0
    2.5981    4.5000    0.0000 N   0  0  0  0  0  0  0  0  0  0  0  0
    3.8971    5.2500    0.0000 C   0  0  0  0  0  0  0  0  0  0  0  0
    5.1962    4.5000    0.0000 O   0  0  0  0  0  0  0  0  0  0  0  0
    3.8971    6.7500    0.0000 C   0  0  0  0  0  0  0  0  0  0  0  0
    5.1962    7.5000    0.0000 C   0  0  0  0  0  0  0  0  0  0  0  0
    5.1962    9.0000    0.0000 N   0  0  0  0  0  0  0  0  0  0  0  0
    6.4952    9.7500    0.0000 C   0  0  0  0  0  0  0  0  0  0  0  0
    7.7942    9.0000    0.0000 O   0  0  0  0  0  0  0  0  0  0  0  0
    6.4952   11.2500    0.0000 C   0  0  0  0  0  0  0  0  0  0  0  0
    6.4952   12.7500    0.0000 C   0  0  0  0  0  0  0  0  0  0  0  0
    6.4952   14.2500    0.0000 C   0  0  0  0  0  0  0  0  0  0  0  0
  1  2  2  0
  2  3  1  0
  2  4  1  0
  4  5  1  0
  5  6  2  0
  5  7  1  0
  4  8  1  0
  8  9  2  0
  8 10  1  0
 10 11  1  0
 11 12  2  0
 11 13  1  0
 13 14  1  0
 14 15  1  0
 15 16  1  0
 16 17  2  0
 16 18  1  0
 18 19  3  0
 19 20  1  0
M  END
>  <Title>  (375) 
idAAMMgen8

$$$$

     RDKit          2D

 33 37  0  0  0  0  0  0  0  0999 V2000
   -0.0000   -8.0154    0.0000 C   0  0  0  0  0  0  0  0  0  0  0  0
   -0.0000   -6.5154    0.0000 C   0  0  0  0  0  0  0  0  0  0  0  0
    1.4392   -6.0928    0.0000 C   0  0  0  0  0  0  0  0  0  0  0  0
    2.4215   -4.9592    0.0000 C   0  0  0  0  0  0  0  0  0  0  0  0
    2.6350   -3.4744    0.0000 C   0  0  0  0  0  0  0  0  0  0  0  0
    2.0119   -2.1100    0.0000 C   0  0  0  0  0  0  0  0  0  0  0  0
    3.1455   -1.1277    0.0000 C   0  0  0  0  0  0  0  0  0  0  0  0
    2.8616    0.3452    0.0000 O   0  0  0  0  0  0  0  0  0  0  0  0
    4.5630   -1.6183    0.0000 N   0  0  0  0  0  0  0  0  0  0  0  0
    5.6966   -0.6360    0.0000 C   0  0  0  0  0  0  0  0  0  0  0  0
    7.1141   -1.1266    0.0000 N   0  0  0  0  0  0  0  0  0  0  0  0
    8.2478   -0.1443    0.0000 N   0  0  0  0  0  0  0  0  0  0  0  0
    7.9639    1.3286    0.0000 N   0  0  0  0  0  0  0  0  0  0  0  0
    6.5464    1.8192    0.0000 N   0  0  0  0  0  0  0  0  0  0  0  0
    5.4128    0.8369    0.0000 N   0  0  0  0  0  0  0  0  0  0  0  0
    0.7500   -1.2990    0.0000 C   0  0  0  0  0  0  0  0  0  0  0  0
    1.5000    0.0000    0.0000 C   0  0  0  0  0  0  0  0  0  0  0  0
    0.7500    1.2990    0.0000 C   0  0  0  0  0  0  0  0  0  0  0  0
   -0.7500    1.2990    0.0000 C   0  0  0  0  0  0  0  0  0  0  0  0
   -1.5000    0.0000    0.0000 C   0  0  0  0  0  0  0  0  0  0  0  0
   -0.7500   -1.2990    0.0000 C   0  0  0  0  0  0  0  0  0  0  0  0
   -2.0119   -2.1100    0.0000 C   0  0  0  0  0  0  0  0  0  0  0  0
   -2.8820   -0.8881    0.0000 C   0  0  0  0  0  0  0  0  0  0  0  0
   -4.3752   -1.0307    0.0000 C   0  0  0  0  0  0  0  0  0  0  0  0
   -4.9983   -2.3952    0.0000 C   0  0  0  0  0  0  0  0  0  0  0  0
   -4.1282   -3.6170    0.0000 C   0  0  0  0  0  0  0  0  0  0  0  0
   -2.6350   -3.4744    0.0000 C   0  0  0  0  0  0  0  0  0  0  0  0
   -2.4215   -4.9592    0.0000 C   0  0  0  0  0  0  0  0  0  0  0  0
   -3.8944   -5.2431    0.0000 C   0  0  0  0  0  0  0  0  0  0  0  0
   -4.3850   -6.6606    0.0000 C   0  0  0  0  0  0  0  0  0  0  0  0
   -3.4027   -7.7942    0.0000 C   0  0  0  0  0  0  0  0  0  0  0  0
   -1.9298   -7.5103    0.0000 C   0  0  0  0  0  0  0  0  0  0  0  0
   -1.4392   -6.0928    0.0000 C   0  0  0  0  0  0  0  0  0  0  0  0
  1  2  1  0
  2  3  2  0
  3  4  1  0
  4  5  1  0
  5  6  2  0
  6  7  1  0
  7  8  2  0
  7  9  1  0
  9 10  1  0
 10 11  2  0
 11 12  1  0
 12 13  2  0
 13 14  1  0
 14 15  2  0
  6 16  1  0
 16 17  2  0
 17 18  1  0
 18 19  2  0
 19 20  1  0
 20 21  2  0
 21 22  1  0
 22 23  2  0
 23 24  1  0
 24 25  2  0
 25 26  1  0
 26 27  2  0
 27 28  1  0
 28 29  2  0
 29 30  1  0
 30 31  2  0
 31 32  1  0
 32 33  2  0
 33  2  1  0
 15 10  1  0
 21 16  1  0
 27 22  1  0
 33 28  1  0
M  END
>  <Title>  (376) 
idAAMNgen8

$$$$

     RDKit          2D

  7  7  0  0  0  0  0  0  0  0999 V2000
    4.2760   -0.0000    0.0000 C   0  0  0  0  0  0  0  0  0  0  0  0
    2.7760    0.0000    0.0000 C   0  0  0  0  0  0  0  0  0  0  0  0
    1.2760    0.0000    0.0000 C   0  0  0  0  0  0  0  0  0  0  0  0
    0.3943    1.2135    0.0000 C   0  0  0  0  0  0  0  0  0  0  0  0
   -1.0323    0.7500    0.0000 C   0  0  0  0  0  0  0  0  0  0  0  0
   -1.0323   -0.7500    0.0000 C   0  0  0  0  0  0  0  0  0  0  0  0
    0.3943   -1.2135    0.0000 C   0  0  0  0  0  0  0  0  0  0  0  0
  1  2  3  0
  2  3  1  0
  3  4  2  0
  4  5  1  0
  5  6  1  0
  6  7  2  0
  7  3  1  0
M  END
>  <Title>  (377) 
idAAMOgen8

$$$$

     RDKit          2D

 24 24  0  0  0  0  0  0  0  0999 V2000
    7.0080   -0.0000    0.0000 C   0  0  0  0  0  0  0  0  0  0  0  0
    5.5080    0.0000    0.0000 C   0  0  0  0  0  0  0  0  0  0  0  0
    5.3037    1.4860    0.0000 C   0  0  0  0  0  0  0  0  0  0  0  0
    4.7061    2.8618    0.0000 C   0  0  0  0  0  0  0  0  0  0  0  0
    3.7595    4.0254    0.0000 C   0  0  0  0  0  0  0  0  0  0  0  0
    2.5340    4.8904    0.0000 C   0  0  0  0  0  0  0  0  0  0  0  0
    1.1206    5.3928    0.0000 C   0  0  0  0  0  0  0  0  0  0  0  0
   -0.3759    5.4951    0.0000 C   0  0  0  0  0  0  0  0  0  0  0  0
   -1.8445    5.1899    0.0000 C   0  0  0  0  0  0  0  0  0  0  0  0
   -3.1763    4.4998    0.0000 C   0  0  0  0  0  0  0  0  0  0  0  0
   -4.2726    3.4760    0.0000 C   0  0  0  0  0  0  0  0  0  0  0  0
   -5.0520    2.1944    0.0000 C   0  0  0  0  0  0  0  0  0  0  0  0
   -5.4567    0.7500    0.0000 C   0  0  0  0  0  0  0  0  0  0  0  0
   -5.4567   -0.7500    0.0000 C   0  0  0  0  0  0  0  0  0  0  0  0
   -5.0520   -2.1944    0.0000 C   0  0  0  0  0  0  0  0  0  0  0  0
   -4.2726   -3.4760    0.0000 C   0  0  0  0  0  0  0  0  0  0  0  0
   -3.1763   -4.4998    0.0000 C   0  0  0  0  0  0  0  0  0  0  0  0
   -1.8445   -5.1899    0.0000 C   0  0  0  0  0  0  0  0  0  0  0  0
   -0.3759   -5.4951    0.0000 C   0  0  0  0  0  0  0  0  0  0  0  0
    1.1206   -5.3928    0.0000 C   0  0  0  0  0  0  0  0  0  0  0  0
    2.5340   -4.8904    0.0000 C   0  0  0  0  0  0  0  0  0  0  0  0
    3.7595   -4.0254    0.0000 C   0  0  0  0  0  0  0  0  0  0  0  0
    4.7061   -2.8618    0.0000 C   0  0  0  0  0  0  0  0  0  0  0  0
    5.3037   -1.4860    0.0000 C   0  0  0  0  0  0  0  0  0  0  0  0
  1  2  1  0
  2  3  1  0
  3  4  1  0
  4  5  2  0
  5  6  1  0
  6  7  2  0
  7  8  1  0
  8  9  2  0
  9 10  1  0
 10 11  1  0
 11 12  1  0
 12 13  1  0
 13 14  1  0
 14 15  1  0
 15 16  1  0
 16 17  1  0
 17 18  1  0
 18 19  1  0
 19 20  1  0
 20 21  1  0
 21 22  1  0
 22 23  1  0
 23 24  1  0
 24  2  1  0
M  END
>  <Title>  (378) 
idAAMPgen8

$$$$

     RDKit          2D

  8  8  0  0  0  0  0  0  0  0999 V2000
    3.0000    0.0000    0.0000 C   0  0  0  0  0  0  0  0  0  0  0  0
    1.5000    0.0000    0.0000 C   0  0  0  0  0  0  0  0  0  0  0  0
    0.7500   -1.2990    0.0000 C   0  0  0  0  0  0  0  0  0  0  0  0
   -0.7500   -1.2990    0.0000 C   0  0  0  0  0  0  0  0  0  0  0  0
   -1.5000    0.0000    0.0000 C   0  0  0  0  0  0  0  0  0  0  0  0
   -0.7500    1.2990    0.0000 C   0  0  0  0  0  0  0  0  0  0  0  0
   -1.5000    2.5981    0.0000 C   0  0  0  0  0  0  0  0  0  0  0  0
    0.7500    1.2990    0.0000 N   0  0  0  0  0  0  0  0  0  0  0  0
  1  2  1  0
  2  3  1  0
  3  4  1  0
  4  5  1  0
  5  6  1  0
  6  7  1  0
  6  8  1  0
  8  2  1  0
M  END
>  <Title>  (379) 
idAAMQgen8

$$$$

     RDKit          2D

 15 15  0  0  0  0  0  0  0  0999 V2000
    8.0260   -1.2990    0.0000 C   0  0  0  0  0  0  0  0  0  0  0  0
    6.5260   -1.2990    0.0000 C   0  0  0  0  0  0  0  0  0  0  0  0
    5.0260   -1.2990    0.0000 C   0  0  0  0  0  0  0  0  0  0  0  0
    3.5260   -1.2990    0.0000 C   0  0  0  0  0  0  0  0  0  0  0  0
    2.7760   -2.5981    0.0000 O   0  0  0  0  0  0  0  0  0  0  0  0
    2.7760    0.0000    0.0000 N   0  0  0  0  0  0  0  0  0  0  0  0
    1.2760    0.0000    0.0000 C   0  0  0  0  0  0  0  0  0  0  0  0
    0.3943    1.2135    0.0000 C   0  0  0  0  0  0  0  0  0  0  0  0
   -1.0323    0.7500    0.0000 C   0  0  0  0  0  0  0  0  0  0  0  0
   -1.0323   -0.7500    0.0000 C   0  0  0  0  0  0  0  0  0  0  0  0
   -2.2458   -1.6317    0.0000 C   0  0  0  0  0  0  0  0  0  0  0  0
   -2.0890   -3.1235    0.0000 O   0  0  0  0  0  0  0  0  0  0  0  0
   -3.6161   -1.0216    0.0000 O   0  0  0  0  0  0  0  0  0  0  0  0
    0.3943   -1.2135    0.0000 C   0  0  0  0  0  0  0  0  0  0  0  0
    0.8578   -2.6401    0.0000 O   0  0  0  0  0  0  0  0  0  0  0  0
  1  2  1  0
  2  3  3  0
  3  4  1  0
  4  5  2  0
  4  6  1  0
  6  7  1  0
  7  8  1  0
  8  9  1  0
  9 10  1  0
 10 11  1  0
 11 12  2  0
 11 13  1  0
 10 14  1  0
 14 15  2  0
 14  7  1  0
M  END
>  <Title>  (380) 
idAAMRgen8

$$$$

     RDKit          2D

108110  0  0  0  0  0  0  0  0999 V2000
   -5.5383   -0.4048    0.0000 C   0  0  0  0  0  0  0  0  0  0  0  0
   -5.2078   -1.8679    0.0000 C   0  0  0  0  0  0  0  0  0  0  0  0
   -6.6597   -2.2447    0.0000 C   0  0  0  0  0  0  0  0  0  0  0  0
   -8.0848   -2.7127    0.0000 C   0  0  0  0  0  0  0  0  0  0  0  0
   -9.4774   -3.2702    0.0000 C   0  0  0  0  0  0  0  0  0  0  0  0
  -10.8318   -3.9149    0.0000 C   0  0  0  0  0  0  0  0  0  0  0  0
  -12.1426   -4.6442    0.0000 C   0  0  0  0  0  0  0  0  0  0  0  0
  -13.4044   -5.4552    0.0000 C   0  0  0  0  0  0  0  0  0  0  0  0
  -14.6123   -6.3445    0.0000 C   0  0  0  0  0  0  0  0  0  0  0  0
  -15.7614   -7.3087    0.0000 C   0  0  0  0  0  0  0  0  0  0  0  0
  -16.8470   -8.3438    0.0000 C   0  0  0  0  0  0  0  0  0  0  0  0
  -17.8648   -9.4457    0.0000 C   0  0  0  0  0  0  0  0  0  0  0  0
  -18.8106  -10.6099    0.0000 C   0  0  0  0  0  0  0  0  0  0  0  0
  -19.6807  -11.8318    0.0000 C   0  0  0  0  0  0  0  0  0  0  0  0
  -20.4715  -13.1064    0.0000 C   0  0  0  0  0  0  0  0  0  0  0  0
  -21.1799  -14.4286    0.0000 C   0  0  0  0  0  0  0  0  0  0  0  0
  -21.8031  -15.7930    0.0000 C   0  0  0  0  0  0  0  0  0  0  0  0
  -22.3384  -17.1942    0.0000 C   0  0  0  0  0  0  0  0  0  0  0  0
  -22.7838  -18.6266    0.0000 C   0  0  0  0  0  0  0  0  0  0  0  0
  -23.1374  -20.0843    0.0000 C   0  0  0  0  0  0  0  0  0  0  0  0
  -23.3979  -21.5615    0.0000 C   0  0  0  0  0  0  0  0  0  0  0  0
  -23.5641  -23.0523    0.0000 C   0  0  0  0  0  0  0  0  0  0  0  0
  -23.6355  -24.5506    0.0000 C   0  0  0  0  0  0  0  0  0  0  0  0
  -23.6117  -26.0504    0.0000 C   0  0  0  0  0  0  0  0  0  0  0  0
  -23.4928  -27.5457    0.0000 C   0  0  0  0  0  0  0  0  0  0  0  0
  -23.2794  -29.0304    0.0000 C   0  0  0  0  0  0  0  0  0  0  0  0
  -22.9721  -30.4986    0.0000 C   0  0  0  0  0  0  0  0  0  0  0  0
  -22.5724  -31.9444    0.0000 C   0  0  0  0  0  0  0  0  0  0  0  0
  -22.0818  -33.3619    0.0000 C   0  0  0  0  0  0  0  0  0  0  0  0
  -21.5023  -34.7454    0.0000 C   0  0  0  0  0  0  0  0  0  0  0  0
  -20.8362  -36.0894    0.0000 C   0  0  0  0  0  0  0  0  0  0  0  0
  -20.0862  -37.3884    0.0000 C   0  0  0  0  0  0  0  0  0  0  0  0
  -19.2553  -38.6373    0.0000 C   0  0  0  0  0  0  0  0  0  0  0  0
  -18.3469  -39.8309    0.0000 C   0  0  0  0  0  0  0  0  0  0  0  0
  -17.3646  -40.9645    0.0000 C   0  0  0  0  0  0  0  0  0  0  0  0
  -16.3124  -42.0336    0.0000 C   0  0  0  0  0  0  0  0  0  0  0  0
  -15.1945  -43.0337    0.0000 C   0  0  0  0  0  0  0  0  0  0  0  0
  -14.0154  -43.9610    0.0000 C   0  0  0  0  0  0  0  0  0  0  0  0
  -12.7799  -44.8116    0.0000 C   0  0  0  0  0  0  0  0  0  0  0  0
  -11.4929  -45.5821    0.0000 C   0  0  0  0  0  0  0  0  0  0  0  0
  -10.1597  -46.2694    0.0000 C   0  0  0  0  0  0  0  0  0  0  0  0
   -8.7855  -46.8708    0.0000 C   0  0  0  0  0  0  0  0  0  0  0  0
   -7.3760  -47.3838    0.0000 C   0  0  0  0  0  0  0  0  0  0  0  0
   -5.9368  -47.8064    0.0000 C   0  0  0  0  0  0  0  0  0  0  0  0
   -4.4736  -48.1369    0.0000 C   0  0  0  0  0  0  0  0  0  0  0  0
   -2.9925  -48.3739    0.0000 C   0  0  0  0  0  0  0  0  0  0  0  0
   -1.4992  -48.5165    0.0000 C   0  0  0  0  0  0  0  0  0  0  0  0
   -0.0000  -48.5641    0.0000 C   0  0  0  0  0  0  0  0  0  0  0  0
    1.4992  -48.5165    0.0000 C   0  0  0  0  0  0  0  0  0  0  0  0
    2.9925  -48.3739    0.0000 C   0  0  0  0  0  0  0  0  0  0  0  0
    4.4736  -48.1369    0.0000 C   0  0  0  0  0  0  0  0  0  0  0  0
    5.9368  -47.8064    0.0000 C   0  0  0  0  0  0  0  0  0  0  0  0
    7.3760  -47.3838    0.0000 C   0  0  0  0  0  0  0  0  0  0  0  0
    8.7855  -46.8708    0.0000 C   0  0  0  0  0  0  0  0  0  0  0  0
   10.1597  -46.2694    0.0000 C   0  0  0  0  0  0  0  0  0  0  0  0
   11.4929  -45.5821    0.0000 C   0  0  0  0  0  0  0  0  0  0  0  0
   12.7799  -44.8116    0.0000 C   0  0  0  0  0  0  0  0  0  0  0  0
   14.0154  -43.9610    0.0000 C   0  0  0  0  0  0  0  0  0  0  0  0
   15.1945  -43.0337    0.0000 C   0  0  0  0  0  0  0  0  0  0  0  0
   16.3124  -42.0336    0.0000 C   0  0  0  0  0  0  0  0  0  0  0  0
   17.3646  -40.9645    0.0000 C   0  0  0  0  0  0  0  0  0  0  0  0
   18.3469  -39.8309    0.0000 C   0  0  0  0  0  0  0  0  0  0  0  0
   19.2553  -38.6373    0.0000 C   0  0  0  0  0  0  0  0  0  0  0  0
   20.0862  -37.3884    0.0000 C   0  0  0  0  0  0  0  0  0  0  0  0
   20.8362  -36.0894    0.0000 C   0  0  0  0  0  0  0  0  0  0  0  0
   21.5023  -34.7454    0.0000 C   0  0  0  0  0  0  0  0  0  0  0  0
   22.0818  -33.3619    0.0000 C   0  0  0  0  0  0  0  0  0  0  0  0
   22.5724  -31.9444    0.0000 C   0  0  0  0  0  0  0  0  0  0  0  0
   22.9721  -30.4986    0.0000 C   0  0  0  0  0  0  0  0  0  0  0  0
   23.2794  -29.0304    0.0000 C   0  0  0  0  0  0  0  0  0  0  0  0
   23.4928  -27.5457    0.0000 C   0  0  0  0  0  0  0  0  0  0  0  0
   23.6117  -26.0504    0.0000 C   0  0  0  0  0  0  0  0  0  0  0  0
   23.6355  -24.5506    0.0000 C   0  0  0  0  0  0  0  0  0  0  0  0
   23.5641  -23.0523    0.0000 C   0  0  0  0  0  0  0  0  0  0  0  0
   23.3979  -21.5615    0.0000 C   0  0  0  0  0  0  0  0  0  0  0  0
   23.1374  -20.0843    0.0000 C   0  0  0  0  0  0  0  0  0  0  0  0
   22.7838  -18.6266    0.0000 C   0  0  0  0  0  0  0  0  0  0  0  0
   22.3384  -17.1942    0.0000 C   0  0  0  0  0  0  0  0  0  0  0  0
   21.8031  -15.7930    0.0000 C   0  0  0  0  0  0  0  0  0  0  0  0
   21.1799  -14.4286    0.0000 C   0  0  0  0  0  0  0  0  0  0  0  0
   20.4715  -13.1064    0.0000 C   0  0  0  0  0  0  0  0  0  0  0  0
   19.6807  -11.8318    0.0000 C   0  0  0  0  0  0  0  0  0  0  0  0
   18.8106  -10.6099    0.0000 C   0  0  0  0  0  0  0  0  0  0  0  0
   17.8648   -9.4457    0.0000 C   0  0  0  0  0  0  0  0  0  0  0  0
   16.8470   -8.3438    0.0000 C   0  0  0  0  0  0  0  0  0  0  0  0
   15.7614   -7.3087    0.0000 C   0  0  0  0  0  0  0  0  0  0  0  0
   14.6123   -6.3445    0.0000 C   0  0  0  0  0  0  0  0  0  0  0  0
   13.4044   -5.4552    0.0000 C   0  0  0  0  0  0  0  0  0  0  0  0
   12.1426   -4.6442    0.0000 C   0  0  0  0  0  0  0  0  0  0  0  0
   10.8318   -3.9149    0.0000 C   0  0  0  0  0  0  0  0  0  0  0  0
    9.4774   -3.2702    0.0000 C   0  0  0  0  0  0  0  0  0  0  0  0
    8.0848   -2.7127    0.0000 C   0  0  0  0  0  0  0  0  0  0  0  0
    6.6597   -2.2447    0.0000 C   0  0  0  0  0  0  0  0  0  0  0  0
    5.2078   -1.8679    0.0000 C   0  0  0  0  0  0  0  0  0  0  0  0
    3.7349   -1.5841    0.0000 C   0  0  0  0  0  0  0  0  0  0  0  0
    2.2470   -1.3942    0.0000 C   0  0  0  0  0  0  0  0  0  0  0  0
    0.7500   -1.2990    0.0000 C   0  0  0  0  0  0  0  0  0  0  0  0
    1.5000    0.0000    0.0000 C   0  0  0  0  0  0  0  0  0  0  0  0
    0.7500    1.2990    0.0000 C   0  0  0  0  0  0  0  0  0  0  0  0
   -0.7500    1.2990    0.0000 C   0  0  0  0  0  0  0  0  0  0  0  0
   -1.5000    0.0000    0.0000 C   0  0  0  0  0  0  0  0  0  0  0  0
   -0.7500   -1.2990    0.0000 C   0  0  0  0  0  0  0  0  0  0  0  0
   -2.2470   -1.3942    0.0000 C   0  0  0  0  0  0  0  0  0  0  0  0
   -1.3386   -2.5878    0.0000 C   0  0  0  0  0  0  0  0  0  0  0  0
   -1.9181   -3.9713    0.0000 C   0  0  0  0  0  0  0  0  0  0  0  0
   -3.4060   -4.1612    0.0000 C   0  0  0  0  0  0  0  0  0  0  0  0
   -4.3144   -2.9676    0.0000 C   0  0  0  0  0  0  0  0  0  0  0  0
   -3.7349   -1.5841    0.0000 C   0  0  0  0  0  0  0  0  0  0  0  0
  1  2  1  0
  2  3  1  0
  3  4  1  0
  4  5  1  0
  5  6  1  0
  6  7  1  0
  7  8  1  0
  8  9  1  0
  9 10  1  0
 10 11  1  0
 11 12  1  0
 12 13  1  0
 13 14  1  0
 14 15  1  0
 15 16  1  0
 16 17  1  0
 17 18  1  0
 18 19  1  0
 19 20  1  0
 20 21  1  0
 21 22  1  0
 22 23  1  0
 23 24  1  0
 24 25  1  0
 25 26  1  0
 26 27  1  0
 27 28  1  0
 28 29  1  0
 29 30  1  0
 30 31  1  0
 31 32  1  0
 32 33  1  0
 33 34  1  0
 34 35  1  0
 35 36  1  0
 36 37  1  0
 37 38  1  0
 38 39  1  0
 39 40  1  0
 40 41  1  0
 41 42  1  0
 42 43  1  0
 43 44  1  0
 44 45  1  0
 45 46  1  0
 46 47  1  0
 47 48  1  0
 48 49  1  0
 49 50  1  0
 50 51  1  0
 51 52  1  0
 52 53  1  0
 53 54  1  0
 54 55  1  0
 55 56  1  0
 56 57  1  0
 57 58  1  0
 58 59  1  0
 59 60  1  0
 60 61  1  0
 61 62  1  0
 62 63  1  0
 63 64  1  0
 64 65  1  0
 65 66  1  0
 66 67  1  0
 67 68  1  0
 68 69  1  0
 69 70  1  0
 70 71  1  0
 71 72  1  0
 72 73  1  0
 73 74  1  0
 74 75  1  0
 75 76  1  0
 76 77  1  0
 77 78  1  0
 78 79  1  0
 79 80  1  0
 80 81  1  0
 81 82  1  0
 82 83  1  0
 83 84  1  0
 84 85  1  0
 85 86  1  0
 86 87  1  0
 87 88  1  0
 88 89  1  0
 89 90  1  0
 90 91  1  0
 91 92  1  0
 92 93  1  0
 93 94  1  0
 94 95  1  0
 95 96  1  0
 96 97  1  0
 97 98  2  0
 98 99  1  0
 99100  2  0
100101  1  0
101102  2  0
102103  1  0
103104  2  0
104105  1  0
105106  2  0
106107  1  0
107108  2  0
108  2  1  0
102 97  1  0
108103  1  0
M  END
>  <Title>  (381) 
idAAMSgen8

$$$$

     RDKit          2D

 62 70  0  0  0  0  0  0  0  0999 V2000
   -3.0061   14.0456    0.0000 C   0  0  0  0  0  0  0  0  0  0  0  0
   -2.0709   12.8728    0.0000 C   0  0  0  0  0  0  0  0  0  0  0  0
   -0.5877   13.0964    0.0000 O   0  0  0  0  0  0  0  0  0  0  0  0
   -2.6189   11.4765    0.0000 C   0  0  0  0  0  0  0  0  0  0  0  0
   -1.6837   10.3038    0.0000 C   0  0  0  0  0  0  0  0  0  0  0  0
   -0.3846   11.0538    0.0000 C   0  0  0  0  0  0  0  0  0  0  0  0
    1.0777   11.3876    0.0000 C   0  0  0  0  0  0  0  0  0  0  0  0
    2.5736   11.2755    0.0000 C   0  0  0  0  0  0  0  0  0  0  0  0
    2.9073   12.7379    0.0000 C   0  0  0  0  0  0  0  0  0  0  0  0
    4.3407   13.1800    0.0000 O   0  0  0  0  0  0  0  0  0  0  0  0
    1.8078   13.7581    0.0000 O   0  0  0  0  0  0  0  0  0  0  0  0
    3.9699   10.7275    0.0000 C   0  0  0  0  0  0  0  0  0  0  0  0
    4.7199   12.0265    0.0000 O   0  0  0  0  0  0  0  0  0  0  0  0
    5.1426    9.7922    0.0000 C   0  0  0  0  0  0  0  0  0  0  0  0
    5.7934   11.1437    0.0000 C   0  0  0  0  0  0  0  0  0  0  0  0
    7.2892   11.2558    0.0000 C   0  0  0  0  0  0  0  0  0  0  0  0
    8.1342   10.0164    0.0000 C   0  0  0  0  0  0  0  0  0  0  0  0
    7.4834    8.6650    0.0000 C   0  0  0  0  0  0  0  0  0  0  0  0
    5.9876    8.5529    0.0000 C   0  0  0  0  0  0  0  0  0  0  0  0
    6.4297    7.1195    0.0000 C   0  0  0  0  0  0  0  0  0  0  0  0
    7.7288    7.8695    0.0000 C   0  0  0  0  0  0  0  0  0  0  0  0
    9.0278    7.1195    0.0000 C   0  0  0  0  0  0  0  0  0  0  0  0
    9.0278    5.6195    0.0000 C   0  0  0  0  0  0  0  0  0  0  0  0
    7.7288    4.8695    0.0000 C   0  0  0  0  0  0  0  0  0  0  0  0
    6.4297    5.6195    0.0000 C   0  0  0  0  0  0  0  0  0  0  0  0
    5.9876    4.1862    0.0000 C   0  0  0  0  0  0  0  0  0  0  0  0
    7.4834    4.0741    0.0000 C   0  0  0  0  0  0  0  0  0  0  0  0
    8.1342    2.7226    0.0000 C   0  0  0  0  0  0  0  0  0  0  0  0
    7.2892    1.4832    0.0000 C   0  0  0  0  0  0  0  0  0  0  0  0
    5.7934    1.5953    0.0000 C   0  0  0  0  0  0  0  0  0  0  0  0
    5.1426    2.9468    0.0000 C   0  0  0  0  0  0  0  0  0  0  0  0
    3.9699    2.0116    0.0000 C   0  0  0  0  0  0  0  0  0  0  0  0
    5.1426    1.0763    0.0000 C   0  0  0  0  0  0  0  0  0  0  0  0
    4.9190   -0.4069    0.0000 C   0  0  0  0  0  0  0  0  0  0  0  0
    3.5227   -0.9549    0.0000 C   0  0  0  0  0  0  0  0  0  0  0  0
    2.3500   -0.0197    0.0000 C   0  0  0  0  0  0  0  0  0  0  0  0
    2.5736    1.4635    0.0000 C   0  0  0  0  0  0  0  0  0  0  0  0
    1.0777    1.3515    0.0000 C   0  0  0  0  0  0  0  0  0  0  0  0
    1.0286   -0.0000    0.0000 C   0  0  0  0  0  0  0  0  0  0  0  0
    0.6413   -0.8042    0.0000 C   0  0  0  0  0  0  0  0  0  0  0  0
   -0.2289   -1.0028    0.0000 C   0  0  0  0  0  0  0  0  0  0  0  0
   -0.9267   -0.4463    0.0000 C   0  0  0  0  0  0  0  0  0  0  0  0
   -0.9267    0.4463    0.0000 C   0  0  0  0  0  0  0  0  0  0  0  0
   -0.3846    1.6852    0.0000 C   0  0  0  0  0  0  0  0  0  0  0  0
   -1.6837    2.4352    0.0000 C   0  0  0  0  0  0  0  0  0  0  0  0
   -2.1258    1.0019    0.0000 C   0  0  0  0  0  0  0  0  0  0  0  0
   -3.5882    0.6681    0.0000 C   0  0  0  0  0  0  0  0  0  0  0  0
   -4.6085    1.7677    0.0000 C   0  0  0  0  0  0  0  0  0  0  0  0
   -4.1663    3.2010    0.0000 C   0  0  0  0  0  0  0  0  0  0  0  0
   -2.7039    3.5348    0.0000 C   0  0  0  0  0  0  0  0  0  0  0  0
   -3.3548    4.8863    0.0000 C   0  0  0  0  0  0  0  0  0  0  0  0
   -4.5275    3.9510    0.0000 C   0  0  0  0  0  0  0  0  0  0  0  0
   -5.9238    4.4990    0.0000 C   0  0  0  0  0  0  0  0  0  0  0  0
   -6.1474    5.9823    0.0000 C   0  0  0  0  0  0  0  0  0  0  0  0
   -4.9746    6.9175    0.0000 C   0  0  0  0  0  0  0  0  0  0  0  0
   -3.5783    6.3695    0.0000 C   0  0  0  0  0  0  0  0  0  0  0  0
   -3.3548    7.8528    0.0000 C   0  0  0  0  0  0  0  0  0  0  0  0
   -4.8506    7.7407    0.0000 C   0  0  0  0  0  0  0  0  0  0  0  0
   -5.6956    8.9800    0.0000 C   0  0  0  0  0  0  0  0  0  0  0  0
   -5.0447   10.3315    0.0000 C   0  0  0  0  0  0  0  0  0  0  0  0
   -3.5489   10.4436    0.0000 C   0  0  0  0  0  0  0  0  0  0  0  0
   -2.7039    9.2042    0.0000 C   0  0  0  0  0  0  0  0  0  0  0  0
  1  2  1  0
  2  3  2  0
  2  4  1  0
  4  5  1  0
  5  6  1  0
  6  7  1  0
  7  8  1  0
  8  9  1  0
  9 10  2  0
  9 11  1  0
  8 12  1  0
 12 13  2  0
 12 14  1  0
 14 15  2  0
 15 16  1  0
 16 17  2  0
 17 18  1  0
 18 19  2  0
 19 20  1  0
 20 21  2  0
 21 22  1  0
 22 23  2  0
 23 24  1  0
 24 25  2  0
 25 26  1  0
 26 27  2  0
 27 28  1  0
 28 29  2  0
 29 30  1  0
 30 31  2  0
 31 32  1  0
 32 33  2  0
 33 34  1  0
 34 35  2  0
 35 36  1  0
 36 37  2  0
 37 38  1  0
 38 39  2  0
 39 40  1  0
 40 41  1  0
 41 42  1  0
 42 43  1  0
 43 44  2  0
 44 45  1  0
 45 46  2  0
 46 47  1  0
 47 48  2  0
 48 49  1  0
 49 50  2  0
 50 51  1  0
 51 52  2  0
 52 53  1  0
 53 54  2  0
 54 55  1  0
 55 56  2  0
 56 57  1  0
 57 58  2  0
 58 59  1  0
 59 60  2  0
 60 61  1  0
 61 62  2  0
 62  5  1  0
 19 14  1  0
 25 20  1  0
 31 26  1  0
 37 32  1  0
 44 38  1  0
 50 45  1  0
 56 51  1  0
 62 57  1  0
M  END
>  <Title>  (382) 
idAAMTgen8

$$$$

     RDKit          2D

  6  6  0  0  0  0  0  0  0  0999 V2000
    2.7760    0.0000    0.0000 O   0  0  0  0  0  0  0  0  0  0  0  0
    1.2760    0.0000    0.0000 C   0  0  0  0  0  0  0  0  0  0  0  0
    0.3943    1.2135    0.0000 C   0  0  0  0  0  0  0  0  0  0  0  0
   -1.0323    0.7500    0.0000 C   0  0  0  0  0  0  0  0  0  0  0  0
   -1.0323   -0.7500    0.0000 C   0  0  0  0  0  0  0  0  0  0  0  0
    0.3943   -1.2135    0.0000 C   0  0  0  0  0  0  0  0  0  0  0  0
  1  2  1  0
  2  3  1  0
  3  4  1  0
  4  5  2  0
  5  6  1  0
  6  2  1  0
M  END
>  <Title>  (383) 
idAAMUgen8

$$$$

     RDKit          2D

 49 55  0  0  0  0  0  0  0  0999 V2000
    5.2993  -10.6623    0.0000 C   0  0  0  0  0  0  0  0  0  0  0  0
    4.4660   -9.4151    0.0000 C   0  0  0  0  0  0  0  0  0  0  0  0
    2.9692   -9.5132    0.0000 C   0  0  0  0  0  0  0  0  0  0  0  0
    2.1358   -8.2660    0.0000 C   0  0  0  0  0  0  0  0  0  0  0  0
    3.1965   -7.2054    0.0000 C   0  0  0  0  0  0  0  0  0  0  0  0
    3.7705   -5.8195    0.0000 C   0  0  0  0  0  0  0  0  0  0  0  0
    3.7705   -4.3195    0.0000 C   0  0  0  0  0  0  0  0  0  0  0  0
    5.2417   -4.0269    0.0000 O   0  0  0  0  0  0  0  0  0  0  0  0
    3.1965   -2.9337    0.0000 C   0  0  0  0  0  0  0  0  0  0  0  0
    2.1358   -1.8731    0.0000 C   0  0  0  0  0  0  0  0  0  0  0  0
    2.9692   -0.6259    0.0000 C   0  0  0  0  0  0  0  0  0  0  0  0
    2.3057    0.7195    0.0000 O   0  0  0  0  0  0  0  0  0  0  0  0
    4.4660   -0.7240    0.0000 N   0  0  0  0  0  0  0  0  0  0  0  0
    5.2993    0.5232    0.0000 C   0  0  0  0  0  0  0  0  0  0  0  0
    6.7961    0.4251    0.0000 N   0  0  0  0  0  0  0  0  0  0  0  0
    7.6295    1.6723    0.0000 N   0  0  0  0  0  0  0  0  0  0  0  0
    6.9660    3.0176    0.0000 N   0  0  0  0  0  0  0  0  0  0  0  0
    5.4692    3.1158    0.0000 N   0  0  0  0  0  0  0  0  0  0  0  0
    4.6359    1.8686    0.0000 N   0  0  0  0  0  0  0  0  0  0  0  0
    0.7500   -1.2990    0.0000 C   0  0  0  0  0  0  0  0  0  0  0  0
    1.5000    0.0000    0.0000 C   0  0  0  0  0  0  0  0  0  0  0  0
    0.7500    1.2990    0.0000 C   0  0  0  0  0  0  0  0  0  0  0  0
   -0.7500    1.2990    0.0000 C   0  0  0  0  0  0  0  0  0  0  0  0
   -1.5000    0.0000    0.0000 C   0  0  0  0  0  0  0  0  0  0  0  0
   -0.7500   -1.2990    0.0000 C   0  0  0  0  0  0  0  0  0  0  0  0
   -2.1358   -1.8731    0.0000 C   0  0  0  0  0  0  0  0  0  0  0  0
   -2.5240   -0.4242    0.0000 C   0  0  0  0  0  0  0  0  0  0  0  0
   -3.9729   -0.0359    0.0000 C   0  0  0  0  0  0  0  0  0  0  0  0
   -5.0336   -1.0966    0.0000 C   0  0  0  0  0  0  0  0  0  0  0  0
   -4.6454   -2.5455    0.0000 C   0  0  0  0  0  0  0  0  0  0  0  0
   -3.1965   -2.9337    0.0000 C   0  0  0  0  0  0  0  0  0  0  0  0
   -3.7705   -4.3195    0.0000 C   0  0  0  0  0  0  0  0  0  0  0  0
   -5.0695   -3.5695    0.0000 C   0  0  0  0  0  0  0  0  0  0  0  0
   -6.3686   -4.3195    0.0000 C   0  0  0  0  0  0  0  0  0  0  0  0
   -6.3686   -5.8195    0.0000 C   0  0  0  0  0  0  0  0  0  0  0  0
   -5.0695   -6.5695    0.0000 C   0  0  0  0  0  0  0  0  0  0  0  0
   -3.7705   -5.8195    0.0000 C   0  0  0  0  0  0  0  0  0  0  0  0
   -3.1965   -7.2054    0.0000 C   0  0  0  0  0  0  0  0  0  0  0  0
   -4.6454   -7.5936    0.0000 C   0  0  0  0  0  0  0  0  0  0  0  0
   -5.0336   -9.0425    0.0000 C   0  0  0  0  0  0  0  0  0  0  0  0
   -3.9729  -10.1031    0.0000 C   0  0  0  0  0  0  0  0  0  0  0  0
   -2.5240   -9.7149    0.0000 C   0  0  0  0  0  0  0  0  0  0  0  0
   -2.1358   -8.2660    0.0000 C   0  0  0  0  0  0  0  0  0  0  0  0
   -0.7500   -8.8400    0.0000 C   0  0  0  0  0  0  0  0  0  0  0  0
   -1.5000  -10.1391    0.0000 C   0  0  0  0  0  0  0  0  0  0  0  0
   -0.7500  -11.4381    0.0000 C   0  0  0  0  0  0  0  0  0  0  0  0
    0.7500  -11.4381    0.0000 C   0  0  0  0  0  0  0  0  0  0  0  0
    1.5000  -10.1391    0.0000 C   0  0  0  0  0  0  0  0  0  0  0  0
    0.7500   -8.8400    0.0000 C   0  0  0  0  0  0  0  0  0  0  0  0
  1  2  1  0
  2  3  1  0
  3  4  1  0
  4  5  2  0
  5  6  1  0
  6  7  1  0
  7  8  1  0
  7  9  1  0
  9 10  1  0
 10 11  1  0
 11 12  2  0
 11 13  1  0
 13 14  1  0
 14 15  2  0
 15 16  1  0
 16 17  2  0
 17 18  1  0
 18 19  2  0
 10 20  1  0
 20 21  2  0
 21 22  1  0
 22 23  2  0
 23 24  1  0
 24 25  2  0
 25 26  1  0
 26 27  2  0
 27 28  1  0
 28 29  2  0
 29 30  1  0
 30 31  2  0
 31 32  1  0
 32 33  2  0
 33 34  1  0
 34 35  2  0
 35 36  1  0
 36 37  2  0
 37 38  1  0
 38 39  2  0
 39 40  1  0
 40 41  2  0
 41 42  1  0
 42 43  2  0
 43 44  1  0
 44 45  2  0
 45 46  1  0
 46 47  2  0
 47 48  1  0
 48 49  2  0
 49  4  1  0
 19 14  1  0
 25 20  1  0
 31 26  1  0
 37 32  1  0
 43 38  1  0
 49 44  1  0
M  END
>  <Title>  (384) 
idAAMVgen8

$$$$

     RDKit          2D

 20 22  0  0  0  0  0  0  0  0999 V2000
   -3.0000   -2.5981    0.0000 C   0  0  0  0  0  0  0  0  0  0  0  0
   -1.5000   -2.5981    0.0000 C   0  0  0  0  0  0  0  0  0  0  0  0
   -0.7500   -3.8971    0.0000 C   0  0  0  0  0  0  0  0  0  0  0  0
    0.7500   -3.8971    0.0000 C   0  0  0  0  0  0  0  0  0  0  0  0
    1.5000   -2.5981    0.0000 C   0  0  0  0  0  0  0  0  0  0  0  0
    3.0000   -2.5981    0.0000 C   0  0  0  0  0  0  0  0  0  0  0  0
    3.7500   -1.2990    0.0000 O   0  0  0  0  0  0  0  0  0  0  0  0
    3.7500   -3.8971    0.0000 N   0  0  0  0  0  0  0  0  0  0  0  0
    5.2500   -3.8971    0.0000 C   0  0  0  0  0  0  0  0  0  0  0  0
    6.0000   -5.1962    0.0000 N   0  0  0  0  0  0  0  0  0  0  0  0
    7.5000   -5.1962    0.0000 N   0  0  0  0  0  0  0  0  0  0  0  0
    8.2500   -3.8971    0.0000 N   0  0  0  0  0  0  0  0  0  0  0  0
    7.5000   -2.5981    0.0000 N   0  0  0  0  0  0  0  0  0  0  0  0
    6.0000   -2.5981    0.0000 N   0  0  0  0  0  0  0  0  0  0  0  0
    0.7500   -1.2990    0.0000 C   0  0  0  0  0  0  0  0  0  0  0  0
    1.5000    0.0000    0.0000 C   0  0  0  0  0  0  0  0  0  0  0  0
    0.7500    1.2990    0.0000 C   0  0  0  0  0  0  0  0  0  0  0  0
   -0.7500    1.2990    0.0000 C   0  0  0  0  0  0  0  0  0  0  0  0
   -1.5000    0.0000    0.0000 C   0  0  0  0  0  0  0  0  0  0  0  0
   -0.7500   -1.2990    0.0000 C   0  0  0  0  0  0  0  0  0  0  0  0
  1  2  1  0
  2  3  2  0
  3  4  1  0
  4  5  1  0
  5  6  1  0
  6  7  2  0
  6  8  1  0
  8  9  1  0
  9 10  2  0
 10 11  1  0
 11 12  2  0
 12 13  1  0
 13 14  2  0
  5 15  1  0
 15 16  2  0
 16 17  1  0
 17 18  2  0
 18 19  1  0
 19 20  2  0
 20  2  1  0
 14  9  1  0
 20 15  1  0
M  END
>  <Title>  (385) 
idAAMWgen8

$$$$

     RDKit          2D

 13 13  0  0  0  0  0  0  0  0999 V2000
    7.5000   -2.5981    0.0000 C   0  0  0  0  0  0  0  0  0  0  0  0
    6.0000   -2.5981    0.0000 C   0  0  0  0  0  0  0  0  0  0  0  0
    5.2500   -1.2990    0.0000 C   0  0  0  0  0  0  0  0  0  0  0  0
    3.7500   -1.2990    0.0000 C   0  0  0  0  0  0  0  0  0  0  0  0
    3.0000   -2.5981    0.0000 O   0  0  0  0  0  0  0  0  0  0  0  0
    3.0000    0.0000    0.0000 N   0  0  0  0  0  0  0  0  0  0  0  0
    1.5000    0.0000    0.0000 C   0  0  0  0  0  0  0  0  0  0  0  0
    0.7500   -1.2990    0.0000 C   0  0  0  0  0  0  0  0  0  0  0  0
   -0.7500   -1.2990    0.0000 C   0  0  0  0  0  0  0  0  0  0  0  0
   -1.5000    0.0000    0.0000 C   0  0  0  0  0  0  0  0  0  0  0  0
   -3.0000    0.0000    0.0000 O   0  0  0  0  0  0  0  0  0  0  0  0
   -0.7500    1.2990    0.0000 C   0  0  0  0  0  0  0  0  0  0  0  0
    0.7500    1.2990    0.0000 C   0  0  0  0  0  0  0  0  0  0  0  0
  1  2  1  0
  2  3  2  3
  3  4  1  0
  4  5  2  0
  4  6  1  0
  6  7  1  0
  7  8  2  0
  8  9  1  0
  9 10  1  0
 10 11  1  0
 10 12  1  0
 12 13  1  0
 13  7  1  0
M  END
>  <Title>  (386) 
idAAMXgen8

$$$$

     RDKit          2D

 10 10  0  0  0  0  0  0  0  0999 V2000
    3.0000    0.0000    0.0000 C   0  0  0  0  0  0  0  0  0  0  0  0
    1.5000    0.0000    0.0000 C   0  0  0  0  0  0  0  0  0  0  0  0
    0.7500   -1.2990    0.0000 C   0  0  0  0  0  0  0  0  0  0  0  0
   -0.7500   -1.2990    0.0000 C   0  0  0  0  0  0  0  0  0  0  0  0
   -1.5000    0.0000    0.0000 C   0  0  0  0  0  0  0  0  0  0  0  0
   -0.7500    1.2990    0.0000 C   0  0  0  0  0  0  0  0  0  0  0  0
   -1.5000    2.5981    0.0000 C   0  0  0  0  0  0  0  0  0  0  0  0
   -0.7500    3.8971    0.0000 C   0  0  0  0  0  0  0  0  0  0  0  0
   -3.0000    2.5981    0.0000 C   0  0  0  0  0  0  0  0  0  0  0  0
    0.7500    1.2990    0.0000 C   0  0  0  0  0  0  0  0  0  0  0  0
  1  2  1  0
  2  3  2  0
  3  4  1  0
  4  5  1  0
  5  6  1  0
  6  7  1  0
  7  8  1  0
  7  9  1  0
  6 10  1  0
 10  2  1  0
M  END
>  <Title>  (387) 
idAAMYgen8

$$$$

     RDKit          2D

 39 39  0  0  0  0  0  0  0  0999 V2000
   10.5822    0.0000    0.0000 C   0  0  0  0  0  0  0  0  0  0  0  0
    9.0822    0.0000    0.0000 C   0  0  0  0  0  0  0  0  0  0  0  0
    8.9583   -1.4949    0.0000 C   0  0  0  0  0  0  0  0  0  0  0  0
    8.5901   -2.9490    0.0000 C   0  0  0  0  0  0  0  0  0  0  0  0
    7.9875   -4.3226    0.0000 C   0  0  0  0  0  0  0  0  0  0  0  0
    7.1671   -5.5784    0.0000 C   0  0  0  0  0  0  0  0  0  0  0  0
    6.1512   -6.6820    0.0000 C   0  0  0  0  0  0  0  0  0  0  0  0
    4.9675   -7.6033    0.0000 C   0  0  0  0  0  0  0  0  0  0  0  0
    3.6483   -8.3172    0.0000 C   0  0  0  0  0  0  0  0  0  0  0  0
    2.2295   -8.8043    0.0000 C   0  0  0  0  0  0  0  0  0  0  0  0
    0.7500   -9.0512    0.0000 C   0  0  0  0  0  0  0  0  0  0  0  0
   -0.7500   -9.0512    0.0000 C   0  0  0  0  0  0  0  0  0  0  0  0
   -2.2295   -8.8043    0.0000 C   0  0  0  0  0  0  0  0  0  0  0  0
   -3.6483   -8.3172    0.0000 C   0  0  0  0  0  0  0  0  0  0  0  0
   -4.9675   -7.6033    0.0000 C   0  0  0  0  0  0  0  0  0  0  0  0
   -6.1512   -6.6820    0.0000 C   0  0  0  0  0  0  0  0  0  0  0  0
   -7.1671   -5.5784    0.0000 C   0  0  0  0  0  0  0  0  0  0  0  0
   -7.9875   -4.3226    0.0000 C   0  0  0  0  0  0  0  0  0  0  0  0
   -8.5901   -2.9490    0.0000 C   0  0  0  0  0  0  0  0  0  0  0  0
   -8.9583   -1.4949    0.0000 C   0  0  0  0  0  0  0  0  0  0  0  0
   -9.0822    0.0000    0.0000 C   0  0  0  0  0  0  0  0  0  0  0  0
   -8.9583    1.4949    0.0000 C   0  0  0  0  0  0  0  0  0  0  0  0
   -8.5901    2.9490    0.0000 C   0  0  0  0  0  0  0  0  0  0  0  0
   -7.9875    4.3226    0.0000 C   0  0  0  0  0  0  0  0  0  0  0  0
   -7.1671    5.5784    0.0000 C   0  0  0  0  0  0  0  0  0  0  0  0
   -6.1512    6.6820    0.0000 C   0  0  0  0  0  0  0  0  0  0  0  0
   -4.9675    7.6033    0.0000 C   0  0  0  0  0  0  0  0  0  0  0  0
   -3.6483    8.3172    0.0000 C   0  0  0  0  0  0  0  0  0  0  0  0
   -2.2295    8.8043    0.0000 C   0  0  0  0  0  0  0  0  0  0  0  0
   -0.7500    9.0512    0.0000 C   0  0  0  0  0  0  0  0  0  0  0  0
    0.7500    9.0512    0.0000 C   0  0  0  0  0  0  0  0  0  0  0  0
    2.2295    8.8043    0.0000 C   0  0  0  0  0  0  0  0  0  0  0  0
    3.6483    8.3172    0.0000 C   0  0  0  0  0  0  0  0  0  0  0  0
    4.9675    7.6033    0.0000 C   0  0  0  0  0  0  0  0  0  0  0  0
    6.1512    6.6820    0.0000 C   0  0  0  0  0  0  0  0  0  0  0  0
    7.1671    5.5784    0.0000 C   0  0  0  0  0  0  0  0  0  0  0  0
    7.9875    4.3226    0.0000 C   0  0  0  0  0  0  0  0  0  0  0  0
    8.5901    2.9490    0.0000 C   0  0  0  0  0  0  0  0  0  0  0  0
    8.9583    1.4949    0.0000 C   0  0  0  0  0  0  0  0  0  0  0  0
  1  2  1  0
  2  3  1  0
  3  4  1  0
  4  5  1  0
  5  6  1  0
  6  7  1  0
  7  8  1  0
  8  9  1  0
  9 10  1  0
 10 11  1  0
 11 12  1  0
 12 13  1  0
 13 14  1  0
 14 15  1  0
 15 16  1  0
 16 17  1  0
 17 18  1  0
 18 19  1  0
 19 20  1  0
 20 21  1  0
 21 22  1  0
 22 23  1  0
 23 24  1  0
 24 25  1  0
 25 26  1  0
 26 27  1  0
 27 28  1  0
 28 29  1  0
 29 30  1  0
 30 31  1  0
 31 32  1  0
 32 33  1  0
 33 34  1  0
 34 35  1  0
 35 36  1  0
 36 37  1  0
 37 38  1  0
 38 39  1  0
 39  2  1  0
M  END
>  <Title>  (388) 
idAAMZgen8

$$$$

     RDKit          2D

 33 37  0  0  0  0  0  0  0  0999 V2000
    4.8151   -7.0771    0.0000 C   0  0  0  0  0  0  0  0  0  0  0  0
    3.8509   -5.9281    0.0000 C   0  0  0  0  0  0  0  0  0  0  0  0
    2.3737   -6.1885    0.0000 C   0  0  0  0  0  0  0  0  0  0  0  0
    1.4095   -5.0395    0.0000 C   0  0  0  0  0  0  0  0  0  0  0  0
    2.1595   -3.7404    0.0000 C   0  0  0  0  0  0  0  0  0  0  0  0
    1.8991   -2.2632    0.0000 C   0  0  0  0  0  0  0  0  0  0  0  0
    3.1981   -1.5132    0.0000 C   0  0  0  0  0  0  0  0  0  0  0  0
    3.1981   -0.0132    0.0000 O   0  0  0  0  0  0  0  0  0  0  0  0
    4.4971   -2.2632    0.0000 N   0  0  0  0  0  0  0  0  0  0  0  0
    5.7962   -1.5132    0.0000 C   0  0  0  0  0  0  0  0  0  0  0  0
    7.0952   -2.2632    0.0000 N   0  0  0  0  0  0  0  0  0  0  0  0
    8.3943   -1.5132    0.0000 N   0  0  0  0  0  0  0  0  0  0  0  0
    8.3943   -0.0132    0.0000 N   0  0  0  0  0  0  0  0  0  0  0  0
    7.0952    0.7368    0.0000 N   0  0  0  0  0  0  0  0  0  0  0  0
    5.7962   -0.0132    0.0000 N   0  0  0  0  0  0  0  0  0  0  0  0
    0.7500   -1.2990    0.0000 C   0  0  0  0  0  0  0  0  0  0  0  0
    1.5000    0.0000    0.0000 C   0  0  0  0  0  0  0  0  0  0  0  0
    0.7500    1.2990    0.0000 C   0  0  0  0  0  0  0  0  0  0  0  0
   -0.7500    1.2990    0.0000 C   0  0  0  0  0  0  0  0  0  0  0  0
   -1.5000    0.0000    0.0000 C   0  0  0  0  0  0  0  0  0  0  0  0
   -0.7500   -1.2990    0.0000 C   0  0  0  0  0  0  0  0  0  0  0  0
   -1.8991   -2.2632    0.0000 C   0  0  0  0  0  0  0  0  0  0  0  0
   -3.0481   -1.2990    0.0000 C   0  0  0  0  0  0  0  0  0  0  0  0
   -4.4577   -1.8121    0.0000 C   0  0  0  0  0  0  0  0  0  0  0  0
   -4.7181   -3.2893    0.0000 C   0  0  0  0  0  0  0  0  0  0  0  0
   -3.5691   -4.2535    0.0000 C   0  0  0  0  0  0  0  0  0  0  0  0
   -2.1595   -3.7404    0.0000 C   0  0  0  0  0  0  0  0  0  0  0  0
   -1.4095   -5.0395    0.0000 C   0  0  0  0  0  0  0  0  0  0  0  0
   -2.5586   -6.0037    0.0000 C   0  0  0  0  0  0  0  0  0  0  0  0
   -2.2981   -7.4809    0.0000 C   0  0  0  0  0  0  0  0  0  0  0  0
   -0.8886   -7.9939    0.0000 C   0  0  0  0  0  0  0  0  0  0  0  0
    0.2605   -7.0297    0.0000 C   0  0  0  0  0  0  0  0  0  0  0  0
   -0.0000   -5.5525    0.0000 C   0  0  0  0  0  0  0  0  0  0  0  0
  1  2  1  0
  2  3  1  0
  3  4  1  0
  4  5  2  0
  5  6  1  0
  6  7  1  0
  7  8  2  0
  7  9  1  0
  9 10  1  0
 10 11  2  0
 11 12  1  0
 12 13  2  0
 13 14  1  0
 14 15  2  0
  6 16  1  0
 16 17  2  0
 17 18  1  0
 18 19  2  0
 19 20  1  0
 20 21  2  0
 21 22  1  0
 22 23  2  0
 23 24  1  0
 24 25  2  0
 25 26  1  0
 26 27  2  0
 27 28  1  0
 28 29  2  0
 29 30  1  0
 30 31  2  0
 31 32  1  0
 32 33  2  0
 33  4  1  0
 15 10  1  0
 21 16  1  0
 27 22  1  0
 33 28  1  0
M  END
>  <Title>  (389) 
idAANAgen8

$$$$

     RDKit          2D

 12 12  0  0  0  0  0  0  0  0999 V2000
    3.4598   -0.0000    0.0000 C   0  0  0  0  0  0  0  0  0  0  0  0
    1.9598    0.0000    0.0000 C   0  0  0  0  0  0  0  0  0  0  0  0
    1.3858   -1.3858    0.0000 C   0  0  0  0  0  0  0  0  0  0  0  0
   -0.0000   -1.9598    0.0000 C   0  0  0  0  0  0  0  0  0  0  0  0
   -0.0000   -3.4598    0.0000 O   0  0  0  0  0  0  0  0  0  0  0  0
   -1.3858   -1.3858    0.0000 C   0  0  0  0  0  0  0  0  0  0  0  0
   -2.4465   -2.4465    0.0000 O   0  0  0  0  0  0  0  0  0  0  0  0
   -1.9598    0.0000    0.0000 C   0  0  0  0  0  0  0  0  0  0  0  0
   -1.3858    1.3858    0.0000 C   0  0  0  0  0  0  0  0  0  0  0  0
   -2.4465    2.4465    0.0000 O   0  0  0  0  0  0  0  0  0  0  0  0
    0.0000    1.9598    0.0000 C   0  0  0  0  0  0  0  0  0  0  0  0
    1.3858    1.3858    0.0000 C   0  0  0  0  0  0  0  0  0  0  0  0
  1  2  1  0
  2  3  2  0
  3  4  1  0
  4  5  1  0
  4  6  1  0
  6  7  1  0
  6  8  1  0
  8  9  1  0
  9 10  1  0
  9 11  1  0
 11 12  1  0
 12  2  1  0
M  END
>  <Title>  (390) 
idAANBgen8

$$$$

     RDKit          2D

 20 21  0  0  0  0  0  0  0  0999 V2000
   -1.0496  -11.7739    0.0000 C   0  0  0  0  0  0  0  0  0  0  0  0
    0.3207  -11.1638    0.0000 C   0  0  0  0  0  0  0  0  0  0  0  0
    0.4775   -9.6721    0.0000 C   0  0  0  0  0  0  0  0  0  0  0  0
   -0.7360   -8.7904    0.0000 O   0  0  0  0  0  0  0  0  0  0  0  0
    1.8478   -9.0619    0.0000 N   0  0  0  0  0  0  0  0  0  0  0  0
    2.0046   -7.5702    0.0000 C   0  0  0  0  0  0  0  0  0  0  0  0
    3.3037   -6.8202    0.0000 N   0  0  0  0  0  0  0  0  0  0  0  0
    2.9918   -5.3529    0.0000 N   0  0  0  0  0  0  0  0  0  0  0  0
    1.5000   -5.1962    0.0000 C   0  0  0  0  0  0  0  0  0  0  0  0
    0.7500   -3.8971    0.0000 N   0  0  0  0  0  0  0  0  0  0  0  0
    1.5000   -2.5981    0.0000 C   0  0  0  0  0  0  0  0  0  0  0  0
    3.0000   -2.5981    0.0000 O   0  0  0  0  0  0  0  0  0  0  0  0
    0.7500   -1.2990    0.0000 C   0  0  0  0  0  0  0  0  0  0  0  0
    1.5000    0.0000    0.0000 C   0  0  0  0  0  0  0  0  0  0  0  0
    0.7500    1.2990    0.0000 C   0  0  0  0  0  0  0  0  0  0  0  0
   -0.7500    1.2990    0.0000 C   0  0  0  0  0  0  0  0  0  0  0  0
   -1.5000    0.0000    0.0000 N   0  0  0  0  0  0  0  0  0  0  0  0
   -0.7500   -1.2990    0.0000 N   0  0  0  0  0  0  0  0  0  0  0  0
    0.8899   -6.5665    0.0000 C   0  0  0  0  0  0  0  0  0  0  0  0
   -0.5773   -6.8783    0.0000 O   0  0  0  0  0  0  0  0  0  0  0  0
  1  2  1  0
  2  3  1  0
  3  4  2  0
  3  5  1  0
  5  6  1  0
  6  7  2  0
  7  8  1  0
  8  9  2  0
  9 10  1  0
 10 11  1  0
 11 12  2  0
 11 13  1  0
 13 14  2  0
 14 15  1  0
 15 16  2  0
 16 17  1  0
 17 18  2  0
  9 19  1  0
 19 20  2  0
 19  6  1  0
 18 13  1  0
M  END
>  <Title>  (391) 
idAANCgen8

$$$$

     RDKit          2D

 12 11  0  0  0  0  0  0  0  0999 V2000
    0.0000    0.0000    0.0000 C   0  0  0  0  0  0  0  0  0  0  0  0
   -0.0000   -1.5000    0.0000 C   0  0  0  0  0  0  0  0  0  0  0  0
   -0.0000   -3.0000    0.0000 C   0  0  0  0  0  0  0  0  0  0  0  0
   -0.0000   -4.5000    0.0000 C   0  0  0  0  0  0  0  0  0  0  0  0
   -0.0000   -6.0000    0.0000 C   0  0  0  0  0  0  0  0  0  0  0  0
   -0.0000   -7.5000    0.0000 C   0  0  0  0  0  0  0  0  0  0  0  0
   -0.0000   -9.0000    0.0000 C   0  0  0  0  0  0  0  0  0  0  0  0
   -0.0000  -10.5000    0.0000 C   0  0  0  0  0  0  0  0  0  0  0  0
   -0.0000  -12.0000    0.0000 C   0  0  0  0  0  0  0  0  0  0  0  0
   -0.0000  -13.5000    0.0000 C   0  0  0  0  0  0  0  0  0  0  0  0
   -0.0000  -15.0000    0.0000 C   0  0  0  0  0  0  0  0  0  0  0  0
   -0.0000  -16.5000    0.0000 C   0  0  0  0  0  0  0  0  0  0  0  0
  1  2  3  0
  2  3  1  0
  3  4  3  0
  4  5  1  0
  5  6  3  0
  6  7  1  0
  7  8  3  0
  8  9  1  0
  9 10  3  0
 10 11  1  0
 11 12  3  0
M  END
>  <Title>  (392) 
idAANDgen8

$$$$

     RDKit          2D

 15 16  0  0  0  0  0  0  0  0999 V2000
    1.8478   -9.0619    0.0000 C   0  0  0  0  0  0  0  0  0  0  0  0
    2.0046   -7.5702    0.0000 C   0  0  0  0  0  0  0  0  0  0  0  0
    3.3037   -6.8202    0.0000 C   0  0  0  0  0  0  0  0  0  0  0  0
    2.9918   -5.3529    0.0000 C   0  0  0  0  0  0  0  0  0  0  0  0
    1.5000   -5.1962    0.0000 C   0  0  0  0  0  0  0  0  0  0  0  0
    0.7500   -3.8971    0.0000 C   0  0  0  0  0  0  0  0  0  0  0  0
   -0.7500   -3.8971    0.0000 O   0  0  0  0  0  0  0  0  0  0  0  0
    1.5000   -2.5981    0.0000 N   0  0  0  0  0  0  0  0  0  0  0  0
    0.7500   -1.2990    0.0000 C   0  0  0  0  0  0  0  0  0  0  0  0
    1.5000    0.0000    0.0000 N   0  0  0  0  0  0  0  0  0  0  0  0
    0.7500    1.2990    0.0000 N   0  0  0  0  0  0  0  0  0  0  0  0
   -0.7500    1.2990    0.0000 N   0  0  0  0  0  0  0  0  0  0  0  0
   -1.5000    0.0000    0.0000 N   0  0  0  0  0  0  0  0  0  0  0  0
   -0.7500   -1.2990    0.0000 N   0  0  0  0  0  0  0  0  0  0  0  0
    0.8899   -6.5665    0.0000 C   0  0  0  0  0  0  0  0  0  0  0  0
  1  2  1  0
  2  3  2  0
  3  4  1  0
  4  5  1  0
  5  6  1  0
  6  7  2  0
  6  8  1  0
  8  9  1  0
  9 10  2  0
 10 11  1  0
 11 12  2  0
 12 13  1  0
 13 14  2  0
  5 15  1  0
 15  2  1  0
 14  9  1  0
M  END
>  <Title>  (393) 
idAANEgen8

$$$$

     RDKit          2D

115115  0  0  0  0  0  0  0  0999 V2000
   28.7189    0.0000    0.0000 C   0  0  0  0  0  0  0  0  0  0  0  0
   27.2189    0.0000    0.0000 C   0  0  0  0  0  0  0  0  0  0  0  0
   27.1776   -1.4994    0.0000 C   0  0  0  0  0  0  0  0  0  0  0  0
   27.0537   -2.9943    0.0000 C   0  0  0  0  0  0  0  0  0  0  0  0
   26.8477   -4.4801    0.0000 C   0  0  0  0  0  0  0  0  0  0  0  0
   26.5601   -5.9523    0.0000 C   0  0  0  0  0  0  0  0  0  0  0  0
   26.1919   -7.4064    0.0000 C   0  0  0  0  0  0  0  0  0  0  0  0
   25.7441   -8.8380    0.0000 C   0  0  0  0  0  0  0  0  0  0  0  0
   25.2182  -10.2427    0.0000 C   0  0  0  0  0  0  0  0  0  0  0  0
   24.6156  -11.6164    0.0000 C   0  0  0  0  0  0  0  0  0  0  0  0
   23.9383  -12.9548    0.0000 C   0  0  0  0  0  0  0  0  0  0  0  0
   23.1883  -14.2538    0.0000 C   0  0  0  0  0  0  0  0  0  0  0  0
   22.3679  -15.5096    0.0000 C   0  0  0  0  0  0  0  0  0  0  0  0
   21.4796  -16.7182    0.0000 C   0  0  0  0  0  0  0  0  0  0  0  0
   20.5260  -17.8761    0.0000 C   0  0  0  0  0  0  0  0  0  0  0  0
   19.5101  -18.9797    0.0000 C   0  0  0  0  0  0  0  0  0  0  0  0
   18.4349  -20.0256    0.0000 C   0  0  0  0  0  0  0  0  0  0  0  0
   17.3037  -21.0108    0.0000 C   0  0  0  0  0  0  0  0  0  0  0  0
   16.1200  -21.9321    0.0000 C   0  0  0  0  0  0  0  0  0  0  0  0
   14.8873  -22.7868    0.0000 C   0  0  0  0  0  0  0  0  0  0  0  0
   13.6095  -23.5723    0.0000 C   0  0  0  0  0  0  0  0  0  0  0  0
   12.2903  -24.2862    0.0000 C   0  0  0  0  0  0  0  0  0  0  0  0
   10.9337  -24.9264    0.0000 C   0  0  0  0  0  0  0  0  0  0  0  0
    9.5440  -25.4908    0.0000 C   0  0  0  0  0  0  0  0  0  0  0  0
    8.1253  -25.9779    0.0000 C   0  0  0  0  0  0  0  0  0  0  0  0
    6.6819  -26.3860    0.0000 C   0  0  0  0  0  0  0  0  0  0  0  0
    5.2182  -26.7141    0.0000 C   0  0  0  0  0  0  0  0  0  0  0  0
    3.7386  -26.9610    0.0000 C   0  0  0  0  0  0  0  0  0  0  0  0
    2.2477  -27.1260    0.0000 C   0  0  0  0  0  0  0  0  0  0  0  0
    0.7500  -27.2086    0.0000 C   0  0  0  0  0  0  0  0  0  0  0  0
   -0.7500  -27.2086    0.0000 C   0  0  0  0  0  0  0  0  0  0  0  0
   -2.2477  -27.1260    0.0000 C   0  0  0  0  0  0  0  0  0  0  0  0
   -3.7386  -26.9610    0.0000 C   0  0  0  0  0  0  0  0  0  0  0  0
   -5.2182  -26.7141    0.0000 C   0  0  0  0  0  0  0  0  0  0  0  0
   -6.6819  -26.3860    0.0000 C   0  0  0  0  0  0  0  0  0  0  0  0
   -8.1253  -25.9779    0.0000 C   0  0  0  0  0  0  0  0  0  0  0  0
   -9.5440  -25.4908    0.0000 C   0  0  0  0  0  0  0  0  0  0  0  0
  -10.9337  -24.9264    0.0000 C   0  0  0  0  0  0  0  0  0  0  0  0
  -12.2903  -24.2862    0.0000 C   0  0  0  0  0  0  0  0  0  0  0  0
  -13.6095  -23.5723    0.0000 C   0  0  0  0  0  0  0  0  0  0  0  0
  -14.8873  -22.7868    0.0000 C   0  0  0  0  0  0  0  0  0  0  0  0
  -16.1200  -21.9321    0.0000 C   0  0  0  0  0  0  0  0  0  0  0  0
  -17.3037  -21.0108    0.0000 C   0  0  0  0  0  0  0  0  0  0  0  0
  -18.4349  -20.0256    0.0000 C   0  0  0  0  0  0  0  0  0  0  0  0
  -19.5101  -18.9797    0.0000 C   0  0  0  0  0  0  0  0  0  0  0  0
  -20.5260  -17.8761    0.0000 C   0  0  0  0  0  0  0  0  0  0  0  0
  -21.4796  -16.7182    0.0000 C   0  0  0  0  0  0  0  0  0  0  0  0
  -22.3679  -15.5096    0.0000 C   0  0  0  0  0  0  0  0  0  0  0  0
  -23.1883  -14.2538    0.0000 C   0  0  0  0  0  0  0  0  0  0  0  0
  -23.9383  -12.9548    0.0000 C   0  0  0  0  0  0  0  0  0  0  0  0
  -24.6156  -11.6164    0.0000 C   0  0  0  0  0  0  0  0  0  0  0  0
  -25.2182  -10.2427    0.0000 C   0  0  0  0  0  0  0  0  0  0  0  0
  -25.7441   -8.8380    0.0000 C   0  0  0  0  0  0  0  0  0  0  0  0
  -26.1919   -7.4064    0.0000 C   0  0  0  0  0  0  0  0  0  0  0  0
  -26.5601   -5.9523    0.0000 C   0  0  0  0  0  0  0  0  0  0  0  0
  -26.8477   -4.4801    0.0000 C   0  0  0  0  0  0  0  0  0  0  0  0
  -27.0537   -2.9943    0.0000 C   0  0  0  0  0  0  0  0  0  0  0  0
  -27.1776   -1.4994    0.0000 C   0  0  0  0  0  0  0  0  0  0  0  0
  -27.2189    0.0000    0.0000 C   0  0  0  0  0  0  0  0  0  0  0  0
  -27.1776    1.4994    0.0000 C   0  0  0  0  0  0  0  0  0  0  0  0
  -27.0537    2.9943    0.0000 C   0  0  0  0  0  0  0  0  0  0  0  0
  -26.8477    4.4801    0.0000 C   0  0  0  0  0  0  0  0  0  0  0  0
  -26.5601    5.9523    0.0000 C   0  0  0  0  0  0  0  0  0  0  0  0
  -26.1919    7.4064    0.0000 C   0  0  0  0  0  0  0  0  0  0  0  0
  -25.7441    8.8380    0.0000 C   0  0  0  0  0  0  0  0  0  0  0  0
  -25.2182   10.2427    0.0000 C   0  0  0  0  0  0  0  0  0  0  0  0
  -24.6156   11.6164    0.0000 C   0  0  0  0  0  0  0  0  0  0  0  0
  -23.9383   12.9548    0.0000 C   0  0  0  0  0  0  0  0  0  0  0  0
  -23.1883   14.2538    0.0000 C   0  0  0  0  0  0  0  0  0  0  0  0
  -22.3679   15.5096    0.0000 C   0  0  0  0  0  0  0  0  0  0  0  0
  -21.4796   16.7182    0.0000 C   0  0  0  0  0  0  0  0  0  0  0  0
  -20.5260   17.8761    0.0000 C   0  0  0  0  0  0  0  0  0  0  0  0
  -19.5101   18.9797    0.0000 C   0  0  0  0  0  0  0  0  0  0  0  0
  -18.4349   20.0256    0.0000 C   0  0  0  0  0  0  0  0  0  0  0  0
  -17.3037   21.0108    0.0000 C   0  0  0  0  0  0  0  0  0  0  0  0
  -16.1200   21.9321    0.0000 C   0  0  0  0  0  0  0  0  0  0  0  0
  -14.8873   22.7868    0.0000 C   0  0  0  0  0  0  0  0  0  0  0  0
  -13.6095   23.5723    0.0000 C   0  0  0  0  0  0  0  0  0  0  0  0
  -12.2903   24.2862    0.0000 C   0  0  0  0  0  0  0  0  0  0  0  0
  -10.9337   24.9264    0.0000 C   0  0  0  0  0  0  0  0  0  0  0  0
   -9.5440   25.4908    0.0000 C   0  0  0  0  0  0  0  0  0  0  0  0
   -8.1253   25.9779    0.0000 C   0  0  0  0  0  0  0  0  0  0  0  0
   -6.6819   26.3860    0.0000 C   0  0  0  0  0  0  0  0  0  0  0  0
   -5.2182   26.7141    0.0000 C   0  0  0  0  0  0  0  0  0  0  0  0
   -3.7386   26.9610    0.0000 C   0  0  0  0  0  0  0  0  0  0  0  0
   -2.2477   27.1260    0.0000 C   0  0  0  0  0  0  0  0  0  0  0  0
   -0.7500   27.2086    0.0000 C   0  0  0  0  0  0  0  0  0  0  0  0
    0.7500   27.2086    0.0000 C   0  0  0  0  0  0  0  0  0  0  0  0
    2.2477   27.1260    0.0000 C   0  0  0  0  0  0  0  0  0  0  0  0
    3.7386   26.9610    0.0000 C   0  0  0  0  0  0  0  0  0  0  0  0
    5.2182   26.7141    0.0000 C   0  0  0  0  0  0  0  0  0  0  0  0
    6.6819   26.3860    0.0000 C   0  0  0  0  0  0  0  0  0  0  0  0
    8.1253   25.9779    0.0000 C   0  0  0  0  0  0  0  0  0  0  0  0
    9.5440   25.4908    0.0000 C   0  0  0  0  0  0  0  0  0  0  0  0
   10.9337   24.9264    0.0000 C   0  0  0  0  0  0  0  0  0  0  0  0
   12.2903   24.2862    0.0000 C   0  0  0  0  0  0  0  0  0  0  0  0
   13.6095   23.5723    0.0000 C   0  0  0  0  0  0  0  0  0  0  0  0
   14.8873   22.7868    0.0000 C   0  0  0  0  0  0  0  0  0  0  0  0
   16.1200   21.9321    0.0000 C   0  0  0  0  0  0  0  0  0  0  0  0
   17.3037   21.0108    0.0000 C   0  0  0  0  0  0  0  0  0  0  0  0
   18.4349   20.0256    0.0000 C   0  0  0  0  0  0  0  0  0  0  0  0
   19.5101   18.9797    0.0000 C   0  0  0  0  0  0  0  0  0  0  0  0
   20.5260   17.8761    0.0000 C   0  0  0  0  0  0  0  0  0  0  0  0
   21.4796   16.7182    0.0000 C   0  0  0  0  0  0  0  0  0  0  0  0
   22.3679   15.5096    0.0000 C   0  0  0  0  0  0  0  0  0  0  0  0
   23.1883   14.2538    0.0000 C   0  0  0  0  0  0  0  0  0  0  0  0
   23.9383   12.9548    0.0000 C   0  0  0  0  0  0  0  0  0  0  0  0
   24.6156   11.6164    0.0000 C   0  0  0  0  0  0  0  0  0  0  0  0
   25.2182   10.2427    0.0000 C   0  0  0  0  0  0  0  0  0  0  0  0
   25.7441    8.8380    0.0000 C   0  0  0  0  0  0  0  0  0  0  0  0
   26.1919    7.4064    0.0000 C   0  0  0  0  0  0  0  0  0  0  0  0
   26.5601    5.9523    0.0000 C   0  0  0  0  0  0  0  0  0  0  0  0
   26.8477    4.4801    0.0000 C   0  0  0  0  0  0  0  0  0  0  0  0
   27.0537    2.9943    0.0000 C   0  0  0  0  0  0  0  0  0  0  0  0
   27.1776    1.4994    0.0000 C   0  0  0  0  0  0  0  0  0  0  0  0
  1  2  1  0
  2  3  1  0
  3  4  1  0
  4  5  2  0
  5  6  1  0
  6  7  2  0
  7  8  1  0
  8  9  2  0
  9 10  1  0
 10 11  2  0
 11 12  1  0
 12 13  2  0
 13 14  1  0
 14 15  2  0
 15 16  1  0
 16 17  2  0
 17 18  1  0
 18 19  2  0
 19 20  1  0
 20 21  2  0
 21 22  1  0
 22 23  1  0
 23 24  1  0
 24 25  1  0
 25 26  1  0
 26 27  1  0
 27 28  1  0
 28 29  1  0
 29 30  1  0
 30 31  1  0
 31 32  1  0
 32 33  1  0
 33 34  1  0
 34 35  1  0
 35 36  1  0
 36 37  1  0
 37 38  1  0
 38 39  1  0
 39 40  1  0
 40 41  1  0
 41 42  1  0
 42 43  1  0
 43 44  1  0
 44 45  1  0
 45 46  1  0
 46 47  1  0
 47 48  1  0
 48 49  1  0
 49 50  1  0
 50 51  1  0
 51 52  1  0
 52 53  1  0
 53 54  1  0
 54 55  1  0
 55 56  1  0
 56 57  1  0
 57 58  1  0
 58 59  1  0
 59 60  1  0
 60 61  1  0
 61 62  1  0
 62 63  1  0
 63 64  1  0
 64 65  1  0
 65 66  1  0
 66 67  1  0
 67 68  1  0
 68 69  1  0
 69 70  1  0
 70 71  1  0
 71 72  1  0
 72 73  1  0
 73 74  1  0
 74 75  1  0
 75 76  1  0
 76 77  1  0
 77 78  1  0
 78 79  1  0
 79 80  1  0
 80 81  1  0
 81 82  1  0
 82 83  1  0
 83 84  1  0
 84 85  1  0
 85 86  1  0
 86 87  1  0
 87 88  1  0
 88 89  1  0
 89 90  1  0
 90 91  1  0
 91 92  1  0
 92 93  1  0
 93 94  1  0
 94 95  1  0
 95 96  1  0
 96 97  1  0
 97 98  1  0
 98 99  1  0
 99100  1  0
100101  1  0
101102  1  0
102103  1  0
103104  1  0
104105  1  0
105106  1  0
106107  1  0
107108  1  0
108109  1  0
109110  1  0
110111  1  0
111112  1  0
112113  1  0
113114  1  0
114115  1  0
115  2  1  0
M  END
>  <Title>  (394) 
idAANFgen8

$$$$

     RDKit          2D

 11 11  0  0  0  0  0  0  0  0999 V2000
    3.2286   -0.0000    0.0000 C   0  0  0  0  0  0  0  0  0  0  0  0
    1.7286    0.0000    0.0000 C   0  0  0  0  0  0  0  0  0  0  0  0
    1.0777    1.3515    0.0000 C   0  0  0  0  0  0  0  0  0  0  0  0
   -0.3846    1.6852    0.0000 C   0  0  0  0  0  0  0  0  0  0  0  0
   -1.5574    0.7500    0.0000 C   0  0  0  0  0  0  0  0  0  0  0  0
   -1.5574   -0.7500    0.0000 C   0  0  0  0  0  0  0  0  0  0  0  0
   -0.3846   -1.6852    0.0000 C   0  0  0  0  0  0  0  0  0  0  0  0
   -0.7184   -3.1476    0.0000 C   0  0  0  0  0  0  0  0  0  0  0  0
   -2.1518   -3.5898    0.0000 N   0  0  0  0  0  0  0  0  0  0  0  0
    0.3812   -4.1679    0.0000 O   0  0  0  0  0  0  0  0  0  0  0  0
    1.0777   -1.3515    0.0000 C   0  0  0  0  0  0  0  0  0  0  0  0
  1  2  1  0
  2  3  1  0
  3  4  1  0
  4  5  1  0
  5  6  1  0
  6  7  1  0
  7  8  1  0
  8  9  1  0
  8 10  2  0
  7 11  1  0
 11  2  1  0
M  END
>  <Title>  (395) 
idAANGgen8

$$$$

     RDKit          2D

 12 13  0  0  0  0  0  0  0  0999 V2000
   -2.5242   -4.8694    0.0000 O   0  0  0  0  0  0  0  0  0  0  0  0
   -1.3515   -3.9342    0.0000 C   0  0  0  0  0  0  0  0  0  0  0  0
   -0.0000   -4.5850    0.0000 C   0  0  0  0  0  0  0  0  0  0  0  0
    1.3515   -3.9342    0.0000 C   0  0  0  0  0  0  0  0  0  0  0  0
    1.6852   -2.4718    0.0000 C   0  0  0  0  0  0  0  0  0  0  0  0
    0.7500   -1.2990    0.0000 C   0  0  0  0  0  0  0  0  0  0  0  0
    1.5000    0.0000    0.0000 C   0  0  0  0  0  0  0  0  0  0  0  0
    0.7500    1.2990    0.0000 C   0  0  0  0  0  0  0  0  0  0  0  0
   -0.7500    1.2990    0.0000 C   0  0  0  0  0  0  0  0  0  0  0  0
   -1.5000    0.0000    0.0000 C   0  0  0  0  0  0  0  0  0  0  0  0
   -0.7500   -1.2990    0.0000 C   0  0  0  0  0  0  0  0  0  0  0  0
   -1.6852   -2.4718    0.0000 C   0  0  0  0  0  0  0  0  0  0  0  0
  1  2  1  0
  2  3  2  0
  3  4  1  0
  4  5  1  0
  5  6  1  0
  6  7  2  0
  7  8  1  0
  8  9  2  0
  9 10  1  0
 10 11  2  0
 11 12  1  0
 12  2  1  0
 11  6  1  0
M  END
>  <Title>  (396) 
idAANHgen8

$$$$

     RDKit          2D

 84 84  0  0  0  0  0  0  0  0999 V2000
   21.3195    0.0000    0.0000 O   0  0  0  0  0  0  0  0  0  0  0  0
   19.8195    0.0000    0.0000 C   0  0  0  0  0  0  0  0  0  0  0  0
   19.7628    1.4989    0.0000 C   0  0  0  0  0  0  0  0  0  0  0  0
   19.5928    2.9893    0.0000 C   0  0  0  0  0  0  0  0  0  0  0  0
   19.3106    4.4625    0.0000 C   0  0  0  0  0  0  0  0  0  0  0  0
   18.9178    5.9101    0.0000 C   0  0  0  0  0  0  0  0  0  0  0  0
   18.4167    7.3239    0.0000 C   0  0  0  0  0  0  0  0  0  0  0  0
   17.8100    8.6958    0.0000 C   0  0  0  0  0  0  0  0  0  0  0  0
   17.1014   10.0178    0.0000 C   0  0  0  0  0  0  0  0  0  0  0  0
   16.2947   11.2825    0.0000 C   0  0  0  0  0  0  0  0  0  0  0  0
   15.3948   12.4825    0.0000 C   0  0  0  0  0  0  0  0  0  0  0  0
   14.4067   13.6111    0.0000 C   0  0  0  0  0  0  0  0  0  0  0  0
   13.3360   14.6617    0.0000 C   0  0  0  0  0  0  0  0  0  0  0  0
   12.1890   15.6283    0.0000 C   0  0  0  0  0  0  0  0  0  0  0  0
   10.9721   16.5053    0.0000 C   0  0  0  0  0  0  0  0  0  0  0  0
    9.6924   17.2879    0.0000 C   0  0  0  0  0  0  0  0  0  0  0  0
    8.3572   17.9714    0.0000 C   0  0  0  0  0  0  0  0  0  0  0  0
    6.9741   18.5520    0.0000 C   0  0  0  0  0  0  0  0  0  0  0  0
    5.5511   19.0263    0.0000 C   0  0  0  0  0  0  0  0  0  0  0  0
    4.0962   19.3916    0.0000 C   0  0  0  0  0  0  0  0  0  0  0  0
    2.6180   19.6459    0.0000 C   0  0  0  0  0  0  0  0  0  0  0  0
    1.1247   19.7876    0.0000 C   0  0  0  0  0  0  0  0  0  0  0  0
   -0.3751   19.8160    0.0000 C   0  0  0  0  0  0  0  0  0  0  0  0
   -1.8727   19.7309    0.0000 C   0  0  0  0  0  0  0  0  0  0  0  0
   -3.3595   19.5327    0.0000 C   0  0  0  0  0  0  0  0  0  0  0  0
   -4.8271   19.2227    0.0000 C   0  0  0  0  0  0  0  0  0  0  0  0
   -6.2671   18.8026    0.0000 C   0  0  0  0  0  0  0  0  0  0  0  0
   -7.6712   18.2748    0.0000 C   0  0  0  0  0  0  0  0  0  0  0  0
   -9.0313   17.6423    0.0000 C   0  0  0  0  0  0  0  0  0  0  0  0
  -10.3397   16.9087    0.0000 C   0  0  0  0  0  0  0  0  0  0  0  0
  -11.5888   16.0783    0.0000 C   0  0  0  0  0  0  0  0  0  0  0  0
  -12.7716   15.1558    0.0000 C   0  0  0  0  0  0  0  0  0  0  0  0
  -13.8813   14.1465    0.0000 C   0  0  0  0  0  0  0  0  0  0  0  0
  -14.9114   13.0562    0.0000 C   0  0  0  0  0  0  0  0  0  0  0  0
  -15.8561   11.8910    0.0000 C   0  0  0  0  0  0  0  0  0  0  0  0
  -16.7100   10.6578    0.0000 C   0  0  0  0  0  0  0  0  0  0  0  0
  -17.4682    9.3635    0.0000 C   0  0  0  0  0  0  0  0  0  0  0  0
  -18.1263    8.0156    0.0000 C   0  0  0  0  0  0  0  0  0  0  0  0
  -18.6806    6.6218    0.0000 C   0  0  0  0  0  0  0  0  0  0  0  0
  -19.1279    5.1900    0.0000 C   0  0  0  0  0  0  0  0  0  0  0  0
  -19.4656    3.7285    0.0000 C   0  0  0  0  0  0  0  0  0  0  0  0
  -19.6919    2.2457    0.0000 C   0  0  0  0  0  0  0  0  0  0  0  0
  -19.8053    0.7500    0.0000 C   0  0  0  0  0  0  0  0  0  0  0  0
  -19.8053   -0.7500    0.0000 C   0  0  0  0  0  0  0  0  0  0  0  0
  -19.6919   -2.2457    0.0000 C   0  0  0  0  0  0  0  0  0  0  0  0
  -19.4656   -3.7285    0.0000 C   0  0  0  0  0  0  0  0  0  0  0  0
  -19.1279   -5.1900    0.0000 C   0  0  0  0  0  0  0  0  0  0  0  0
  -18.6806   -6.6218    0.0000 C   0  0  0  0  0  0  0  0  0  0  0  0
  -18.1263   -8.0156    0.0000 C   0  0  0  0  0  0  0  0  0  0  0  0
  -17.4682   -9.3635    0.0000 C   0  0  0  0  0  0  0  0  0  0  0  0
  -16.7100  -10.6578    0.0000 C   0  0  0  0  0  0  0  0  0  0  0  0
  -15.8561  -11.8910    0.0000 C   0  0  0  0  0  0  0  0  0  0  0  0
  -14.9114  -13.0562    0.0000 C   0  0  0  0  0  0  0  0  0  0  0  0
  -13.8813  -14.1465    0.0000 C   0  0  0  0  0  0  0  0  0  0  0  0
  -12.7716  -15.1558    0.0000 C   0  0  0  0  0  0  0  0  0  0  0  0
  -11.5888  -16.0783    0.0000 C   0  0  0  0  0  0  0  0  0  0  0  0
  -10.3397  -16.9087    0.0000 C   0  0  0  0  0  0  0  0  0  0  0  0
   -9.0313  -17.6423    0.0000 C   0  0  0  0  0  0  0  0  0  0  0  0
   -7.6712  -18.2748    0.0000 C   0  0  0  0  0  0  0  0  0  0  0  0
   -6.2671  -18.8026    0.0000 C   0  0  0  0  0  0  0  0  0  0  0  0
   -4.8271  -19.2227    0.0000 C   0  0  0  0  0  0  0  0  0  0  0  0
   -3.3595  -19.5327    0.0000 C   0  0  0  0  0  0  0  0  0  0  0  0
   -1.8727  -19.7309    0.0000 C   0  0  0  0  0  0  0  0  0  0  0  0
   -0.3751  -19.8160    0.0000 C   0  0  0  0  0  0  0  0  0  0  0  0
    1.1247  -19.7876    0.0000 C   0  0  0  0  0  0  0  0  0  0  0  0
    2.6180  -19.6459    0.0000 C   0  0  0  0  0  0  0  0  0  0  0  0
    4.0962  -19.3916    0.0000 C   0  0  0  0  0  0  0  0  0  0  0  0
    5.5511  -19.0263    0.0000 C   0  0  0  0  0  0  0  0  0  0  0  0
    6.9741  -18.5520    0.0000 C   0  0  0  0  0  0  0  0  0  0  0  0
    8.3572  -17.9714    0.0000 C   0  0  0  0  0  0  0  0  0  0  0  0
    9.6924  -17.2879    0.0000 C   0  0  0  0  0  0  0  0  0  0  0  0
   10.9721  -16.5053    0.0000 C   0  0  0  0  0  0  0  0  0  0  0  0
   12.1890  -15.6283    0.0000 C   0  0  0  0  0  0  0  0  0  0  0  0
   13.3360  -14.6617    0.0000 C   0  0  0  0  0  0  0  0  0  0  0  0
   14.4067  -13.6111    0.0000 C   0  0  0  0  0  0  0  0  0  0  0  0
   15.3948  -12.4825    0.0000 C   0  0  0  0  0  0  0  0  0  0  0  0
   16.2947  -11.2825    0.0000 C   0  0  0  0  0  0  0  0  0  0  0  0
   17.1014  -10.0178    0.0000 C   0  0  0  0  0  0  0  0  0  0  0  0
   17.8100   -8.6958    0.0000 C   0  0  0  0  0  0  0  0  0  0  0  0
   18.4167   -7.3239    0.0000 C   0  0  0  0  0  0  0  0  0  0  0  0
   18.9178   -5.9101    0.0000 C   0  0  0  0  0  0  0  0  0  0  0  0
   19.3106   -4.4625    0.0000 C   0  0  0  0  0  0  0  0  0  0  0  0
   19.5928   -2.9893    0.0000 C   0  0  0  0  0  0  0  0  0  0  0  0
   19.7628   -1.4989    0.0000 C   0  0  0  0  0  0  0  0  0  0  0  0
  1  2  1  0
  2  3  2  0
  3  4  1  0
  4  5  1  0
  5  6  1  0
  6  7  1  0
  7  8  1  0
  8  9  1  0
  9 10  1  0
 10 11  1  0
 11 12  1  0
 12 13  1  0
 13 14  1  0
 14 15  1  0
 15 16  1  0
 16 17  1  0
 17 18  1  0
 18 19  1  0
 19 20  1  0
 20 21  1  0
 21 22  1  0
 22 23  1  0
 23 24  1  0
 24 25  1  0
 25 26  1  0
 26 27  1  0
 27 28  1  0
 28 29  1  0
 29 30  1  0
 30 31  1  0
 31 32  1  0
 32 33  1  0
 33 34  1  0
 34 35  1  0
 35 36  1  0
 36 37  1  0
 37 38  1  0
 38 39  1  0
 39 40  1  0
 40 41  1  0
 41 42  1  0
 42 43  1  0
 43 44  1  0
 44 45  1  0
 45 46  1  0
 46 47  1  0
 47 48  1  0
 48 49  1  0
 49 50  1  0
 50 51  1  0
 51 52  1  0
 52 53  1  0
 53 54  1  0
 54 55  1  0
 55 56  1  0
 56 57  1  0
 57 58  1  0
 58 59  1  0
 59 60  1  0
 60 61  1  0
 61 62  1  0
 62 63  1  0
 63 64  1  0
 64 65  1  0
 65 66  1  0
 66 67  1  0
 67 68  1  0
 68 69  1  0
 69 70  1  0
 70 71  1  0
 71 72  1  0
 72 73  1  0
 73 74  1  0
 74 75  1  0
 75 76  1  0
 76 77  1  0
 77 78  1  0
 78 79  1  0
 79 80  1  0
 80 81  2  0
 81 82  1  0
 82 83  2  0
 83 84  1  0
 84  2  1  0
M  END
>  <Title>  (397) 
idAANIgen8

$$$$

     RDKit          2D

 10  9  0  0  0  0  0  0  0  0999 V2000
    0.0000    0.0000    0.0000 C   0  0  0  0  0  0  0  0  0  0  0  0
   -0.0000   -1.5000    0.0000 C   0  0  0  0  0  0  0  0  0  0  0  0
   -0.0000   -3.0000    0.0000 C   0  0  0  0  0  0  0  0  0  0  0  0
   -0.0000   -4.5000    0.0000 C   0  0  0  0  0  0  0  0  0  0  0  0
   -0.0000   -6.0000    0.0000 C   0  0  0  0  0  0  0  0  0  0  0  0
   -0.0000   -7.5000    0.0000 C   0  0  0  0  0  0  0  0  0  0  0  0
   -0.0000   -9.0000    0.0000 C   0  0  0  0  0  0  0  0  0  0  0  0
   -0.0000  -10.5000    0.0000 C   0  0  0  0  0  0  0  0  0  0  0  0
   -0.0000  -12.0000    0.0000 C   0  0  0  0  0  0  0  0  0  0  0  0
   -0.0000  -13.5000    0.0000 C   0  0  0  0  0  0  0  0  0  0  0  0
  1  2  3  0
  2  3  1  0
  3  4  3  0
  4  5  1  0
  5  6  3  0
  6  7  1  0
  7  8  3  0
  8  9  1  0
  9 10  3  0
M  END
>  <Title>  (398) 
idAANJgen8

$$$$

     RDKit          2D

  6  5  0  0  0  0  0  0  0  0999 V2000
    0.0000    0.0000    0.0000 C   0  0  0  0  0  0  0  0  0  0  0  0
    1.2990    0.7500    0.0000 C   0  0  0  0  0  0  0  0  0  0  0  0
    2.5981   -0.0000    0.0000 C   0  0  0  0  0  0  0  0  0  0  0  0
    3.8971    0.7500    0.0000 C   0  0  0  0  0  0  0  0  0  0  0  0
    5.1962   -0.0000    0.0000 C   0  0  0  0  0  0  0  0  0  0  0  0
    3.8971    2.2500    0.0000 O   0  0  0  0  0  0  0  0  0  0  0  0
  1  2  1  0
  2  3  2  3
  3  4  1  0
  4  5  1  0
  4  6  2  0
M  END
>  <Title>  (399) 
idAANKgen8

$$$$

     RDKit          2D

  1  0  0  0  0  0  0  0  0  0999 V2000
    0.0000    0.0000    0.0000 O   0  0  0  0  0  0  0  0  0  0  0  0
M  END
>  <Title>  (400) 
idAANLgen8

$$$$

     RDKit          2D

 12 12  0  0  0  0  0  0  0  0999 V2000
    3.7500   -1.2990    0.0000 C   0  0  0  0  0  0  0  0  0  0  0  0
    3.0000    0.0000    0.0000 O   0  0  0  0  0  0  0  0  0  0  0  0
    1.5000    0.0000    0.0000 C   0  0  0  0  0  0  0  0  0  0  0  0
    0.7500   -1.2990    0.0000 C   0  0  0  0  0  0  0  0  0  0  0  0
   -0.7500   -1.2990    0.0000 C   0  0  0  0  0  0  0  0  0  0  0  0
   -1.5000    0.0000    0.0000 C   0  0  0  0  0  0  0  0  0  0  0  0
   -3.0000    0.0000    0.0000 C   0  0  0  0  0  0  0  0  0  0  0  0
   -3.7500    1.2990    0.0000 C   0  0  0  0  0  0  0  0  0  0  0  0
   -3.7500   -1.2990    0.0000 O   0  0  0  0  0  0  0  0  0  0  0  0
   -0.7500    1.2990    0.0000 C   0  0  0  0  0  0  0  0  0  0  0  0
   -1.5000    2.5981    0.0000 O   0  0  0  0  0  0  0  0  0  0  0  0
    0.7500    1.2990    0.0000 C   0  0  0  0  0  0  0  0  0  0  0  0
  1  2  1  0
  2  3  1  0
  3  4  2  0
  4  5  1  0
  5  6  1  0
  6  7  1  0
  7  8  1  0
  7  9  1  0
  6 10  1  0
 10 11  2  0
 10 12  1  0
 12  3  1  0
M  END
>  <Title>  (401) 
idAANMgen8

$$$$

     RDKit          2D

 51 57  0  0  0  0  0  0  0  0999 V2000
   -1.9254  -12.5169    0.0000 C   0  0  0  0  0  0  0  0  0  0  0  0
   -1.4832  -11.0835    0.0000 C   0  0  0  0  0  0  0  0  0  0  0  0
   -0.0000  -11.3071    0.0000 C   0  0  0  0  0  0  0  0  0  0  0  0
    1.4832  -11.0835    0.0000 C   0  0  0  0  0  0  0  0  0  0  0  0
    2.8347  -10.4327    0.0000 C   0  0  0  0  0  0  0  0  0  0  0  0
    3.9343   -9.4124    0.0000 C   0  0  0  0  0  0  0  0  0  0  0  0
    4.6843   -8.1134    0.0000 C   0  0  0  0  0  0  0  0  0  0  0  0
    5.0181   -6.6510    0.0000 C   0  0  0  0  0  0  0  0  0  0  0  0
    4.9060   -5.1552    0.0000 C   0  0  0  0  0  0  0  0  0  0  0  0
    4.3580   -3.7589    0.0000 C   0  0  0  0  0  0  0  0  0  0  0  0
    3.4227   -2.5862    0.0000 C   0  0  0  0  0  0  0  0  0  0  0  0
    2.1834   -1.7412    0.0000 C   0  0  0  0  0  0  0  0  0  0  0  0
    2.8342   -0.3897    0.0000 C   0  0  0  0  0  0  0  0  0  0  0  0
    1.9892    0.8496    0.0000 O   0  0  0  0  0  0  0  0  0  0  0  0
    4.3300   -0.2776    0.0000 N   0  0  0  0  0  0  0  0  0  0  0  0
    4.9808    1.0738    0.0000 C   0  0  0  0  0  0  0  0  0  0  0  0
    6.4766    1.1859    0.0000 N   0  0  0  0  0  0  0  0  0  0  0  0
    7.1274    2.5374    0.0000 N   0  0  0  0  0  0  0  0  0  0  0  0
    6.2825    3.7767    0.0000 N   0  0  0  0  0  0  0  0  0  0  0  0
    4.7867    3.6646    0.0000 N   0  0  0  0  0  0  0  0  0  0  0  0
    4.1358    2.3132    0.0000 N   0  0  0  0  0  0  0  0  0  0  0  0
    0.7500   -1.2990    0.0000 C   0  0  0  0  0  0  0  0  0  0  0  0
    1.5000    0.0000    0.0000 C   0  0  0  0  0  0  0  0  0  0  0  0
    0.7500    1.2990    0.0000 C   0  0  0  0  0  0  0  0  0  0  0  0
   -0.7500    1.2990    0.0000 C   0  0  0  0  0  0  0  0  0  0  0  0
   -1.5000    0.0000    0.0000 C   0  0  0  0  0  0  0  0  0  0  0  0
   -0.7500   -1.2990    0.0000 C   0  0  0  0  0  0  0  0  0  0  0  0
   -2.1834   -1.7412    0.0000 C   0  0  0  0  0  0  0  0  0  0  0  0
   -2.2955   -0.2454    0.0000 C   0  0  0  0  0  0  0  0  0  0  0  0
   -3.6469    0.4055    0.0000 C   0  0  0  0  0  0  0  0  0  0  0  0
   -4.8863   -0.4395    0.0000 C   0  0  0  0  0  0  0  0  0  0  0  0
   -4.7742   -1.9353    0.0000 C   0  0  0  0  0  0  0  0  0  0  0  0
   -3.4227   -2.5862    0.0000 C   0  0  0  0  0  0  0  0  0  0  0  0
   -4.3580   -3.7589    0.0000 C   0  0  0  0  0  0  0  0  0  0  0  0
   -5.2932   -2.5862    0.0000 C   0  0  0  0  0  0  0  0  0  0  0  0
   -6.7764   -2.8097    0.0000 C   0  0  0  0  0  0  0  0  0  0  0  0
   -7.3244   -4.2060    0.0000 C   0  0  0  0  0  0  0  0  0  0  0  0
   -6.3892   -5.3788    0.0000 C   0  0  0  0  0  0  0  0  0  0  0  0
   -4.9060   -5.1552    0.0000 C   0  0  0  0  0  0  0  0  0  0  0  0
   -5.0181   -6.6510    0.0000 C   0  0  0  0  0  0  0  0  0  0  0  0
   -6.4514   -6.2089    0.0000 C   0  0  0  0  0  0  0  0  0  0  0  0
   -7.5510   -7.2291    0.0000 C   0  0  0  0  0  0  0  0  0  0  0  0
   -7.2172   -8.6915    0.0000 C   0  0  0  0  0  0  0  0  0  0  0  0
   -5.7839   -9.1337    0.0000 C   0  0  0  0  0  0  0  0  0  0  0  0
   -4.6843   -8.1134    0.0000 C   0  0  0  0  0  0  0  0  0  0  0  0
   -3.9343   -9.4124    0.0000 C   0  0  0  0  0  0  0  0  0  0  0  0
   -5.3676   -9.8546    0.0000 C   0  0  0  0  0  0  0  0  0  0  0  0
   -5.7014  -11.3170    0.0000 C   0  0  0  0  0  0  0  0  0  0  0  0
   -4.6018  -12.3372    0.0000 C   0  0  0  0  0  0  0  0  0  0  0  0
   -3.1685  -11.8951    0.0000 C   0  0  0  0  0  0  0  0  0  0  0  0
   -2.8347  -10.4327    0.0000 C   0  0  0  0  0  0  0  0  0  0  0  0
  1  2  1  0
  2  3  1  0
  3  4  1  0
  4  5  1  0
  5  6  1  0
  6  7  1  0
  7  8  1  0
  8  9  1  0
  9 10  1  0
 10 11  1  0
 11 12  1  0
 12 13  1  0
 13 14  2  0
 13 15  1  0
 15 16  1  0
 16 17  2  0
 17 18  1  0
 18 19  2  0
 19 20  1  0
 20 21  2  0
 12 22  1  0
 22 23  2  0
 23 24  1  0
 24 25  2  0
 25 26  1  0
 26 27  2  0
 27 28  1  0
 28 29  2  0
 29 30  1  0
 30 31  2  0
 31 32  1  0
 32 33  2  0
 33 34  1  0
 34 35  2  0
 35 36  1  0
 36 37  2  0
 37 38  1  0
 38 39  2  0
 39 40  1  0
 40 41  2  0
 41 42  1  0
 42 43  2  0
 43 44  1  0
 44 45  2  0
 45 46  1  0
 46 47  2  0
 47 48  1  0
 48 49  2  0
 49 50  1  0
 50 51  2  0
 51  2  1  0
 21 16  1  0
 27 22  1  0
 33 28  1  0
 39 34  1  0
 45 40  1  0
 51 46  1  0
M  END
>  <Title>  (402) 
idAANNgen8

$$$$

     RDKit          2D

 42 48  0  0  0  0  0  0  0  0999 V2000
    2.3655   -0.6523    0.0000 C   0  0  0  0  0  0  0  0  0  0  0  0
    2.0119   -2.1100    0.0000 C   0  0  0  0  0  0  0  0  0  0  0  0
    3.5051   -1.9674    0.0000 C   0  0  0  0  0  0  0  0  0  0  0  0
    4.1282   -0.6030    0.0000 C   0  0  0  0  0  0  0  0  0  0  0  0
    3.2581    0.6189    0.0000 O   0  0  0  0  0  0  0  0  0  0  0  0
    5.6214   -0.4604    0.0000 N   0  0  0  0  0  0  0  0  0  0  0  0
    6.2445    0.9041    0.0000 C   0  0  0  0  0  0  0  0  0  0  0  0
    7.7377    1.0466    0.0000 N   0  0  0  0  0  0  0  0  0  0  0  0
    8.3609    2.4111    0.0000 N   0  0  0  0  0  0  0  0  0  0  0  0
    7.4908    3.6330    0.0000 N   0  0  0  0  0  0  0  0  0  0  0  0
    5.9976    3.4904    0.0000 N   0  0  0  0  0  0  0  0  0  0  0  0
    5.3745    2.1259    0.0000 N   0  0  0  0  0  0  0  0  0  0  0  0
    0.7500   -1.2990    0.0000 C   0  0  0  0  0  0  0  0  0  0  0  0
    1.5000    0.0000    0.0000 C   0  0  0  0  0  0  0  0  0  0  0  0
    0.7500    1.2990    0.0000 C   0  0  0  0  0  0  0  0  0  0  0  0
   -0.7500    1.2990    0.0000 C   0  0  0  0  0  0  0  0  0  0  0  0
   -1.5000    0.0000    0.0000 C   0  0  0  0  0  0  0  0  0  0  0  0
   -0.7500   -1.2990    0.0000 C   0  0  0  0  0  0  0  0  0  0  0  0
   -2.0119   -2.1100    0.0000 C   0  0  0  0  0  0  0  0  0  0  0  0
   -2.8820   -0.8881    0.0000 C   0  0  0  0  0  0  0  0  0  0  0  0
   -4.3752   -1.0307    0.0000 C   0  0  0  0  0  0  0  0  0  0  0  0
   -4.9983   -2.3952    0.0000 C   0  0  0  0  0  0  0  0  0  0  0  0
   -4.1282   -3.6170    0.0000 C   0  0  0  0  0  0  0  0  0  0  0  0
   -2.6350   -3.4744    0.0000 C   0  0  0  0  0  0  0  0  0  0  0  0
   -2.4215   -4.9592    0.0000 C   0  0  0  0  0  0  0  0  0  0  0  0
   -3.8944   -5.2431    0.0000 C   0  0  0  0  0  0  0  0  0  0  0  0
   -4.3850   -6.6606    0.0000 C   0  0  0  0  0  0  0  0  0  0  0  0
   -3.4027   -7.7942    0.0000 C   0  0  0  0  0  0  0  0  0  0  0  0
   -1.9298   -7.5103    0.0000 C   0  0  0  0  0  0  0  0  0  0  0  0
   -1.4392   -6.0928    0.0000 C   0  0  0  0  0  0  0  0  0  0  0  0
   -0.0000   -6.5154    0.0000 C   0  0  0  0  0  0  0  0  0  0  0  0
   -0.3536   -7.9731    0.0000 C   0  0  0  0  0  0  0  0  0  0  0  0
    0.7320   -9.0082    0.0000 C   0  0  0  0  0  0  0  0  0  0  0  0
    2.1712   -8.5856    0.0000 C   0  0  0  0  0  0  0  0  0  0  0  0
    2.5248   -7.1279    0.0000 C   0  0  0  0  0  0  0  0  0  0  0  0
    1.4392   -6.0928    0.0000 C   0  0  0  0  0  0  0  0  0  0  0  0
    2.4215   -4.9592    0.0000 C   0  0  0  0  0  0  0  0  0  0  0  0
    3.6006   -5.8864    0.0000 C   0  0  0  0  0  0  0  0  0  0  0  0
    4.9932   -5.3289    0.0000 C   0  0  0  0  0  0  0  0  0  0  0  0
    5.2066   -3.8442    0.0000 C   0  0  0  0  0  0  0  0  0  0  0  0
    4.0276   -2.9170    0.0000 C   0  0  0  0  0  0  0  0  0  0  0  0
    2.6350   -3.4744    0.0000 C   0  0  0  0  0  0  0  0  0  0  0  0
  1  2  1  0
  2  3  1  0
  3  4  1  0
  4  5  2  0
  4  6  1  0
  6  7  1  0
  7  8  2  0
  8  9  1  0
  9 10  2  0
 10 11  1  0
 11 12  2  0
  2 13  1  0
 13 14  2  0
 14 15  1  0
 15 16  2  0
 16 17  1  0
 17 18  2  0
 18 19  1  0
 19 20  2  0
 20 21  1  0
 21 22  2  0
 22 23  1  0
 23 24  2  0
 24 25  1  0
 25 26  2  0
 26 27  1  0
 27 28  2  0
 28 29  1  0
 29 30  2  0
 30 31  1  0
 31 32  2  0
 32 33  1  0
 33 34  2  0
 34 35  1  0
 35 36  2  0
 36 37  1  0
 37 38  2  0
 38 39  1  0
 39 40  2  0
 40 41  1  0
 41 42  2  0
 42  2  1  0
 12  7  1  0
 18 13  1  0
 24 19  1  0
 30 25  1  0
 36 31  1  0
 42 37  1  0
M  END
>  <Title>  (403) 
idAANOgen8

$$$$

     RDKit          2D

 14 14  0  0  0  0  0  0  0  0999 V2000
    6.6172    0.9023    0.0000 C   0  0  0  0  0  0  0  0  0  0  0  0
    5.2077    1.4153    0.0000 C   0  0  0  0  0  0  0  0  0  0  0  0
    4.0586    0.4512    0.0000 C   0  0  0  0  0  0  0  0  0  0  0  0
    4.3191   -1.0261    0.0000 O   0  0  0  0  0  0  0  0  0  0  0  0
    2.6491    0.9642    0.0000 C   0  0  0  0  0  0  0  0  0  0  0  0
    1.5000    0.0000    0.0000 C   0  0  0  0  0  0  0  0  0  0  0  0
    2.6491   -0.9642    0.0000 O   0  0  0  0  0  0  0  0  0  0  0  0
    0.7500   -1.2990    0.0000 C   0  0  0  0  0  0  0  0  0  0  0  0
   -0.7500   -1.2990    0.0000 C   0  0  0  0  0  0  0  0  0  0  0  0
   -1.5000   -2.5981    0.0000 O   0  0  0  0  0  0  0  0  0  0  0  0
   -1.5000    0.0000    0.0000 C   0  0  0  0  0  0  0  0  0  0  0  0
   -0.7500    1.2990    0.0000 C   0  0  0  0  0  0  0  0  0  0  0  0
    0.7500    1.2990    0.0000 C   0  0  0  0  0  0  0  0  0  0  0  0
    1.5000    2.5981    0.0000 C   0  0  0  0  0  0  0  0  0  0  0  0
  1  2  1  0
  2  3  1  0
  3  4  2  0
  3  5  1  0
  5  6  1  0
  6  7  1  0
  6  8  1  0
  8  9  1  0
  9 10  1  0
  9 11  1  0
 11 12  1  0
 12 13  1  0
 13 14  1  0
 13  6  1  0
M  END
>  <Title>  (404) 
idAANPgen8

$$$$

     RDKit          2D

  8  7  0  0  0  0  0  0  0  0999 V2000
    0.0000    0.0000    0.0000 C   0  0  0  0  0  0  0  0  0  0  0  0
    1.2990    0.7500    0.0000 C   0  0  0  0  0  0  0  0  0  0  0  0
    2.5981   -0.0000    0.0000 C   0  0  0  0  0  0  0  0  0  0  0  0
    3.8971    0.7500    0.0000 C   0  0  0  0  0  0  0  0  0  0  0  0
    5.1962   -0.0000    0.0000 C   0  0  0  0  0  0  0  0  0  0  0  0
    5.1962   -1.5000    0.0000 O   0  0  0  0  0  0  0  0  0  0  0  0
    6.4952    0.7500    0.0000 C   0  0  0  0  0  0  0  0  0  0  0  0
    7.7942   -0.0000    0.0000 C   0  0  0  0  0  0  0  0  0  0  0  0
  1  2  1  0
  2  3  2  3
  3  4  1  0
  4  5  1  0
  5  6  2  0
  5  7  1  0
  7  8  1  0
M  END
>  <Title>  (405) 
idAANQgen8

$$$$

     RDKit          2D

 35 40  0  0  0  0  0  0  0  0999 V2000
    4.6001   -4.9005    0.0000 C   0  0  0  0  0  0  0  0  0  0  0  0
    3.1111   -4.7197    0.0000 C   0  0  0  0  0  0  0  0  0  0  0  0
    2.9303   -3.2306    0.0000 C   0  0  0  0  0  0  0  0  0  0  0  0
    2.0782   -1.9961    0.0000 C   0  0  0  0  0  0  0  0  0  0  0  0
    0.7500   -1.2990    0.0000 C   0  0  0  0  0  0  0  0  0  0  0  0
    1.5000    0.0000    0.0000 C   0  0  0  0  0  0  0  0  0  0  0  0
    0.7500    1.2990    0.0000 C   0  0  0  0  0  0  0  0  0  0  0  0
   -0.7500    1.2990    0.0000 C   0  0  0  0  0  0  0  0  0  0  0  0
   -1.5000    0.0000    0.0000 C   0  0  0  0  0  0  0  0  0  0  0  0
   -0.7500   -1.2990    0.0000 C   0  0  0  0  0  0  0  0  0  0  0  0
   -2.0782   -1.9961    0.0000 C   0  0  0  0  0  0  0  0  0  0  0  0
   -2.7212   -0.6409    0.0000 C   0  0  0  0  0  0  0  0  0  0  0  0
   -4.2164   -0.5202    0.0000 C   0  0  0  0  0  0  0  0  0  0  0  0
   -5.0685   -1.7547    0.0000 C   0  0  0  0  0  0  0  0  0  0  0  0
   -4.4254   -3.1099    0.0000 C   0  0  0  0  0  0  0  0  0  0  0  0
   -2.9303   -3.2306    0.0000 C   0  0  0  0  0  0  0  0  0  0  0  0
   -3.1111   -4.7197    0.0000 C   0  0  0  0  0  0  0  0  0  0  0  0
   -4.5917   -4.4790    0.0000 C   0  0  0  0  0  0  0  0  0  0  0  0
   -5.5403   -5.6410    0.0000 C   0  0  0  0  0  0  0  0  0  0  0  0
   -5.0084   -7.0435    0.0000 C   0  0  0  0  0  0  0  0  0  0  0  0
   -3.5278   -7.2841    0.0000 C   0  0  0  0  0  0  0  0  0  0  0  0
   -2.5792   -6.1222    0.0000 C   0  0  0  0  0  0  0  0  0  0  0  0
   -1.4564   -7.1169    0.0000 C   0  0  0  0  0  0  0  0  0  0  0  0
   -2.2479   -8.3911    0.0000 C   0  0  0  0  0  0  0  0  0  0  0  0
   -1.2806   -9.5375    0.0000 C   0  0  0  0  0  0  0  0  0  0  0  0
   -1.6396  -10.9940    0.0000 C   0  0  0  0  0  0  0  0  0  0  0  0
   -1.9986  -12.4504    0.0000 N   0  0  0  0  0  0  0  0  0  0  0  0
    0.1087   -8.9719    0.0000 C   0  0  0  0  0  0  0  0  0  0  0  0
   -0.0000   -7.4758    0.0000 C   0  0  0  0  0  0  0  0  0  0  0  0
    1.4564   -7.1169    0.0000 C   0  0  0  0  0  0  0  0  0  0  0  0
    1.7565   -8.5866    0.0000 C   0  0  0  0  0  0  0  0  0  0  0  0
    3.1793   -9.0616    0.0000 C   0  0  0  0  0  0  0  0  0  0  0  0
    4.3020   -8.0669    0.0000 C   0  0  0  0  0  0  0  0  0  0  0  0
    4.0020   -6.5972    0.0000 C   0  0  0  0  0  0  0  0  0  0  0  0
    2.5792   -6.1222    0.0000 C   0  0  0  0  0  0  0  0  0  0  0  0
  1  2  1  0
  2  3  1  0
  3  4  1  0
  4  5  1  0
  5  6  2  0
  6  7  1  0
  7  8  2  0
  8  9  1  0
  9 10  2  0
 10 11  1  0
 11 12  2  0
 12 13  1  0
 13 14  2  0
 14 15  1  0
 15 16  2  0
 16 17  1  0
 17 18  2  0
 18 19  1  0
 19 20  2  0
 20 21  1  0
 21 22  2  0
 22 23  1  0
 23 24  2  0
 24 25  1  0
 25 26  1  0
 26 27  3  0
 25 28  1  0
 28 29  2  0
 29 30  1  0
 30 31  2  0
 31 32  1  0
 32 33  2  0
 33 34  1  0
 34 35  2  0
 35  2  1  0
 10  5  1  0
 16 11  1  0
 22 17  1  0
 29 23  1  0
 35 30  1  0
M  END
>  <Title>  (406) 
idAANRgen8

$$$$

     RDKit          2D

 82 83  0  0  0  0  0  0  0  0999 V2000
   -4.2938   -0.8796    0.0000 C   0  0  0  0  0  0  0  0  0  0  0  0
   -4.2414    0.6195    0.0000 C   0  0  0  0  0  0  0  0  0  0  0  0
   -5.7370    0.7346    0.0000 C   0  0  0  0  0  0  0  0  0  0  0  0
   -7.2177    0.9744    0.0000 C   0  0  0  0  0  0  0  0  0  0  0  0
   -8.6731    1.3373    0.0000 C   0  0  0  0  0  0  0  0  0  0  0  0
  -10.0931    1.8207    0.0000 C   0  0  0  0  0  0  0  0  0  0  0  0
  -11.4677    2.4212    0.0000 C   0  0  0  0  0  0  0  0  0  0  0  0
  -12.7871    3.1346    0.0000 C   0  0  0  0  0  0  0  0  0  0  0  0
  -14.0423    3.9560    0.0000 C   0  0  0  0  0  0  0  0  0  0  0  0
  -15.2243    4.8795    0.0000 C   0  0  0  0  0  0  0  0  0  0  0  0
  -16.3249    5.8986    0.0000 C   0  0  0  0  0  0  0  0  0  0  0  0
  -17.3363    7.0063    0.0000 C   0  0  0  0  0  0  0  0  0  0  0  0
  -18.2516    8.1947    0.0000 C   0  0  0  0  0  0  0  0  0  0  0  0
  -19.0641    9.4556    0.0000 C   0  0  0  0  0  0  0  0  0  0  0  0
  -19.7683   10.7800    0.0000 C   0  0  0  0  0  0  0  0  0  0  0  0
  -20.3592   12.1587    0.0000 C   0  0  0  0  0  0  0  0  0  0  0  0
  -20.8327   13.5820    0.0000 C   0  0  0  0  0  0  0  0  0  0  0  0
  -21.1854   15.0400    0.0000 C   0  0  0  0  0  0  0  0  0  0  0  0
  -21.4149   16.5223    0.0000 C   0  0  0  0  0  0  0  0  0  0  0  0
  -21.5195   18.0187    0.0000 C   0  0  0  0  0  0  0  0  0  0  0  0
  -21.4986   19.5185    0.0000 C   0  0  0  0  0  0  0  0  0  0  0  0
  -21.3522   21.0113    0.0000 C   0  0  0  0  0  0  0  0  0  0  0  0
  -21.0814   22.4867    0.0000 C   0  0  0  0  0  0  0  0  0  0  0  0
  -20.6882   23.9342    0.0000 C   0  0  0  0  0  0  0  0  0  0  0  0
  -20.1751   25.3438    0.0000 C   0  0  0  0  0  0  0  0  0  0  0  0
  -19.5460   26.7054    0.0000 C   0  0  0  0  0  0  0  0  0  0  0  0
  -18.8050   28.0097    0.0000 C   0  0  0  0  0  0  0  0  0  0  0  0
  -17.9576   29.2473    0.0000 C   0  0  0  0  0  0  0  0  0  0  0  0
  -17.0095   30.4098    0.0000 C   0  0  0  0  0  0  0  0  0  0  0  0
  -15.9676   31.4888    0.0000 C   0  0  0  0  0  0  0  0  0  0  0  0
  -14.8389   32.4768    0.0000 C   0  0  0  0  0  0  0  0  0  0  0  0
  -13.6316   33.3669    0.0000 C   0  0  0  0  0  0  0  0  0  0  0  0
  -12.3540   34.1529    0.0000 C   0  0  0  0  0  0  0  0  0  0  0  0
  -11.0151   34.8292    0.0000 C   0  0  0  0  0  0  0  0  0  0  0  0
   -9.6244   35.3911    0.0000 C   0  0  0  0  0  0  0  0  0  0  0  0
   -8.1914   35.8347    0.0000 C   0  0  0  0  0  0  0  0  0  0  0  0
   -6.7264   36.1568    0.0000 C   0  0  0  0  0  0  0  0  0  0  0  0
   -5.2396   36.3552    0.0000 C   0  0  0  0  0  0  0  0  0  0  0  0
   -3.7414   36.4285    0.0000 C   0  0  0  0  0  0  0  0  0  0  0  0
   -2.2423   36.3761    0.0000 C   0  0  0  0  0  0  0  0  0  0  0  0
   -0.7529   36.1985    0.0000 C   0  0  0  0  0  0  0  0  0  0  0  0
    0.7165   35.8969    0.0000 C   0  0  0  0  0  0  0  0  0  0  0  0
    2.1555   35.4734    0.0000 C   0  0  0  0  0  0  0  0  0  0  0  0
    3.5540   34.9309    0.0000 C   0  0  0  0  0  0  0  0  0  0  0  0
    4.9022   34.2734    0.0000 C   0  0  0  0  0  0  0  0  0  0  0  0
    6.1906   33.5053    0.0000 C   0  0  0  0  0  0  0  0  0  0  0  0
    7.4102   32.6321    0.0000 C   0  0  0  0  0  0  0  0  0  0  0  0
    8.5526   31.6600    0.0000 C   0  0  0  0  0  0  0  0  0  0  0  0
    9.6095   30.5956    0.0000 C   0  0  0  0  0  0  0  0  0  0  0  0
   10.5737   29.4465    0.0000 C   0  0  0  0  0  0  0  0  0  0  0  0
   11.4383   28.2208    0.0000 C   0  0  0  0  0  0  0  0  0  0  0  0
   12.1974   26.9270    0.0000 C   0  0  0  0  0  0  0  0  0  0  0  0
   12.8455   25.5743    0.0000 C   0  0  0  0  0  0  0  0  0  0  0  0
   13.3782   24.1721    0.0000 C   0  0  0  0  0  0  0  0  0  0  0  0
   13.7916   22.7302    0.0000 C   0  0  0  0  0  0  0  0  0  0  0  0
   14.0830   21.2587    0.0000 C   0  0  0  0  0  0  0  0  0  0  0  0
   14.2502   19.7681    0.0000 C   0  0  0  0  0  0  0  0  0  0  0  0
   14.2921   18.2687    0.0000 C   0  0  0  0  0  0  0  0  0  0  0  0
   14.2083   16.7710    0.0000 C   0  0  0  0  0  0  0  0  0  0  0  0
   13.9996   15.2856    0.0000 C   0  0  0  0  0  0  0  0  0  0  0  0
   13.6672   13.8229    0.0000 C   0  0  0  0  0  0  0  0  0  0  0  0
   13.2137   12.3931    0.0000 C   0  0  0  0  0  0  0  0  0  0  0  0
   12.6421   11.0063    0.0000 C   0  0  0  0  0  0  0  0  0  0  0  0
   11.9564    9.6722    0.0000 C   0  0  0  0  0  0  0  0  0  0  0  0
   11.1616    8.4001    0.0000 C   0  0  0  0  0  0  0  0  0  0  0  0
   10.2630    7.1990    0.0000 C   0  0  0  0  0  0  0  0  0  0  0  0
    9.2671    6.0773    0.0000 C   0  0  0  0  0  0  0  0  0  0  0  0
    8.1809    5.0429    0.0000 C   0  0  0  0  0  0  0  0  0  0  0  0
    7.0119    4.1030    0.0000 C   0  0  0  0  0  0  0  0  0  0  0  0
    5.7683    3.2642    0.0000 C   0  0  0  0  0  0  0  0  0  0  0  0
    4.4589    2.5324    0.0000 C   0  0  0  0  0  0  0  0  0  0  0  0
    3.0929    1.9127    0.0000 C   0  0  0  0  0  0  0  0  0  0  0  0
    1.6798    1.4095    0.0000 C   0  0  0  0  0  0  0  0  0  0  0  0
    2.1929    0.0000    0.0000 N   0  0  0  0  0  0  0  0  0  0  0  0
    1.6798   -1.4095    0.0000 N   0  0  0  0  0  0  0  0  0  0  0  0
    0.3808   -2.1595    0.0000 N   0  0  0  0  0  0  0  0  0  0  0  0
   -1.0964   -1.8991    0.0000 N   0  0  0  0  0  0  0  0  0  0  0  0
   -2.0606   -0.7500    0.0000 N   0  0  0  0  0  0  0  0  0  0  0  0
   -2.0606    0.7500    0.0000 C   0  0  0  0  0  0  0  0  0  0  0  0
   -1.0964    1.8991    0.0000 N   0  0  0  0  0  0  0  0  0  0  0  0
    0.3808    2.1595    0.0000 C   0  0  0  0  0  0  0  0  0  0  0  0
    0.6413    3.6368    0.0000 O   0  0  0  0  0  0  0  0  0  0  0  0
  1  2  1  0
  2  3  1  0
  3  4  1  0
  4  5  1  0
  5  6  1  0
  6  7  1  0
  7  8  1  0
  8  9  1  0
  9 10  1  0
 10 11  1  0
 11 12  1  0
 12 13  1  0
 13 14  1  0
 14 15  1  0
 15 16  1  0
 16 17  1  0
 17 18  1  0
 18 19  1  0
 19 20  1  0
 20 21  1  0
 21 22  1  0
 22 23  1  0
 23 24  1  0
 24 25  1  0
 25 26  1  0
 26 27  1  0
 27 28  1  0
 28 29  1  0
 29 30  1  0
 30 31  1  0
 31 32  1  0
 32 33  1  0
 33 34  1  0
 34 35  1  0
 35 36  1  0
 36 37  2  0
 37 38  1  0
 38 39  2  0
 39 40  1  0
 40 41  2  0
 41 42  1  0
 42 43  2  0
 43 44  1  0
 44 45  2  0
 45 46  1  0
 46 47  2  0
 47 48  1  0
 48 49  2  0
 49 50  1  0
 50 51  2  0
 51 52  1  0
 52 53  2  0
 53 54  1  0
 54 55  2  0
 55 56  1  0
 56 57  2  0
 57 58  1  0
 58 59  2  0
 59 60  1  0
 60 61  2  0
 61 62  1  0
 62 63  2  0
 63 64  1  0
 64 65  2  0
 65 66  1  0
 66 67  2  0
 67 68  1  0
 68 69  2  0
 69 70  1  0
 70 71  2  0
 71 72  1  0
 72 73  2  0
 73 74  1  0
 74 75  2  0
 75 76  1  0
 76 77  2  0
 77 78  1  0
 78 79  2  0
 79 80  1  0
 80 81  1  0
 81 82  2  0
 79  2  1  0
 81 73  1  0
M  END
>  <Title>  (407) 
idAANSgen8

$$$$

     RDKit          2D

 10  9  0  0  0  0  0  0  0  0999 V2000
    0.0000    0.0000    0.0000 C   0  0  0  0  0  0  0  0  0  0  0  0
    1.2990    0.7500    0.0000 C   0  0  0  0  0  0  0  0  0  0  0  0
    2.5981    1.5000    0.0000 C   0  0  0  0  0  0  0  0  0  0  0  0
    3.8971    2.2500    0.0000 C   0  0  0  0  0  0  0  0  0  0  0  0
    5.1962    1.5000    0.0000 C   0  0  0  0  0  0  0  0  0  0  0  0
    6.4952    2.2500    0.0000 C   0  0  0  0  0  0  0  0  0  0  0  0
    7.7942    1.5000    0.0000 C   0  0  0  0  0  0  0  0  0  0  0  0
    9.0933    2.2500    0.0000 C   0  0  0  0  0  0  0  0  0  0  0  0
   10.3923    1.5000    0.0000 C   0  0  0  0  0  0  0  0  0  0  0  0
   11.6913    2.2500    0.0000 C   0  0  0  0  0  0  0  0  0  0  0  0
  1  2  1  0
  2  3  3  0
  3  4  1  0
  4  5  1  0
  5  6  1  0
  6  7  1  0
  7  8  1  0
  8  9  1  0
  9 10  1  0
M  END
>  <Title>  (408) 
idAANTgen8

$$$$

     RDKit          2D

  8  8  0  0  0  0  0  0  0  0999 V2000
    3.0000    0.0000    0.0000 C   0  0  0  0  0  0  0  0  0  0  0  0
    1.5000    0.0000    0.0000 C   0  0  0  0  0  0  0  0  0  0  0  0
    0.7500   -1.2990    0.0000 C   0  0  0  0  0  0  0  0  0  0  0  0
   -0.7500   -1.2990    0.0000 C   0  0  0  0  0  0  0  0  0  0  0  0
   -1.5000    0.0000    0.0000 C   0  0  0  0  0  0  0  0  0  0  0  0
   -3.0000    0.0000    0.0000 C   0  0  0  0  0  0  0  0  0  0  0  0
   -0.7500    1.2990    0.0000 C   0  0  0  0  0  0  0  0  0  0  0  0
    0.7500    1.2990    0.0000 C   0  0  0  0  0  0  0  0  0  0  0  0
  1  2  1  0
  2  3  2  0
  3  4  1  0
  4  5  1  0
  5  6  1  0
  5  7  2  0
  7  8  1  0
  8  2  1  0
M  END
>  <Title>  (409) 
idAANUgen8

$$$$

     RDKit          2D

 90 90  0  0  0  0  0  0  0  0999 V2000
   22.7516    0.0000    0.0000 C   0  0  0  0  0  0  0  0  0  0  0  0
   21.2516    0.0000    0.0000 C   0  0  0  0  0  0  0  0  0  0  0  0
   21.1987    1.4991    0.0000 C   0  0  0  0  0  0  0  0  0  0  0  0
   21.0401    2.9907    0.0000 C   0  0  0  0  0  0  0  0  0  0  0  0
   20.7767    4.4674    0.0000 C   0  0  0  0  0  0  0  0  0  0  0  0
   20.4099    5.9218    0.0000 C   0  0  0  0  0  0  0  0  0  0  0  0
   19.9413    7.3467    0.0000 C   0  0  0  0  0  0  0  0  0  0  0  0
   19.3734    8.7351    0.0000 C   0  0  0  0  0  0  0  0  0  0  0  0
   18.7090   10.0799    0.0000 C   0  0  0  0  0  0  0  0  0  0  0  0
   17.9514   11.3745    0.0000 C   0  0  0  0  0  0  0  0  0  0  0  0
   17.1043   12.6124    0.0000 C   0  0  0  0  0  0  0  0  0  0  0  0
   16.1720   13.7875    0.0000 C   0  0  0  0  0  0  0  0  0  0  0  0
   15.1592   14.8940    0.0000 C   0  0  0  0  0  0  0  0  0  0  0  0
   14.0708   15.9262    0.0000 C   0  0  0  0  0  0  0  0  0  0  0  0
   12.9123   16.8790    0.0000 C   0  0  0  0  0  0  0  0  0  0  0  0
   11.6895   17.7478    0.0000 C   0  0  0  0  0  0  0  0  0  0  0  0
   10.4085   18.5282    0.0000 C   0  0  0  0  0  0  0  0  0  0  0  0
    9.0756   19.2162    0.0000 C   0  0  0  0  0  0  0  0  0  0  0  0
    7.6975   19.8085    0.0000 C   0  0  0  0  0  0  0  0  0  0  0  0
    6.2811   20.3022    0.0000 C   0  0  0  0  0  0  0  0  0  0  0  0
    4.8333   20.6947    0.0000 C   0  0  0  0  0  0  0  0  0  0  0  0
    3.3615   20.9841    0.0000 C   0  0  0  0  0  0  0  0  0  0  0  0
    1.8730   21.1689    0.0000 C   0  0  0  0  0  0  0  0  0  0  0  0
    0.3751   21.2483    0.0000 C   0  0  0  0  0  0  0  0  0  0  0  0
   -1.1247   21.2218    0.0000 C   0  0  0  0  0  0  0  0  0  0  0  0
   -2.6189   21.0896    0.0000 C   0  0  0  0  0  0  0  0  0  0  0  0
   -4.1000   20.8524    0.0000 C   0  0  0  0  0  0  0  0  0  0  0  0
   -5.5607   20.5112    0.0000 C   0  0  0  0  0  0  0  0  0  0  0  0
   -6.9937   20.0679    0.0000 C   0  0  0  0  0  0  0  0  0  0  0  0
   -8.3918   19.5245    0.0000 C   0  0  0  0  0  0  0  0  0  0  0  0
   -9.7481   18.8840    0.0000 C   0  0  0  0  0  0  0  0  0  0  0  0
  -11.0559   18.1493    0.0000 C   0  0  0  0  0  0  0  0  0  0  0  0
  -12.3086   17.3242    0.0000 C   0  0  0  0  0  0  0  0  0  0  0  0
  -13.5000   16.4128    0.0000 C   0  0  0  0  0  0  0  0  0  0  0  0
  -14.6241   15.4197    0.0000 C   0  0  0  0  0  0  0  0  0  0  0  0
  -15.6754   14.3497    0.0000 C   0  0  0  0  0  0  0  0  0  0  0  0
  -16.6485   13.2082    0.0000 C   0  0  0  0  0  0  0  0  0  0  0  0
  -17.5387   12.0009    0.0000 C   0  0  0  0  0  0  0  0  0  0  0  0
  -18.3416   10.7339    0.0000 C   0  0  0  0  0  0  0  0  0  0  0  0
  -19.0531    9.4134    0.0000 C   0  0  0  0  0  0  0  0  0  0  0  0
  -19.6696    8.0459    0.0000 C   0  0  0  0  0  0  0  0  0  0  0  0
  -20.1882    6.6384    0.0000 C   0  0  0  0  0  0  0  0  0  0  0  0
  -20.6061    5.1978    0.0000 C   0  0  0  0  0  0  0  0  0  0  0  0
  -20.9215    3.7313    0.0000 C   0  0  0  0  0  0  0  0  0  0  0  0
  -21.1326    2.2463    0.0000 C   0  0  0  0  0  0  0  0  0  0  0  0
  -21.2384    0.7500    0.0000 C   0  0  0  0  0  0  0  0  0  0  0  0
  -21.2384   -0.7500    0.0000 C   0  0  0  0  0  0  0  0  0  0  0  0
  -21.1326   -2.2463    0.0000 C   0  0  0  0  0  0  0  0  0  0  0  0
  -20.9215   -3.7313    0.0000 C   0  0  0  0  0  0  0  0  0  0  0  0
  -20.6061   -5.1978    0.0000 C   0  0  0  0  0  0  0  0  0  0  0  0
  -20.1882   -6.6384    0.0000 C   0  0  0  0  0  0  0  0  0  0  0  0
  -19.6696   -8.0459    0.0000 C   0  0  0  0  0  0  0  0  0  0  0  0
  -19.0531   -9.4134    0.0000 C   0  0  0  0  0  0  0  0  0  0  0  0
  -18.3416  -10.7339    0.0000 C   0  0  0  0  0  0  0  0  0  0  0  0
  -17.5387  -12.0009    0.0000 C   0  0  0  0  0  0  0  0  0  0  0  0
  -16.6485  -13.2082    0.0000 C   0  0  0  0  0  0  0  0  0  0  0  0
  -15.6754  -14.3497    0.0000 C   0  0  0  0  0  0  0  0  0  0  0  0
  -14.6241  -15.4197    0.0000 C   0  0  0  0  0  0  0  0  0  0  0  0
  -13.5000  -16.4128    0.0000 C   0  0  0  0  0  0  0  0  0  0  0  0
  -12.3086  -17.3242    0.0000 C   0  0  0  0  0  0  0  0  0  0  0  0
  -11.0559  -18.1493    0.0000 C   0  0  0  0  0  0  0  0  0  0  0  0
   -9.7481  -18.8840    0.0000 C   0  0  0  0  0  0  0  0  0  0  0  0
   -8.3918  -19.5245    0.0000 C   0  0  0  0  0  0  0  0  0  0  0  0
   -6.9937  -20.0679    0.0000 C   0  0  0  0  0  0  0  0  0  0  0  0
   -5.5607  -20.5112    0.0000 C   0  0  0  0  0  0  0  0  0  0  0  0
   -4.1000  -20.8524    0.0000 C   0  0  0  0  0  0  0  0  0  0  0  0
   -2.6189  -21.0896    0.0000 C   0  0  0  0  0  0  0  0  0  0  0  0
   -1.1247  -21.2218    0.0000 C   0  0  0  0  0  0  0  0  0  0  0  0
    0.3751  -21.2483    0.0000 C   0  0  0  0  0  0  0  0  0  0  0  0
    1.8730  -21.1689    0.0000 C   0  0  0  0  0  0  0  0  0  0  0  0
    3.3615  -20.9841    0.0000 C   0  0  0  0  0  0  0  0  0  0  0  0
    4.8333  -20.6947    0.0000 C   0  0  0  0  0  0  0  0  0  0  0  0
    6.2811  -20.3022    0.0000 C   0  0  0  0  0  0  0  0  0  0  0  0
    7.6975  -19.8085    0.0000 C   0  0  0  0  0  0  0  0  0  0  0  0
    9.0756  -19.2162    0.0000 C   0  0  0  0  0  0  0  0  0  0  0  0
   10.4085  -18.5282    0.0000 C   0  0  0  0  0  0  0  0  0  0  0  0
   11.6895  -17.7478    0.0000 C   0  0  0  0  0  0  0  0  0  0  0  0
   12.9123  -16.8790    0.0000 C   0  0  0  0  0  0  0  0  0  0  0  0
   14.0708  -15.9262    0.0000 C   0  0  0  0  0  0  0  0  0  0  0  0
   15.1592  -14.8940    0.0000 C   0  0  0  0  0  0  0  0  0  0  0  0
   16.1720  -13.7875    0.0000 C   0  0  0  0  0  0  0  0  0  0  0  0
   17.1043  -12.6124    0.0000 C   0  0  0  0  0  0  0  0  0  0  0  0
   17.9514  -11.3745    0.0000 C   0  0  0  0  0  0  0  0  0  0  0  0
   18.7090  -10.0799    0.0000 C   0  0  0  0  0  0  0  0  0  0  0  0
   19.3734   -8.7351    0.0000 C   0  0  0  0  0  0  0  0  0  0  0  0
   19.9413   -7.3467    0.0000 C   0  0  0  0  0  0  0  0  0  0  0  0
   20.4099   -5.9218    0.0000 C   0  0  0  0  0  0  0  0  0  0  0  0
   20.7767   -4.4674    0.0000 C   0  0  0  0  0  0  0  0  0  0  0  0
   21.0401   -2.9907    0.0000 C   0  0  0  0  0  0  0  0  0  0  0  0
   21.1987   -1.4991    0.0000 C   0  0  0  0  0  0  0  0  0  0  0  0
  1  2  1  0
  2  3  1  0
  3  4  1  0
  4  5  1  0
  5  6  1  0
  6  7  1  0
  7  8  1  0
  8  9  1  0
  9 10  1  0
 10 11  1  0
 11 12  1  0
 12 13  1  0
 13 14  1  0
 14 15  1  0
 15 16  1  0
 16 17  1  0
 17 18  1  0
 18 19  1  0
 19 20  1  0
 20 21  1  0
 21 22  1  0
 22 23  1  0
 23 24  1  0
 24 25  1  0
 25 26  1  0
 26 27  1  0
 27 28  1  0
 28 29  1  0
 29 30  1  0
 30 31  1  0
 31 32  1  0
 32 33  1  0
 33 34  1  0
 34 35  1  0
 35 36  1  0
 36 37  1  0
 37 38  1  0
 38 39  1  0
 39 40  1  0
 40 41  1  0
 41 42  1  0
 42 43  1  0
 43 44  1  0
 44 45  1  0
 45 46  1  0
 46 47  1  0
 47 48  1  0
 48 49  1  0
 49 50  1  0
 50 51  1  0
 51 52  1  0
 52 53  1  0
 53 54  1  0
 54 55  1  0
 55 56  1  0
 56 57  1  0
 57 58  1  0
 58 59  1  0
 59 60  1  0
 60 61  1  0
 61 62  1  0
 62 63  1  0
 63 64  1  0
 64 65  1  0
 65 66  1  0
 66 67  1  0
 67 68  1  0
 68 69  1  0
 69 70  1  0
 70 71  1  0
 71 72  1  0
 72 73  1  0
 73 74  1  0
 74 75  1  0
 75 76  1  0
 76 77  1  0
 77 78  1  0
 78 79  1  0
 79 80  1  0
 80 81  1  0
 81 82  1  0
 82 83  1  0
 83 84  1  0
 84 85  1  0
 85 86  1  0
 86 87  1  0
 87 88  1  0
 88 89  1  0
 89 90  1  0
 90  2  1  0
M  END
>  <Title>  (410) 
idAANVgen8

$$$$

     RDKit          2D

 15 16  0  0  0  0  0  0  0  0999 V2000
    1.8478   -9.0619    0.0000 C   0  0  0  0  0  0  0  0  0  0  0  0
    2.0046   -7.5702    0.0000 C   0  0  0  0  0  0  0  0  0  0  0  0
    3.3037   -6.8202    0.0000 C   0  0  0  0  0  0  0  0  0  0  0  0
    2.9918   -5.3529    0.0000 C   0  0  0  0  0  0  0  0  0  0  0  0
    1.5000   -5.1962    0.0000 C   0  0  0  0  0  0  0  0  0  0  0  0
    0.7500   -3.8971    0.0000 C   0  0  0  0  0  0  0  0  0  0  0  0
   -0.7500   -3.8971    0.0000 O   0  0  0  0  0  0  0  0  0  0  0  0
    1.5000   -2.5981    0.0000 N   0  0  0  0  0  0  0  0  0  0  0  0
    0.7500   -1.2990    0.0000 C   0  0  0  0  0  0  0  0  0  0  0  0
    1.5000    0.0000    0.0000 N   0  0  0  0  0  0  0  0  0  0  0  0
    0.7500    1.2990    0.0000 N   0  0  0  0  0  0  0  0  0  0  0  0
   -0.7500    1.2990    0.0000 N   0  0  0  0  0  0  0  0  0  0  0  0
   -1.5000    0.0000    0.0000 N   0  0  0  0  0  0  0  0  0  0  0  0
   -0.7500   -1.2990    0.0000 N   0  0  0  0  0  0  0  0  0  0  0  0
    0.8899   -6.5665    0.0000 C   0  0  0  0  0  0  0  0  0  0  0  0
  1  2  1  0
  2  3  1  0
  3  4  1  0
  4  5  1  0
  5  6  1  0
  6  7  2  0
  6  8  1  0
  8  9  1  0
  9 10  2  0
 10 11  1  0
 11 12  2  0
 12 13  1  0
 13 14  2  0
  5 15  1  0
 15  2  1  0
 14  9  1  0
M  END
>  <Title>  (411) 
idAANWgen8

$$$$

     RDKit          2D

 62 71  0  0  0  0  0  0  0  0999 V2000
    6.2168   -5.0497    0.0000 C   0  0  0  0  0  0  0  0  0  0  0  0
    4.7353   -5.2844    0.0000 C   0  0  0  0  0  0  0  0  0  0  0  0
    4.2718   -3.8578    0.0000 C   0  0  0  0  0  0  0  0  0  0  0  0
    3.3901   -2.6442    0.0000 C   0  0  0  0  0  0  0  0  0  0  0  0
    2.1766   -1.7626    0.0000 C   0  0  0  0  0  0  0  0  0  0  0  0
    2.8576   -0.4261    0.0000 C   0  0  0  0  0  0  0  0  0  0  0  0
    2.0406    0.8320    0.0000 O   0  0  0  0  0  0  0  0  0  0  0  0
    4.3555   -0.3475    0.0000 N   0  0  0  0  0  0  0  0  0  0  0  0
    5.0365    0.9890    0.0000 C   0  0  0  0  0  0  0  0  0  0  0  0
    6.5344    1.0675    0.0000 N   0  0  0  0  0  0  0  0  0  0  0  0
    7.2154    2.4040    0.0000 N   0  0  0  0  0  0  0  0  0  0  0  0
    6.3985    3.6620    0.0000 N   0  0  0  0  0  0  0  0  0  0  0  0
    4.9005    3.5835    0.0000 N   0  0  0  0  0  0  0  0  0  0  0  0
    4.2195    2.2470    0.0000 N   0  0  0  0  0  0  0  0  0  0  0  0
    0.7500   -1.2990    0.0000 C   0  0  0  0  0  0  0  0  0  0  0  0
    1.5000    0.0000    0.0000 C   0  0  0  0  0  0  0  0  0  0  0  0
    0.7500    1.2990    0.0000 C   0  0  0  0  0  0  0  0  0  0  0  0
   -0.7500    1.2990    0.0000 C   0  0  0  0  0  0  0  0  0  0  0  0
   -1.5000    0.0000    0.0000 C   0  0  0  0  0  0  0  0  0  0  0  0
   -0.7500   -1.2990    0.0000 C   0  0  0  0  0  0  0  0  0  0  0  0
   -2.1766   -1.7626    0.0000 C   0  0  0  0  0  0  0  0  0  0  0  0
   -2.3334   -0.2708    0.0000 C   0  0  0  0  0  0  0  0  0  0  0  0
   -3.7037    0.3393    0.0000 C   0  0  0  0  0  0  0  0  0  0  0  0
   -4.9172   -0.5424    0.0000 C   0  0  0  0  0  0  0  0  0  0  0  0
   -4.7604   -2.0341    0.0000 C   0  0  0  0  0  0  0  0  0  0  0  0
   -3.3901   -2.6442    0.0000 C   0  0  0  0  0  0  0  0  0  0  0  0
   -4.2718   -3.8578    0.0000 C   0  0  0  0  0  0  0  0  0  0  0  0
   -5.2755   -2.7430    0.0000 C   0  0  0  0  0  0  0  0  0  0  0  0
   -6.7427   -3.0549    0.0000 C   0  0  0  0  0  0  0  0  0  0  0  0
   -7.2062   -4.4815    0.0000 C   0  0  0  0  0  0  0  0  0  0  0  0
   -6.2025   -5.5962    0.0000 C   0  0  0  0  0  0  0  0  0  0  0  0
   -4.7353   -5.2844    0.0000 C   0  0  0  0  0  0  0  0  0  0  0  0
   -4.7353   -6.7844    0.0000 C   0  0  0  0  0  0  0  0  0  0  0  0
   -6.2025   -6.4725    0.0000 C   0  0  0  0  0  0  0  0  0  0  0  0
   -7.2062   -7.5872    0.0000 C   0  0  0  0  0  0  0  0  0  0  0  0
   -6.7427   -9.0138    0.0000 C   0  0  0  0  0  0  0  0  0  0  0  0
   -5.2755   -9.3257    0.0000 C   0  0  0  0  0  0  0  0  0  0  0  0
   -4.2718   -8.2109    0.0000 C   0  0  0  0  0  0  0  0  0  0  0  0
   -3.3901   -9.4245    0.0000 C   0  0  0  0  0  0  0  0  0  0  0  0
   -4.7604  -10.0346    0.0000 C   0  0  0  0  0  0  0  0  0  0  0  0
   -4.9172  -11.5263    0.0000 C   0  0  0  0  0  0  0  0  0  0  0  0
   -3.7037  -12.4080    0.0000 C   0  0  0  0  0  0  0  0  0  0  0  0
   -2.3334  -11.7979    0.0000 N   0  0  0  0  0  0  0  0  0  0  0  0
   -2.1766  -10.3061    0.0000 C   0  0  0  0  0  0  0  0  0  0  0  0
   -0.7500  -10.7697    0.0000 C   0  0  0  0  0  0  0  0  0  0  0  0
   -1.5000  -12.0687    0.0000 C   0  0  0  0  0  0  0  0  0  0  0  0
   -0.7500  -13.3677    0.0000 C   0  0  0  0  0  0  0  0  0  0  0  0
    0.7500  -13.3677    0.0000 C   0  0  0  0  0  0  0  0  0  0  0  0
    1.5000  -12.0687    0.0000 C   0  0  0  0  0  0  0  0  0  0  0  0
    0.7500  -10.7697    0.0000 C   0  0  0  0  0  0  0  0  0  0  0  0
    2.1766  -10.3061    0.0000 C   0  0  0  0  0  0  0  0  0  0  0  0
    2.3334  -11.7979    0.0000 C   0  0  0  0  0  0  0  0  0  0  0  0
    3.7037  -12.4080    0.0000 C   0  0  0  0  0  0  0  0  0  0  0  0
    4.9172  -11.5263    0.0000 C   0  0  0  0  0  0  0  0  0  0  0  0
    4.7604  -10.0346    0.0000 C   0  0  0  0  0  0  0  0  0  0  0  0
    3.3901   -9.4245    0.0000 C   0  0  0  0  0  0  0  0  0  0  0  0
    4.2718   -8.2109    0.0000 C   0  0  0  0  0  0  0  0  0  0  0  0
    5.2755   -9.3257    0.0000 C   0  0  0  0  0  0  0  0  0  0  0  0
    6.7427   -9.0138    0.0000 C   0  0  0  0  0  0  0  0  0  0  0  0
    7.2062   -7.5872    0.0000 C   0  0  0  0  0  0  0  0  0  0  0  0
    6.2025   -6.4725    0.0000 C   0  0  0  0  0  0  0  0  0  0  0  0
    4.7353   -6.7844    0.0000 C   0  0  0  0  0  0  0  0  0  0  0  0
  1  2  1  0
  2  3  1  0
  3  4  1  0
  4  5  1  0
  5  6  1  0
  6  7  2  0
  6  8  1  0
  8  9  1  0
  9 10  2  0
 10 11  1  0
 11 12  2  0
 12 13  1  0
 13 14  2  0
  5 15  1  0
 15 16  2  0
 16 17  1  0
 17 18  2  0
 18 19  1  0
 19 20  2  0
 20 21  1  0
 21 22  2  0
 22 23  1  0
 23 24  2  0
 24 25  1  0
 25 26  2  0
 26 27  1  0
 27 28  2  0
 28 29  1  0
 29 30  2  0
 30 31  1  0
 31 32  2  0
 32 33  1  0
 33 34  2  0
 34 35  1  0
 35 36  2  0
 36 37  1  0
 37 38  2  0
 38 39  1  0
 39 40  2  0
 40 41  1  0
 41 42  2  0
 42 43  1  0
 43 44  2  0
 44 45  1  0
 45 46  2  0
 46 47  1  0
 47 48  2  0
 48 49  1  0
 49 50  2  0
 50 51  1  0
 51 52  2  0
 52 53  1  0
 53 54  2  0
 54 55  1  0
 55 56  2  0
 56 57  1  0
 57 58  2  0
 58 59  1  0
 59 60  2  0
 60 61  1  0
 61 62  2  0
 62  2  1  0
 14  9  1  0
 20 15  1  0
 26 21  1  0
 32 27  1  0
 38 33  1  0
 44 39  1  0
 50 45  1  0
 56 51  1  0
 62 57  1  0
M  END
>  <Title>  (412) 
idAANXgen8

$$$$

     RDKit          2D

 19 21  0  0  0  0  0  0  0  0999 V2000
   -3.0000   -2.5981    0.0000 C   0  0  0  0  0  0  0  0  0  0  0  0
   -1.5000   -2.5981    0.0000 C   0  0  0  0  0  0  0  0  0  0  0  0
   -0.7500   -3.8971    0.0000 C   0  0  0  0  0  0  0  0  0  0  0  0
    0.7500   -3.8971    0.0000 C   0  0  0  0  0  0  0  0  0  0  0  0
    1.5000   -2.5981    0.0000 C   0  0  0  0  0  0  0  0  0  0  0  0
    3.0000   -2.5981    0.0000 C   0  0  0  0  0  0  0  0  0  0  0  0
    3.7500   -1.2990    0.0000 N   0  0  0  0  0  0  0  0  0  0  0  0
    3.7500   -3.8971    0.0000 C   0  0  0  0  0  0  0  0  0  0  0  0
    3.0000   -5.1962    0.0000 C   0  0  0  0  0  0  0  0  0  0  0  0
    3.7500   -6.4952    0.0000 C   0  0  0  0  0  0  0  0  0  0  0  0
    5.2500   -6.4952    0.0000 N   0  0  0  0  0  0  0  0  0  0  0  0
    6.0000   -5.1962    0.0000 N   0  0  0  0  0  0  0  0  0  0  0  0
    5.2500   -3.8971    0.0000 N   0  0  0  0  0  0  0  0  0  0  0  0
    0.7500   -1.2990    0.0000 C   0  0  0  0  0  0  0  0  0  0  0  0
    1.5000    0.0000    0.0000 C   0  0  0  0  0  0  0  0  0  0  0  0
    0.7500    1.2990    0.0000 C   0  0  0  0  0  0  0  0  0  0  0  0
   -0.7500    1.2990    0.0000 C   0  0  0  0  0  0  0  0  0  0  0  0
   -1.5000    0.0000    0.0000 C   0  0  0  0  0  0  0  0  0  0  0  0
   -0.7500   -1.2990    0.0000 C   0  0  0  0  0  0  0  0  0  0  0  0
  1  2  1  0
  2  3  1  0
  3  4  2  0
  4  5  1  0
  5  6  1  0
  6  7  1  0
  6  8  1  0
  8  9  2  0
  9 10  1  0
 10 11  2  0
 11 12  1  0
 12 13  2  0
  5 14  1  0
 14 15  2  0
 15 16  1  0
 16 17  2  0
 17 18  1  0
 18 19  2  0
 19  2  1  0
 13  8  1  0
 19 14  1  0
M  END
>  <Title>  (413) 
idAANYgen8

$$$$

     RDKit          2D

  9  9  0  0  0  0  0  0  0  0999 V2000
    4.5000    0.0000    0.0000 C   0  0  0  0  0  0  0  0  0  0  0  0
    3.0000    0.0000    0.0000 C   0  0  0  0  0  0  0  0  0  0  0  0
    1.5000    0.0000    0.0000 C   0  0  0  0  0  0  0  0  0  0  0  0
    0.7500   -1.2990    0.0000 C   0  0  0  0  0  0  0  0  0  0  0  0
   -0.7500   -1.2990    0.0000 C   0  0  0  0  0  0  0  0  0  0  0  0
   -1.5000    0.0000    0.0000 C   0  0  0  0  0  0  0  0  0  0  0  0
   -3.0000    0.0000    0.0000 C   0  0  0  0  0  0  0  0  0  0  0  0
   -0.7500    1.2990    0.0000 C   0  0  0  0  0  0  0  0  0  0  0  0
    0.7500    1.2990    0.0000 C   0  0  0  0  0  0  0  0  0  0  0  0
  1  2  3  0
  2  3  1  0
  3  4  2  0
  4  5  1  0
  5  6  1  0
  6  7  1  0
  6  8  2  0
  8  9  1  0
  9  3  1  0
M  END
>  <Title>  (414) 
idAANZgen8

$$$$

     RDKit          2D

 22 24  0  0  0  0  0  0  0  0999 V2000
   -3.1476   -2.1380    0.0000 C   0  0  0  0  0  0  0  0  0  0  0  0
   -1.6852   -2.4718    0.0000 C   0  0  0  0  0  0  0  0  0  0  0  0
   -1.3515   -3.9342    0.0000 C   0  0  0  0  0  0  0  0  0  0  0  0
   -0.0000   -4.5850    0.0000 C   0  0  0  0  0  0  0  0  0  0  0  0
    1.3515   -3.9342    0.0000 C   0  0  0  0  0  0  0  0  0  0  0  0
    1.6852   -2.4718    0.0000 C   0  0  0  0  0  0  0  0  0  0  0  0
    3.1476   -2.1380    0.0000 C   0  0  0  0  0  0  0  0  0  0  0  0
    3.5898   -0.7046    0.0000 O   0  0  0  0  0  0  0  0  0  0  0  0
    4.1679   -3.2376    0.0000 N   0  0  0  0  0  0  0  0  0  0  0  0
    5.6303   -2.9038    0.0000 C   0  0  0  0  0  0  0  0  0  0  0  0
    6.6505   -4.0034    0.0000 N   0  0  0  0  0  0  0  0  0  0  0  0
    8.1129   -3.6696    0.0000 N   0  0  0  0  0  0  0  0  0  0  0  0
    8.5551   -2.2362    0.0000 N   0  0  0  0  0  0  0  0  0  0  0  0
    7.5348   -1.1367    0.0000 N   0  0  0  0  0  0  0  0  0  0  0  0
    6.0724   -1.4704    0.0000 N   0  0  0  0  0  0  0  0  0  0  0  0
    0.7500   -1.2990    0.0000 C   0  0  0  0  0  0  0  0  0  0  0  0
    1.5000    0.0000    0.0000 C   0  0  0  0  0  0  0  0  0  0  0  0
    0.7500    1.2990    0.0000 C   0  0  0  0  0  0  0  0  0  0  0  0
   -0.7500    1.2990    0.0000 C   0  0  0  0  0  0  0  0  0  0  0  0
   -1.5000    2.5981    0.0000 Cl  0  0  0  0  0  0  0  0  0  0  0  0
   -1.5000    0.0000    0.0000 C   0  0  0  0  0  0  0  0  0  0  0  0
   -0.7500   -1.2990    0.0000 C   0  0  0  0  0  0  0  0  0  0  0  0
  1  2  1  0
  2  3  2  0
  3  4  1  0
  4  5  1  0
  5  6  1  0
  6  7  1  0
  7  8  2  0
  7  9  1  0
  9 10  1  0
 10 11  2  0
 11 12  1  0
 12 13  2  0
 13 14  1  0
 14 15  2  0
  6 16  1  0
 16 17  2  0
 17 18  1  0
 18 19  2  0
 19 20  1  0
 19 21  1  0
 21 22  2  0
 22  2  1  0
 15 10  1  0
 22 16  1  0
M  END
>  <Title>  (415) 
idAAOAgen8

$$$$

     RDKit          2D

  8  8  0  0  0  0  0  0  0  0999 V2000
    5.0260   -1.2990    0.0000 C   0  0  0  0  0  0  0  0  0  0  0  0
    3.5260   -1.2990    0.0000 C   0  0  0  0  0  0  0  0  0  0  0  0
    2.7760    0.0000    0.0000 C   0  0  0  0  0  0  0  0  0  0  0  0
    1.2760    0.0000    0.0000 C   0  0  0  0  0  0  0  0  0  0  0  0
    0.3943    1.2135    0.0000 C   0  0  0  0  0  0  0  0  0  0  0  0
   -1.0323    0.7500    0.0000 C   0  0  0  0  0  0  0  0  0  0  0  0
   -1.0323   -0.7500    0.0000 C   0  0  0  0  0  0  0  0  0  0  0  0
    0.3943   -1.2135    0.0000 C   0  0  0  0  0  0  0  0  0  0  0  0
  1  2  1  0
  2  3  1  0
  3  4  1  0
  4  5  2  0
  5  6  1  0
  6  7  1  0
  7  8  2  0
  8  4  1  0
M  END
>  <Title>  (416) 
idAAOBgen8

$$$$

     RDKit          2D

 15 15  0  0  0  0  0  0  0  0999 V2000
    5.7760   -2.5981    0.0000 C   0  0  0  0  0  0  0  0  0  0  0  0
    5.0260   -1.2990    0.0000 C   0  0  0  0  0  0  0  0  0  0  0  0
    3.5260   -1.2990    0.0000 C   0  0  0  0  0  0  0  0  0  0  0  0
    2.7760   -2.5981    0.0000 O   0  0  0  0  0  0  0  0  0  0  0  0
    2.7760    0.0000    0.0000 N   0  0  0  0  0  0  0  0  0  0  0  0
    1.2760    0.0000    0.0000 C   0  0  0  0  0  0  0  0  0  0  0  0
    0.3943    1.2135    0.0000 N   0  0  0  0  0  0  0  0  0  0  0  0
   -1.0323    0.7500    0.0000 N   0  0  0  0  0  0  0  0  0  0  0  0
   -1.0323   -0.7500    0.0000 C   0  0  0  0  0  0  0  0  0  0  0  0
   -2.2458   -1.6317    0.0000 N   0  0  0  0  0  0  0  0  0  0  0  0
   -3.6161   -1.0216    0.0000 C   0  0  0  0  0  0  0  0  0  0  0  0
   -4.8297   -1.9033    0.0000 C   0  0  0  0  0  0  0  0  0  0  0  0
   -3.7729    0.4702    0.0000 C   0  0  0  0  0  0  0  0  0  0  0  0
    0.3943   -1.2135    0.0000 C   0  0  0  0  0  0  0  0  0  0  0  0
    0.8578   -2.6401    0.0000 O   0  0  0  0  0  0  0  0  0  0  0  0
  1  2  1  0
  2  3  1  0
  3  4  2  0
  3  5  1  0
  5  6  1  0
  6  7  2  0
  7  8  1  0
  8  9  2  0
  9 10  1  0
 10 11  1  0
 11 12  1  0
 11 13  1  0
  9 14  1  0
 14 15  2  0
 14  6  1  0
M  END
>  <Title>  (417) 
idAAOCgen8

$$$$

     RDKit          2D

109109  0  0  0  0  0  0  0  0999 V2000
   27.2867    0.0000    0.0000 C   0  0  0  0  0  0  0  0  0  0  0  0
   25.7867    0.0000    0.0000 C   0  0  0  0  0  0  0  0  0  0  0  0
   25.7431   -1.4994    0.0000 C   0  0  0  0  0  0  0  0  0  0  0  0
   25.6124   -2.9937    0.0000 C   0  0  0  0  0  0  0  0  0  0  0  0
   25.3950   -4.4778    0.0000 C   0  0  0  0  0  0  0  0  0  0  0  0
   25.0917   -5.9468    0.0000 C   0  0  0  0  0  0  0  0  0  0  0  0
   24.7034   -7.3957    0.0000 C   0  0  0  0  0  0  0  0  0  0  0  0
   24.2316   -8.8196    0.0000 C   0  0  0  0  0  0  0  0  0  0  0  0
   23.6778  -10.2136    0.0000 C   0  0  0  0  0  0  0  0  0  0  0  0
   23.0439  -11.5731    0.0000 C   0  0  0  0  0  0  0  0  0  0  0  0
   22.3320  -12.8934    0.0000 C   0  0  0  0  0  0  0  0  0  0  0  0
   21.5445  -14.1700    0.0000 C   0  0  0  0  0  0  0  0  0  0  0  0
   20.6841  -15.3988    0.0000 C   0  0  0  0  0  0  0  0  0  0  0  0
   19.7538  -16.5754    0.0000 C   0  0  0  0  0  0  0  0  0  0  0  0
   18.7566  -17.6959    0.0000 C   0  0  0  0  0  0  0  0  0  0  0  0
   17.6959  -18.7566    0.0000 C   0  0  0  0  0  0  0  0  0  0  0  0
   16.5754  -19.7538    0.0000 C   0  0  0  0  0  0  0  0  0  0  0  0
   15.3988  -20.6841    0.0000 C   0  0  0  0  0  0  0  0  0  0  0  0
   14.1700  -21.5445    0.0000 C   0  0  0  0  0  0  0  0  0  0  0  0
   12.8934  -22.3320    0.0000 C   0  0  0  0  0  0  0  0  0  0  0  0
   11.5731  -23.0439    0.0000 C   0  0  0  0  0  0  0  0  0  0  0  0
   10.2136  -23.6778    0.0000 C   0  0  0  0  0  0  0  0  0  0  0  0
    8.8196  -24.2316    0.0000 C   0  0  0  0  0  0  0  0  0  0  0  0
    7.3957  -24.7034    0.0000 C   0  0  0  0  0  0  0  0  0  0  0  0
    5.9468  -25.0917    0.0000 C   0  0  0  0  0  0  0  0  0  0  0  0
    4.4778  -25.3950    0.0000 C   0  0  0  0  0  0  0  0  0  0  0  0
    2.9937  -25.6124    0.0000 C   0  0  0  0  0  0  0  0  0  0  0  0
    1.4994  -25.7431    0.0000 C   0  0  0  0  0  0  0  0  0  0  0  0
   -0.0000  -25.7867    0.0000 C   0  0  0  0  0  0  0  0  0  0  0  0
   -1.4994  -25.7431    0.0000 C   0  0  0  0  0  0  0  0  0  0  0  0
   -2.9937  -25.6124    0.0000 C   0  0  0  0  0  0  0  0  0  0  0  0
   -4.4778  -25.3950    0.0000 C   0  0  0  0  0  0  0  0  0  0  0  0
   -5.9468  -25.0917    0.0000 C   0  0  0  0  0  0  0  0  0  0  0  0
   -7.3957  -24.7034    0.0000 C   0  0  0  0  0  0  0  0  0  0  0  0
   -8.8196  -24.2316    0.0000 C   0  0  0  0  0  0  0  0  0  0  0  0
  -10.2136  -23.6778    0.0000 C   0  0  0  0  0  0  0  0  0  0  0  0
  -11.5731  -23.0439    0.0000 C   0  0  0  0  0  0  0  0  0  0  0  0
  -12.8934  -22.3320    0.0000 C   0  0  0  0  0  0  0  0  0  0  0  0
  -14.1700  -21.5445    0.0000 C   0  0  0  0  0  0  0  0  0  0  0  0
  -15.3988  -20.6841    0.0000 C   0  0  0  0  0  0  0  0  0  0  0  0
  -16.5754  -19.7538    0.0000 C   0  0  0  0  0  0  0  0  0  0  0  0
  -17.6959  -18.7566    0.0000 C   0  0  0  0  0  0  0  0  0  0  0  0
  -18.7566  -17.6959    0.0000 C   0  0  0  0  0  0  0  0  0  0  0  0
  -19.7538  -16.5754    0.0000 C   0  0  0  0  0  0  0  0  0  0  0  0
  -20.6841  -15.3988    0.0000 C   0  0  0  0  0  0  0  0  0  0  0  0
  -21.5445  -14.1700    0.0000 C   0  0  0  0  0  0  0  0  0  0  0  0
  -22.3320  -12.8934    0.0000 C   0  0  0  0  0  0  0  0  0  0  0  0
  -23.0439  -11.5731    0.0000 C   0  0  0  0  0  0  0  0  0  0  0  0
  -23.6778  -10.2136    0.0000 C   0  0  0  0  0  0  0  0  0  0  0  0
  -24.2316   -8.8196    0.0000 C   0  0  0  0  0  0  0  0  0  0  0  0
  -24.7034   -7.3957    0.0000 C   0  0  0  0  0  0  0  0  0  0  0  0
  -25.0917   -5.9468    0.0000 C   0  0  0  0  0  0  0  0  0  0  0  0
  -25.3950   -4.4778    0.0000 C   0  0  0  0  0  0  0  0  0  0  0  0
  -25.6124   -2.9937    0.0000 C   0  0  0  0  0  0  0  0  0  0  0  0
  -25.7431   -1.4994    0.0000 C   0  0  0  0  0  0  0  0  0  0  0  0
  -25.7867    0.0000    0.0000 C   0  0  0  0  0  0  0  0  0  0  0  0
  -25.7431    1.4994    0.0000 C   0  0  0  0  0  0  0  0  0  0  0  0
  -25.6124    2.9937    0.0000 C   0  0  0  0  0  0  0  0  0  0  0  0
  -25.3950    4.4778    0.0000 C   0  0  0  0  0  0  0  0  0  0  0  0
  -25.0917    5.9468    0.0000 C   0  0  0  0  0  0  0  0  0  0  0  0
  -24.7034    7.3957    0.0000 C   0  0  0  0  0  0  0  0  0  0  0  0
  -24.2316    8.8196    0.0000 C   0  0  0  0  0  0  0  0  0  0  0  0
  -23.6778   10.2136    0.0000 C   0  0  0  0  0  0  0  0  0  0  0  0
  -23.0439   11.5731    0.0000 C   0  0  0  0  0  0  0  0  0  0  0  0
  -22.3320   12.8934    0.0000 C   0  0  0  0  0  0  0  0  0  0  0  0
  -21.5445   14.1700    0.0000 C   0  0  0  0  0  0  0  0  0  0  0  0
  -20.6841   15.3988    0.0000 C   0  0  0  0  0  0  0  0  0  0  0  0
  -19.7538   16.5754    0.0000 C   0  0  0  0  0  0  0  0  0  0  0  0
  -18.7566   17.6959    0.0000 C   0  0  0  0  0  0  0  0  0  0  0  0
  -17.6959   18.7566    0.0000 C   0  0  0  0  0  0  0  0  0  0  0  0
  -16.5754   19.7538    0.0000 C   0  0  0  0  0  0  0  0  0  0  0  0
  -15.3988   20.6841    0.0000 C   0  0  0  0  0  0  0  0  0  0  0  0
  -14.1700   21.5445    0.0000 C   0  0  0  0  0  0  0  0  0  0  0  0
  -12.8934   22.3320    0.0000 C   0  0  0  0  0  0  0  0  0  0  0  0
  -11.5731   23.0439    0.0000 C   0  0  0  0  0  0  0  0  0  0  0  0
  -10.2136   23.6778    0.0000 C   0  0  0  0  0  0  0  0  0  0  0  0
   -8.8196   24.2316    0.0000 C   0  0  0  0  0  0  0  0  0  0  0  0
   -7.3957   24.7034    0.0000 C   0  0  0  0  0  0  0  0  0  0  0  0
   -5.9468   25.0917    0.0000 C   0  0  0  0  0  0  0  0  0  0  0  0
   -4.4778   25.3950    0.0000 C   0  0  0  0  0  0  0  0  0  0  0  0
   -2.9937   25.6124    0.0000 C   0  0  0  0  0  0  0  0  0  0  0  0
   -1.4994   25.7431    0.0000 C   0  0  0  0  0  0  0  0  0  0  0  0
    0.0000   25.7867    0.0000 C   0  0  0  0  0  0  0  0  0  0  0  0
    1.4994   25.7431    0.0000 C   0  0  0  0  0  0  0  0  0  0  0  0
    2.9937   25.6124    0.0000 C   0  0  0  0  0  0  0  0  0  0  0  0
    4.4778   25.3950    0.0000 C   0  0  0  0  0  0  0  0  0  0  0  0
    5.9468   25.0917    0.0000 C   0  0  0  0  0  0  0  0  0  0  0  0
    7.3957   24.7034    0.0000 C   0  0  0  0  0  0  0  0  0  0  0  0
    8.8196   24.2316    0.0000 C   0  0  0  0  0  0  0  0  0  0  0  0
   10.2136   23.6778    0.0000 C   0  0  0  0  0  0  0  0  0  0  0  0
   11.5731   23.0439    0.0000 C   0  0  0  0  0  0  0  0  0  0  0  0
   12.8934   22.3320    0.0000 C   0  0  0  0  0  0  0  0  0  0  0  0
   14.1700   21.5445    0.0000 C   0  0  0  0  0  0  0  0  0  0  0  0
   15.3988   20.6841    0.0000 C   0  0  0  0  0  0  0  0  0  0  0  0
   16.5754   19.7538    0.0000 C   0  0  0  0  0  0  0  0  0  0  0  0
   17.6959   18.7566    0.0000 C   0  0  0  0  0  0  0  0  0  0  0  0
   18.7566   17.6959    0.0000 C   0  0  0  0  0  0  0  0  0  0  0  0
   19.7538   16.5754    0.0000 C   0  0  0  0  0  0  0  0  0  0  0  0
   20.6841   15.3988    0.0000 C   0  0  0  0  0  0  0  0  0  0  0  0
   21.5445   14.1700    0.0000 C   0  0  0  0  0  0  0  0  0  0  0  0
   22.3320   12.8934    0.0000 C   0  0  0  0  0  0  0  0  0  0  0  0
   23.0439   11.5731    0.0000 C   0  0  0  0  0  0  0  0  0  0  0  0
   23.6778   10.2136    0.0000 C   0  0  0  0  0  0  0  0  0  0  0  0
   24.2316    8.8196    0.0000 C   0  0  0  0  0  0  0  0  0  0  0  0
   24.7034    7.3957    0.0000 C   0  0  0  0  0  0  0  0  0  0  0  0
   25.0917    5.9468    0.0000 C   0  0  0  0  0  0  0  0  0  0  0  0
   25.3950    4.4778    0.0000 C   0  0  0  0  0  0  0  0  0  0  0  0
   25.6124    2.9937    0.0000 C   0  0  0  0  0  0  0  0  0  0  0  0
   25.7431    1.4994    0.0000 C   0  0  0  0  0  0  0  0  0  0  0  0
  1  2  1  0
  2  3  1  0
  3  4  2  0
  4  5  1  0
  5  6  2  0
  6  7  1  0
  7  8  2  0
  8  9  1  0
  9 10  2  0
 10 11  1  0
 11 12  2  0
 12 13  1  0
 13 14  2  0
 14 15  1  0
 15 16  1  0
 16 17  1  0
 17 18  1  0
 18 19  1  0
 19 20  1  0
 20 21  1  0
 21 22  1  0
 22 23  1  0
 23 24  1  0
 24 25  1  0
 25 26  1  0
 26 27  1  0
 27 28  1  0
 28 29  1  0
 29 30  1  0
 30 31  1  0
 31 32  1  0
 32 33  1  0
 33 34  1  0
 34 35  1  0
 35 36  1  0
 36 37  1  0
 37 38  1  0
 38 39  1  0
 39 40  1  0
 40 41  1  0
 41 42  1  0
 42 43  1  0
 43 44  1  0
 44 45  1  0
 45 46  1  0
 46 47  1  0
 47 48  1  0
 48 49  1  0
 49 50  1  0
 50 51  1  0
 51 52  1  0
 52 53  1  0
 53 54  1  0
 54 55  1  0
 55 56  1  0
 56 57  1  0
 57 58  1  0
 58 59  1  0
 59 60  1  0
 60 61  1  0
 61 62  1  0
 62 63  1  0
 63 64  1  0
 64 65  1  0
 65 66  1  0
 66 67  1  0
 67 68  1  0
 68 69  1  0
 69 70  1  0
 70 71  1  0
 71 72  1  0
 72 73  1  0
 73 74  1  0
 74 75  1  0
 75 76  1  0
 76 77  1  0
 77 78  1  0
 78 79  1  0
 79 80  1  0
 80 81  1  0
 81 82  1  0
 82 83  1  0
 83 84  1  0
 84 85  1  0
 85 86  1  0
 86 87  1  0
 87 88  1  0
 88 89  1  0
 89 90  1  0
 90 91  1  0
 91 92  1  0
 92 93  1  0
 93 94  1  0
 94 95  1  0
 95 96  1  0
 96 97  1  0
 97 98  1  0
 98 99  1  0
 99100  1  0
100101  1  0
101102  1  0
102103  1  0
103104  1  0
104105  1  0
105106  1  0
106107  1  0
107108  1  0
108109  1  0
109  2  1  0
M  END
>  <Title>  (418) 
idAAODgen8

$$$$

     RDKit          2D

 18 20  0  0  0  0  0  0  0  0999 V2000
   -1.8981   -7.6920    0.0000 C   0  0  0  0  0  0  0  0  0  0  0  0
   -1.3240   -6.3062    0.0000 C   0  0  0  0  0  0  0  0  0  0  0  0
   -0.7500   -4.9204    0.0000 C   0  0  0  0  0  0  0  0  0  0  0  0
    0.7500   -4.9204    0.0000 C   0  0  0  0  0  0  0  0  0  0  0  0
    1.8107   -3.8597    0.0000 C   0  0  0  0  0  0  0  0  0  0  0  0
    1.8107   -2.3597    0.0000 C   0  0  0  0  0  0  0  0  0  0  0  0
    0.7500   -1.2990    0.0000 C   0  0  0  0  0  0  0  0  0  0  0  0
    1.5000    0.0000    0.0000 C   0  0  0  0  0  0  0  0  0  0  0  0
    0.7500    1.2990    0.0000 C   0  0  0  0  0  0  0  0  0  0  0  0
   -0.7500    1.2990    0.0000 C   0  0  0  0  0  0  0  0  0  0  0  0
   -1.5000    0.0000    0.0000 C   0  0  0  0  0  0  0  0  0  0  0  0
   -0.7500   -1.2990    0.0000 C   0  0  0  0  0  0  0  0  0  0  0  0
   -1.8107   -2.3597    0.0000 C   0  0  0  0  0  0  0  0  0  0  0  0
   -3.1097   -1.6097    0.0000 C   0  0  0  0  0  0  0  0  0  0  0  0
   -4.4087   -2.3597    0.0000 C   0  0  0  0  0  0  0  0  0  0  0  0
   -4.4087   -3.8597    0.0000 C   0  0  0  0  0  0  0  0  0  0  0  0
   -3.1097   -4.6097    0.0000 C   0  0  0  0  0  0  0  0  0  0  0  0
   -1.8107   -3.8597    0.0000 C   0  0  0  0  0  0  0  0  0  0  0  0
  1  2  3  0
  2  3  1  0
  3  4  2  0
  4  5  1  0
  5  6  1  0
  6  7  1  0
  7  8  2  0
  8  9  1  0
  9 10  2  0
 10 11  1  0
 11 12  2  0
 12 13  1  0
 13 14  2  0
 14 15  1  0
 15 16  2  0
 16 17  1  0
 17 18  2  0
 18  3  1  0
 12  7  1  0
 18 13  1  0
M  END
>  <Title>  (419) 
idAAOEgen8

$$$$

     RDKit          2D

 67 67  0  0  0  0  0  0  0  0999 V2000
   18.0464   -0.0000    0.0000 C   0  0  0  0  0  0  0  0  0  0  0  0
   16.5464    0.0000    0.0000 C   0  0  0  0  0  0  0  0  0  0  0  0
   15.0464    0.0000    0.0000 C   0  0  0  0  0  0  0  0  0  0  0  0
   14.9716    1.4981    0.0000 C   0  0  0  0  0  0  0  0  0  0  0  0
   14.7480    2.9814    0.0000 C   0  0  0  0  0  0  0  0  0  0  0  0
   14.3779    4.4350    0.0000 C   0  0  0  0  0  0  0  0  0  0  0  0
   13.8649    5.8445    0.0000 C   0  0  0  0  0  0  0  0  0  0  0  0
   13.2141    7.1960    0.0000 C   0  0  0  0  0  0  0  0  0  0  0  0
   12.4319    8.4759    0.0000 C   0  0  0  0  0  0  0  0  0  0  0  0
   11.5262    9.6716    0.0000 C   0  0  0  0  0  0  0  0  0  0  0  0
   10.5059   10.7712    0.0000 C   0  0  0  0  0  0  0  0  0  0  0  0
    9.3813   11.7637    0.0000 C   0  0  0  0  0  0  0  0  0  0  0  0
    8.1634   12.6393    0.0000 C   0  0  0  0  0  0  0  0  0  0  0  0
    6.8643   13.3893    0.0000 C   0  0  0  0  0  0  0  0  0  0  0  0
    5.4971   14.0063    0.0000 C   0  0  0  0  0  0  0  0  0  0  0  0
    4.0752   14.4840    0.0000 C   0  0  0  0  0  0  0  0  0  0  0  0
    2.6128   14.8178    0.0000 C   0  0  0  0  0  0  0  0  0  0  0  0
    1.1244   15.0043    0.0000 C   0  0  0  0  0  0  0  0  0  0  0  0
   -0.3751   15.0417    0.0000 C   0  0  0  0  0  0  0  0  0  0  0  0
   -1.8709   14.9296    0.0000 C   0  0  0  0  0  0  0  0  0  0  0  0
   -3.3481   14.6691    0.0000 C   0  0  0  0  0  0  0  0  0  0  0  0
   -4.7921   14.2629    0.0000 C   0  0  0  0  0  0  0  0  0  0  0  0
   -6.1884   13.7149    0.0000 C   0  0  0  0  0  0  0  0  0  0  0  0
   -7.5232   13.0305    0.0000 C   0  0  0  0  0  0  0  0  0  0  0  0
   -8.7832   12.2167    0.0000 C   0  0  0  0  0  0  0  0  0  0  0  0
   -9.9560   11.2815    0.0000 C   0  0  0  0  0  0  0  0  0  0  0  0
  -11.0298   10.2341    0.0000 C   0  0  0  0  0  0  0  0  0  0  0  0
  -11.9940    9.0851    0.0000 C   0  0  0  0  0  0  0  0  0  0  0  0
  -12.8389    7.8457    0.0000 C   0  0  0  0  0  0  0  0  0  0  0  0
  -13.5563    6.5284    0.0000 C   0  0  0  0  0  0  0  0  0  0  0  0
  -14.1390    5.1462    0.0000 C   0  0  0  0  0  0  0  0  0  0  0  0
  -14.5811    3.7128    0.0000 C   0  0  0  0  0  0  0  0  0  0  0  0
  -14.8783    2.2425    0.0000 C   0  0  0  0  0  0  0  0  0  0  0  0
  -15.0277    0.7500    0.0000 C   0  0  0  0  0  0  0  0  0  0  0  0
  -15.0277   -0.7500    0.0000 C   0  0  0  0  0  0  0  0  0  0  0  0
  -14.8783   -2.2425    0.0000 C   0  0  0  0  0  0  0  0  0  0  0  0
  -14.5811   -3.7128    0.0000 C   0  0  0  0  0  0  0  0  0  0  0  0
  -14.1390   -5.1462    0.0000 C   0  0  0  0  0  0  0  0  0  0  0  0
  -13.5563   -6.5284    0.0000 C   0  0  0  0  0  0  0  0  0  0  0  0
  -12.8389   -7.8457    0.0000 C   0  0  0  0  0  0  0  0  0  0  0  0
  -11.9940   -9.0851    0.0000 C   0  0  0  0  0  0  0  0  0  0  0  0
  -11.0298  -10.2341    0.0000 C   0  0  0  0  0  0  0  0  0  0  0  0
   -9.9560  -11.2815    0.0000 C   0  0  0  0  0  0  0  0  0  0  0  0
   -8.7832  -12.2167    0.0000 C   0  0  0  0  0  0  0  0  0  0  0  0
   -7.5232  -13.0305    0.0000 C   0  0  0  0  0  0  0  0  0  0  0  0
   -6.1884  -13.7149    0.0000 C   0  0  0  0  0  0  0  0  0  0  0  0
   -4.7921  -14.2629    0.0000 C   0  0  0  0  0  0  0  0  0  0  0  0
   -3.3481  -14.6691    0.0000 C   0  0  0  0  0  0  0  0  0  0  0  0
   -1.8709  -14.9296    0.0000 C   0  0  0  0  0  0  0  0  0  0  0  0
   -0.3751  -15.0417    0.0000 C   0  0  0  0  0  0  0  0  0  0  0  0
    1.1244  -15.0043    0.0000 C   0  0  0  0  0  0  0  0  0  0  0  0
    2.6128  -14.8178    0.0000 C   0  0  0  0  0  0  0  0  0  0  0  0
    4.0752  -14.4840    0.0000 C   0  0  0  0  0  0  0  0  0  0  0  0
    5.4971  -14.0063    0.0000 C   0  0  0  0  0  0  0  0  0  0  0  0
    6.8643  -13.3893    0.0000 C   0  0  0  0  0  0  0  0  0  0  0  0
    8.1634  -12.6393    0.0000 C   0  0  0  0  0  0  0  0  0  0  0  0
    9.3813  -11.7637    0.0000 C   0  0  0  0  0  0  0  0  0  0  0  0
   10.5059  -10.7712    0.0000 C   0  0  0  0  0  0  0  0  0  0  0  0
   11.5262   -9.6716    0.0000 C   0  0  0  0  0  0  0  0  0  0  0  0
   12.4319   -8.4759    0.0000 C   0  0  0  0  0  0  0  0  0  0  0  0
   13.2141   -7.1960    0.0000 C   0  0  0  0  0  0  0  0  0  0  0  0
   13.8649   -5.8445    0.0000 C   0  0  0  0  0  0  0  0  0  0  0  0
   14.3779   -4.4350    0.0000 C   0  0  0  0  0  0  0  0  0  0  0  0
   15.8113   -4.8771    0.0000 C   0  0  0  0  0  0  0  0  0  0  0  0
   14.7480   -2.9814    0.0000 C   0  0  0  0  0  0  0  0  0  0  0  0
   16.2183   -3.2786    0.0000 O   0  0  0  0  0  0  0  0  0  0  0  0
   14.9716   -1.4981    0.0000 N   0  0  0  0  0  0  0  0  0  0  0  0
  1  2  3  0
  2  3  1  0
  3  4  1  0
  4  5  1  0
  5  6  1  0
  6  7  1  0
  7  8  1  0
  8  9  1  0
  9 10  1  0
 10 11  1  0
 11 12  1  0
 12 13  1  0
 13 14  1  0
 14 15  1  0
 15 16  1  0
 16 17  1  0
 17 18  1  0
 18 19  1  0
 19 20  1  0
 20 21  1  0
 21 22  1  0
 22 23  1  0
 23 24  1  0
 24 25  1  0
 25 26  1  0
 26 27  1  0
 27 28  1  0
 28 29  1  0
 29 30  1  0
 30 31  1  0
 31 32  1  0
 32 33  1  0
 33 34  1  0
 34 35  1  0
 35 36  1  0
 36 37  1  0
 37 38  1  0
 38 39  1  0
 39 40  1  0
 40 41  1  0
 41 42  1  0
 42 43  1  0
 43 44  1  0
 44 45  1  0
 45 46  1  0
 46 47  1  0
 47 48  1  0
 48 49  1  0
 49 50  1  0
 50 51  1  0
 51 52  1  0
 52 53  1  0
 53 54  1  0
 54 55  1  0
 55 56  1  0
 56 57  1  0
 57 58  1  0
 58 59  1  0
 59 60  2  0
 60 61  1  0
 61 62  2  0
 62 63  1  0
 63 64  1  0
 63 65  1  0
 65 66  2  0
 65 67  1  0
 67  3  1  0
M  END
>  <Title>  (420) 
idAAOFgen8

$$$$

     RDKit          2D

 10 10  0  0  0  0  0  0  0  0999 V2000
    4.7286   -0.0000    0.0000 N   0  0  0  0  0  0  0  0  0  0  0  0
    3.2286   -0.0000    0.0000 C   0  0  0  0  0  0  0  0  0  0  0  0
    1.7286    0.0000    0.0000 C   0  0  0  0  0  0  0  0  0  0  0  0
    1.0777    1.3515    0.0000 C   0  0  0  0  0  0  0  0  0  0  0  0
   -0.3846    1.6852    0.0000 C   0  0  0  0  0  0  0  0  0  0  0  0
   -1.5574    0.7500    0.0000 C   0  0  0  0  0  0  0  0  0  0  0  0
   -1.5574   -0.7500    0.0000 C   0  0  0  0  0  0  0  0  0  0  0  0
   -2.9088   -1.4008    0.0000 O   0  0  0  0  0  0  0  0  0  0  0  0
   -0.3846   -1.6852    0.0000 C   0  0  0  0  0  0  0  0  0  0  0  0
    1.0777   -1.3515    0.0000 C   0  0  0  0  0  0  0  0  0  0  0  0
  1  2  3  0
  2  3  1  0
  3  4  1  0
  4  5  1  0
  5  6  2  0
  6  7  1  0
  7  8  1  0
  7  9  2  0
  9 10  1  0
 10  3  1  0
M  END
>  <Title>  (421) 
idAAOGgen8

$$$$

     RDKit          2D

  9  9  0  0  0  0  0  0  0  0999 V2000
    3.1935   -3.4746    0.0000 C   0  0  0  0  0  0  0  0  0  0  0  0
    2.0788   -2.4709    0.0000 C   0  0  0  0  0  0  0  0  0  0  0  0
    2.3907   -1.0037    0.0000 C   0  0  0  0  0  0  0  0  0  0  0  0
    1.2760    0.0000    0.0000 C   0  0  0  0  0  0  0  0  0  0  0  0
    2.3907    1.0037    0.0000 C   0  0  0  0  0  0  0  0  0  0  0  0
    0.3943    1.2135    0.0000 C   0  0  0  0  0  0  0  0  0  0  0  0
   -1.0323    0.7500    0.0000 C   0  0  0  0  0  0  0  0  0  0  0  0
   -1.0323   -0.7500    0.0000 C   0  0  0  0  0  0  0  0  0  0  0  0
    0.3943   -1.2135    0.0000 C   0  0  0  0  0  0  0  0  0  0  0  0
  1  2  1  0
  2  3  1  0
  3  4  1  0
  4  5  1  0
  4  6  1  0
  6  7  1  0
  7  8  1  0
  8  9  1  0
  9  4  1  0
M  END
>  <Title>  (422) 
idAAOHgen8

$$$$

     RDKit          2D

 29 32  0  0  0  0  0  0  0  0999 V2000
   -3.7860   -5.5823    0.0000 C   0  0  0  0  0  0  0  0  0  0  0  0
   -2.4215   -4.9592    0.0000 C   0  0  0  0  0  0  0  0  0  0  0  0
   -1.4392   -6.0928    0.0000 C   0  0  0  0  0  0  0  0  0  0  0  0
   -0.0000   -6.5154    0.0000 C   0  0  0  0  0  0  0  0  0  0  0  0
    1.4392   -6.0928    0.0000 C   0  0  0  0  0  0  0  0  0  0  0  0
    2.4215   -4.9592    0.0000 C   0  0  0  0  0  0  0  0  0  0  0  0
    2.6350   -3.4744    0.0000 C   0  0  0  0  0  0  0  0  0  0  0  0
    2.0119   -2.1100    0.0000 C   0  0  0  0  0  0  0  0  0  0  0  0
    3.1455   -1.1277    0.0000 C   0  0  0  0  0  0  0  0  0  0  0  0
    2.8616    0.3452    0.0000 O   0  0  0  0  0  0  0  0  0  0  0  0
    4.5630   -1.6183    0.0000 N   0  0  0  0  0  0  0  0  0  0  0  0
    5.6966   -0.6360    0.0000 C   0  0  0  0  0  0  0  0  0  0  0  0
    7.1141   -1.1266    0.0000 N   0  0  0  0  0  0  0  0  0  0  0  0
    8.2478   -0.1443    0.0000 N   0  0  0  0  0  0  0  0  0  0  0  0
    7.9639    1.3286    0.0000 N   0  0  0  0  0  0  0  0  0  0  0  0
    6.5464    1.8192    0.0000 N   0  0  0  0  0  0  0  0  0  0  0  0
    5.4128    0.8369    0.0000 N   0  0  0  0  0  0  0  0  0  0  0  0
    0.7500   -1.2990    0.0000 C   0  0  0  0  0  0  0  0  0  0  0  0
    1.5000    0.0000    0.0000 C   0  0  0  0  0  0  0  0  0  0  0  0
    0.7500    1.2990    0.0000 C   0  0  0  0  0  0  0  0  0  0  0  0
   -0.7500    1.2990    0.0000 C   0  0  0  0  0  0  0  0  0  0  0  0
   -1.5000    0.0000    0.0000 C   0  0  0  0  0  0  0  0  0  0  0  0
   -0.7500   -1.2990    0.0000 C   0  0  0  0  0  0  0  0  0  0  0  0
   -2.0119   -2.1100    0.0000 C   0  0  0  0  0  0  0  0  0  0  0  0
   -2.8820   -0.8881    0.0000 C   0  0  0  0  0  0  0  0  0  0  0  0
   -4.3752   -1.0307    0.0000 C   0  0  0  0  0  0  0  0  0  0  0  0
   -4.9983   -2.3952    0.0000 C   0  0  0  0  0  0  0  0  0  0  0  0
   -4.1282   -3.6170    0.0000 C   0  0  0  0  0  0  0  0  0  0  0  0
   -2.6350   -3.4744    0.0000 C   0  0  0  0  0  0  0  0  0  0  0  0
  1  2  1  0
  2  3  1  0
  3  4  1  0
  4  5  1  0
  5  6  1  0
  6  7  1  0
  7  8  1  0
  8  9  1  0
  9 10  2  0
  9 11  1  0
 11 12  1  0
 12 13  2  0
 13 14  1  0
 14 15  2  0
 15 16  1  0
 16 17  2  0
  8 18  1  0
 18 19  2  0
 19 20  1  0
 20 21  2  0
 21 22  1  0
 22 23  2  0
 23 24  1  0
 24 25  2  0
 25 26  1  0
 26 27  2  0
 27 28  1  0
 28 29  2  0
 29  2  1  0
 17 12  1  0
 23 18  1  0
 29 24  1  0
M  END
>  <Title>  (423) 
idAAOIgen8

$$$$

     RDKit          2D

 24 26  0  0  0  0  0  0  0  0999 V2000
    3.0000    0.0000    0.0000 O   0  0  0  0  0  0  0  0  0  0  0  0
    1.5000    0.0000    0.0000 C   0  0  0  0  0  0  0  0  0  0  0  0
    0.7500   -1.2990    0.0000 C   0  0  0  0  0  0  0  0  0  0  0  0
   -0.7500   -1.2990    0.0000 C   0  0  0  0  0  0  0  0  0  0  0  0
   -1.5000    0.0000    0.0000 C   0  0  0  0  0  0  0  0  0  0  0  0
   -3.0000    0.0000    0.0000 O   0  0  0  0  0  0  0  0  0  0  0  0
   -3.7500    1.2990    0.0000 C   0  0  0  0  0  0  0  0  0  0  0  0
   -2.4510    2.0490    0.0000 F   0  0  0  0  0  0  0  0  0  0  0  0
   -5.0490    0.5490    0.0000 F   0  0  0  0  0  0  0  0  0  0  0  0
   -4.5000    2.5981    0.0000 C   0  0  0  0  0  0  0  0  0  0  0  0
   -3.7500    3.8971    0.0000 C   0  0  0  0  0  0  0  0  0  0  0  0
   -4.5000    5.1962    0.0000 C   0  0  0  0  0  0  0  0  0  0  0  0
   -6.0000    5.1962    0.0000 C   0  0  0  0  0  0  0  0  0  0  0  0
   -6.7500    6.4952    0.0000 O   0  0  0  0  0  0  0  0  0  0  0  0
   -6.0000    7.7942    0.0000 C   0  0  0  0  0  0  0  0  0  0  0  0
   -4.5000    7.7942    0.0000 N   0  0  0  0  0  0  0  0  0  0  0  0
   -3.7500    9.0933    0.0000 N   0  0  0  0  0  0  0  0  0  0  0  0
   -4.5000   10.3923    0.0000 N   0  0  0  0  0  0  0  0  0  0  0  0
   -6.0000   10.3923    0.0000 N   0  0  0  0  0  0  0  0  0  0  0  0
   -6.7500    9.0933    0.0000 N   0  0  0  0  0  0  0  0  0  0  0  0
   -6.7500    3.8971    0.0000 C   0  0  0  0  0  0  0  0  0  0  0  0
   -6.0000    2.5981    0.0000 C   0  0  0  0  0  0  0  0  0  0  0  0
   -0.7500    1.2990    0.0000 C   0  0  0  0  0  0  0  0  0  0  0  0
    0.7500    1.2990    0.0000 C   0  0  0  0  0  0  0  0  0  0  0  0
  1  2  1  0
  2  3  2  0
  3  4  1  0
  4  5  2  0
  5  6  1  0
  6  7  1  0
  7  8  1  0
  7  9  1  0
  7 10  1  0
 10 11  2  0
 11 12  1  0
 12 13  2  0
 13 14  1  0
 14 15  1  0
 15 16  2  0
 16 17  1  0
 17 18  2  0
 18 19  1  0
 19 20  2  0
 13 21  1  0
 21 22  2  0
  5 23  1  0
 23 24  2  0
 24  2  1  0
 22 10  1  0
 20 15  1  0
M  END
>  <Title>  (424) 
idAAOJgen8

$$$$

     RDKit          2D

116116  0  0  0  0  0  0  0  0999 V2000
   28.7189    0.0000    0.0000 C   0  0  0  0  0  0  0  0  0  0  0  0
   27.2189    0.0000    0.0000 C   0  0  0  0  0  0  0  0  0  0  0  0
   27.1776   -1.4994    0.0000 C   0  0  0  0  0  0  0  0  0  0  0  0
   27.0537   -2.9943    0.0000 C   0  0  0  0  0  0  0  0  0  0  0  0
   26.8477   -4.4801    0.0000 C   0  0  0  0  0  0  0  0  0  0  0  0
   26.5601   -5.9523    0.0000 C   0  0  0  0  0  0  0  0  0  0  0  0
   26.1919   -7.4064    0.0000 C   0  0  0  0  0  0  0  0  0  0  0  0
   25.7441   -8.8380    0.0000 C   0  0  0  0  0  0  0  0  0  0  0  0
   25.2182  -10.2427    0.0000 C   0  0  0  0  0  0  0  0  0  0  0  0
   24.6156  -11.6164    0.0000 C   0  0  0  0  0  0  0  0  0  0  0  0
   23.9383  -12.9548    0.0000 C   0  0  0  0  0  0  0  0  0  0  0  0
   23.1883  -14.2538    0.0000 C   0  0  0  0  0  0  0  0  0  0  0  0
   22.3679  -15.5096    0.0000 C   0  0  0  0  0  0  0  0  0  0  0  0
   21.4796  -16.7182    0.0000 C   0  0  0  0  0  0  0  0  0  0  0  0
   20.5260  -17.8761    0.0000 C   0  0  0  0  0  0  0  0  0  0  0  0
   19.5101  -18.9797    0.0000 C   0  0  0  0  0  0  0  0  0  0  0  0
   18.4349  -20.0256    0.0000 C   0  0  0  0  0  0  0  0  0  0  0  0
   17.3037  -21.0108    0.0000 C   0  0  0  0  0  0  0  0  0  0  0  0
   16.1200  -21.9321    0.0000 C   0  0  0  0  0  0  0  0  0  0  0  0
   14.8873  -22.7868    0.0000 C   0  0  0  0  0  0  0  0  0  0  0  0
   13.6095  -23.5723    0.0000 C   0  0  0  0  0  0  0  0  0  0  0  0
   12.2903  -24.2862    0.0000 C   0  0  0  0  0  0  0  0  0  0  0  0
   10.9337  -24.9264    0.0000 C   0  0  0  0  0  0  0  0  0  0  0  0
    9.5440  -25.4908    0.0000 C   0  0  0  0  0  0  0  0  0  0  0  0
    8.1253  -25.9779    0.0000 C   0  0  0  0  0  0  0  0  0  0  0  0
    6.6819  -26.3860    0.0000 C   0  0  0  0  0  0  0  0  0  0  0  0
    5.2182  -26.7141    0.0000 C   0  0  0  0  0  0  0  0  0  0  0  0
    3.7386  -26.9610    0.0000 C   0  0  0  0  0  0  0  0  0  0  0  0
    2.2477  -27.1260    0.0000 C   0  0  0  0  0  0  0  0  0  0  0  0
    0.7500  -27.2086    0.0000 C   0  0  0  0  0  0  0  0  0  0  0  0
   -0.7500  -27.2086    0.0000 C   0  0  0  0  0  0  0  0  0  0  0  0
   -2.2477  -27.1260    0.0000 C   0  0  0  0  0  0  0  0  0  0  0  0
   -3.7386  -26.9610    0.0000 C   0  0  0  0  0  0  0  0  0  0  0  0
   -5.2182  -26.7141    0.0000 C   0  0  0  0  0  0  0  0  0  0  0  0
   -6.6819  -26.3860    0.0000 C   0  0  0  0  0  0  0  0  0  0  0  0
   -8.1253  -25.9779    0.0000 C   0  0  0  0  0  0  0  0  0  0  0  0
   -9.5440  -25.4908    0.0000 C   0  0  0  0  0  0  0  0  0  0  0  0
  -10.9337  -24.9264    0.0000 C   0  0  0  0  0  0  0  0  0  0  0  0
  -12.2903  -24.2862    0.0000 C   0  0  0  0  0  0  0  0  0  0  0  0
  -13.6095  -23.5723    0.0000 C   0  0  0  0  0  0  0  0  0  0  0  0
  -14.8873  -22.7868    0.0000 C   0  0  0  0  0  0  0  0  0  0  0  0
  -16.1200  -21.9321    0.0000 C   0  0  0  0  0  0  0  0  0  0  0  0
  -17.3037  -21.0108    0.0000 C   0  0  0  0  0  0  0  0  0  0  0  0
  -18.4349  -20.0256    0.0000 C   0  0  0  0  0  0  0  0  0  0  0  0
  -19.5101  -18.9797    0.0000 C   0  0  0  0  0  0  0  0  0  0  0  0
  -20.5260  -17.8761    0.0000 C   0  0  0  0  0  0  0  0  0  0  0  0
  -21.4796  -16.7182    0.0000 C   0  0  0  0  0  0  0  0  0  0  0  0
  -22.3679  -15.5096    0.0000 C   0  0  0  0  0  0  0  0  0  0  0  0
  -23.1883  -14.2538    0.0000 C   0  0  0  0  0  0  0  0  0  0  0  0
  -23.9383  -12.9548    0.0000 C   0  0  0  0  0  0  0  0  0  0  0  0
  -24.6156  -11.6164    0.0000 C   0  0  0  0  0  0  0  0  0  0  0  0
  -25.2182  -10.2427    0.0000 C   0  0  0  0  0  0  0  0  0  0  0  0
  -25.7441   -8.8380    0.0000 C   0  0  0  0  0  0  0  0  0  0  0  0
  -26.1919   -7.4064    0.0000 C   0  0  0  0  0  0  0  0  0  0  0  0
  -26.5601   -5.9523    0.0000 C   0  0  0  0  0  0  0  0  0  0  0  0
  -26.8477   -4.4801    0.0000 C   0  0  0  0  0  0  0  0  0  0  0  0
  -27.0537   -2.9943    0.0000 C   0  0  0  0  0  0  0  0  0  0  0  0
  -27.1776   -1.4994    0.0000 C   0  0  0  0  0  0  0  0  0  0  0  0
  -27.2189    0.0000    0.0000 C   0  0  0  0  0  0  0  0  0  0  0  0
  -27.1776    1.4994    0.0000 C   0  0  0  0  0  0  0  0  0  0  0  0
  -27.0537    2.9943    0.0000 C   0  0  0  0  0  0  0  0  0  0  0  0
  -26.8477    4.4801    0.0000 C   0  0  0  0  0  0  0  0  0  0  0  0
  -26.5601    5.9523    0.0000 C   0  0  0  0  0  0  0  0  0  0  0  0
  -26.1919    7.4064    0.0000 C   0  0  0  0  0  0  0  0  0  0  0  0
  -25.7441    8.8380    0.0000 C   0  0  0  0  0  0  0  0  0  0  0  0
  -25.2182   10.2427    0.0000 C   0  0  0  0  0  0  0  0  0  0  0  0
  -24.6156   11.6164    0.0000 C   0  0  0  0  0  0  0  0  0  0  0  0
  -23.9383   12.9548    0.0000 C   0  0  0  0  0  0  0  0  0  0  0  0
  -23.1883   14.2538    0.0000 C   0  0  0  0  0  0  0  0  0  0  0  0
  -22.3679   15.5096    0.0000 C   0  0  0  0  0  0  0  0  0  0  0  0
  -21.4796   16.7182    0.0000 C   0  0  0  0  0  0  0  0  0  0  0  0
  -20.5260   17.8761    0.0000 C   0  0  0  0  0  0  0  0  0  0  0  0
  -19.5101   18.9797    0.0000 C   0  0  0  0  0  0  0  0  0  0  0  0
  -18.4349   20.0256    0.0000 C   0  0  0  0  0  0  0  0  0  0  0  0
  -17.3037   21.0108    0.0000 C   0  0  0  0  0  0  0  0  0  0  0  0
  -16.1200   21.9321    0.0000 C   0  0  0  0  0  0  0  0  0  0  0  0
  -14.8873   22.7868    0.0000 C   0  0  0  0  0  0  0  0  0  0  0  0
  -13.6095   23.5723    0.0000 C   0  0  0  0  0  0  0  0  0  0  0  0
  -12.2903   24.2862    0.0000 C   0  0  0  0  0  0  0  0  0  0  0  0
  -10.9337   24.9264    0.0000 C   0  0  0  0  0  0  0  0  0  0  0  0
   -9.5440   25.4908    0.0000 C   0  0  0  0  0  0  0  0  0  0  0  0
   -8.1253   25.9779    0.0000 C   0  0  0  0  0  0  0  0  0  0  0  0
   -6.6819   26.3860    0.0000 C   0  0  0  0  0  0  0  0  0  0  0  0
   -5.2182   26.7141    0.0000 C   0  0  0  0  0  0  0  0  0  0  0  0
   -3.7386   26.9610    0.0000 C   0  0  0  0  0  0  0  0  0  0  0  0
   -2.2477   27.1260    0.0000 C   0  0  0  0  0  0  0  0  0  0  0  0
   -0.7500   27.2086    0.0000 C   0  0  0  0  0  0  0  0  0  0  0  0
    0.7500   27.2086    0.0000 C   0  0  0  0  0  0  0  0  0  0  0  0
    2.2477   27.1260    0.0000 C   0  0  0  0  0  0  0  0  0  0  0  0
    3.7386   26.9610    0.0000 C   0  0  0  0  0  0  0  0  0  0  0  0
    5.2182   26.7141    0.0000 C   0  0  0  0  0  0  0  0  0  0  0  0
    6.6819   26.3860    0.0000 C   0  0  0  0  0  0  0  0  0  0  0  0
    8.1253   25.9779    0.0000 C   0  0  0  0  0  0  0  0  0  0  0  0
    9.5440   25.4908    0.0000 C   0  0  0  0  0  0  0  0  0  0  0  0
   10.9337   24.9264    0.0000 C   0  0  0  0  0  0  0  0  0  0  0  0
   12.2903   24.2862    0.0000 C   0  0  0  0  0  0  0  0  0  0  0  0
   13.6095   23.5723    0.0000 C   0  0  0  0  0  0  0  0  0  0  0  0
   14.8873   22.7868    0.0000 C   0  0  0  0  0  0  0  0  0  0  0  0
   16.1200   21.9321    0.0000 C   0  0  0  0  0  0  0  0  0  0  0  0
   17.3037   21.0108    0.0000 C   0  0  0  0  0  0  0  0  0  0  0  0
   18.4349   20.0256    0.0000 C   0  0  0  0  0  0  0  0  0  0  0  0
   19.5101   18.9797    0.0000 C   0  0  0  0  0  0  0  0  0  0  0  0
   20.5260   17.8761    0.0000 C   0  0  0  0  0  0  0  0  0  0  0  0
   21.4796   16.7182    0.0000 C   0  0  0  0  0  0  0  0  0  0  0  0
   22.3679   15.5096    0.0000 C   0  0  0  0  0  0  0  0  0  0  0  0
   23.1883   14.2538    0.0000 C   0  0  0  0  0  0  0  0  0  0  0  0
   23.9383   12.9548    0.0000 C   0  0  0  0  0  0  0  0  0  0  0  0
   24.6156   11.6164    0.0000 C   0  0  0  0  0  0  0  0  0  0  0  0
   25.2182   10.2427    0.0000 C   0  0  0  0  0  0  0  0  0  0  0  0
   25.7441    8.8380    0.0000 C   0  0  0  0  0  0  0  0  0  0  0  0
   26.1919    7.4064    0.0000 C   0  0  0  0  0  0  0  0  0  0  0  0
   26.5601    5.9523    0.0000 C   0  0  0  0  0  0  0  0  0  0  0  0
   26.8477    4.4801    0.0000 C   0  0  0  0  0  0  0  0  0  0  0  0
   27.0537    2.9943    0.0000 C   0  0  0  0  0  0  0  0  0  0  0  0
   28.5446    3.1593    0.0000 O   0  0  0  0  0  0  0  0  0  0  0  0
   27.1776    1.4994    0.0000 N   0  0  0  0  0  0  0  0  0  0  0  0
  1  2  1  0
  2  3  1  0
  3  4  1  0
  4  5  1  0
  5  6  1  0
  6  7  1  0
  7  8  1  0
  8  9  1  0
  9 10  1  0
 10 11  1  0
 11 12  1  0
 12 13  1  0
 13 14  1  0
 14 15  1  0
 15 16  1  0
 16 17  1  0
 17 18  1  0
 18 19  1  0
 19 20  1  0
 20 21  1  0
 21 22  1  0
 22 23  1  0
 23 24  1  0
 24 25  1  0
 25 26  1  0
 26 27  1  0
 27 28  1  0
 28 29  1  0
 29 30  1  0
 30 31  1  0
 31 32  1  0
 32 33  1  0
 33 34  1  0
 34 35  1  0
 35 36  1  0
 36 37  1  0
 37 38  1  0
 38 39  1  0
 39 40  1  0
 40 41  1  0
 41 42  1  0
 42 43  1  0
 43 44  1  0
 44 45  1  0
 45 46  1  0
 46 47  1  0
 47 48  1  0
 48 49  1  0
 49 50  1  0
 50 51  1  0
 51 52  1  0
 52 53  1  0
 53 54  1  0
 54 55  1  0
 55 56  1  0
 56 57  1  0
 57 58  1  0
 58 59  1  0
 59 60  1  0
 60 61  1  0
 61 62  1  0
 62 63  1  0
 63 64  1  0
 64 65  1  0
 65 66  1  0
 66 67  1  0
 67 68  1  0
 68 69  1  0
 69 70  1  0
 70 71  1  0
 71 72  1  0
 72 73  1  0
 73 74  1  0
 74 75  1  0
 75 76  1  0
 76 77  1  0
 77 78  1  0
 78 79  1  0
 79 80  1  0
 80 81  1  0
 81 82  1  0
 82 83  1  0
 83 84  1  0
 84 85  1  0
 85 86  1  0
 86 87  1  0
 87 88  1  0
 88 89  1  0
 89 90  1  0
 90 91  1  0
 91 92  1  0
 92 93  1  0
 93 94  1  0
 94 95  1  0
 95 96  1  0
 96 97  1  0
 97 98  1  0
 98 99  1  0
 99100  1  0
100101  1  0
101102  1  0
102103  1  0
103104  1  0
104105  1  0
105106  1  0
106107  1  0
107108  1  0
108109  1  0
109110  1  0
110111  1  0
111112  1  0
112113  1  0
113114  1  0
114115  2  0
114116  1  0
116  2  1  0
M  END
>  <Title>  (425) 
idAAOKgen8

$$$$

     RDKit          2D

 13 13  0  0  0  0  0  0  0  0999 V2000
    3.6929    0.0000    0.0000 C   0  0  0  0  0  0  0  0  0  0  0  0
    2.1929    0.0000    0.0000 C   0  0  0  0  0  0  0  0  0  0  0  0
    1.6798    1.4095    0.0000 C   0  0  0  0  0  0  0  0  0  0  0  0
    0.3808    2.1595    0.0000 C   0  0  0  0  0  0  0  0  0  0  0  0
   -1.0964    1.8991    0.0000 C   0  0  0  0  0  0  0  0  0  0  0  0
   -1.8464    3.1981    0.0000 O   0  0  0  0  0  0  0  0  0  0  0  0
   -2.0606    0.7500    0.0000 C   0  0  0  0  0  0  0  0  0  0  0  0
   -3.4701    1.2630    0.0000 C   0  0  0  0  0  0  0  0  0  0  0  0
   -2.0606   -0.7500    0.0000 C   0  0  0  0  0  0  0  0  0  0  0  0
   -3.4701   -1.2630    0.0000 O   0  0  0  0  0  0  0  0  0  0  0  0
   -1.0964   -1.8991    0.0000 C   0  0  0  0  0  0  0  0  0  0  0  0
    0.3808   -2.1595    0.0000 C   0  0  0  0  0  0  0  0  0  0  0  0
    1.6798   -1.4095    0.0000 C   0  0  0  0  0  0  0  0  0  0  0  0
  1  2  1  0
  2  3  2  0
  3  4  1  0
  4  5  1  0
  5  6  1  0
  5  7  2  0
  7  8  1  0
  7  9  1  0
  9 10  2  0
  9 11  1  0
 11 12  2  0
 12 13  1  0
 13  2  1  0
M  END
>  <Title>  (426) 
idAAOLgen8

$$$$

     RDKit          2D

 78 78  0  0  0  0  0  0  0  0999 V2000
   19.8875    0.0000    0.0000 C   0  0  0  0  0  0  0  0  0  0  0  0
   18.3875    0.0000    0.0000 C   0  0  0  0  0  0  0  0  0  0  0  0
   18.3263    1.4988    0.0000 C   0  0  0  0  0  0  0  0  0  0  0  0
   18.1432    2.9875    0.0000 C   0  0  0  0  0  0  0  0  0  0  0  0
   17.8393    4.4564    0.0000 C   0  0  0  0  0  0  0  0  0  0  0  0
   17.4167    5.8957    0.0000 C   0  0  0  0  0  0  0  0  0  0  0  0
   16.8782    7.2957    0.0000 C   0  0  0  0  0  0  0  0  0  0  0  0
   16.2274    8.6471    0.0000 C   0  0  0  0  0  0  0  0  0  0  0  0
   15.4685    9.9410    0.0000 C   0  0  0  0  0  0  0  0  0  0  0  0
   14.6068   11.1688    0.0000 C   0  0  0  0  0  0  0  0  0  0  0  0
   13.6478   12.3222    0.0000 C   0  0  0  0  0  0  0  0  0  0  0  0
   12.5980   13.3936    0.0000 C   0  0  0  0  0  0  0  0  0  0  0  0
   11.4644   14.3759    0.0000 C   0  0  0  0  0  0  0  0  0  0  0  0
   10.2545   15.2625    0.0000 C   0  0  0  0  0  0  0  0  0  0  0  0
    8.9763   16.0476    0.0000 C   0  0  0  0  0  0  0  0  0  0  0  0
    7.6384   16.7259    0.0000 C   0  0  0  0  0  0  0  0  0  0  0  0
    6.2497   17.2928    0.0000 C   0  0  0  0  0  0  0  0  0  0  0  0
    4.8194   17.7447    0.0000 C   0  0  0  0  0  0  0  0  0  0  0  0
    3.3570   18.0785    0.0000 C   0  0  0  0  0  0  0  0  0  0  0  0
    1.8723   18.2919    0.0000 C   0  0  0  0  0  0  0  0  0  0  0  0
    0.3751   18.3837    0.0000 C   0  0  0  0  0  0  0  0  0  0  0  0
   -1.1246   18.3531    0.0000 C   0  0  0  0  0  0  0  0  0  0  0  0
   -2.6168   18.2003    0.0000 C   0  0  0  0  0  0  0  0  0  0  0  0
   -4.0916   17.9265    0.0000 C   0  0  0  0  0  0  0  0  0  0  0  0
   -5.5392   17.5333    0.0000 C   0  0  0  0  0  0  0  0  0  0  0  0
   -6.9499   17.0235    0.0000 C   0  0  0  0  0  0  0  0  0  0  0  0
   -8.3143   16.4004    0.0000 C   0  0  0  0  0  0  0  0  0  0  0  0
   -9.6234   15.6681    0.0000 C   0  0  0  0  0  0  0  0  0  0  0  0
  -10.8685   14.8316    0.0000 C   0  0  0  0  0  0  0  0  0  0  0  0
  -12.0412   13.8963    0.0000 C   0  0  0  0  0  0  0  0  0  0  0  0
  -13.1339   12.8686    0.0000 C   0  0  0  0  0  0  0  0  0  0  0  0
  -14.1391   11.7553    0.0000 C   0  0  0  0  0  0  0  0  0  0  0  0
  -15.0502   10.5637    0.0000 C   0  0  0  0  0  0  0  0  0  0  0  0
  -15.8612    9.3018    0.0000 C   0  0  0  0  0  0  0  0  0  0  0  0
  -16.5666    7.9780    0.0000 C   0  0  0  0  0  0  0  0  0  0  0  0
  -17.1617    6.6012    0.0000 C   0  0  0  0  0  0  0  0  0  0  0  0
  -17.6427    5.1804    0.0000 C   0  0  0  0  0  0  0  0  0  0  0  0
  -18.0062    3.7251    0.0000 C   0  0  0  0  0  0  0  0  0  0  0  0
  -18.2499    2.2450    0.0000 C   0  0  0  0  0  0  0  0  0  0  0  0
  -18.3722    0.7500    0.0000 C   0  0  0  0  0  0  0  0  0  0  0  0
  -18.3722   -0.7500    0.0000 C   0  0  0  0  0  0  0  0  0  0  0  0
  -18.2499   -2.2450    0.0000 C   0  0  0  0  0  0  0  0  0  0  0  0
  -18.0062   -3.7251    0.0000 C   0  0  0  0  0  0  0  0  0  0  0  0
  -17.6427   -5.1804    0.0000 C   0  0  0  0  0  0  0  0  0  0  0  0
  -17.1617   -6.6012    0.0000 C   0  0  0  0  0  0  0  0  0  0  0  0
  -16.5666   -7.9780    0.0000 C   0  0  0  0  0  0  0  0  0  0  0  0
  -15.8612   -9.3018    0.0000 C   0  0  0  0  0  0  0  0  0  0  0  0
  -15.0502  -10.5637    0.0000 C   0  0  0  0  0  0  0  0  0  0  0  0
  -14.1391  -11.7553    0.0000 C   0  0  0  0  0  0  0  0  0  0  0  0
  -13.1339  -12.8686    0.0000 C   0  0  0  0  0  0  0  0  0  0  0  0
  -12.0412  -13.8963    0.0000 C   0  0  0  0  0  0  0  0  0  0  0  0
  -10.8685  -14.8316    0.0000 C   0  0  0  0  0  0  0  0  0  0  0  0
   -9.6234  -15.6681    0.0000 C   0  0  0  0  0  0  0  0  0  0  0  0
   -8.3143  -16.4004    0.0000 C   0  0  0  0  0  0  0  0  0  0  0  0
   -6.9499  -17.0235    0.0000 C   0  0  0  0  0  0  0  0  0  0  0  0
   -5.5392  -17.5333    0.0000 C   0  0  0  0  0  0  0  0  0  0  0  0
   -4.0916  -17.9265    0.0000 C   0  0  0  0  0  0  0  0  0  0  0  0
   -2.6168  -18.2003    0.0000 C   0  0  0  0  0  0  0  0  0  0  0  0
   -1.1246  -18.3531    0.0000 C   0  0  0  0  0  0  0  0  0  0  0  0
    0.3751  -18.3837    0.0000 C   0  0  0  0  0  0  0  0  0  0  0  0
    1.8723  -18.2919    0.0000 C   0  0  0  0  0  0  0  0  0  0  0  0
    3.3570  -18.0785    0.0000 C   0  0  0  0  0  0  0  0  0  0  0  0
    4.8194  -17.7447    0.0000 N   0  0  0  0  0  0  0  0  0  0  0  0
    6.2497  -17.2928    0.0000 C   0  0  0  0  0  0  0  0  0  0  0  0
    7.6384  -16.7259    0.0000 C   0  0  0  0  0  0  0  0  0  0  0  0
    8.9763  -16.0476    0.0000 C   0  0  0  0  0  0  0  0  0  0  0  0
   10.2545  -15.2625    0.0000 C   0  0  0  0  0  0  0  0  0  0  0  0
   11.4644  -14.3759    0.0000 C   0  0  0  0  0  0  0  0  0  0  0  0
   12.5980  -13.3936    0.0000 C   0  0  0  0  0  0  0  0  0  0  0  0
   13.6478  -12.3222    0.0000 C   0  0  0  0  0  0  0  0  0  0  0  0
   14.6068  -11.1688    0.0000 C   0  0  0  0  0  0  0  0  0  0  0  0
   15.4685   -9.9410    0.0000 C   0  0  0  0  0  0  0  0  0  0  0  0
   16.2274   -8.6471    0.0000 C   0  0  0  0  0  0  0  0  0  0  0  0
   16.8782   -7.2957    0.0000 C   0  0  0  0  0  0  0  0  0  0  0  0
   17.4167   -5.8957    0.0000 C   0  0  0  0  0  0  0  0  0  0  0  0
   17.8393   -4.4564    0.0000 C   0  0  0  0  0  0  0  0  0  0  0  0
   18.1432   -2.9875    0.0000 C   0  0  0  0  0  0  0  0  0  0  0  0
   18.3263   -1.4988    0.0000 C   0  0  0  0  0  0  0  0  0  0  0  0
  1  2  1  0
  2  3  1  0
  3  4  1  0
  4  5  1  0
  5  6  1  0
  6  7  1  0
  7  8  1  0
  8  9  1  0
  9 10  1  0
 10 11  1  0
 11 12  1  0
 12 13  1  0
 13 14  1  0
 14 15  1  0
 15 16  1  0
 16 17  1  0
 17 18  1  0
 18 19  1  0
 19 20  1  0
 20 21  1  0
 21 22  1  0
 22 23  1  0
 23 24  1  0
 24 25  1  0
 25 26  1  0
 26 27  1  0
 27 28  1  0
 28 29  1  0
 29 30  1  0
 30 31  1  0
 31 32  1  0
 32 33  1  0
 33 34  1  0
 34 35  1  0
 35 36  1  0
 36 37  1  0
 37 38  1  0
 38 39  1  0
 39 40  1  0
 40 41  1  0
 41 42  1  0
 42 43  1  0
 43 44  1  0
 44 45  1  0
 45 46  1  0
 46 47  1  0
 47 48  1  0
 48 49  1  0
 49 50  1  0
 50 51  1  0
 51 52  1  0
 52 53  1  0
 53 54  1  0
 54 55  1  0
 55 56  1  0
 56 57  1  0
 57 58  1  0
 58 59  1  0
 59 60  1  0
 60 61  1  0
 61 62  1  0
 62 63  1  0
 63 64  1  0
 64 65  1  0
 65 66  1  0
 66 67  1  0
 67 68  1  0
 68 69  1  0
 69 70  1  0
 70 71  1  0
 71 72  1  0
 72 73  1  0
 73 74  1  0
 74 75  1  0
 75 76  1  0
 76 77  1  0
 77 78  1  0
 78  2  1  0
M  END
>  <Title>  (427) 
idAAOMgen8

$$$$

     RDKit          2D

  8  7  0  0  0  0  0  0  0  0999 V2000
    0.0000    0.0000    0.0000 C   0  0  0  0  0  0  0  0  0  0  0  0
    1.2990    0.7500    0.0000 C   0  0  0  0  0  0  0  0  0  0  0  0
    2.5981   -0.0000    0.0000 C   0  0  0  0  0  0  0  0  0  0  0  0
    3.8971   -0.7500    0.0000 C   0  0  0  0  0  0  0  0  0  0  0  0
    5.1962   -1.5000    0.0000 C   0  0  0  0  0  0  0  0  0  0  0  0
    6.4952   -2.2500    0.0000 C   0  0  0  0  0  0  0  0  0  0  0  0
    7.7942   -3.0000    0.0000 C   0  0  0  0  0  0  0  0  0  0  0  0
    9.0933   -3.7500    0.0000 N   0  0  0  0  0  0  0  0  0  0  0  0
  1  2  1  0
  2  3  1  0
  3  4  3  0
  4  5  1  0
  5  6  3  0
  6  7  1  0
  7  8  3  0
M  END
>  <Title>  (428) 
idAAONgen8

$$$$

     RDKit          2D

  9  9  0  0  0  0  0  0  0  0999 V2000
    3.0000    0.0000    0.0000 C   0  0  0  0  0  0  0  0  0  0  0  0
    1.5000    0.0000    0.0000 C   0  0  0  0  0  0  0  0  0  0  0  0
    0.7500   -1.2990    0.0000 C   0  0  0  0  0  0  0  0  0  0  0  0
   -0.7500   -1.2990    0.0000 C   0  0  0  0  0  0  0  0  0  0  0  0
   -1.5000    0.0000    0.0000 C   0  0  0  0  0  0  0  0  0  0  0  0
   -3.0000    0.0000    0.0000 C   0  0  0  0  0  0  0  0  0  0  0  0
   -0.7500    1.2990    0.0000 C   0  0  0  0  0  0  0  0  0  0  0  0
   -1.5000    2.5981    0.0000 O   0  0  0  0  0  0  0  0  0  0  0  0
    0.7500    1.2990    0.0000 N   0  0  0  0  0  0  0  0  0  0  0  0
  1  2  1  0
  2  3  1  0
  3  4  2  0
  4  5  1  0
  5  6  1  0
  5  7  1  0
  7  8  2  0
  7  9  1  0
  9  2  1  0
M  END
>  <Title>  (429) 
idAAOOgen8

$$$$

     RDKit          2D

 53 58  0  0  0  0  0  0  0  0999 V2000
   -8.3585  -11.7701    0.0000 C   0  0  0  0  0  0  0  0  0  0  0  0
   -6.9519  -11.2491    0.0000 C   0  0  0  0  0  0  0  0  0  0  0  0
   -6.2913  -12.5958    0.0000 C   0  0  0  0  0  0  0  0  0  0  0  0
   -5.3732  -13.7820    0.0000 C   0  0  0  0  0  0  0  0  0  0  0  0
   -4.2350  -14.7590    0.0000 C   0  0  0  0  0  0  0  0  0  0  0  0
   -2.9235  -15.4870    0.0000 C   0  0  0  0  0  0  0  0  0  0  0  0
   -1.4923  -15.9360    0.0000 C   0  0  0  0  0  0  0  0  0  0  0  0
   -0.0000  -16.0878    0.0000 C   0  0  0  0  0  0  0  0  0  0  0  0
    1.4923  -15.9360    0.0000 C   0  0  0  0  0  0  0  0  0  0  0  0
    2.9235  -15.4870    0.0000 C   0  0  0  0  0  0  0  0  0  0  0  0
    4.2350  -14.7590    0.0000 C   0  0  0  0  0  0  0  0  0  0  0  0
    5.3732  -13.7820    0.0000 C   0  0  0  0  0  0  0  0  0  0  0  0
    6.2913  -12.5958    0.0000 C   0  0  0  0  0  0  0  0  0  0  0  0
    6.9519  -11.2491    0.0000 C   0  0  0  0  0  0  0  0  0  0  0  0
    7.3279   -9.7970    0.0000 C   0  0  0  0  0  0  0  0  0  0  0  0
    7.4039   -8.2989    0.0000 C   0  0  0  0  0  0  0  0  0  0  0  0
    7.1767   -6.8162    0.0000 C   0  0  0  0  0  0  0  0  0  0  0  0
    6.6558   -5.4096    0.0000 C   0  0  0  0  0  0  0  0  0  0  0  0
    5.8623   -4.1366    0.0000 C   0  0  0  0  0  0  0  0  0  0  0  0
    4.8289   -3.0494    0.0000 C   0  0  0  0  0  0  0  0  0  0  0  0
    3.5977   -2.1925    0.0000 N   0  0  0  0  0  0  0  0  0  0  0  0
    2.2193   -1.6010    0.0000 C   0  0  0  0  0  0  0  0  0  0  0  0
    2.6683   -0.1698    0.0000 O   0  0  0  0  0  0  0  0  0  0  0  0
    0.7500   -1.2990    0.0000 C   0  0  0  0  0  0  0  0  0  0  0  0
    1.5000    0.0000    0.0000 C   0  0  0  0  0  0  0  0  0  0  0  0
    0.7500    1.2990    0.0000 C   0  0  0  0  0  0  0  0  0  0  0  0
   -0.7500    1.2990    0.0000 C   0  0  0  0  0  0  0  0  0  0  0  0
   -1.5000    0.0000    0.0000 C   0  0  0  0  0  0  0  0  0  0  0  0
   -0.7500   -1.2990    0.0000 C   0  0  0  0  0  0  0  0  0  0  0  0
   -2.2193   -1.6010    0.0000 C   0  0  0  0  0  0  0  0  0  0  0  0
   -2.6856   -0.3875    0.0000 C   0  0  0  0  0  0  0  0  0  0  0  0
   -3.3264    0.0914    0.0000 C   0  0  0  0  0  0  0  0  0  0  0  0
   -4.0616   -0.2241    0.0000 C   0  0  0  0  0  0  0  0  0  0  0  0
   -4.1560   -1.0185    0.0000 C   0  0  0  0  0  0  0  0  0  0  0  0
   -3.5977   -2.1925    0.0000 C   0  0  0  0  0  0  0  0  0  0  0  0
   -4.8289   -3.0494    0.0000 C   0  0  0  0  0  0  0  0  0  0  0  0
   -5.2537   -1.6108    0.0000 C   0  0  0  0  0  0  0  0  0  0  0  0
   -6.7119   -1.2594    0.0000 C   0  0  0  0  0  0  0  0  0  0  0  0
   -7.7454   -2.3466    0.0000 C   0  0  0  0  0  0  0  0  0  0  0  0
   -7.3206   -3.7852    0.0000 C   0  0  0  0  0  0  0  0  0  0  0  0
   -5.8623   -4.1366    0.0000 C   0  0  0  0  0  0  0  0  0  0  0  0
   -6.6558   -5.4096    0.0000 C   0  0  0  0  0  0  0  0  0  0  0  0
   -7.8566   -4.9115    0.0000 C   0  0  0  0  0  0  0  0  0  0  0  0
   -8.6452   -5.0460    0.0000 C   0  0  0  0  0  0  0  0  0  0  0  0
   -8.9230   -5.7962    0.0000 C   0  0  0  0  0  0  0  0  0  0  0  0
   -8.4123   -6.4119    0.0000 C   0  0  0  0  0  0  0  0  0  0  0  0
   -7.1767   -6.8162    0.0000 C   0  0  0  0  0  0  0  0  0  0  0  0
   -7.4039   -8.2989    0.0000 C   0  0  0  0  0  0  0  0  0  0  0  0
   -8.7392   -7.6157    0.0000 C   0  0  0  0  0  0  0  0  0  0  0  0
   -9.9986   -8.4305    0.0000 C   0  0  0  0  0  0  0  0  0  0  0  0
   -9.9226   -9.9286    0.0000 C   0  0  0  0  0  0  0  0  0  0  0  0
   -8.5873  -10.6118    0.0000 C   0  0  0  0  0  0  0  0  0  0  0  0
   -7.3279   -9.7970    0.0000 C   0  0  0  0  0  0  0  0  0  0  0  0
  1  2  1  0
  2  3  1  0
  3  4  1  0
  4  5  1  0
  5  6  1  0
  6  7  1  0
  7  8  1  0
  8  9  1  0
  9 10  1  0
 10 11  1  0
 11 12  1  0
 12 13  1  0
 13 14  1  0
 14 15  1  0
 15 16  1  0
 16 17  1  0
 17 18  1  0
 18 19  1  0
 19 20  1  0
 20 21  1  0
 21 22  1  0
 22 23  2  0
 22 24  1  0
 24 25  2  0
 25 26  1  0
 26 27  2  0
 27 28  1  0
 28 29  2  0
 29 30  1  0
 30 31  2  0
 31 32  1  0
 32 33  2  0
 33 34  1  0
 34 35  2  0
 35 36  1  0
 36 37  2  0
 37 38  1  0
 38 39  2  0
 39 40  1  0
 40 41  2  0
 41 42  1  0
 42 43  2  0
 43 44  1  0
 44 45  2  0
 45 46  1  0
 46 47  2  0
 47 48  1  0
 48 49  2  0
 49 50  1  0
 50 51  2  0
 51 52  1  0
 52 53  2  0
 53  2  1  0
 29 24  1  0
 35 30  1  0
 41 36  1  0
 47 42  1  0
 53 48  1  0
M  END
>  <Title>  (430) 
idAAOPgen8

$$$$

     RDKit          2D

  9  9  0  0  0  0  0  0  0  0999 V2000
    2.6491    0.9642    0.0000 C   0  0  0  0  0  0  0  0  0  0  0  0
    1.5000    0.0000    0.0000 C   0  0  0  0  0  0  0  0  0  0  0  0
    2.6491   -0.9642    0.0000 C   0  0  0  0  0  0  0  0  0  0  0  0
    0.7500   -1.2990    0.0000 C   0  0  0  0  0  0  0  0  0  0  0  0
   -0.7500   -1.2990    0.0000 C   0  0  0  0  0  0  0  0  0  0  0  0
   -1.5000    0.0000    0.0000 C   0  0  0  0  0  0  0  0  0  0  0  0
   -0.7500    1.2990    0.0000 C   0  0  0  0  0  0  0  0  0  0  0  0
    0.7500    1.2990    0.0000 C   0  0  0  0  0  0  0  0  0  0  0  0
    1.5000    2.5981    0.0000 O   0  0  0  0  0  0  0  0  0  0  0  0
  1  2  1  0
  2  3  1  0
  2  4  1  0
  4  5  1  0
  5  6  2  0
  6  7  1  0
  7  8  1  0
  8  9  2  0
  8  2  1  0
M  END
>  <Title>  (431) 
idAAOQgen8

$$$$

     RDKit          2D

 34 38  0  0  0  0  0  0  0  0999 V2000
    1.2135   -7.3421    0.0000 C   0  0  0  0  0  0  0  0  0  0  0  0
    0.7500   -5.9156    0.0000 C   0  0  0  0  0  0  0  0  0  0  0  0
    1.9635   -5.0339    0.0000 C   0  0  0  0  0  0  0  0  0  0  0  0
    2.4271   -3.6073    0.0000 C   0  0  0  0  0  0  0  0  0  0  0  0
    1.9635   -2.1807    0.0000 C   0  0  0  0  0  0  0  0  0  0  0  0
    3.1771   -1.2990    0.0000 C   0  0  0  0  0  0  0  0  0  0  0  0
    3.0203    0.1927    0.0000 O   0  0  0  0  0  0  0  0  0  0  0  0
    4.5474   -1.9091    0.0000 N   0  0  0  0  0  0  0  0  0  0  0  0
    5.7609   -1.0275    0.0000 C   0  0  0  0  0  0  0  0  0  0  0  0
    7.1312   -1.6376    0.0000 N   0  0  0  0  0  0  0  0  0  0  0  0
    8.3447   -0.7559    0.0000 N   0  0  0  0  0  0  0  0  0  0  0  0
    8.1879    0.7359    0.0000 N   0  0  0  0  0  0  0  0  0  0  0  0
    6.8176    1.3460    0.0000 N   0  0  0  0  0  0  0  0  0  0  0  0
    5.6041    0.4643    0.0000 N   0  0  0  0  0  0  0  0  0  0  0  0
    0.7500   -1.2990    0.0000 C   0  0  0  0  0  0  0  0  0  0  0  0
    1.5000    0.0000    0.0000 C   0  0  0  0  0  0  0  0  0  0  0  0
    0.7500    1.2990    0.0000 C   0  0  0  0  0  0  0  0  0  0  0  0
   -0.7500    1.2990    0.0000 C   0  0  0  0  0  0  0  0  0  0  0  0
   -1.5000    0.0000    0.0000 C   0  0  0  0  0  0  0  0  0  0  0  0
   -0.7500   -1.2990    0.0000 C   0  0  0  0  0  0  0  0  0  0  0  0
   -1.9635   -2.1807    0.0000 C   0  0  0  0  0  0  0  0  0  0  0  0
   -2.9672   -1.0660    0.0000 C   0  0  0  0  0  0  0  0  0  0  0  0
   -4.4344   -1.3779    0.0000 C   0  0  0  0  0  0  0  0  0  0  0  0
   -4.8980   -2.8045    0.0000 C   0  0  0  0  0  0  0  0  0  0  0  0
   -3.8943   -3.9192    0.0000 C   0  0  0  0  0  0  0  0  0  0  0  0
   -2.4271   -3.6073    0.0000 C   0  0  0  0  0  0  0  0  0  0  0  0
   -1.9635   -5.0339    0.0000 C   0  0  0  0  0  0  0  0  0  0  0  0
   -3.3338   -5.6440    0.0000 C   0  0  0  0  0  0  0  0  0  0  0  0
   -3.4906   -7.1358    0.0000 C   0  0  0  0  0  0  0  0  0  0  0  0
   -2.2771   -8.0175    0.0000 C   0  0  0  0  0  0  0  0  0  0  0  0
   -2.4339   -9.5092    0.0000 C   0  0  0  0  0  0  0  0  0  0  0  0
   -2.5907  -11.0010    0.0000 N   0  0  0  0  0  0  0  0  0  0  0  0
   -0.9068   -7.4073    0.0000 C   0  0  0  0  0  0  0  0  0  0  0  0
   -0.7500   -5.9156    0.0000 C   0  0  0  0  0  0  0  0  0  0  0  0
  1  2  1  0
  2  3  1  0
  3  4  1  0
  4  5  1  0
  5  6  1  0
  6  7  2  0
  6  8  1  0
  8  9  1  0
  9 10  2  0
 10 11  1  0
 11 12  2  0
 12 13  1  0
 13 14  2  0
  5 15  1  0
 15 16  2  0
 16 17  1  0
 17 18  2  0
 18 19  1  0
 19 20  2  0
 20 21  1  0
 21 22  2  0
 22 23  1  0
 23 24  2  0
 24 25  1  0
 25 26  2  0
 26 27  1  0
 27 28  2  0
 28 29  1  0
 29 30  2  0
 30 31  1  0
 31 32  3  0
 30 33  1  0
 33 34  2  0
 34  2  1  0
 14  9  1  0
 20 15  1  0
 26 21  1  0
 34 27  1  0
M  END
>  <Title>  (432) 
idAAORgen8

$$$$

     RDKit          2D

 19 19  0  0  0  0  0  0  0  0999 V2000
    5.8191    0.0000    0.0000 C   0  0  0  0  0  0  0  0  0  0  0  0
    4.3191    0.0000    0.0000 C   0  0  0  0  0  0  0  0  0  0  0  0
    4.0586   -1.4772    0.0000 C   0  0  0  0  0  0  0  0  0  0  0  0
    3.3086   -2.7762    0.0000 C   0  0  0  0  0  0  0  0  0  0  0  0
    2.1595   -3.7404    0.0000 C   0  0  0  0  0  0  0  0  0  0  0  0
    0.7500   -4.2535    0.0000 C   0  0  0  0  0  0  0  0  0  0  0  0
   -0.7500   -4.2535    0.0000 C   0  0  0  0  0  0  0  0  0  0  0  0
   -2.1595   -3.7404    0.0000 C   0  0  0  0  0  0  0  0  0  0  0  0
   -3.3086   -2.7762    0.0000 C   0  0  0  0  0  0  0  0  0  0  0  0
   -4.0586   -1.4772    0.0000 C   0  0  0  0  0  0  0  0  0  0  0  0
   -4.3191    0.0000    0.0000 C   0  0  0  0  0  0  0  0  0  0  0  0
   -4.0586    1.4772    0.0000 C   0  0  0  0  0  0  0  0  0  0  0  0
   -3.3086    2.7762    0.0000 C   0  0  0  0  0  0  0  0  0  0  0  0
   -2.1595    3.7404    0.0000 C   0  0  0  0  0  0  0  0  0  0  0  0
   -0.7500    4.2535    0.0000 C   0  0  0  0  0  0  0  0  0  0  0  0
    0.7500    4.2535    0.0000 C   0  0  0  0  0  0  0  0  0  0  0  0
    2.1595    3.7404    0.0000 C   0  0  0  0  0  0  0  0  0  0  0  0
    3.3086    2.7762    0.0000 C   0  0  0  0  0  0  0  0  0  0  0  0
    4.0586    1.4772    0.0000 C   0  0  0  0  0  0  0  0  0  0  0  0
  1  2  1  0
  2  3  1  0
  3  4  2  0
  4  5  1  0
  5  6  2  0
  6  7  1  0
  7  8  2  0
  8  9  1  0
  9 10  2  0
 10 11  1  0
 11 12  2  0
 12 13  1  0
 13 14  2  0
 14 15  1  0
 15 16  2  0
 16 17  1  0
 17 18  2  0
 18 19  1  0
 19  2  1  0
M  END
>  <Title>  (433) 
idAAOSgen8

$$$$

     RDKit          2D

112112  0  0  0  0  0  0  0  0999 V2000
   28.0028    0.0000    0.0000 C   0  0  0  0  0  0  0  0  0  0  0  0
   26.5028    0.0000    0.0000 C   0  0  0  0  0  0  0  0  0  0  0  0
   26.4604    1.4994    0.0000 C   0  0  0  0  0  0  0  0  0  0  0  0
   26.3332    2.9940    0.0000 C   0  0  0  0  0  0  0  0  0  0  0  0
   26.1216    4.4790    0.0000 C   0  0  0  0  0  0  0  0  0  0  0  0
   25.8264    5.9497    0.0000 C   0  0  0  0  0  0  0  0  0  0  0  0
   25.4484    7.4013    0.0000 C   0  0  0  0  0  0  0  0  0  0  0  0
   24.9889    8.8291    0.0000 C   0  0  0  0  0  0  0  0  0  0  0  0
   24.4494   10.2288    0.0000 C   0  0  0  0  0  0  0  0  0  0  0  0
   23.8315   11.5956    0.0000 C   0  0  0  0  0  0  0  0  0  0  0  0
   23.1374   12.9253    0.0000 C   0  0  0  0  0  0  0  0  0  0  0  0
   22.3690   14.2136    0.0000 C   0  0  0  0  0  0  0  0  0  0  0  0
   21.5291   15.4564    0.0000 C   0  0  0  0  0  0  0  0  0  0  0  0
   20.6202   16.6496    0.0000 C   0  0  0  0  0  0  0  0  0  0  0  0
   19.6452   17.7895    0.0000 C   0  0  0  0  0  0  0  0  0  0  0  0
   18.6073   18.8725    0.0000 C   0  0  0  0  0  0  0  0  0  0  0  0
   17.5098   19.8949    0.0000 C   0  0  0  0  0  0  0  0  0  0  0  0
   16.3562   20.8537    0.0000 C   0  0  0  0  0  0  0  0  0  0  0  0
   15.1502   21.7456    0.0000 C   0  0  0  0  0  0  0  0  0  0  0  0
   13.8956   22.5679    0.0000 C   0  0  0  0  0  0  0  0  0  0  0  0
   12.5966   23.3179    0.0000 C   0  0  0  0  0  0  0  0  0  0  0  0
   11.2572   23.9932    0.0000 C   0  0  0  0  0  0  0  0  0  0  0  0
    9.8818   24.5917    0.0000 C   0  0  0  0  0  0  0  0  0  0  0  0
    8.4747   25.1114    0.0000 C   0  0  0  0  0  0  0  0  0  0  0  0
    7.0404   25.5506    0.0000 C   0  0  0  0  0  0  0  0  0  0  0  0
    5.5836   25.9080    0.0000 C   0  0  0  0  0  0  0  0  0  0  0  0
    4.1089   26.1824    0.0000 C   0  0  0  0  0  0  0  0  0  0  0  0
    2.6211   26.3729    0.0000 C   0  0  0  0  0  0  0  0  0  0  0  0
    1.1248   26.4790    0.0000 C   0  0  0  0  0  0  0  0  0  0  0  0
   -0.3750   26.5002    0.0000 C   0  0  0  0  0  0  0  0  0  0  0  0
   -1.8737   26.4365    0.0000 C   0  0  0  0  0  0  0  0  0  0  0  0
   -3.3663   26.2882    0.0000 C   0  0  0  0  0  0  0  0  0  0  0  0
   -4.8482   26.0556    0.0000 C   0  0  0  0  0  0  0  0  0  0  0  0
   -6.3145   25.7396    0.0000 C   0  0  0  0  0  0  0  0  0  0  0  0
   -7.7606   25.3411    0.0000 C   0  0  0  0  0  0  0  0  0  0  0  0
   -9.1819   24.8615    0.0000 C   0  0  0  0  0  0  0  0  0  0  0  0
  -10.5737   24.3022    0.0000 C   0  0  0  0  0  0  0  0  0  0  0  0
  -11.9317   23.6651    0.0000 C   0  0  0  0  0  0  0  0  0  0  0  0
  -13.2514   22.9521    0.0000 C   0  0  0  0  0  0  0  0  0  0  0  0
  -14.5287   22.1657    0.0000 C   0  0  0  0  0  0  0  0  0  0  0  0
  -15.7595   21.3082    0.0000 C   0  0  0  0  0  0  0  0  0  0  0  0
  -16.9397   20.3825    0.0000 C   0  0  0  0  0  0  0  0  0  0  0  0
  -18.0657   19.3915    0.0000 C   0  0  0  0  0  0  0  0  0  0  0  0
  -19.1339   18.3383    0.0000 C   0  0  0  0  0  0  0  0  0  0  0  0
  -20.1407   17.2265    0.0000 C   0  0  0  0  0  0  0  0  0  0  0  0
  -21.0831   16.0594    0.0000 C   0  0  0  0  0  0  0  0  0  0  0  0
  -21.9579   14.8409    0.0000 C   0  0  0  0  0  0  0  0  0  0  0  0
  -22.7623   13.5749    0.0000 C   0  0  0  0  0  0  0  0  0  0  0  0
  -23.4939   12.2654    0.0000 C   0  0  0  0  0  0  0  0  0  0  0  0
  -24.1501   10.9166    0.0000 C   0  0  0  0  0  0  0  0  0  0  0  0
  -24.7291    9.5328    0.0000 C   0  0  0  0  0  0  0  0  0  0  0  0
  -25.2288    8.1185    0.0000 C   0  0  0  0  0  0  0  0  0  0  0  0
  -25.6477    6.6781    0.0000 C   0  0  0  0  0  0  0  0  0  0  0  0
  -25.9844    5.2164    0.0000 C   0  0  0  0  0  0  0  0  0  0  0  0
  -26.2379    3.7380    0.0000 C   0  0  0  0  0  0  0  0  0  0  0  0
  -26.4074    2.2476    0.0000 C   0  0  0  0  0  0  0  0  0  0  0  0
  -26.4922    0.7500    0.0000 C   0  0  0  0  0  0  0  0  0  0  0  0
  -26.4922   -0.7500    0.0000 C   0  0  0  0  0  0  0  0  0  0  0  0
  -26.4074   -2.2476    0.0000 C   0  0  0  0  0  0  0  0  0  0  0  0
  -26.2379   -3.7380    0.0000 C   0  0  0  0  0  0  0  0  0  0  0  0
  -25.9844   -5.2164    0.0000 C   0  0  0  0  0  0  0  0  0  0  0  0
  -25.6477   -6.6781    0.0000 C   0  0  0  0  0  0  0  0  0  0  0  0
  -25.2288   -8.1185    0.0000 C   0  0  0  0  0  0  0  0  0  0  0  0
  -24.7291   -9.5328    0.0000 C   0  0  0  0  0  0  0  0  0  0  0  0
  -24.1501  -10.9166    0.0000 C   0  0  0  0  0  0  0  0  0  0  0  0
  -23.4939  -12.2654    0.0000 C   0  0  0  0  0  0  0  0  0  0  0  0
  -22.7623  -13.5749    0.0000 C   0  0  0  0  0  0  0  0  0  0  0  0
  -21.9579  -14.8409    0.0000 C   0  0  0  0  0  0  0  0  0  0  0  0
  -21.0831  -16.0594    0.0000 C   0  0  0  0  0  0  0  0  0  0  0  0
  -20.1407  -17.2265    0.0000 C   0  0  0  0  0  0  0  0  0  0  0  0
  -19.1339  -18.3383    0.0000 C   0  0  0  0  0  0  0  0  0  0  0  0
  -18.0657  -19.3915    0.0000 C   0  0  0  0  0  0  0  0  0  0  0  0
  -16.9397  -20.3825    0.0000 C   0  0  0  0  0  0  0  0  0  0  0  0
  -15.7595  -21.3082    0.0000 C   0  0  0  0  0  0  0  0  0  0  0  0
  -14.5287  -22.1657    0.0000 C   0  0  0  0  0  0  0  0  0  0  0  0
  -13.2514  -22.9521    0.0000 C   0  0  0  0  0  0  0  0  0  0  0  0
  -11.9317  -23.6651    0.0000 C   0  0  0  0  0  0  0  0  0  0  0  0
  -10.5737  -24.3022    0.0000 C   0  0  0  0  0  0  0  0  0  0  0  0
   -9.1819  -24.8615    0.0000 C   0  0  0  0  0  0  0  0  0  0  0  0
   -7.7606  -25.3411    0.0000 C   0  0  0  0  0  0  0  0  0  0  0  0
   -6.3145  -25.7396    0.0000 C   0  0  0  0  0  0  0  0  0  0  0  0
   -4.8482  -26.0556    0.0000 C   0  0  0  0  0  0  0  0  0  0  0  0
   -3.3663  -26.2882    0.0000 C   0  0  0  0  0  0  0  0  0  0  0  0
   -1.8737  -26.4365    0.0000 C   0  0  0  0  0  0  0  0  0  0  0  0
   -0.3750  -26.5002    0.0000 C   0  0  0  0  0  0  0  0  0  0  0  0
    1.1248  -26.4790    0.0000 C   0  0  0  0  0  0  0  0  0  0  0  0
    2.6211  -26.3729    0.0000 C   0  0  0  0  0  0  0  0  0  0  0  0
    4.1089  -26.1824    0.0000 C   0  0  0  0  0  0  0  0  0  0  0  0
    5.5836  -25.9080    0.0000 C   0  0  0  0  0  0  0  0  0  0  0  0
    7.0404  -25.5506    0.0000 C   0  0  0  0  0  0  0  0  0  0  0  0
    8.4747  -25.1114    0.0000 C   0  0  0  0  0  0  0  0  0  0  0  0
    9.8818  -24.5917    0.0000 C   0  0  0  0  0  0  0  0  0  0  0  0
   11.2572  -23.9932    0.0000 C   0  0  0  0  0  0  0  0  0  0  0  0
   12.5966  -23.3179    0.0000 C   0  0  0  0  0  0  0  0  0  0  0  0
   13.8956  -22.5679    0.0000 C   0  0  0  0  0  0  0  0  0  0  0  0
   15.1502  -21.7456    0.0000 C   0  0  0  0  0  0  0  0  0  0  0  0
   16.3562  -20.8537    0.0000 C   0  0  0  0  0  0  0  0  0  0  0  0
   17.5098  -19.8949    0.0000 C   0  0  0  0  0  0  0  0  0  0  0  0
   18.6073  -18.8725    0.0000 C   0  0  0  0  0  0  0  0  0  0  0  0
   19.6452  -17.7895    0.0000 C   0  0  0  0  0  0  0  0  0  0  0  0
   20.6202  -16.6496    0.0000 C   0  0  0  0  0  0  0  0  0  0  0  0
   21.5291  -15.4564    0.0000 C   0  0  0  0  0  0  0  0  0  0  0  0
   22.3690  -14.2136    0.0000 C   0  0  0  0  0  0  0  0  0  0  0  0
   23.1374  -12.9253    0.0000 C   0  0  0  0  0  0  0  0  0  0  0  0
   23.8315  -11.5956    0.0000 C   0  0  0  0  0  0  0  0  0  0  0  0
   24.4494  -10.2288    0.0000 C   0  0  0  0  0  0  0  0  0  0  0  0
   24.9889   -8.8291    0.0000 C   0  0  0  0  0  0  0  0  0  0  0  0
   25.4484   -7.4013    0.0000 C   0  0  0  0  0  0  0  0  0  0  0  0
   25.8264   -5.9497    0.0000 C   0  0  0  0  0  0  0  0  0  0  0  0
   26.1216   -4.4790    0.0000 C   0  0  0  0  0  0  0  0  0  0  0  0
   26.3332   -2.9940    0.0000 C   0  0  0  0  0  0  0  0  0  0  0  0
   26.4604   -1.4994    0.0000 C   0  0  0  0  0  0  0  0  0  0  0  0
  1  2  1  0
  2  3  1  0
  3  4  1  0
  4  5  1  0
  5  6  1  0
  6  7  1  0
  7  8  1  0
  8  9  1  0
  9 10  1  0
 10 11  1  0
 11 12  1  0
 12 13  1  0
 13 14  1  0
 14 15  1  0
 15 16  1  0
 16 17  1  0
 17 18  1  0
 18 19  1  0
 19 20  1  0
 20 21  1  0
 21 22  1  0
 22 23  1  0
 23 24  1  0
 24 25  1  0
 25 26  1  0
 26 27  1  0
 27 28  1  0
 28 29  1  0
 29 30  1  0
 30 31  1  0
 31 32  1  0
 32 33  1  0
 33 34  1  0
 34 35  1  0
 35 36  1  0
 36 37  1  0
 37 38  1  0
 38 39  1  0
 39 40  1  0
 40 41  1  0
 41 42  1  0
 42 43  1  0
 43 44  1  0
 44 45  1  0
 45 46  1  0
 46 47  1  0
 47 48  1  0
 48 49  1  0
 49 50  1  0
 50 51  1  0
 51 52  1  0
 52 53  1  0
 53 54  1  0
 54 55  1  0
 55 56  1  0
 56 57  1  0
 57 58  1  0
 58 59  1  0
 59 60  1  0
 60 61  1  0
 61 62  1  0
 62 63  1  0
 63 64  1  0
 64 65  1  0
 65 66  1  0
 66 67  1  0
 67 68  1  0
 68 69  1  0
 69 70  1  0
 70 71  1  0
 71 72  1  0
 72 73  1  0
 73 74  1  0
 74 75  1  0
 75 76  1  0
 76 77  1  0
 77 78  1  0
 78 79  1  0
 79 80  1  0
 80 81  1  0
 81 82  1  0
 82 83  1  0
 83 84  1  0
 84 85  1  0
 85 86  1  0
 86 87  1  0
 87 88  1  0
 88 89  1  0
 89 90  1  0
 90 91  1  0
 91 92  1  0
 92 93  1  0
 93 94  1  0
 94 95  1  0
 95 96  1  0
 96 97  1  0
 97 98  1  0
 98 99  1  0
 99100  1  0
100101  1  0
101102  1  0
102103  1  0
103104  1  0
104105  1  0
105106  1  0
106107  1  0
107108  1  0
108109  1  0
109110  1  0
110111  1  0
111112  1  0
112  2  1  0
M  END
>  <Title>  (434) 
idAAOTgen8

$$$$

     RDKit          2D

 14 14  0  0  0  0  0  0  0  0999 V2000
    5.4704   -1.3225    0.0000 C   0  0  0  0  0  0  0  0  0  0  0  0
    4.2976   -0.3872    0.0000 C   0  0  0  0  0  0  0  0  0  0  0  0
    2.9013   -0.9352    0.0000 C   0  0  0  0  0  0  0  0  0  0  0  0
    1.7286    0.0000    0.0000 C   0  0  0  0  0  0  0  0  0  0  0  0
    2.9013    0.9352    0.0000 C   0  0  0  0  0  0  0  0  0  0  0  0
    1.0777    1.3515    0.0000 C   0  0  0  0  0  0  0  0  0  0  0  0
   -0.3846    1.6852    0.0000 C   0  0  0  0  0  0  0  0  0  0  0  0
   -0.7184    3.1476    0.0000 O   0  0  0  0  0  0  0  0  0  0  0  0
   -1.5574    0.7500    0.0000 C   0  0  0  0  0  0  0  0  0  0  0  0
   -2.9088    1.4008    0.0000 C   0  0  0  0  0  0  0  0  0  0  0  0
   -1.5574   -0.7500    0.0000 C   0  0  0  0  0  0  0  0  0  0  0  0
   -0.3846   -1.6852    0.0000 C   0  0  0  0  0  0  0  0  0  0  0  0
    1.0777   -1.3515    0.0000 C   0  0  0  0  0  0  0  0  0  0  0  0
    2.0130   -2.5242    0.0000 C   0  0  0  0  0  0  0  0  0  0  0  0
  1  2  1  0
  2  3  1  0
  3  4  1  0
  4  5  1  0
  4  6  1  0
  6  7  1  0
  7  8  2  0
  7  9  1  0
  9 10  1  0
  9 11  1  0
 11 12  1  0
 12 13  2  0
 13 14  1  0
 13  4  1  0
M  END
>  <Title>  (435) 
idAAOUgen8

$$$$

     RDKit          2D

 20 22  0  0  0  0  0  0  0  0999 V2000
   -1.3240   -6.3062    0.0000 C   0  0  0  0  0  0  0  0  0  0  0  0
   -0.7500   -4.9204    0.0000 C   0  0  0  0  0  0  0  0  0  0  0  0
    0.7500   -4.9204    0.0000 C   0  0  0  0  0  0  0  0  0  0  0  0
    1.8107   -3.8597    0.0000 C   0  0  0  0  0  0  0  0  0  0  0  0
    1.8107   -2.3597    0.0000 C   0  0  0  0  0  0  0  0  0  0  0  0
    3.1965   -1.7857    0.0000 N   0  0  0  0  0  0  0  0  0  0  0  0
    4.3865   -2.6988    0.0000 C   0  0  0  0  0  0  0  0  0  0  0  0
    3.3923   -0.2985    0.0000 C   0  0  0  0  0  0  0  0  0  0  0  0
    0.7500   -1.2990    0.0000 C   0  0  0  0  0  0  0  0  0  0  0  0
    1.5000    0.0000    0.0000 C   0  0  0  0  0  0  0  0  0  0  0  0
    0.7500    1.2990    0.0000 C   0  0  0  0  0  0  0  0  0  0  0  0
   -0.7500    1.2990    0.0000 C   0  0  0  0  0  0  0  0  0  0  0  0
   -1.5000    0.0000    0.0000 C   0  0  0  0  0  0  0  0  0  0  0  0
   -0.7500   -1.2990    0.0000 C   0  0  0  0  0  0  0  0  0  0  0  0
   -1.8107   -2.3597    0.0000 C   0  0  0  0  0  0  0  0  0  0  0  0
   -3.1097   -1.6097    0.0000 C   0  0  0  0  0  0  0  0  0  0  0  0
   -4.4087   -2.3597    0.0000 C   0  0  0  0  0  0  0  0  0  0  0  0
   -4.4087   -3.8597    0.0000 C   0  0  0  0  0  0  0  0  0  0  0  0
   -3.1097   -4.6097    0.0000 C   0  0  0  0  0  0  0  0  0  0  0  0
   -1.8107   -3.8597    0.0000 C   0  0  0  0  0  0  0  0  0  0  0  0
  1  2  1  0
  2  3  2  0
  3  4  1  0
  4  5  1  0
  5  6  1  0
  6  7  1  0
  6  8  1  0
  5  9  1  0
  9 10  2  0
 10 11  1  0
 11 12  2  0
 12 13  1  0
 13 14  2  0
 14 15  1  0
 15 16  2  0
 16 17  1  0
 17 18  2  0
 18 19  1  0
 19 20  2  0
 20  2  1  0
 14  9  1  0
 20 15  1  0
M  END
>  <Title>  (436) 
idAAOVgen8

$$$$

     RDKit          2D

  9  9  0  0  0  0  0  0  0  0999 V2000
    5.2500   -1.2990    0.0000 C   0  0  0  0  0  0  0  0  0  0  0  0
    3.7500   -1.2990    0.0000 C   0  0  0  0  0  0  0  0  0  0  0  0
    3.0000    0.0000    0.0000 C   0  0  0  0  0  0  0  0  0  0  0  0
    1.5000    0.0000    0.0000 C   0  0  0  0  0  0  0  0  0  0  0  0
    0.7500   -1.2990    0.0000 C   0  0  0  0  0  0  0  0  0  0  0  0
   -0.7500   -1.2990    0.0000 C   0  0  0  0  0  0  0  0  0  0  0  0
   -1.5000    0.0000    0.0000 C   0  0  0  0  0  0  0  0  0  0  0  0
   -0.7500    1.2990    0.0000 C   0  0  0  0  0  0  0  0  0  0  0  0
    0.7500    1.2990    0.0000 C   0  0  0  0  0  0  0  0  0  0  0  0
  1  2  1  0
  2  3  1  0
  3  4  1  0
  4  5  2  0
  5  6  1  0
  6  7  1  0
  7  8  1  0
  8  9  1  0
  9  4  1  0
M  END
>  <Title>  (437) 
idAAOWgen8

$$$$

     RDKit          2D

113113  0  0  0  0  0  0  0  0999 V2000
   28.2415    0.0000    0.0000 C   0  0  0  0  0  0  0  0  0  0  0  0
   26.7415    0.0000    0.0000 C   0  0  0  0  0  0  0  0  0  0  0  0
   26.6995   -1.4994    0.0000 C   0  0  0  0  0  0  0  0  0  0  0  0
   26.5734   -2.9941    0.0000 C   0  0  0  0  0  0  0  0  0  0  0  0
   26.3637   -4.4794    0.0000 C   0  0  0  0  0  0  0  0  0  0  0  0
   26.0711   -5.9506    0.0000 C   0  0  0  0  0  0  0  0  0  0  0  0
   25.6964   -7.4030    0.0000 C   0  0  0  0  0  0  0  0  0  0  0  0
   25.2409   -8.8322    0.0000 C   0  0  0  0  0  0  0  0  0  0  0  0
   24.7060  -10.2335    0.0000 C   0  0  0  0  0  0  0  0  0  0  0  0
   24.0933  -11.6027    0.0000 C   0  0  0  0  0  0  0  0  0  0  0  0
   23.4048  -12.9354    0.0000 C   0  0  0  0  0  0  0  0  0  0  0  0
   22.6427  -14.2274    0.0000 C   0  0  0  0  0  0  0  0  0  0  0  0
   21.8094  -15.4746    0.0000 C   0  0  0  0  0  0  0  0  0  0  0  0
   20.9074  -16.6731    0.0000 C   0  0  0  0  0  0  0  0  0  0  0  0
   19.9396  -17.8191    0.0000 C   0  0  0  0  0  0  0  0  0  0  0  0
   18.9091  -18.9091    0.0000 C   0  0  0  0  0  0  0  0  0  0  0  0
   17.8191  -19.9396    0.0000 C   0  0  0  0  0  0  0  0  0  0  0  0
   16.6731  -20.9074    0.0000 C   0  0  0  0  0  0  0  0  0  0  0  0
   15.4746  -21.8094    0.0000 C   0  0  0  0  0  0  0  0  0  0  0  0
   14.2274  -22.6427    0.0000 C   0  0  0  0  0  0  0  0  0  0  0  0
   12.9354  -23.4048    0.0000 C   0  0  0  0  0  0  0  0  0  0  0  0
   11.6027  -24.0933    0.0000 C   0  0  0  0  0  0  0  0  0  0  0  0
   10.2335  -24.7060    0.0000 C   0  0  0  0  0  0  0  0  0  0  0  0
    8.8322  -25.2409    0.0000 C   0  0  0  0  0  0  0  0  0  0  0  0
    7.4030  -25.6964    0.0000 C   0  0  0  0  0  0  0  0  0  0  0  0
    5.9506  -26.0711    0.0000 C   0  0  0  0  0  0  0  0  0  0  0  0
    4.4794  -26.3637    0.0000 C   0  0  0  0  0  0  0  0  0  0  0  0
    2.9941  -26.5734    0.0000 C   0  0  0  0  0  0  0  0  0  0  0  0
    1.4994  -26.6995    0.0000 C   0  0  0  0  0  0  0  0  0  0  0  0
   -0.0000  -26.7415    0.0000 C   0  0  0  0  0  0  0  0  0  0  0  0
   -1.4994  -26.6995    0.0000 C   0  0  0  0  0  0  0  0  0  0  0  0
   -2.9941  -26.5734    0.0000 C   0  0  0  0  0  0  0  0  0  0  0  0
   -4.4794  -26.3637    0.0000 C   0  0  0  0  0  0  0  0  0  0  0  0
   -5.9506  -26.0711    0.0000 C   0  0  0  0  0  0  0  0  0  0  0  0
   -7.4030  -25.6964    0.0000 C   0  0  0  0  0  0  0  0  0  0  0  0
   -8.8322  -25.2409    0.0000 C   0  0  0  0  0  0  0  0  0  0  0  0
  -10.2335  -24.7060    0.0000 C   0  0  0  0  0  0  0  0  0  0  0  0
  -11.6027  -24.0933    0.0000 C   0  0  0  0  0  0  0  0  0  0  0  0
  -12.9354  -23.4048    0.0000 C   0  0  0  0  0  0  0  0  0  0  0  0
  -14.2274  -22.6427    0.0000 C   0  0  0  0  0  0  0  0  0  0  0  0
  -15.4746  -21.8094    0.0000 C   0  0  0  0  0  0  0  0  0  0  0  0
  -16.6731  -20.9074    0.0000 C   0  0  0  0  0  0  0  0  0  0  0  0
  -17.8191  -19.9396    0.0000 C   0  0  0  0  0  0  0  0  0  0  0  0
  -18.9091  -18.9091    0.0000 C   0  0  0  0  0  0  0  0  0  0  0  0
  -19.9396  -17.8191    0.0000 C   0  0  0  0  0  0  0  0  0  0  0  0
  -20.9074  -16.6731    0.0000 C   0  0  0  0  0  0  0  0  0  0  0  0
  -21.8094  -15.4746    0.0000 C   0  0  0  0  0  0  0  0  0  0  0  0
  -22.6427  -14.2274    0.0000 C   0  0  0  0  0  0  0  0  0  0  0  0
  -23.4048  -12.9354    0.0000 C   0  0  0  0  0  0  0  0  0  0  0  0
  -24.0933  -11.6027    0.0000 C   0  0  0  0  0  0  0  0  0  0  0  0
  -24.7060  -10.2335    0.0000 C   0  0  0  0  0  0  0  0  0  0  0  0
  -25.2409   -8.8322    0.0000 C   0  0  0  0  0  0  0  0  0  0  0  0
  -25.6964   -7.4030    0.0000 C   0  0  0  0  0  0  0  0  0  0  0  0
  -26.0711   -5.9506    0.0000 C   0  0  0  0  0  0  0  0  0  0  0  0
  -26.3637   -4.4794    0.0000 C   0  0  0  0  0  0  0  0  0  0  0  0
  -26.5734   -2.9941    0.0000 C   0  0  0  0  0  0  0  0  0  0  0  0
  -26.6995   -1.4994    0.0000 C   0  0  0  0  0  0  0  0  0  0  0  0
  -26.7415    0.0000    0.0000 C   0  0  0  0  0  0  0  0  0  0  0  0
  -26.6995    1.4994    0.0000 C   0  0  0  0  0  0  0  0  0  0  0  0
  -26.5734    2.9941    0.0000 C   0  0  0  0  0  0  0  0  0  0  0  0
  -26.3637    4.4794    0.0000 C   0  0  0  0  0  0  0  0  0  0  0  0
  -26.0711    5.9506    0.0000 C   0  0  0  0  0  0  0  0  0  0  0  0
  -25.6964    7.4030    0.0000 C   0  0  0  0  0  0  0  0  0  0  0  0
  -25.2409    8.8322    0.0000 C   0  0  0  0  0  0  0  0  0  0  0  0
  -24.7060   10.2335    0.0000 C   0  0  0  0  0  0  0  0  0  0  0  0
  -24.0933   11.6027    0.0000 C   0  0  0  0  0  0  0  0  0  0  0  0
  -23.4048   12.9354    0.0000 C   0  0  0  0  0  0  0  0  0  0  0  0
  -22.6427   14.2274    0.0000 C   0  0  0  0  0  0  0  0  0  0  0  0
  -21.8094   15.4746    0.0000 C   0  0  0  0  0  0  0  0  0  0  0  0
  -20.9074   16.6731    0.0000 C   0  0  0  0  0  0  0  0  0  0  0  0
  -19.9396   17.8191    0.0000 C   0  0  0  0  0  0  0  0  0  0  0  0
  -18.9091   18.9091    0.0000 C   0  0  0  0  0  0  0  0  0  0  0  0
  -17.8191   19.9396    0.0000 C   0  0  0  0  0  0  0  0  0  0  0  0
  -16.6731   20.9074    0.0000 C   0  0  0  0  0  0  0  0  0  0  0  0
  -15.4746   21.8094    0.0000 C   0  0  0  0  0  0  0  0  0  0  0  0
  -14.2274   22.6427    0.0000 C   0  0  0  0  0  0  0  0  0  0  0  0
  -12.9354   23.4048    0.0000 C   0  0  0  0  0  0  0  0  0  0  0  0
  -11.6027   24.0933    0.0000 C   0  0  0  0  0  0  0  0  0  0  0  0
  -10.2335   24.7060    0.0000 C   0  0  0  0  0  0  0  0  0  0  0  0
   -8.8322   25.2409    0.0000 C   0  0  0  0  0  0  0  0  0  0  0  0
   -7.4030   25.6964    0.0000 C   0  0  0  0  0  0  0  0  0  0  0  0
   -5.9506   26.0711    0.0000 C   0  0  0  0  0  0  0  0  0  0  0  0
   -4.4794   26.3637    0.0000 C   0  0  0  0  0  0  0  0  0  0  0  0
   -2.9941   26.5734    0.0000 C   0  0  0  0  0  0  0  0  0  0  0  0
   -1.4994   26.6995    0.0000 C   0  0  0  0  0  0  0  0  0  0  0  0
    0.0000   26.7415    0.0000 C   0  0  0  0  0  0  0  0  0  0  0  0
    1.4994   26.6995    0.0000 C   0  0  0  0  0  0  0  0  0  0  0  0
    2.9941   26.5734    0.0000 C   0  0  0  0  0  0  0  0  0  0  0  0
    4.4794   26.3637    0.0000 C   0  0  0  0  0  0  0  0  0  0  0  0
    5.9506   26.0711    0.0000 C   0  0  0  0  0  0  0  0  0  0  0  0
    7.4030   25.6964    0.0000 C   0  0  0  0  0  0  0  0  0  0  0  0
    8.8322   25.2409    0.0000 C   0  0  0  0  0  0  0  0  0  0  0  0
   10.2335   24.7060    0.0000 C   0  0  0  0  0  0  0  0  0  0  0  0
   11.6027   24.0933    0.0000 C   0  0  0  0  0  0  0  0  0  0  0  0
   12.9354   23.4048    0.0000 C   0  0  0  0  0  0  0  0  0  0  0  0
   14.2274   22.6427    0.0000 C   0  0  0  0  0  0  0  0  0  0  0  0
   15.4746   21.8094    0.0000 C   0  0  0  0  0  0  0  0  0  0  0  0
   16.6731   20.9074    0.0000 C   0  0  0  0  0  0  0  0  0  0  0  0
   17.8191   19.9396    0.0000 C   0  0  0  0  0  0  0  0  0  0  0  0
   18.9091   18.9091    0.0000 C   0  0  0  0  0  0  0  0  0  0  0  0
   19.9396   17.8191    0.0000 C   0  0  0  0  0  0  0  0  0  0  0  0
   20.9074   16.6731    0.0000 C   0  0  0  0  0  0  0  0  0  0  0  0
   21.8094   15.4746    0.0000 C   0  0  0  0  0  0  0  0  0  0  0  0
   22.6427   14.2274    0.0000 C   0  0  0  0  0  0  0  0  0  0  0  0
   23.4048   12.9354    0.0000 C   0  0  0  0  0  0  0  0  0  0  0  0
   24.0933   11.6027    0.0000 C   0  0  0  0  0  0  0  0  0  0  0  0
   24.7060   10.2335    0.0000 C   0  0  0  0  0  0  0  0  0  0  0  0
   25.2409    8.8322    0.0000 C   0  0  0  0  0  0  0  0  0  0  0  0
   25.6964    7.4030    0.0000 C   0  0  0  0  0  0  0  0  0  0  0  0
   26.0711    5.9506    0.0000 C   0  0  0  0  0  0  0  0  0  0  0  0
   26.3637    4.4794    0.0000 C   0  0  0  0  0  0  0  0  0  0  0  0
   26.5734    2.9941    0.0000 C   0  0  0  0  0  0  0  0  0  0  0  0
   26.6995    1.4994    0.0000 C   0  0  0  0  0  0  0  0  0  0  0  0
  1  2  1  0
  2  3  1  0
  3  4  1  0
  4  5  2  0
  5  6  1  0
  6  7  2  0
  7  8  1  0
  8  9  2  0
  9 10  1  0
 10 11  1  0
 11 12  1  0
 12 13  1  0
 13 14  1  0
 14 15  1  0
 15 16  1  0
 16 17  1  0
 17 18  1  0
 18 19  1  0
 19 20  1  0
 20 21  1  0
 21 22  1  0
 22 23  1  0
 23 24  1  0
 24 25  1  0
 25 26  1  0
 26 27  1  0
 27 28  1  0
 28 29  1  0
 29 30  1  0
 30 31  1  0
 31 32  1  0
 32 33  1  0
 33 34  1  0
 34 35  1  0
 35 36  1  0
 36 37  1  0
 37 38  1  0
 38 39  1  0
 39 40  1  0
 40 41  1  0
 41 42  1  0
 42 43  1  0
 43 44  1  0
 44 45  1  0
 45 46  1  0
 46 47  1  0
 47 48  1  0
 48 49  1  0
 49 50  1  0
 50 51  1  0
 51 52  1  0
 52 53  1  0
 53 54  1  0
 54 55  1  0
 55 56  1  0
 56 57  1  0
 57 58  1  0
 58 59  1  0
 59 60  1  0
 60 61  1  0
 61 62  1  0
 62 63  1  0
 63 64  1  0
 64 65  1  0
 65 66  1  0
 66 67  1  0
 67 68  1  0
 68 69  1  0
 69 70  1  0
 70 71  1  0
 71 72  1  0
 72 73  1  0
 73 74  1  0
 74 75  1  0
 75 76  1  0
 76 77  1  0
 77 78  1  0
 78 79  1  0
 79 80  1  0
 80 81  1  0
 81 82  1  0
 82 83  1  0
 83 84  1  0
 84 85  1  0
 85 86  1  0
 86 87  1  0
 87 88  1  0
 88 89  1  0
 89 90  1  0
 90 91  1  0
 91 92  1  0
 92 93  1  0
 93 94  1  0
 94 95  1  0
 95 96  1  0
 96 97  1  0
 97 98  1  0
 98 99  1  0
 99100  1  0
100101  1  0
101102  1  0
102103  1  0
103104  1  0
104105  1  0
105106  1  0
106107  1  0
107108  1  0
108109  1  0
109110  1  0
110111  1  0
111112  1  0
112113  1  0
113  2  1  0
M  END
>  <Title>  (438) 
idAAOXgen8

$$$$

     RDKit          2D

 23 25  0  0  0  0  0  0  0  0999 V2000
   -0.0000   -8.0154    0.0000 C   0  0  0  0  0  0  0  0  0  0  0  0
   -0.0000   -6.5154    0.0000 C   0  0  0  0  0  0  0  0  0  0  0  0
   -1.4392   -6.0928    0.0000 C   0  0  0  0  0  0  0  0  0  0  0  0
   -2.4215   -4.9592    0.0000 C   0  0  0  0  0  0  0  0  0  0  0  0
   -3.7860   -5.5823    0.0000 O   0  0  0  0  0  0  0  0  0  0  0  0
   -2.6350   -3.4744    0.0000 N   0  0  0  0  0  0  0  0  0  0  0  0
   -2.0119   -2.1100    0.0000 C   0  0  0  0  0  0  0  0  0  0  0  0
   -1.5307   -2.7868    0.0000 N   0  0  0  0  0  0  0  0  0  0  0  0
   -1.4088   -4.2723    0.0000 N   0  0  0  0  0  0  0  0  0  0  0  0
   -0.4684   -4.2592    0.0000 N   0  0  0  0  0  0  0  0  0  0  0  0
   -0.6152   -5.1882    0.0000 N   0  0  0  0  0  0  0  0  0  0  0  0
    0.8378   -5.5202    0.0000 N   0  0  0  0  0  0  0  0  0  0  0  0
    1.4392   -6.0928    0.0000 C   0  0  0  0  0  0  0  0  0  0  0  0
    2.4215   -4.9592    0.0000 C   0  0  0  0  0  0  0  0  0  0  0  0
    2.6350   -3.4744    0.0000 C   0  0  0  0  0  0  0  0  0  0  0  0
    4.1197   -3.2610    0.0000 O   0  0  0  0  0  0  0  0  0  0  0  0
    2.0119   -2.1100    0.0000 N   0  0  0  0  0  0  0  0  0  0  0  0
    0.7500   -1.2990    0.0000 C   0  0  0  0  0  0  0  0  0  0  0  0
    1.5000    0.0000    0.0000 C   0  0  0  0  0  0  0  0  0  0  0  0
    0.7500    1.2990    0.0000 C   0  0  0  0  0  0  0  0  0  0  0  0
   -0.7500    1.2990    0.0000 C   0  0  0  0  0  0  0  0  0  0  0  0
   -1.5000    0.0000    0.0000 C   0  0  0  0  0  0  0  0  0  0  0  0
   -0.7500   -1.2990    0.0000 C   0  0  0  0  0  0  0  0  0  0  0  0
  1  2  1  0
  2  3  1  0
  3  4  1  0
  4  5  2  0
  4  6  1  0
  6  7  1  0
  7  8  2  0
  8  9  1  0
  9 10  2  0
 10 11  1  0
 11 12  2  0
 12 13  1  0
 13 14  2  0
 14 15  1  0
 15 16  1  0
 15 17  2  0
 17 18  1  0
 18 19  2  0
 19 20  1  0
 20 21  2  0
 21 22  1  0
 22 23  2  0
 13  2  1  0
 23 18  1  0
 23  7  1  0
M  END
>  <Title>  (439) 
idAAOYgen8

$$$$

     RDKit          2D

114114  0  0  0  0  0  0  0  0999 V2000
   28.4802    0.0000    0.0000 C   0  0  0  0  0  0  0  0  0  0  0  0
   26.9802    0.0000    0.0000 C   0  0  0  0  0  0  0  0  0  0  0  0
   26.9385    1.4994    0.0000 C   0  0  0  0  0  0  0  0  0  0  0  0
   26.8136    2.9942    0.0000 C   0  0  0  0  0  0  0  0  0  0  0  0
   26.6057    4.4797    0.0000 C   0  0  0  0  0  0  0  0  0  0  0  0
   26.3157    5.9514    0.0000 C   0  0  0  0  0  0  0  0  0  0  0  0
   25.9442    7.4047    0.0000 C   0  0  0  0  0  0  0  0  0  0  0  0
   25.4926    8.8351    0.0000 C   0  0  0  0  0  0  0  0  0  0  0  0
   24.9622   10.2382    0.0000 C   0  0  0  0  0  0  0  0  0  0  0  0
   24.3547   11.6096    0.0000 C   0  0  0  0  0  0  0  0  0  0  0  0
   23.6718   12.9452    0.0000 C   0  0  0  0  0  0  0  0  0  0  0  0
   22.9158   14.2408    0.0000 C   0  0  0  0  0  0  0  0  0  0  0  0
   22.0890   15.4923    0.0000 C   0  0  0  0  0  0  0  0  0  0  0  0
   21.1938   16.6959    0.0000 C   0  0  0  0  0  0  0  0  0  0  0  0
   20.2332   17.8480    0.0000 C   0  0  0  0  0  0  0  0  0  0  0  0
   19.2100   18.9449    0.0000 C   0  0  0  0  0  0  0  0  0  0  0  0
   18.1275   19.9832    0.0000 C   0  0  0  0  0  0  0  0  0  0  0  0
   16.9889   20.9597    0.0000 C   0  0  0  0  0  0  0  0  0  0  0  0
   15.7978   21.8715    0.0000 C   0  0  0  0  0  0  0  0  0  0  0  0
   14.5579   22.7156    0.0000 C   0  0  0  0  0  0  0  0  0  0  0  0
   13.2730   23.4896    0.0000 C   0  0  0  0  0  0  0  0  0  0  0  0
   11.9471   24.1909    0.0000 C   0  0  0  0  0  0  0  0  0  0  0  0
   10.5842   24.8175    0.0000 C   0  0  0  0  0  0  0  0  0  0  0  0
    9.1886   25.3674    0.0000 C   0  0  0  0  0  0  0  0  0  0  0  0
    7.7646   25.8388    0.0000 C   0  0  0  0  0  0  0  0  0  0  0  0
    6.3166   26.2304    0.0000 C   0  0  0  0  0  0  0  0  0  0  0  0
    4.8491   26.5409    0.0000 C   0  0  0  0  0  0  0  0  0  0  0  0
    3.3666   26.7694    0.0000 C   0  0  0  0  0  0  0  0  0  0  0  0
    1.8737   26.9151    0.0000 C   0  0  0  0  0  0  0  0  0  0  0  0
    0.3750   26.9776    0.0000 C   0  0  0  0  0  0  0  0  0  0  0  0
   -1.1248   26.9568    0.0000 C   0  0  0  0  0  0  0  0  0  0  0  0
   -2.6212   26.8526    0.0000 C   0  0  0  0  0  0  0  0  0  0  0  0
   -4.1095   26.6654    0.0000 C   0  0  0  0  0  0  0  0  0  0  0  0
   -5.5850   26.3958    0.0000 C   0  0  0  0  0  0  0  0  0  0  0  0
   -7.0434   26.0447    0.0000 C   0  0  0  0  0  0  0  0  0  0  0  0
   -8.4799   25.6130    0.0000 C   0  0  0  0  0  0  0  0  0  0  0  0
   -9.8902   25.1021    0.0000 C   0  0  0  0  0  0  0  0  0  0  0  0
  -11.2700   24.5137    0.0000 C   0  0  0  0  0  0  0  0  0  0  0  0
  -12.6149   23.8495    0.0000 C   0  0  0  0  0  0  0  0  0  0  0  0
  -13.9208   23.1115    0.0000 C   0  0  0  0  0  0  0  0  0  0  0  0
  -15.1837   22.3022    0.0000 C   0  0  0  0  0  0  0  0  0  0  0  0
  -16.3997   21.4239    0.0000 C   0  0  0  0  0  0  0  0  0  0  0  0
  -17.5650   20.4794    0.0000 C   0  0  0  0  0  0  0  0  0  0  0  0
  -18.6760   19.4715    0.0000 C   0  0  0  0  0  0  0  0  0  0  0  0
  -19.7293   18.4035    0.0000 C   0  0  0  0  0  0  0  0  0  0  0  0
  -20.7215   17.2786    0.0000 C   0  0  0  0  0  0  0  0  0  0  0  0
  -21.6498   16.1003    0.0000 C   0  0  0  0  0  0  0  0  0  0  0  0
  -22.5111   14.8723    0.0000 C   0  0  0  0  0  0  0  0  0  0  0  0
  -23.3028   13.5982    0.0000 C   0  0  0  0  0  0  0  0  0  0  0  0
  -24.0225   12.2822    0.0000 C   0  0  0  0  0  0  0  0  0  0  0  0
  -24.6680   10.9281    0.0000 C   0  0  0  0  0  0  0  0  0  0  0  0
  -25.2372    9.5403    0.0000 C   0  0  0  0  0  0  0  0  0  0  0  0
  -25.7284    8.1230    0.0000 C   0  0  0  0  0  0  0  0  0  0  0  0
  -26.1401    6.6806    0.0000 C   0  0  0  0  0  0  0  0  0  0  0  0
  -26.4709    5.2176    0.0000 C   0  0  0  0  0  0  0  0  0  0  0  0
  -26.7200    3.7384    0.0000 C   0  0  0  0  0  0  0  0  0  0  0  0
  -26.8864    2.2477    0.0000 C   0  0  0  0  0  0  0  0  0  0  0  0
  -26.9698    0.7500    0.0000 C   0  0  0  0  0  0  0  0  0  0  0  0
  -26.9698   -0.7500    0.0000 C   0  0  0  0  0  0  0  0  0  0  0  0
  -26.8864   -2.2477    0.0000 C   0  0  0  0  0  0  0  0  0  0  0  0
  -26.7200   -3.7384    0.0000 C   0  0  0  0  0  0  0  0  0  0  0  0
  -26.4709   -5.2176    0.0000 C   0  0  0  0  0  0  0  0  0  0  0  0
  -26.1401   -6.6806    0.0000 C   0  0  0  0  0  0  0  0  0  0  0  0
  -25.7284   -8.1230    0.0000 C   0  0  0  0  0  0  0  0  0  0  0  0
  -25.2372   -9.5403    0.0000 C   0  0  0  0  0  0  0  0  0  0  0  0
  -24.6680  -10.9281    0.0000 C   0  0  0  0  0  0  0  0  0  0  0  0
  -24.0225  -12.2822    0.0000 C   0  0  0  0  0  0  0  0  0  0  0  0
  -23.3028  -13.5982    0.0000 C   0  0  0  0  0  0  0  0  0  0  0  0
  -22.5111  -14.8723    0.0000 C   0  0  0  0  0  0  0  0  0  0  0  0
  -21.6498  -16.1003    0.0000 C   0  0  0  0  0  0  0  0  0  0  0  0
  -20.7215  -17.2786    0.0000 C   0  0  0  0  0  0  0  0  0  0  0  0
  -19.7293  -18.4035    0.0000 C   0  0  0  0  0  0  0  0  0  0  0  0
  -18.6760  -19.4715    0.0000 C   0  0  0  0  0  0  0  0  0  0  0  0
  -17.5650  -20.4794    0.0000 C   0  0  0  0  0  0  0  0  0  0  0  0
  -16.3997  -21.4239    0.0000 C   0  0  0  0  0  0  0  0  0  0  0  0
  -15.1837  -22.3022    0.0000 C   0  0  0  0  0  0  0  0  0  0  0  0
  -13.9208  -23.1115    0.0000 C   0  0  0  0  0  0  0  0  0  0  0  0
  -12.6149  -23.8495    0.0000 C   0  0  0  0  0  0  0  0  0  0  0  0
  -11.2700  -24.5137    0.0000 C   0  0  0  0  0  0  0  0  0  0  0  0
   -9.8902  -25.1021    0.0000 C   0  0  0  0  0  0  0  0  0  0  0  0
   -8.4799  -25.6130    0.0000 C   0  0  0  0  0  0  0  0  0  0  0  0
   -7.0434  -26.0447    0.0000 C   0  0  0  0  0  0  0  0  0  0  0  0
   -5.5850  -26.3958    0.0000 C   0  0  0  0  0  0  0  0  0  0  0  0
   -4.1095  -26.6654    0.0000 C   0  0  0  0  0  0  0  0  0  0  0  0
   -2.6212  -26.8526    0.0000 C   0  0  0  0  0  0  0  0  0  0  0  0
   -1.1248  -26.9568    0.0000 C   0  0  0  0  0  0  0  0  0  0  0  0
    0.3750  -26.9776    0.0000 C   0  0  0  0  0  0  0  0  0  0  0  0
    1.8737  -26.9151    0.0000 C   0  0  0  0  0  0  0  0  0  0  0  0
    3.3666  -26.7694    0.0000 C   0  0  0  0  0  0  0  0  0  0  0  0
    4.8491  -26.5409    0.0000 C   0  0  0  0  0  0  0  0  0  0  0  0
    6.3166  -26.2304    0.0000 C   0  0  0  0  0  0  0  0  0  0  0  0
    7.7646  -25.8388    0.0000 C   0  0  0  0  0  0  0  0  0  0  0  0
    9.1886  -25.3674    0.0000 C   0  0  0  0  0  0  0  0  0  0  0  0
   10.5842  -24.8175    0.0000 C   0  0  0  0  0  0  0  0  0  0  0  0
   11.9471  -24.1909    0.0000 C   0  0  0  0  0  0  0  0  0  0  0  0
   13.2730  -23.4896    0.0000 C   0  0  0  0  0  0  0  0  0  0  0  0
   14.5579  -22.7156    0.0000 C   0  0  0  0  0  0  0  0  0  0  0  0
   15.7978  -21.8715    0.0000 C   0  0  0  0  0  0  0  0  0  0  0  0
   16.9889  -20.9597    0.0000 C   0  0  0  0  0  0  0  0  0  0  0  0
   18.1275  -19.9832    0.0000 C   0  0  0  0  0  0  0  0  0  0  0  0
   19.2100  -18.9449    0.0000 C   0  0  0  0  0  0  0  0  0  0  0  0
   20.2332  -17.8480    0.0000 C   0  0  0  0  0  0  0  0  0  0  0  0
   21.1938  -16.6959    0.0000 C   0  0  0  0  0  0  0  0  0  0  0  0
   22.0890  -15.4923    0.0000 C   0  0  0  0  0  0  0  0  0  0  0  0
   22.9158  -14.2408    0.0000 C   0  0  0  0  0  0  0  0  0  0  0  0
   23.6718  -12.9452    0.0000 C   0  0  0  0  0  0  0  0  0  0  0  0
   24.3547  -11.6096    0.0000 C   0  0  0  0  0  0  0  0  0  0  0  0
   24.9622  -10.2382    0.0000 C   0  0  0  0  0  0  0  0  0  0  0  0
   25.4926   -8.8351    0.0000 C   0  0  0  0  0  0  0  0  0  0  0  0
   25.9442   -7.4047    0.0000 C   0  0  0  0  0  0  0  0  0  0  0  0
   26.3157   -5.9514    0.0000 C   0  0  0  0  0  0  0  0  0  0  0  0
   26.6057   -4.4797    0.0000 C   0  0  0  0  0  0  0  0  0  0  0  0
   26.8136   -2.9942    0.0000 C   0  0  0  0  0  0  0  0  0  0  0  0
   26.9385   -1.4994    0.0000 C   0  0  0  0  0  0  0  0  0  0  0  0
  1  2  1  0
  2  3  1  0
  3  4  1  0
  4  5  1  0
  5  6  1  0
  6  7  1  0
  7  8  1  0
  8  9  1  0
  9 10  1  0
 10 11  1  0
 11 12  1  0
 12 13  1  0
 13 14  1  0
 14 15  1  0
 15 16  1  0
 16 17  1  0
 17 18  1  0
 18 19  1  0
 19 20  1  0
 20 21  1  0
 21 22  1  0
 22 23  1  0
 23 24  1  0
 24 25  1  0
 25 26  1  0
 26 27  1  0
 27 28  1  0
 28 29  1  0
 29 30  1  0
 30 31  1  0
 31 32  1  0
 32 33  1  0
 33 34  1  0
 34 35  1  0
 35 36  1  0
 36 37  1  0
 37 38  1  0
 38 39  1  0
 39 40  1  0
 40 41  1  0
 41 42  1  0
 42 43  1  0
 43 44  1  0
 44 45  1  0
 45 46  1  0
 46 47  1  0
 47 48  1  0
 48 49  1  0
 49 50  1  0
 50 51  1  0
 51 52  1  0
 52 53  1  0
 53 54  1  0
 54 55  1  0
 55 56  1  0
 56 57  1  0
 57 58  1  0
 58 59  1  0
 59 60  1  0
 60 61  1  0
 61 62  1  0
 62 63  1  0
 63 64  1  0
 64 65  1  0
 65 66  1  0
 66 67  1  0
 67 68  1  0
 68 69  1  0
 69 70  1  0
 70 71  1  0
 71 72  1  0
 72 73  1  0
 73 74  1  0
 74 75  1  0
 75 76  1  0
 76 77  1  0
 77 78  1  0
 78 79  1  0
 79 80  1  0
 80 81  1  0
 81 82  1  0
 82 83  1  0
 83 84  1  0
 84 85  1  0
 85 86  1  0
 86 87  1  0
 87 88  1  0
 88 89  1  0
 89 90  1  0
 90 91  1  0
 91 92  1  0
 92 93  1  0
 93 94  1  0
 94 95  1  0
 95 96  1  0
 96 97  1  0
 97 98  1  0
 98 99  1  0
 99100  1  0
100101  1  0
101102  1  0
102103  1  0
103104  1  0
104105  1  0
105106  1  0
106107  1  0
107108  1  0
108109  1  0
109110  1  0
110111  1  0
111112  1  0
112113  1  0
113114  1  0
114  2  1  0
M  END
>  <Title>  (440) 
idAAOZgen8

$$$$

     RDKit          2D

  9  9  0  0  0  0  0  0  0  0999 V2000
    5.2500   -1.2990    0.0000 C   0  0  0  0  0  0  0  0  0  0  0  0
    3.7500   -1.2990    0.0000 O   0  0  0  0  0  0  0  0  0  0  0  0
    3.0000    0.0000    0.0000 C   0  0  0  0  0  0  0  0  0  0  0  0
    1.5000    0.0000    0.0000 C   0  0  0  0  0  0  0  0  0  0  0  0
    0.7500   -1.2990    0.0000 C   0  0  0  0  0  0  0  0  0  0  0  0
   -0.7500   -1.2990    0.0000 C   0  0  0  0  0  0  0  0  0  0  0  0
   -1.5000    0.0000    0.0000 C   0  0  0  0  0  0  0  0  0  0  0  0
   -0.7500    1.2990    0.0000 C   0  0  0  0  0  0  0  0  0  0  0  0
    0.7500    1.2990    0.0000 C   0  0  0  0  0  0  0  0  0  0  0  0
  1  2  1  0
  2  3  1  0
  3  4  1  0
  4  5  2  0
  5  6  1  0
  6  7  1  0
  7  8  1  0
  8  9  1  0
  9  4  1  0
M  END
>  <Title>  (441) 
idAAPAgen8

$$$$

     RDKit          2D

  8  8  0  0  0  0  0  0  0  0999 V2000
    2.7760    0.0000    0.0000 C   0  0  0  0  0  0  0  0  0  0  0  0
    1.2760    0.0000    0.0000 C   0  0  0  0  0  0  0  0  0  0  0  0
    0.3943    1.2135    0.0000 C   0  0  0  0  0  0  0  0  0  0  0  0
   -1.0323    0.7500    0.0000 C   0  0  0  0  0  0  0  0  0  0  0  0
   -1.0323   -0.7500    0.0000 C   0  0  0  0  0  0  0  0  0  0  0  0
   -1.3442   -2.2172    0.0000 C   0  0  0  0  0  0  0  0  0  0  0  0
   -2.5241   -0.5932    0.0000 C   0  0  0  0  0  0  0  0  0  0  0  0
    0.3943   -1.2135    0.0000 C   0  0  0  0  0  0  0  0  0  0  0  0
  1  2  1  0
  2  3  1  0
  3  4  1  0
  4  5  1  0
  5  6  1  0
  5  7  1  0
  5  8  1  0
  8  2  1  0
M  END
>  <Title>  (442) 
idAAPBgen8

$$$$

     RDKit          2D

 11 11  0  0  0  0  0  0  0  0999 V2000
    3.1935   -3.4746    0.0000 C   0  0  0  0  0  0  0  0  0  0  0  0
    2.0788   -2.4709    0.0000 C   0  0  0  0  0  0  0  0  0  0  0  0
    2.3907   -1.0037    0.0000 C   0  0  0  0  0  0  0  0  0  0  0  0
    1.2760    0.0000    0.0000 C   0  0  0  0  0  0  0  0  0  0  0  0
    2.3907    1.0037    0.0000 C   0  0  0  0  0  0  0  0  0  0  0  0
    0.3943    1.2135    0.0000 C   0  0  0  0  0  0  0  0  0  0  0  0
    0.8578    2.6401    0.0000 O   0  0  0  0  0  0  0  0  0  0  0  0
   -1.0323    0.7500    0.0000 C   0  0  0  0  0  0  0  0  0  0  0  0
   -1.0323   -0.7500    0.0000 C   0  0  0  0  0  0  0  0  0  0  0  0
    0.3943   -1.2135    0.0000 C   0  0  0  0  0  0  0  0  0  0  0  0
    0.8578   -2.6401    0.0000 O   0  0  0  0  0  0  0  0  0  0  0  0
  1  2  1  0
  2  3  1  0
  3  4  1  0
  4  5  1  0
  4  6  1  0
  6  7  1  0
  6  8  1  0
  8  9  1  0
  9 10  1  0
 10 11  1  0
 10  4  1  0
M  END
>  <Title>  (443) 
idAAPCgen8

$$$$

     RDKit          2D

  7  6  0  0  0  0  0  0  0  0999 V2000
    0.0000    0.0000    0.0000 C   0  0  0  0  0  0  0  0  0  0  0  0
    1.2990    0.7500    0.0000 C   0  0  0  0  0  0  0  0  0  0  0  0
    2.5981    1.5000    0.0000 C   0  0  0  0  0  0  0  0  0  0  0  0
    3.8971    2.2500    0.0000 C   0  0  0  0  0  0  0  0  0  0  0  0
    5.1962    1.5000    0.0000 C   0  0  0  0  0  0  0  0  0  0  0  0
    6.4952    2.2500    0.0000 C   0  0  0  0  0  0  0  0  0  0  0  0
    7.7942    1.5000    0.0000 C   0  0  0  0  0  0  0  0  0  0  0  0
  1  2  1  0
  2  3  3  0
  3  4  1  0
  4  5  1  0
  5  6  2  3
  6  7  1  0
M  END
>  <Title>  (444) 
idAAPDgen8

$$$$

     RDKit          2D

116116  0  0  0  0  0  0  0  0999 V2000
   28.9576    0.0000    0.0000 C   0  0  0  0  0  0  0  0  0  0  0  0
   27.4576    0.0000    0.0000 C   0  0  0  0  0  0  0  0  0  0  0  0
   27.4167    1.4994    0.0000 C   0  0  0  0  0  0  0  0  0  0  0  0
   27.2939    2.9944    0.0000 C   0  0  0  0  0  0  0  0  0  0  0  0
   27.0896    4.4804    0.0000 C   0  0  0  0  0  0  0  0  0  0  0  0
   26.8045    5.9531    0.0000 C   0  0  0  0  0  0  0  0  0  0  0  0
   26.4394    7.4080    0.0000 C   0  0  0  0  0  0  0  0  0  0  0  0
   25.9954    8.8408    0.0000 C   0  0  0  0  0  0  0  0  0  0  0  0
   25.4739   10.2472    0.0000 C   0  0  0  0  0  0  0  0  0  0  0  0
   24.8763   11.6230    0.0000 C   0  0  0  0  0  0  0  0  0  0  0  0
   24.2044   12.9641    0.0000 C   0  0  0  0  0  0  0  0  0  0  0  0
   23.4603   14.2666    0.0000 C   0  0  0  0  0  0  0  0  0  0  0  0
   22.6463   15.5264    0.0000 C   0  0  0  0  0  0  0  0  0  0  0  0
   21.7646   16.7399    0.0000 C   0  0  0  0  0  0  0  0  0  0  0  0
   20.8179   17.9035    0.0000 C   0  0  0  0  0  0  0  0  0  0  0  0
   19.8092   19.0136    0.0000 C   0  0  0  0  0  0  0  0  0  0  0  0
   18.7413   20.0670    0.0000 C   0  0  0  0  0  0  0  0  0  0  0  0
   17.6175   21.0605    0.0000 C   0  0  0  0  0  0  0  0  0  0  0  0
   16.4411   21.9912    0.0000 C   0  0  0  0  0  0  0  0  0  0  0  0
   15.2156   22.8562    0.0000 C   0  0  0  0  0  0  0  0  0  0  0  0
   13.9448   23.6530    0.0000 C   0  0  0  0  0  0  0  0  0  0  0  0
   12.6323   24.3792    0.0000 C   0  0  0  0  0  0  0  0  0  0  0  0
   11.2821   25.0327    0.0000 C   0  0  0  0  0  0  0  0  0  0  0  0
    9.8983   25.6115    0.0000 C   0  0  0  0  0  0  0  0  0  0  0  0
    8.4849   26.1138    0.0000 C   0  0  0  0  0  0  0  0  0  0  0  0
    7.0462   26.5382    0.0000 C   0  0  0  0  0  0  0  0  0  0  0  0
    5.5864   26.8833    0.0000 C   0  0  0  0  0  0  0  0  0  0  0  0
    4.1100   27.1483    0.0000 C   0  0  0  0  0  0  0  0  0  0  0  0
    2.6213   27.3322    0.0000 C   0  0  0  0  0  0  0  0  0  0  0  0
    1.1248   27.4346    0.0000 C   0  0  0  0  0  0  0  0  0  0  0  0
   -0.3750   27.4551    0.0000 C   0  0  0  0  0  0  0  0  0  0  0  0
   -1.8738   27.3936    0.0000 C   0  0  0  0  0  0  0  0  0  0  0  0
   -3.3669   27.2504    0.0000 C   0  0  0  0  0  0  0  0  0  0  0  0
   -4.8500   27.0259    0.0000 C   0  0  0  0  0  0  0  0  0  0  0  0
   -6.3187   26.7207    0.0000 C   0  0  0  0  0  0  0  0  0  0  0  0
   -7.7684   26.3358    0.0000 C   0  0  0  0  0  0  0  0  0  0  0  0
   -9.1950   25.8723    0.0000 C   0  0  0  0  0  0  0  0  0  0  0  0
  -10.5941   25.3315    0.0000 C   0  0  0  0  0  0  0  0  0  0  0  0
  -11.9617   24.7152    0.0000 C   0  0  0  0  0  0  0  0  0  0  0  0
  -13.2935   24.0251    0.0000 C   0  0  0  0  0  0  0  0  0  0  0  0
  -14.5857   23.2633    0.0000 C   0  0  0  0  0  0  0  0  0  0  0  0
  -15.8343   22.4321    0.0000 C   0  0  0  0  0  0  0  0  0  0  0  0
  -17.0357   21.5339    0.0000 C   0  0  0  0  0  0  0  0  0  0  0  0
  -18.1862   20.5715    0.0000 C   0  0  0  0  0  0  0  0  0  0  0  0
  -19.2824   19.5476    0.0000 C   0  0  0  0  0  0  0  0  0  0  0  0
  -20.3211   18.4655    0.0000 C   0  0  0  0  0  0  0  0  0  0  0  0
  -21.2992   17.3282    0.0000 C   0  0  0  0  0  0  0  0  0  0  0  0
  -22.2137   16.1392    0.0000 C   0  0  0  0  0  0  0  0  0  0  0  0
  -23.0619   14.9020    0.0000 C   0  0  0  0  0  0  0  0  0  0  0  0
  -23.8413   13.6204    0.0000 C   0  0  0  0  0  0  0  0  0  0  0  0
  -24.5495   12.2981    0.0000 C   0  0  0  0  0  0  0  0  0  0  0  0
  -25.1845   10.9392    0.0000 C   0  0  0  0  0  0  0  0  0  0  0  0
  -25.7443    9.5475    0.0000 C   0  0  0  0  0  0  0  0  0  0  0  0
  -26.2272    8.1274    0.0000 C   0  0  0  0  0  0  0  0  0  0  0  0
  -26.6319    6.6830    0.0000 C   0  0  0  0  0  0  0  0  0  0  0  0
  -26.9571    5.2187    0.0000 C   0  0  0  0  0  0  0  0  0  0  0  0
  -27.2019    3.7388    0.0000 C   0  0  0  0  0  0  0  0  0  0  0  0
  -27.3655    2.2478    0.0000 C   0  0  0  0  0  0  0  0  0  0  0  0
  -27.4474    0.7500    0.0000 C   0  0  0  0  0  0  0  0  0  0  0  0
  -27.4474   -0.7500    0.0000 C   0  0  0  0  0  0  0  0  0  0  0  0
  -27.3655   -2.2478    0.0000 C   0  0  0  0  0  0  0  0  0  0  0  0
  -27.2019   -3.7388    0.0000 C   0  0  0  0  0  0  0  0  0  0  0  0
  -26.9571   -5.2187    0.0000 C   0  0  0  0  0  0  0  0  0  0  0  0
  -26.6319   -6.6830    0.0000 C   0  0  0  0  0  0  0  0  0  0  0  0
  -26.2272   -8.1274    0.0000 C   0  0  0  0  0  0  0  0  0  0  0  0
  -25.7443   -9.5475    0.0000 C   0  0  0  0  0  0  0  0  0  0  0  0
  -25.1845  -10.9392    0.0000 C   0  0  0  0  0  0  0  0  0  0  0  0
  -24.5495  -12.2981    0.0000 C   0  0  0  0  0  0  0  0  0  0  0  0
  -23.8413  -13.6204    0.0000 C   0  0  0  0  0  0  0  0  0  0  0  0
  -23.0619  -14.9020    0.0000 C   0  0  0  0  0  0  0  0  0  0  0  0
  -22.2137  -16.1392    0.0000 C   0  0  0  0  0  0  0  0  0  0  0  0
  -21.2992  -17.3282    0.0000 C   0  0  0  0  0  0  0  0  0  0  0  0
  -20.3211  -18.4655    0.0000 C   0  0  0  0  0  0  0  0  0  0  0  0
  -19.2824  -19.5476    0.0000 C   0  0  0  0  0  0  0  0  0  0  0  0
  -18.1862  -20.5715    0.0000 C   0  0  0  0  0  0  0  0  0  0  0  0
  -17.0357  -21.5339    0.0000 C   0  0  0  0  0  0  0  0  0  0  0  0
  -15.8343  -22.4321    0.0000 C   0  0  0  0  0  0  0  0  0  0  0  0
  -14.5857  -23.2633    0.0000 C   0  0  0  0  0  0  0  0  0  0  0  0
  -13.2935  -24.0251    0.0000 C   0  0  0  0  0  0  0  0  0  0  0  0
  -11.9617  -24.7152    0.0000 C   0  0  0  0  0  0  0  0  0  0  0  0
  -10.5941  -25.3315    0.0000 C   0  0  0  0  0  0  0  0  0  0  0  0
   -9.1950  -25.8723    0.0000 C   0  0  0  0  0  0  0  0  0  0  0  0
   -7.7684  -26.3358    0.0000 C   0  0  0  0  0  0  0  0  0  0  0  0
   -6.3187  -26.7207    0.0000 C   0  0  0  0  0  0  0  0  0  0  0  0
   -4.8500  -27.0259    0.0000 C   0  0  0  0  0  0  0  0  0  0  0  0
   -3.3669  -27.2504    0.0000 C   0  0  0  0  0  0  0  0  0  0  0  0
   -1.8738  -27.3936    0.0000 C   0  0  0  0  0  0  0  0  0  0  0  0
   -0.3750  -27.4551    0.0000 C   0  0  0  0  0  0  0  0  0  0  0  0
    1.1248  -27.4346    0.0000 C   0  0  0  0  0  0  0  0  0  0  0  0
    2.6213  -27.3322    0.0000 C   0  0  0  0  0  0  0  0  0  0  0  0
    4.1100  -27.1483    0.0000 C   0  0  0  0  0  0  0  0  0  0  0  0
    5.5864  -26.8833    0.0000 C   0  0  0  0  0  0  0  0  0  0  0  0
    7.0462  -26.5382    0.0000 C   0  0  0  0  0  0  0  0  0  0  0  0
    8.4849  -26.1138    0.0000 C   0  0  0  0  0  0  0  0  0  0  0  0
    9.8983  -25.6115    0.0000 C   0  0  0  0  0  0  0  0  0  0  0  0
   11.2821  -25.0327    0.0000 C   0  0  0  0  0  0  0  0  0  0  0  0
   12.6323  -24.3792    0.0000 C   0  0  0  0  0  0  0  0  0  0  0  0
   13.9448  -23.6530    0.0000 C   0  0  0  0  0  0  0  0  0  0  0  0
   15.2156  -22.8562    0.0000 C   0  0  0  0  0  0  0  0  0  0  0  0
   16.4411  -21.9912    0.0000 C   0  0  0  0  0  0  0  0  0  0  0  0
   17.6175  -21.0605    0.0000 C   0  0  0  0  0  0  0  0  0  0  0  0
   18.7413  -20.0670    0.0000 C   0  0  0  0  0  0  0  0  0  0  0  0
   19.8092  -19.0136    0.0000 C   0  0  0  0  0  0  0  0  0  0  0  0
   20.8179  -17.9035    0.0000 C   0  0  0  0  0  0  0  0  0  0  0  0
   21.7646  -16.7399    0.0000 C   0  0  0  0  0  0  0  0  0  0  0  0
   22.6463  -15.5264    0.0000 C   0  0  0  0  0  0  0  0  0  0  0  0
   23.4603  -14.2666    0.0000 C   0  0  0  0  0  0  0  0  0  0  0  0
   24.2044  -12.9641    0.0000 C   0  0  0  0  0  0  0  0  0  0  0  0
   24.8763  -11.6230    0.0000 C   0  0  0  0  0  0  0  0  0  0  0  0
   25.4739  -10.2472    0.0000 C   0  0  0  0  0  0  0  0  0  0  0  0
   25.9954   -8.8408    0.0000 C   0  0  0  0  0  0  0  0  0  0  0  0
   26.4394   -7.4080    0.0000 C   0  0  0  0  0  0  0  0  0  0  0  0
   26.8045   -5.9531    0.0000 C   0  0  0  0  0  0  0  0  0  0  0  0
   27.0896   -4.4804    0.0000 C   0  0  0  0  0  0  0  0  0  0  0  0
   27.2939   -2.9944    0.0000 C   0  0  0  0  0  0  0  0  0  0  0  0
   27.4167   -1.4994    0.0000 C   0  0  0  0  0  0  0  0  0  0  0  0
  1  2  1  0
  2  3  1  0
  3  4  1  0
  4  5  1  0
  5  6  1  0
  6  7  1  0
  7  8  1  0
  8  9  1  0
  9 10  1  0
 10 11  1  0
 11 12  1  0
 12 13  1  0
 13 14  1  0
 14 15  1  0
 15 16  1  0
 16 17  1  0
 17 18  1  0
 18 19  1  0
 19 20  1  0
 20 21  1  0
 21 22  1  0
 22 23  1  0
 23 24  1  0
 24 25  1  0
 25 26  1  0
 26 27  1  0
 27 28  1  0
 28 29  1  0
 29 30  1  0
 30 31  1  0
 31 32  1  0
 32 33  1  0
 33 34  1  0
 34 35  1  0
 35 36  1  0
 36 37  1  0
 37 38  1  0
 38 39  1  0
 39 40  1  0
 40 41  1  0
 41 42  1  0
 42 43  1  0
 43 44  1  0
 44 45  1  0
 45 46  1  0
 46 47  1  0
 47 48  1  0
 48 49  1  0
 49 50  1  0
 50 51  1  0
 51 52  1  0
 52 53  1  0
 53 54  1  0
 54 55  1  0
 55 56  1  0
 56 57  1  0
 57 58  1  0
 58 59  1  0
 59 60  1  0
 60 61  1  0
 61 62  1  0
 62 63  1  0
 63 64  1  0
 64 65  1  0
 65 66  1  0
 66 67  1  0
 67 68  1  0
 68 69  1  0
 69 70  1  0
 70 71  1  0
 71 72  1  0
 72 73  1  0
 73 74  1  0
 74 75  1  0
 75 76  1  0
 76 77  1  0
 77 78  1  0
 78 79  1  0
 79 80  1  0
 80 81  1  0
 81 82  1  0
 82 83  1  0
 83 84  1  0
 84 85  1  0
 85 86  1  0
 86 87  1  0
 87 88  1  0
 88 89  1  0
 89 90  1  0
 90 91  1  0
 91 92  1  0
 92 93  1  0
 93 94  1  0
 94 95  1  0
 95 96  1  0
 96 97  1  0
 97 98  1  0
 98 99  1  0
 99100  1  0
100101  1  0
101102  1  0
102103  1  0
103104  1  0
104105  1  0
105106  1  0
106107  1  0
107108  1  0
108109  1  0
109110  1  0
110111  1  0
111112  1  0
112113  1  0
113114  1  0
114115  1  0
115116  1  0
116  2  1  0
M  END
>  <Title>  (445) 
idAAPEgen8

$$$$

     RDKit          2D

113113  0  0  0  0  0  0  0  0999 V2000
   28.2415    0.0000    0.0000 C   0  0  0  0  0  0  0  0  0  0  0  0
   26.7415    0.0000    0.0000 C   0  0  0  0  0  0  0  0  0  0  0  0
   26.6995   -1.4994    0.0000 C   0  0  0  0  0  0  0  0  0  0  0  0
   26.5734   -2.9941    0.0000 C   0  0  0  0  0  0  0  0  0  0  0  0
   26.3637   -4.4794    0.0000 C   0  0  0  0  0  0  0  0  0  0  0  0
   26.0711   -5.9506    0.0000 C   0  0  0  0  0  0  0  0  0  0  0  0
   25.6964   -7.4030    0.0000 C   0  0  0  0  0  0  0  0  0  0  0  0
   25.2409   -8.8322    0.0000 C   0  0  0  0  0  0  0  0  0  0  0  0
   24.7060  -10.2335    0.0000 C   0  0  0  0  0  0  0  0  0  0  0  0
   24.0933  -11.6027    0.0000 C   0  0  0  0  0  0  0  0  0  0  0  0
   23.4048  -12.9354    0.0000 C   0  0  0  0  0  0  0  0  0  0  0  0
   22.6427  -14.2274    0.0000 C   0  0  0  0  0  0  0  0  0  0  0  0
   21.8094  -15.4746    0.0000 C   0  0  0  0  0  0  0  0  0  0  0  0
   20.9074  -16.6731    0.0000 C   0  0  0  0  0  0  0  0  0  0  0  0
   19.9396  -17.8191    0.0000 C   0  0  0  0  0  0  0  0  0  0  0  0
   18.9091  -18.9091    0.0000 C   0  0  0  0  0  0  0  0  0  0  0  0
   17.8191  -19.9396    0.0000 C   0  0  0  0  0  0  0  0  0  0  0  0
   16.6731  -20.9074    0.0000 C   0  0  0  0  0  0  0  0  0  0  0  0
   15.4746  -21.8094    0.0000 C   0  0  0  0  0  0  0  0  0  0  0  0
   14.2274  -22.6427    0.0000 C   0  0  0  0  0  0  0  0  0  0  0  0
   12.9354  -23.4048    0.0000 C   0  0  0  0  0  0  0  0  0  0  0  0
   11.6027  -24.0933    0.0000 C   0  0  0  0  0  0  0  0  0  0  0  0
   10.2335  -24.7060    0.0000 C   0  0  0  0  0  0  0  0  0  0  0  0
    8.8322  -25.2409    0.0000 C   0  0  0  0  0  0  0  0  0  0  0  0
    7.4030  -25.6964    0.0000 C   0  0  0  0  0  0  0  0  0  0  0  0
    5.9506  -26.0711    0.0000 C   0  0  0  0  0  0  0  0  0  0  0  0
    4.4794  -26.3637    0.0000 C   0  0  0  0  0  0  0  0  0  0  0  0
    2.9941  -26.5734    0.0000 C   0  0  0  0  0  0  0  0  0  0  0  0
    1.4994  -26.6995    0.0000 C   0  0  0  0  0  0  0  0  0  0  0  0
   -0.0000  -26.7415    0.0000 C   0  0  0  0  0  0  0  0  0  0  0  0
   -1.4994  -26.6995    0.0000 C   0  0  0  0  0  0  0  0  0  0  0  0
   -2.9941  -26.5734    0.0000 C   0  0  0  0  0  0  0  0  0  0  0  0
   -4.4794  -26.3637    0.0000 C   0  0  0  0  0  0  0  0  0  0  0  0
   -5.9506  -26.0711    0.0000 C   0  0  0  0  0  0  0  0  0  0  0  0
   -7.4030  -25.6964    0.0000 C   0  0  0  0  0  0  0  0  0  0  0  0
   -8.8322  -25.2409    0.0000 C   0  0  0  0  0  0  0  0  0  0  0  0
  -10.2335  -24.7060    0.0000 C   0  0  0  0  0  0  0  0  0  0  0  0
  -11.6027  -24.0933    0.0000 C   0  0  0  0  0  0  0  0  0  0  0  0
  -12.9354  -23.4048    0.0000 C   0  0  0  0  0  0  0  0  0  0  0  0
  -14.2274  -22.6427    0.0000 C   0  0  0  0  0  0  0  0  0  0  0  0
  -15.4746  -21.8094    0.0000 C   0  0  0  0  0  0  0  0  0  0  0  0
  -16.6731  -20.9074    0.0000 C   0  0  0  0  0  0  0  0  0  0  0  0
  -17.8191  -19.9396    0.0000 C   0  0  0  0  0  0  0  0  0  0  0  0
  -18.9091  -18.9091    0.0000 C   0  0  0  0  0  0  0  0  0  0  0  0
  -19.9396  -17.8191    0.0000 C   0  0  0  0  0  0  0  0  0  0  0  0
  -20.9074  -16.6731    0.0000 C   0  0  0  0  0  0  0  0  0  0  0  0
  -21.8094  -15.4746    0.0000 C   0  0  0  0  0  0  0  0  0  0  0  0
  -22.6427  -14.2274    0.0000 C   0  0  0  0  0  0  0  0  0  0  0  0
  -23.4048  -12.9354    0.0000 C   0  0  0  0  0  0  0  0  0  0  0  0
  -24.0933  -11.6027    0.0000 C   0  0  0  0  0  0  0  0  0  0  0  0
  -24.7060  -10.2335    0.0000 C   0  0  0  0  0  0  0  0  0  0  0  0
  -25.2409   -8.8322    0.0000 C   0  0  0  0  0  0  0  0  0  0  0  0
  -25.6964   -7.4030    0.0000 C   0  0  0  0  0  0  0  0  0  0  0  0
  -26.0711   -5.9506    0.0000 C   0  0  0  0  0  0  0  0  0  0  0  0
  -26.3637   -4.4794    0.0000 C   0  0  0  0  0  0  0  0  0  0  0  0
  -26.5734   -2.9941    0.0000 C   0  0  0  0  0  0  0  0  0  0  0  0
  -26.6995   -1.4994    0.0000 C   0  0  0  0  0  0  0  0  0  0  0  0
  -26.7415    0.0000    0.0000 C   0  0  0  0  0  0  0  0  0  0  0  0
  -26.6995    1.4994    0.0000 C   0  0  0  0  0  0  0  0  0  0  0  0
  -26.5734    2.9941    0.0000 C   0  0  0  0  0  0  0  0  0  0  0  0
  -26.3637    4.4794    0.0000 C   0  0  0  0  0  0  0  0  0  0  0  0
  -26.0711    5.9506    0.0000 C   0  0  0  0  0  0  0  0  0  0  0  0
  -25.6964    7.4030    0.0000 C   0  0  0  0  0  0  0  0  0  0  0  0
  -25.2409    8.8322    0.0000 C   0  0  0  0  0  0  0  0  0  0  0  0
  -24.7060   10.2335    0.0000 C   0  0  0  0  0  0  0  0  0  0  0  0
  -24.0933   11.6027    0.0000 C   0  0  0  0  0  0  0  0  0  0  0  0
  -23.4048   12.9354    0.0000 C   0  0  0  0  0  0  0  0  0  0  0  0
  -22.6427   14.2274    0.0000 C   0  0  0  0  0  0  0  0  0  0  0  0
  -21.8094   15.4746    0.0000 C   0  0  0  0  0  0  0  0  0  0  0  0
  -20.9074   16.6731    0.0000 C   0  0  0  0  0  0  0  0  0  0  0  0
  -19.9396   17.8191    0.0000 C   0  0  0  0  0  0  0  0  0  0  0  0
  -18.9091   18.9091    0.0000 C   0  0  0  0  0  0  0  0  0  0  0  0
  -17.8191   19.9396    0.0000 C   0  0  0  0  0  0  0  0  0  0  0  0
  -16.6731   20.9074    0.0000 C   0  0  0  0  0  0  0  0  0  0  0  0
  -15.4746   21.8094    0.0000 C   0  0  0  0  0  0  0  0  0  0  0  0
  -14.2274   22.6427    0.0000 C   0  0  0  0  0  0  0  0  0  0  0  0
  -12.9354   23.4048    0.0000 C   0  0  0  0  0  0  0  0  0  0  0  0
  -11.6027   24.0933    0.0000 C   0  0  0  0  0  0  0  0  0  0  0  0
  -10.2335   24.7060    0.0000 C   0  0  0  0  0  0  0  0  0  0  0  0
   -8.8322   25.2409    0.0000 C   0  0  0  0  0  0  0  0  0  0  0  0
   -7.4030   25.6964    0.0000 C   0  0  0  0  0  0  0  0  0  0  0  0
   -5.9506   26.0711    0.0000 C   0  0  0  0  0  0  0  0  0  0  0  0
   -4.4794   26.3637    0.0000 C   0  0  0  0  0  0  0  0  0  0  0  0
   -2.9941   26.5734    0.0000 C   0  0  0  0  0  0  0  0  0  0  0  0
   -1.4994   26.6995    0.0000 C   0  0  0  0  0  0  0  0  0  0  0  0
    0.0000   26.7415    0.0000 C   0  0  0  0  0  0  0  0  0  0  0  0
    1.4994   26.6995    0.0000 C   0  0  0  0  0  0  0  0  0  0  0  0
    2.9941   26.5734    0.0000 C   0  0  0  0  0  0  0  0  0  0  0  0
    4.4794   26.3637    0.0000 C   0  0  0  0  0  0  0  0  0  0  0  0
    5.9506   26.0711    0.0000 C   0  0  0  0  0  0  0  0  0  0  0  0
    7.4030   25.6964    0.0000 C   0  0  0  0  0  0  0  0  0  0  0  0
    8.8322   25.2409    0.0000 C   0  0  0  0  0  0  0  0  0  0  0  0
   10.2335   24.7060    0.0000 C   0  0  0  0  0  0  0  0  0  0  0  0
   11.6027   24.0933    0.0000 C   0  0  0  0  0  0  0  0  0  0  0  0
   12.9354   23.4048    0.0000 C   0  0  0  0  0  0  0  0  0  0  0  0
   14.2274   22.6427    0.0000 C   0  0  0  0  0  0  0  0  0  0  0  0
   15.4746   21.8094    0.0000 C   0  0  0  0  0  0  0  0  0  0  0  0
   16.6731   20.9074    0.0000 C   0  0  0  0  0  0  0  0  0  0  0  0
   17.8191   19.9396    0.0000 C   0  0  0  0  0  0  0  0  0  0  0  0
   18.9091   18.9091    0.0000 C   0  0  0  0  0  0  0  0  0  0  0  0
   19.9396   17.8191    0.0000 C   0  0  0  0  0  0  0  0  0  0  0  0
   20.9074   16.6731    0.0000 C   0  0  0  0  0  0  0  0  0  0  0  0
   21.8094   15.4746    0.0000 C   0  0  0  0  0  0  0  0  0  0  0  0
   22.6427   14.2274    0.0000 C   0  0  0  0  0  0  0  0  0  0  0  0
   23.4048   12.9354    0.0000 C   0  0  0  0  0  0  0  0  0  0  0  0
   24.0933   11.6027    0.0000 C   0  0  0  0  0  0  0  0  0  0  0  0
   24.7060   10.2335    0.0000 C   0  0  0  0  0  0  0  0  0  0  0  0
   25.2409    8.8322    0.0000 C   0  0  0  0  0  0  0  0  0  0  0  0
   25.6964    7.4030    0.0000 C   0  0  0  0  0  0  0  0  0  0  0  0
   26.0711    5.9506    0.0000 C   0  0  0  0  0  0  0  0  0  0  0  0
   26.3637    4.4794    0.0000 C   0  0  0  0  0  0  0  0  0  0  0  0
   26.5734    2.9941    0.0000 C   0  0  0  0  0  0  0  0  0  0  0  0
   26.6995    1.4994    0.0000 C   0  0  0  0  0  0  0  0  0  0  0  0
  1  2  1  0
  2  3  2  0
  3  4  1  0
  4  5  1  0
  5  6  1  0
  6  7  1  0
  7  8  1  0
  8  9  1  0
  9 10  1  0
 10 11  1  0
 11 12  1  0
 12 13  1  0
 13 14  1  0
 14 15  1  0
 15 16  1  0
 16 17  1  0
 17 18  1  0
 18 19  1  0
 19 20  1  0
 20 21  1  0
 21 22  1  0
 22 23  1  0
 23 24  1  0
 24 25  1  0
 25 26  1  0
 26 27  1  0
 27 28  1  0
 28 29  1  0
 29 30  1  0
 30 31  1  0
 31 32  1  0
 32 33  1  0
 33 34  1  0
 34 35  1  0
 35 36  1  0
 36 37  1  0
 37 38  1  0
 38 39  1  0
 39 40  1  0
 40 41  1  0
 41 42  1  0
 42 43  1  0
 43 44  1  0
 44 45  1  0
 45 46  1  0
 46 47  1  0
 47 48  1  0
 48 49  1  0
 49 50  1  0
 50 51  1  0
 51 52  1  0
 52 53  1  0
 53 54  1  0
 54 55  1  0
 55 56  1  0
 56 57  1  0
 57 58  1  0
 58 59  1  0
 59 60  1  0
 60 61  1  0
 61 62  1  0
 62 63  1  0
 63 64  1  0
 64 65  1  0
 65 66  1  0
 66 67  1  0
 67 68  1  0
 68 69  1  0
 69 70  1  0
 70 71  1  0
 71 72  1  0
 72 73  1  0
 73 74  1  0
 74 75  1  0
 75 76  1  0
 76 77  1  0
 77 78  1  0
 78 79  1  0
 79 80  1  0
 80 81  1  0
 81 82  1  0
 82 83  1  0
 83 84  1  0
 84 85  1  0
 85 86  1  0
 86 87  1  0
 87 88  1  0
 88 89  1  0
 89 90  1  0
 90 91  1  0
 91 92  1  0
 92 93  1  0
 93 94  1  0
 94 95  2  0
 95 96  1  0
 96 97  2  0
 97 98  1  0
 98 99  2  0
 99100  1  0
100101  2  0
101102  1  0
102103  2  0
103104  1  0
104105  2  0
105106  1  0
106107  2  0
107108  1  0
108109  2  0
109110  1  0
110111  2  0
111112  1  0
112113  2  0
113  2  1  0
M  END
>  <Title>  (446) 
idAAPFgen8

$$$$

     RDKit          2D

 16 17  0  0  0  0  0  0  0  0999 V2000
    3.0000    0.0000    0.0000 C   0  0  0  0  0  0  0  0  0  0  0  0
    1.5000    0.0000    0.0000 C   0  0  0  0  0  0  0  0  0  0  0  0
    0.7500   -1.2990    0.0000 C   0  0  0  0  0  0  0  0  0  0  0  0
   -0.7500   -1.2990    0.0000 C   0  0  0  0  0  0  0  0  0  0  0  0
   -1.5000    0.0000    0.0000 C   0  0  0  0  0  0  0  0  0  0  0  0
   -3.0000    0.0000    0.0000 C   0  0  0  0  0  0  0  0  0  0  0  0
   -0.7500    1.2990    0.0000 C   0  0  0  0  0  0  0  0  0  0  0  0
   -1.5000    2.5981    0.0000 C   0  0  0  0  0  0  0  0  0  0  0  0
   -0.7500    3.8971    0.0000 C   0  0  0  0  0  0  0  0  0  0  0  0
   -3.0000    2.5981    0.0000 N   0  0  0  0  0  0  0  0  0  0  0  0
   -3.7500    3.8971    0.0000 C   0  0  0  0  0  0  0  0  0  0  0  0
   -5.2500    3.8971    0.0000 C   0  0  0  0  0  0  0  0  0  0  0  0
   -6.0000    2.5981    0.0000 C   0  0  0  0  0  0  0  0  0  0  0  0
   -5.2500    1.2990    0.0000 C   0  0  0  0  0  0  0  0  0  0  0  0
   -3.7500    1.2990    0.0000 C   0  0  0  0  0  0  0  0  0  0  0  0
    0.7500    1.2990    0.0000 C   0  0  0  0  0  0  0  0  0  0  0  0
  1  2  1  0
  2  3  2  0
  3  4  1  0
  4  5  1  0
  5  6  1  0
  5  7  1  0
  7  8  1  0
  8  9  1  0
  8 10  1  0
 10 11  1  0
 11 12  1  0
 12 13  1  0
 13 14  1  0
 14 15  1  0
  7 16  2  0
 16  2  1  0
 15 10  1  0
M  END
>  <Title>  (447) 
idAAPGgen8

$$$$

     RDKit          2D

 95 95  0  0  0  0  0  0  0  0999 V2000
   22.6837    0.0000    0.0000 C   0  0  0  0  0  0  0  0  0  0  0  0
   22.6341    1.4992    0.0000 C   0  0  0  0  0  0  0  0  0  0  0  0
   22.4856    2.9918    0.0000 C   0  0  0  0  0  0  0  0  0  0  0  0
   22.2387    4.4713    0.0000 C   0  0  0  0  0  0  0  0  0  0  0  0
   21.8945    5.9313    0.0000 C   0  0  0  0  0  0  0  0  0  0  0  0
   21.4546    7.3654    0.0000 C   0  0  0  0  0  0  0  0  0  0  0  0
   20.9210    8.7672    0.0000 C   0  0  0  0  0  0  0  0  0  0  0  0
   20.2958   10.1307    0.0000 C   0  0  0  0  0  0  0  0  0  0  0  0
   19.5819   11.4500    0.0000 C   0  0  0  0  0  0  0  0  0  0  0  0
   18.7823   12.7191    0.0000 C   0  0  0  0  0  0  0  0  0  0  0  0
   17.9006   13.9326    0.0000 C   0  0  0  0  0  0  0  0  0  0  0  0
   16.9407   15.0852    0.0000 C   0  0  0  0  0  0  0  0  0  0  0  0
   15.9067   16.1719    0.0000 C   0  0  0  0  0  0  0  0  0  0  0  0
   14.8031   17.1878    0.0000 C   0  0  0  0  0  0  0  0  0  0  0  0
   13.6348   18.1286    0.0000 C   0  0  0  0  0  0  0  0  0  0  0  0
   12.4068   18.9900    0.0000 C   0  0  0  0  0  0  0  0  0  0  0  0
   11.1246   19.7685    0.0000 C   0  0  0  0  0  0  0  0  0  0  0  0
    9.7938   20.4605    0.0000 C   0  0  0  0  0  0  0  0  0  0  0  0
    8.4201   21.0631    0.0000 C   0  0  0  0  0  0  0  0  0  0  0  0
    7.0097   21.5735    0.0000 C   0  0  0  0  0  0  0  0  0  0  0  0
    5.5685   21.9896    0.0000 C   0  0  0  0  0  0  0  0  0  0  0  0
    4.1030   22.3095    0.0000 C   0  0  0  0  0  0  0  0  0  0  0  0
    2.6196   22.5319    0.0000 C   0  0  0  0  0  0  0  0  0  0  0  0
    1.1247   22.6558    0.0000 C   0  0  0  0  0  0  0  0  0  0  0  0
   -0.3751   22.6806    0.0000 C   0  0  0  0  0  0  0  0  0  0  0  0
   -1.8732   22.6062    0.0000 N   0  0  0  0  0  0  0  0  0  0  0  0
   -3.3632   22.4330    0.0000 C   0  0  0  0  0  0  0  0  0  0  0  0
   -4.8384   22.1617    0.0000 C   0  0  0  0  0  0  0  0  0  0  0  0
   -6.2925   21.7935    0.0000 C   0  0  0  0  0  0  0  0  0  0  0  0
   -7.7191   21.3299    0.0000 C   0  0  0  0  0  0  0  0  0  0  0  0
   -9.1119   20.7731    0.0000 C   0  0  0  0  0  0  0  0  0  0  0  0
  -10.4649   20.1255    0.0000 C   0  0  0  0  0  0  0  0  0  0  0  0
  -11.7722   19.3899    0.0000 C   0  0  0  0  0  0  0  0  0  0  0  0
  -13.0279   18.5695    0.0000 C   0  0  0  0  0  0  0  0  0  0  0  0
  -14.2267   17.6678    0.0000 C   0  0  0  0  0  0  0  0  0  0  0  0
  -15.3633   16.6890    0.0000 C   0  0  0  0  0  0  0  0  0  0  0  0
  -16.4327   15.6371    0.0000 C   0  0  0  0  0  0  0  0  0  0  0  0
  -17.4302   14.5169    0.0000 C   0  0  0  0  0  0  0  0  0  0  0  0
  -18.3515   13.3332    0.0000 C   0  0  0  0  0  0  0  0  0  0  0  0
  -19.1926   12.0911    0.0000 C   0  0  0  0  0  0  0  0  0  0  0  0
  -19.9497   10.7963    0.0000 C   0  0  0  0  0  0  0  0  0  0  0  0
  -20.6196    9.4542    0.0000 C   0  0  0  0  0  0  0  0  0  0  0  0
  -21.1994    8.0707    0.0000 C   0  0  0  0  0  0  0  0  0  0  0  0
  -21.6864    6.6520    0.0000 C   0  0  0  0  0  0  0  0  0  0  0  0
  -22.0787    5.2042    0.0000 C   0  0  0  0  0  0  0  0  0  0  0  0
  -22.3743    3.7336    0.0000 C   0  0  0  0  0  0  0  0  0  0  0  0
  -22.5722    2.2467    0.0000 C   0  0  0  0  0  0  0  0  0  0  0  0
  -22.6713    0.7500    0.0000 C   0  0  0  0  0  0  0  0  0  0  0  0
  -22.6713   -0.7500    0.0000 C   0  0  0  0  0  0  0  0  0  0  0  0
  -22.5722   -2.2467    0.0000 C   0  0  0  0  0  0  0  0  0  0  0  0
  -22.3743   -3.7336    0.0000 C   0  0  0  0  0  0  0  0  0  0  0  0
  -22.0787   -5.2042    0.0000 C   0  0  0  0  0  0  0  0  0  0  0  0
  -21.6864   -6.6520    0.0000 C   0  0  0  0  0  0  0  0  0  0  0  0
  -21.1994   -8.0707    0.0000 C   0  0  0  0  0  0  0  0  0  0  0  0
  -20.6196   -9.4542    0.0000 C   0  0  0  0  0  0  0  0  0  0  0  0
  -19.9497  -10.7963    0.0000 C   0  0  0  0  0  0  0  0  0  0  0  0
  -19.1926  -12.0911    0.0000 C   0  0  0  0  0  0  0  0  0  0  0  0
  -18.3515  -13.3332    0.0000 C   0  0  0  0  0  0  0  0  0  0  0  0
  -17.4302  -14.5169    0.0000 C   0  0  0  0  0  0  0  0  0  0  0  0
  -16.4327  -15.6371    0.0000 C   0  0  0  0  0  0  0  0  0  0  0  0
  -15.3633  -16.6890    0.0000 C   0  0  0  0  0  0  0  0  0  0  0  0
  -14.2267  -17.6678    0.0000 C   0  0  0  0  0  0  0  0  0  0  0  0
  -13.0279  -18.5695    0.0000 C   0  0  0  0  0  0  0  0  0  0  0  0
  -11.7722  -19.3899    0.0000 C   0  0  0  0  0  0  0  0  0  0  0  0
  -10.4649  -20.1255    0.0000 C   0  0  0  0  0  0  0  0  0  0  0  0
   -9.1119  -20.7731    0.0000 C   0  0  0  0  0  0  0  0  0  0  0  0
   -7.7191  -21.3299    0.0000 C   0  0  0  0  0  0  0  0  0  0  0  0
   -6.2925  -21.7935    0.0000 C   0  0  0  0  0  0  0  0  0  0  0  0
   -4.8384  -22.1617    0.0000 C   0  0  0  0  0  0  0  0  0  0  0  0
   -3.3632  -22.4330    0.0000 C   0  0  0  0  0  0  0  0  0  0  0  0
   -1.8732  -22.6062    0.0000 C   0  0  0  0  0  0  0  0  0  0  0  0
   -0.3751  -22.6806    0.0000 C   0  0  0  0  0  0  0  0  0  0  0  0
    1.1247  -22.6558    0.0000 C   0  0  0  0  0  0  0  0  0  0  0  0
    2.6196  -22.5319    0.0000 C   0  0  0  0  0  0  0  0  0  0  0  0
    4.1030  -22.3095    0.0000 C   0  0  0  0  0  0  0  0  0  0  0  0
    5.5685  -21.9896    0.0000 C   0  0  0  0  0  0  0  0  0  0  0  0
    7.0097  -21.5735    0.0000 C   0  0  0  0  0  0  0  0  0  0  0  0
    8.4201  -21.0631    0.0000 C   0  0  0  0  0  0  0  0  0  0  0  0
    9.7938  -20.4605    0.0000 C   0  0  0  0  0  0  0  0  0  0  0  0
   11.1246  -19.7685    0.0000 C   0  0  0  0  0  0  0  0  0  0  0  0
   12.4068  -18.9900    0.0000 C   0  0  0  0  0  0  0  0  0  0  0  0
   13.6348  -18.1286    0.0000 C   0  0  0  0  0  0  0  0  0  0  0  0
   14.8031  -17.1878    0.0000 C   0  0  0  0  0  0  0  0  0  0  0  0
   15.9067  -16.1719    0.0000 C   0  0  0  0  0  0  0  0  0  0  0  0
   16.9407  -15.0852    0.0000 C   0  0  0  0  0  0  0  0  0  0  0  0
   17.9006  -13.9326    0.0000 C   0  0  0  0  0  0  0  0  0  0  0  0
   18.7823  -12.7191    0.0000 C   0  0  0  0  0  0  0  0  0  0  0  0
   19.5819  -11.4500    0.0000 C   0  0  0  0  0  0  0  0  0  0  0  0
   20.2958  -10.1307    0.0000 C   0  0  0  0  0  0  0  0  0  0  0  0
   20.9210   -8.7672    0.0000 C   0  0  0  0  0  0  0  0  0  0  0  0
   21.4546   -7.3654    0.0000 C   0  0  0  0  0  0  0  0  0  0  0  0
   21.8945   -5.9313    0.0000 C   0  0  0  0  0  0  0  0  0  0  0  0
   22.2387   -4.4713    0.0000 C   0  0  0  0  0  0  0  0  0  0  0  0
   22.4856   -2.9918    0.0000 C   0  0  0  0  0  0  0  0  0  0  0  0
   22.6341   -1.4992    0.0000 C   0  0  0  0  0  0  0  0  0  0  0  0
  1  2  2  0
  2  3  1  0
  3  4  2  0
  4  5  1  0
  5  6  1  0
  6  7  1  0
  7  8  1  0
  8  9  1  0
  9 10  1  0
 10 11  1  0
 11 12  1  0
 12 13  1  0
 13 14  1  0
 14 15  1  0
 15 16  1  0
 16 17  1  0
 17 18  1  0
 18 19  1  0
 19 20  1  0
 20 21  1  0
 21 22  1  0
 22 23  1  0
 23 24  1  0
 24 25  1  0
 25 26  1  0
 26 27  1  0
 27 28  1  0
 28 29  1  0
 29 30  1  0
 30 31  1  0
 31 32  1  0
 32 33  1  0
 33 34  1  0
 34 35  1  0
 35 36  1  0
 36 37  1  0
 37 38  1  0
 38 39  1  0
 39 40  1  0
 40 41  1  0
 41 42  1  0
 42 43  1  0
 43 44  1  0
 44 45  1  0
 45 46  1  0
 46 47  1  0
 47 48  1  0
 48 49  1  0
 49 50  1  0
 50 51  1  0
 51 52  1  0
 52 53  1  0
 53 54  1  0
 54 55  1  0
 55 56  1  0
 56 57  1  0
 57 58  1  0
 58 59  1  0
 59 60  1  0
 60 61  1  0
 61 62  1  0
 62 63  1  0
 63 64  1  0
 64 65  1  0
 65 66  1  0
 66 67  1  0
 67 68  1  0
 68 69  1  0
 69 70  1  0
 70 71  1  0
 71 72  1  0
 72 73  1  0
 73 74  1  0
 74 75  1  0
 75 76  1  0
 76 77  1  0
 77 78  1  0
 78 79  1  0
 79 80  1  0
 80 81  1  0
 81 82  1  0
 82 83  1  0
 83 84  1  0
 84 85  1  0
 85 86  1  0
 86 87  1  0
 87 88  1  0
 88 89  1  0
 89 90  1  0
 90 91  1  0
 91 92  1  0
 92 93  1  0
 93 94  1  0
 94 95  2  0
 95  1  1  0
M  END
>  <Title>  (448) 
idAAPHgen8

$$$$

     RDKit          2D

 58 66  0  0  0  0  0  0  0  0999 V2000
    5.8191   -5.5525    0.0000 C   0  0  0  0  0  0  0  0  0  0  0  0
    4.3191   -5.5525    0.0000 C   0  0  0  0  0  0  0  0  0  0  0  0
    4.0586   -4.0753    0.0000 C   0  0  0  0  0  0  0  0  0  0  0  0
    3.3086   -2.7762    0.0000 C   0  0  0  0  0  0  0  0  0  0  0  0
    2.1595   -1.8121    0.0000 C   0  0  0  0  0  0  0  0  0  0  0  0
    2.9095   -0.5130    0.0000 C   0  0  0  0  0  0  0  0  0  0  0  0
    2.1595    0.7860    0.0000 O   0  0  0  0  0  0  0  0  0  0  0  0
    4.4095   -0.5130    0.0000 N   0  0  0  0  0  0  0  0  0  0  0  0
    5.1595    0.7860    0.0000 C   0  0  0  0  0  0  0  0  0  0  0  0
    6.6595    0.7860    0.0000 N   0  0  0  0  0  0  0  0  0  0  0  0
    7.4095    2.0850    0.0000 N   0  0  0  0  0  0  0  0  0  0  0  0
    6.6595    3.3841    0.0000 N   0  0  0  0  0  0  0  0  0  0  0  0
    5.1595    3.3841    0.0000 N   0  0  0  0  0  0  0  0  0  0  0  0
    4.4095    2.0850    0.0000 N   0  0  0  0  0  0  0  0  0  0  0  0
    0.7500   -1.2990    0.0000 C   0  0  0  0  0  0  0  0  0  0  0  0
    1.5000    0.0000    0.0000 C   0  0  0  0  0  0  0  0  0  0  0  0
    0.7500    1.2990    0.0000 C   0  0  0  0  0  0  0  0  0  0  0  0
   -0.7500    1.2990    0.0000 C   0  0  0  0  0  0  0  0  0  0  0  0
   -1.5000    0.0000    0.0000 C   0  0  0  0  0  0  0  0  0  0  0  0
   -0.7500   -1.2990    0.0000 C   0  0  0  0  0  0  0  0  0  0  0  0
   -2.1595   -1.8121    0.0000 C   0  0  0  0  0  0  0  0  0  0  0  0
   -2.4200   -0.3349    0.0000 C   0  0  0  0  0  0  0  0  0  0  0  0
   -3.8296    0.1782    0.0000 C   0  0  0  0  0  0  0  0  0  0  0  0
   -4.9786   -0.7860    0.0000 C   0  0  0  0  0  0  0  0  0  0  0  0
   -4.7181   -2.2632    0.0000 C   0  0  0  0  0  0  0  0  0  0  0  0
   -3.3086   -2.7762    0.0000 C   0  0  0  0  0  0  0  0  0  0  0  0
   -4.0586   -4.0753    0.0000 C   0  0  0  0  0  0  0  0  0  0  0  0
   -5.2077   -3.1111    0.0000 C   0  0  0  0  0  0  0  0  0  0  0  0
   -6.6172   -3.6241    0.0000 C   0  0  0  0  0  0  0  0  0  0  0  0
   -6.8777   -5.1013    0.0000 C   0  0  0  0  0  0  0  0  0  0  0  0
   -5.7286   -6.0655    0.0000 C   0  0  0  0  0  0  0  0  0  0  0  0
   -4.3191   -5.5525    0.0000 C   0  0  0  0  0  0  0  0  0  0  0  0
   -4.0586   -7.0297    0.0000 C   0  0  0  0  0  0  0  0  0  0  0  0
   -5.5586   -7.0297    0.0000 C   0  0  0  0  0  0  0  0  0  0  0  0
   -6.3086   -8.3287    0.0000 C   0  0  0  0  0  0  0  0  0  0  0  0
   -5.5586   -9.6278    0.0000 C   0  0  0  0  0  0  0  0  0  0  0  0
   -6.3086  -10.9268    0.0000 C   0  0  0  0  0  0  0  0  0  0  0  0
   -7.0586  -12.2259    0.0000 N   0  0  0  0  0  0  0  0  0  0  0  0
   -4.0586   -9.6278    0.0000 C   0  0  0  0  0  0  0  0  0  0  0  0
   -3.3086   -8.3287    0.0000 C   0  0  0  0  0  0  0  0  0  0  0  0
   -2.1595   -9.2929    0.0000 C   0  0  0  0  0  0  0  0  0  0  0  0
   -3.3086  -10.2571    0.0000 C   0  0  0  0  0  0  0  0  0  0  0  0
   -3.0481  -11.7343    0.0000 C   0  0  0  0  0  0  0  0  0  0  0  0
   -1.6386  -12.2474    0.0000 C   0  0  0  0  0  0  0  0  0  0  0  0
   -0.4895  -11.2832    0.0000 C   0  0  0  0  0  0  0  0  0  0  0  0
   -0.7500   -9.8060    0.0000 C   0  0  0  0  0  0  0  0  0  0  0  0
    0.7500   -9.8060    0.0000 C   0  0  0  0  0  0  0  0  0  0  0  0
    0.4895  -11.2832    0.0000 C   0  0  0  0  0  0  0  0  0  0  0  0
    1.6386  -12.2474    0.0000 C   0  0  0  0  0  0  0  0  0  0  0  0
    3.0481  -11.7343    0.0000 C   0  0  0  0  0  0  0  0  0  0  0  0
    3.3086  -10.2571    0.0000 C   0  0  0  0  0  0  0  0  0  0  0  0
    2.1595   -9.2929    0.0000 C   0  0  0  0  0  0  0  0  0  0  0  0
    3.3086   -8.3287    0.0000 C   0  0  0  0  0  0  0  0  0  0  0  0
    4.0586   -9.6278    0.0000 C   0  0  0  0  0  0  0  0  0  0  0  0
    5.5586   -9.6278    0.0000 C   0  0  0  0  0  0  0  0  0  0  0  0
    6.3086   -8.3287    0.0000 C   0  0  0  0  0  0  0  0  0  0  0  0
    5.5586   -7.0297    0.0000 C   0  0  0  0  0  0  0  0  0  0  0  0
    4.0586   -7.0297    0.0000 C   0  0  0  0  0  0  0  0  0  0  0  0
  1  2  1  0
  2  3  1  0
  3  4  1  0
  4  5  1  0
  5  6  1  0
  6  7  2  0
  6  8  1  0
  8  9  1  0
  9 10  2  0
 10 11  1  0
 11 12  2  0
 12 13  1  0
 13 14  2  0
  5 15  1  0
 15 16  2  0
 16 17  1  0
 17 18  2  0
 18 19  1  0
 19 20  2  0
 20 21  1  0
 21 22  2  0
 22 23  1  0
 23 24  2  0
 24 25  1  0
 25 26  2  0
 26 27  1  0
 27 28  2  0
 28 29  1  0
 29 30  2  0
 30 31  1  0
 31 32  2  0
 32 33  1  0
 33 34  2  0
 34 35  1  0
 35 36  2  0
 36 37  1  0
 37 38  3  0
 36 39  1  0
 39 40  2  0
 40 41  1  0
 41 42  2  0
 42 43  1  0
 43 44  2  0
 44 45  1  0
 45 46  2  0
 46 47  1  0
 47 48  2  0
 48 49  1  0
 49 50  2  0
 50 51  1  0
 51 52  2  0
 52 53  1  0
 53 54  2  0
 54 55  1  0
 55 56  2  0
 56 57  1  0
 57 58  2  0
 58  2  1  0
 14  9  1  0
 20 15  1  0
 26 21  1  0
 32 27  1  0
 40 33  1  0
 46 41  1  0
 52 47  1  0
 58 53  1  0
M  END
>  <Title>  (449) 
idAAPIgen8

$$$$

     RDKit          2D

102102  0  0  0  0  0  0  0  0999 V2000
   25.6159   -0.0000    0.0000 C   0  0  0  0  0  0  0  0  0  0  0  0
   24.1159    0.0000    0.0000 C   0  0  0  0  0  0  0  0  0  0  0  0
   24.0692    1.4993    0.0000 C   0  0  0  0  0  0  0  0  0  0  0  0
   23.9294    2.9927    0.0000 C   0  0  0  0  0  0  0  0  0  0  0  0
   23.6971    4.4746    0.0000 C   0  0  0  0  0  0  0  0  0  0  0  0
   23.3731    5.9392    0.0000 C   0  0  0  0  0  0  0  0  0  0  0  0
   22.9586    7.3808    0.0000 C   0  0  0  0  0  0  0  0  0  0  0  0
   22.4553    8.7939    0.0000 C   0  0  0  0  0  0  0  0  0  0  0  0
   21.8652   10.1729    0.0000 C   0  0  0  0  0  0  0  0  0  0  0  0
   21.1904   11.5126    0.0000 C   0  0  0  0  0  0  0  0  0  0  0  0
   20.4337   12.8077    0.0000 C   0  0  0  0  0  0  0  0  0  0  0  0
   19.5979   14.0533    0.0000 C   0  0  0  0  0  0  0  0  0  0  0  0
   18.6863   15.2445    0.0000 C   0  0  0  0  0  0  0  0  0  0  0  0
   17.7025   16.3767    0.0000 C   0  0  0  0  0  0  0  0  0  0  0  0
   16.6501   17.4456    0.0000 C   0  0  0  0  0  0  0  0  0  0  0  0
   15.5333   18.4470    0.0000 C   0  0  0  0  0  0  0  0  0  0  0  0
   14.3564   19.3770    0.0000 C   0  0  0  0  0  0  0  0  0  0  0  0
   13.1240   20.2321    0.0000 C   0  0  0  0  0  0  0  0  0  0  0  0
   11.8407   21.0088    0.0000 C   0  0  0  0  0  0  0  0  0  0  0  0
   10.5117   21.7043    0.0000 C   0  0  0  0  0  0  0  0  0  0  0  0
    9.1420   22.3159    0.0000 C   0  0  0  0  0  0  0  0  0  0  0  0
    7.7370   22.8411    0.0000 C   0  0  0  0  0  0  0  0  0  0  0  0
    6.3020   23.2779    0.0000 C   0  0  0  0  0  0  0  0  0  0  0  0
    4.8426   23.6246    0.0000 C   0  0  0  0  0  0  0  0  0  0  0  0
    3.3645   23.8800    0.0000 C   0  0  0  0  0  0  0  0  0  0  0  0
    1.8734   24.0430    0.0000 C   0  0  0  0  0  0  0  0  0  0  0  0
    0.3750   24.1129    0.0000 C   0  0  0  0  0  0  0  0  0  0  0  0
   -1.1248   24.0896    0.0000 C   0  0  0  0  0  0  0  0  0  0  0  0
   -2.6202   23.9731    0.0000 C   0  0  0  0  0  0  0  0  0  0  0  0
   -4.1056   23.7638    0.0000 C   0  0  0  0  0  0  0  0  0  0  0  0
   -5.5750   23.4626    0.0000 C   0  0  0  0  0  0  0  0  0  0  0  0
   -7.0229   23.0706    0.0000 C   0  0  0  0  0  0  0  0  0  0  0  0
   -8.4436   22.5894    0.0000 C   0  0  0  0  0  0  0  0  0  0  0  0
   -9.8316   22.0208    0.0000 C   0  0  0  0  0  0  0  0  0  0  0  0
  -11.1816   21.3669    0.0000 C   0  0  0  0  0  0  0  0  0  0  0  0
  -12.4884   20.6304    0.0000 C   0  0  0  0  0  0  0  0  0  0  0  0
  -13.7468   19.8141    0.0000 C   0  0  0  0  0  0  0  0  0  0  0  0
  -14.9521   18.9212    0.0000 C   0  0  0  0  0  0  0  0  0  0  0  0
  -16.0995   17.9550    0.0000 C   0  0  0  0  0  0  0  0  0  0  0  0
  -17.1846   16.9194    0.0000 C   0  0  0  0  0  0  0  0  0  0  0  0
  -18.2032   15.8183    0.0000 C   0  0  0  0  0  0  0  0  0  0  0  0
  -19.1514   14.6560    0.0000 C   0  0  0  0  0  0  0  0  0  0  0  0
  -20.0255   13.4370    0.0000 C   0  0  0  0  0  0  0  0  0  0  0  0
  -20.8222   12.1660    0.0000 C   0  0  0  0  0  0  0  0  0  0  0  0
  -21.5382   10.8480    0.0000 C   0  0  0  0  0  0  0  0  0  0  0  0
  -22.1710    9.4880    0.0000 C   0  0  0  0  0  0  0  0  0  0  0  0
  -22.7180    8.0913    0.0000 C   0  0  0  0  0  0  0  0  0  0  0  0
  -23.1771    6.6633    0.0000 C   0  0  0  0  0  0  0  0  0  0  0  0
  -23.5465    5.2095    0.0000 C   0  0  0  0  0  0  0  0  0  0  0  0
  -23.8248    3.7355    0.0000 C   0  0  0  0  0  0  0  0  0  0  0  0
  -24.0109    2.2471    0.0000 C   0  0  0  0  0  0  0  0  0  0  0  0
  -24.1042    0.7500    0.0000 C   0  0  0  0  0  0  0  0  0  0  0  0
  -24.1042   -0.7500    0.0000 C   0  0  0  0  0  0  0  0  0  0  0  0
  -24.0109   -2.2471    0.0000 C   0  0  0  0  0  0  0  0  0  0  0  0
  -23.8248   -3.7355    0.0000 N   0  0  0  0  0  0  0  0  0  0  0  0
  -23.5465   -5.2095    0.0000 C   0  0  0  0  0  0  0  0  0  0  0  0
  -23.1771   -6.6633    0.0000 C   0  0  0  0  0  0  0  0  0  0  0  0
  -22.7180   -8.0913    0.0000 C   0  0  0  0  0  0  0  0  0  0  0  0
  -22.1710   -9.4880    0.0000 C   0  0  0  0  0  0  0  0  0  0  0  0
  -21.5382  -10.8480    0.0000 C   0  0  0  0  0  0  0  0  0  0  0  0
  -20.8222  -12.1660    0.0000 C   0  0  0  0  0  0  0  0  0  0  0  0
  -20.0255  -13.4370    0.0000 C   0  0  0  0  0  0  0  0  0  0  0  0
  -19.1514  -14.6560    0.0000 C   0  0  0  0  0  0  0  0  0  0  0  0
  -18.2032  -15.8183    0.0000 C   0  0  0  0  0  0  0  0  0  0  0  0
  -17.1846  -16.9194    0.0000 C   0  0  0  0  0  0  0  0  0  0  0  0
  -16.0995  -17.9550    0.0000 C   0  0  0  0  0  0  0  0  0  0  0  0
  -14.9521  -18.9212    0.0000 C   0  0  0  0  0  0  0  0  0  0  0  0
  -13.7468  -19.8141    0.0000 C   0  0  0  0  0  0  0  0  0  0  0  0
  -12.4884  -20.6304    0.0000 C   0  0  0  0  0  0  0  0  0  0  0  0
  -11.1816  -21.3669    0.0000 C   0  0  0  0  0  0  0  0  0  0  0  0
   -9.8316  -22.0208    0.0000 C   0  0  0  0  0  0  0  0  0  0  0  0
   -8.4436  -22.5894    0.0000 C   0  0  0  0  0  0  0  0  0  0  0  0
   -7.0229  -23.0706    0.0000 C   0  0  0  0  0  0  0  0  0  0  0  0
   -5.5750  -23.4626    0.0000 C   0  0  0  0  0  0  0  0  0  0  0  0
   -4.1056  -23.7638    0.0000 C   0  0  0  0  0  0  0  0  0  0  0  0
   -2.6202  -23.9731    0.0000 C   0  0  0  0  0  0  0  0  0  0  0  0
   -1.1248  -24.0896    0.0000 C   0  0  0  0  0  0  0  0  0  0  0  0
    0.3750  -24.1129    0.0000 C   0  0  0  0  0  0  0  0  0  0  0  0
    1.8734  -24.0430    0.0000 C   0  0  0  0  0  0  0  0  0  0  0  0
    3.3645  -23.8800    0.0000 C   0  0  0  0  0  0  0  0  0  0  0  0
    4.8426  -23.6246    0.0000 C   0  0  0  0  0  0  0  0  0  0  0  0
    6.3020  -23.2779    0.0000 C   0  0  0  0  0  0  0  0  0  0  0  0
    7.7370  -22.8411    0.0000 C   0  0  0  0  0  0  0  0  0  0  0  0
    9.1420  -22.3159    0.0000 C   0  0  0  0  0  0  0  0  0  0  0  0
   10.5117  -21.7043    0.0000 C   0  0  0  0  0  0  0  0  0  0  0  0
   11.8407  -21.0088    0.0000 C   0  0  0  0  0  0  0  0  0  0  0  0
   13.1240  -20.2321    0.0000 C   0  0  0  0  0  0  0  0  0  0  0  0
   14.3564  -19.3770    0.0000 C   0  0  0  0  0  0  0  0  0  0  0  0
   15.5333  -18.4470    0.0000 C   0  0  0  0  0  0  0  0  0  0  0  0
   16.6501  -17.4456    0.0000 C   0  0  0  0  0  0  0  0  0  0  0  0
   17.7025  -16.3767    0.0000 C   0  0  0  0  0  0  0  0  0  0  0  0
   18.6863  -15.2445    0.0000 C   0  0  0  0  0  0  0  0  0  0  0  0
   19.5979  -14.0533    0.0000 C   0  0  0  0  0  0  0  0  0  0  0  0
   20.4337  -12.8077    0.0000 C   0  0  0  0  0  0  0  0  0  0  0  0
   21.1904  -11.5126    0.0000 C   0  0  0  0  0  0  0  0  0  0  0  0
   21.8652  -10.1729    0.0000 C   0  0  0  0  0  0  0  0  0  0  0  0
   22.4553   -8.7939    0.0000 C   0  0  0  0  0  0  0  0  0  0  0  0
   22.9586   -7.3808    0.0000 C   0  0  0  0  0  0  0  0  0  0  0  0
   23.3731   -5.9392    0.0000 C   0  0  0  0  0  0  0  0  0  0  0  0
   23.6971   -4.4746    0.0000 C   0  0  0  0  0  0  0  0  0  0  0  0
   23.9294   -2.9927    0.0000 C   0  0  0  0  0  0  0  0  0  0  0  0
   24.0692   -1.4993    0.0000 C   0  0  0  0  0  0  0  0  0  0  0  0
  1  2  1  0
  2  3  1  0
  3  4  1  0
  4  5  2  0
  5  6  1  0
  6  7  2  0
  7  8  1  0
  8  9  1  0
  9 10  1  0
 10 11  1  0
 11 12  1  0
 12 13  1  0
 13 14  1  0
 14 15  1  0
 15 16  1  0
 16 17  1  0
 17 18  1  0
 18 19  1  0
 19 20  1  0
 20 21  1  0
 21 22  1  0
 22 23  1  0
 23 24  1  0
 24 25  1  0
 25 26  1  0
 26 27  1  0
 27 28  1  0
 28 29  1  0
 29 30  1  0
 30 31  1  0
 31 32  1  0
 32 33  1  0
 33 34  1  0
 34 35  1  0
 35 36  1  0
 36 37  1  0
 37 38  1  0
 38 39  1  0
 39 40  1  0
 40 41  1  0
 41 42  1  0
 42 43  1  0
 43 44  1  0
 44 45  1  0
 45 46  1  0
 46 47  1  0
 47 48  1  0
 48 49  1  0
 49 50  1  0
 50 51  1  0
 51 52  1  0
 52 53  1  0
 53 54  1  0
 54 55  1  0
 55 56  1  0
 56 57  1  0
 57 58  1  0
 58 59  1  0
 59 60  1  0
 60 61  1  0
 61 62  1  0
 62 63  1  0
 63 64  1  0
 64 65  1  0
 65 66  1  0
 66 67  1  0
 67 68  1  0
 68 69  1  0
 69 70  1  0
 70 71  1  0
 71 72  1  0
 72 73  1  0
 73 74  1  0
 74 75  1  0
 75 76  1  0
 76 77  1  0
 77 78  1  0
 78 79  1  0
 79 80  1  0
 80 81  1  0
 81 82  1  0
 82 83  1  0
 83 84  1  0
 84 85  1  0
 85 86  1  0
 86 87  1  0
 87 88  1  0
 88 89  1  0
 89 90  1  0
 90 91  1  0
 91 92  1  0
 92 93  1  0
 93 94  1  0
 94 95  1  0
 95 96  1  0
 96 97  1  0
 97 98  1  0
 98 99  1  0
 99100  1  0
100101  1  0
101102  1  0
102  2  1  0
M  END
>  <Title>  (450) 
idAAPJgen8

$$$$

     RDKit          2D

  7  6  0  0  0  0  0  0  0  0999 V2000
    0.0000    0.0000    0.0000 C   0  0  0  0  0  0  0  0  0  0  0  0
    1.2990    0.7500    0.0000 C   0  0  0  0  0  0  0  0  0  0  0  0
    2.5981   -0.0000    0.0000 C   0  0  0  0  0  0  0  0  0  0  0  0
    3.8971   -0.7500    0.0000 C   0  0  0  0  0  0  0  0  0  0  0  0
    5.1962   -1.5000    0.0000 C   0  0  0  0  0  0  0  0  0  0  0  0
    6.4952   -0.7500    0.0000 C   0  0  0  0  0  0  0  0  0  0  0  0
    7.7942   -1.5000    0.0000 C   0  0  0  0  0  0  0  0  0  0  0  0
  1  2  2  0
  2  3  1  0
  3  4  3  0
  4  5  1  0
  5  6  2  3
  6  7  1  0
M  END
>  <Title>  (451) 
idAAPKgen8

$$$$

     RDKit          2D

106106  0  0  0  0  0  0  0  0999 V2000
   26.5706    0.0000    0.0000 C   0  0  0  0  0  0  0  0  0  0  0  0
   25.0706    0.0000    0.0000 C   0  0  0  0  0  0  0  0  0  0  0  0
   25.0258    1.4993    0.0000 C   0  0  0  0  0  0  0  0  0  0  0  0
   24.8913    2.9933    0.0000 C   0  0  0  0  0  0  0  0  0  0  0  0
   24.6677    4.4765    0.0000 C   0  0  0  0  0  0  0  0  0  0  0  0
   24.3559    5.9438    0.0000 C   0  0  0  0  0  0  0  0  0  0  0  0
   23.9568    7.3897    0.0000 C   0  0  0  0  0  0  0  0  0  0  0  0
   23.4720    8.8092    0.0000 C   0  0  0  0  0  0  0  0  0  0  0  0
   22.9032   10.1971    0.0000 C   0  0  0  0  0  0  0  0  0  0  0  0
   22.2523   11.5486    0.0000 C   0  0  0  0  0  0  0  0  0  0  0  0
   21.5219   12.8587    0.0000 C   0  0  0  0  0  0  0  0  0  0  0  0
   20.7143   14.1228    0.0000 C   0  0  0  0  0  0  0  0  0  0  0  0
   19.8327   15.3363    0.0000 C   0  0  0  0  0  0  0  0  0  0  0  0
   18.8800   16.4949    0.0000 C   0  0  0  0  0  0  0  0  0  0  0  0
   17.8597   17.5945    0.0000 C   0  0  0  0  0  0  0  0  0  0  0  0
   16.7755   18.6311    0.0000 C   0  0  0  0  0  0  0  0  0  0  0  0
   15.6313   19.6010    0.0000 C   0  0  0  0  0  0  0  0  0  0  0  0
   14.4311   20.5008    0.0000 C   0  0  0  0  0  0  0  0  0  0  0  0
   13.1792   21.3271    0.0000 C   0  0  0  0  0  0  0  0  0  0  0  0
   11.8802   22.0771    0.0000 C   0  0  0  0  0  0  0  0  0  0  0  0
   10.5386   22.7481    0.0000 C   0  0  0  0  0  0  0  0  0  0  0  0
    9.1593   23.3376    0.0000 C   0  0  0  0  0  0  0  0  0  0  0  0
    7.7473   23.8436    0.0000 C   0  0  0  0  0  0  0  0  0  0  0  0
    6.3074   24.2642    0.0000 C   0  0  0  0  0  0  0  0  0  0  0  0
    4.8451   24.5980    0.0000 C   0  0  0  0  0  0  0  0  0  0  0  0
    3.3653   24.8437    0.0000 C   0  0  0  0  0  0  0  0  0  0  0  0
    1.8735   25.0005    0.0000 C   0  0  0  0  0  0  0  0  0  0  0  0
    0.3750   25.0678    0.0000 C   0  0  0  0  0  0  0  0  0  0  0  0
   -1.1248   25.0454    0.0000 C   0  0  0  0  0  0  0  0  0  0  0  0
   -2.6206   24.9333    0.0000 C   0  0  0  0  0  0  0  0  0  0  0  0
   -4.1070   24.7320    0.0000 C   0  0  0  0  0  0  0  0  0  0  0  0
   -5.5787   24.4421    0.0000 C   0  0  0  0  0  0  0  0  0  0  0  0
   -7.0305   24.0647    0.0000 C   0  0  0  0  0  0  0  0  0  0  0  0
   -8.4571   23.6012    0.0000 C   0  0  0  0  0  0  0  0  0  0  0  0
   -9.8534   23.0532    0.0000 C   0  0  0  0  0  0  0  0  0  0  0  0
  -11.2144   22.4226    0.0000 C   0  0  0  0  0  0  0  0  0  0  0  0
  -12.5353   21.7118    0.0000 C   0  0  0  0  0  0  0  0  0  0  0  0
  -13.8113   20.9233    0.0000 C   0  0  0  0  0  0  0  0  0  0  0  0
  -15.0379   20.0599    0.0000 C   0  0  0  0  0  0  0  0  0  0  0  0
  -16.2107   19.1246    0.0000 C   0  0  0  0  0  0  0  0  0  0  0  0
  -17.3254   18.1209    0.0000 C   0  0  0  0  0  0  0  0  0  0  0  0
  -18.3781   17.0524    0.0000 C   0  0  0  0  0  0  0  0  0  0  0  0
  -19.3650   15.9228    0.0000 C   0  0  0  0  0  0  0  0  0  0  0  0
  -20.2826   14.7362    0.0000 C   0  0  0  0  0  0  0  0  0  0  0  0
  -21.1276   13.4968    0.0000 C   0  0  0  0  0  0  0  0  0  0  0  0
  -21.8969   12.2091    0.0000 C   0  0  0  0  0  0  0  0  0  0  0  0
  -22.5879   10.8777    0.0000 C   0  0  0  0  0  0  0  0  0  0  0  0
  -23.1980    9.5074    0.0000 C   0  0  0  0  0  0  0  0  0  0  0  0
  -23.7250    8.1031    0.0000 C   0  0  0  0  0  0  0  0  0  0  0  0
  -24.1672    6.6697    0.0000 C   0  0  0  0  0  0  0  0  0  0  0  0
  -24.5228    5.2125    0.0000 C   0  0  0  0  0  0  0  0  0  0  0  0
  -24.7906    3.7366    0.0000 C   0  0  0  0  0  0  0  0  0  0  0  0
  -24.9697    2.2473    0.0000 C   0  0  0  0  0  0  0  0  0  0  0  0
  -25.0594    0.7500    0.0000 C   0  0  0  0  0  0  0  0  0  0  0  0
  -25.0594   -0.7500    0.0000 C   0  0  0  0  0  0  0  0  0  0  0  0
  -24.9697   -2.2473    0.0000 C   0  0  0  0  0  0  0  0  0  0  0  0
  -24.7906   -3.7366    0.0000 C   0  0  0  0  0  0  0  0  0  0  0  0
  -24.5228   -5.2125    0.0000 C   0  0  0  0  0  0  0  0  0  0  0  0
  -24.1672   -6.6697    0.0000 C   0  0  0  0  0  0  0  0  0  0  0  0
  -23.7250   -8.1031    0.0000 C   0  0  0  0  0  0  0  0  0  0  0  0
  -23.1980   -9.5074    0.0000 C   0  0  0  0  0  0  0  0  0  0  0  0
  -22.5879  -10.8777    0.0000 C   0  0  0  0  0  0  0  0  0  0  0  0
  -21.8969  -12.2091    0.0000 C   0  0  0  0  0  0  0  0  0  0  0  0
  -21.1276  -13.4968    0.0000 C   0  0  0  0  0  0  0  0  0  0  0  0
  -20.2826  -14.7362    0.0000 C   0  0  0  0  0  0  0  0  0  0  0  0
  -19.3650  -15.9228    0.0000 C   0  0  0  0  0  0  0  0  0  0  0  0
  -18.3781  -17.0524    0.0000 C   0  0  0  0  0  0  0  0  0  0  0  0
  -17.3254  -18.1209    0.0000 C   0  0  0  0  0  0  0  0  0  0  0  0
  -16.2107  -19.1246    0.0000 C   0  0  0  0  0  0  0  0  0  0  0  0
  -15.0379  -20.0599    0.0000 C   0  0  0  0  0  0  0  0  0  0  0  0
  -13.8113  -20.9233    0.0000 C   0  0  0  0  0  0  0  0  0  0  0  0
  -12.5353  -21.7118    0.0000 C   0  0  0  0  0  0  0  0  0  0  0  0
  -11.2144  -22.4226    0.0000 C   0  0  0  0  0  0  0  0  0  0  0  0
   -9.8534  -23.0532    0.0000 C   0  0  0  0  0  0  0  0  0  0  0  0
   -8.4571  -23.6012    0.0000 C   0  0  0  0  0  0  0  0  0  0  0  0
   -7.0305  -24.0647    0.0000 C   0  0  0  0  0  0  0  0  0  0  0  0
   -5.5787  -24.4421    0.0000 C   0  0  0  0  0  0  0  0  0  0  0  0
   -4.1070  -24.7320    0.0000 C   0  0  0  0  0  0  0  0  0  0  0  0
   -2.6206  -24.9333    0.0000 C   0  0  0  0  0  0  0  0  0  0  0  0
   -1.1248  -25.0454    0.0000 C   0  0  0  0  0  0  0  0  0  0  0  0
    0.3750  -25.0678    0.0000 C   0  0  0  0  0  0  0  0  0  0  0  0
    1.8735  -25.0005    0.0000 C   0  0  0  0  0  0  0  0  0  0  0  0
    3.3653  -24.8437    0.0000 C   0  0  0  0  0  0  0  0  0  0  0  0
    4.8451  -24.5980    0.0000 C   0  0  0  0  0  0  0  0  0  0  0  0
    6.3074  -24.2642    0.0000 C   0  0  0  0  0  0  0  0  0  0  0  0
    7.7473  -23.8436    0.0000 C   0  0  0  0  0  0  0  0  0  0  0  0
    9.1593  -23.3376    0.0000 C   0  0  0  0  0  0  0  0  0  0  0  0
   10.5386  -22.7481    0.0000 C   0  0  0  0  0  0  0  0  0  0  0  0
   11.8802  -22.0771    0.0000 C   0  0  0  0  0  0  0  0  0  0  0  0
   13.1792  -21.3271    0.0000 C   0  0  0  0  0  0  0  0  0  0  0  0
   14.4311  -20.5008    0.0000 C   0  0  0  0  0  0  0  0  0  0  0  0
   15.6313  -19.6010    0.0000 C   0  0  0  0  0  0  0  0  0  0  0  0
   16.7755  -18.6311    0.0000 C   0  0  0  0  0  0  0  0  0  0  0  0
   17.8597  -17.5945    0.0000 C   0  0  0  0  0  0  0  0  0  0  0  0
   18.8800  -16.4949    0.0000 C   0  0  0  0  0  0  0  0  0  0  0  0
   19.8327  -15.3363    0.0000 C   0  0  0  0  0  0  0  0  0  0  0  0
   20.7143  -14.1228    0.0000 C   0  0  0  0  0  0  0  0  0  0  0  0
   21.5219  -12.8587    0.0000 C   0  0  0  0  0  0  0  0  0  0  0  0
   22.2523  -11.5486    0.0000 C   0  0  0  0  0  0  0  0  0  0  0  0
   22.9032  -10.1971    0.0000 C   0  0  0  0  0  0  0  0  0  0  0  0
   23.4720   -8.8092    0.0000 C   0  0  0  0  0  0  0  0  0  0  0  0
   23.9568   -7.3897    0.0000 C   0  0  0  0  0  0  0  0  0  0  0  0
   24.3559   -5.9438    0.0000 C   0  0  0  0  0  0  0  0  0  0  0  0
   24.6677   -4.4765    0.0000 C   0  0  0  0  0  0  0  0  0  0  0  0
   24.8913   -2.9933    0.0000 C   0  0  0  0  0  0  0  0  0  0  0  0
   25.0258   -1.4993    0.0000 C   0  0  0  0  0  0  0  0  0  0  0  0
  1  2  1  0
  2  3  1  0
  3  4  2  0
  4  5  1  0
  5  6  2  0
  6  7  1  0
  7  8  2  0
  8  9  1  0
  9 10  1  0
 10 11  1  0
 11 12  1  0
 12 13  1  0
 13 14  1  0
 14 15  1  0
 15 16  1  0
 16 17  1  0
 17 18  1  0
 18 19  1  0
 19 20  1  0
 20 21  1  0
 21 22  1  0
 22 23  1  0
 23 24  1  0
 24 25  1  0
 25 26  1  0
 26 27  1  0
 27 28  1  0
 28 29  1  0
 29 30  1  0
 30 31  1  0
 31 32  1  0
 32 33  1  0
 33 34  1  0
 34 35  1  0
 35 36  1  0
 36 37  1  0
 37 38  1  0
 38 39  1  0
 39 40  1  0
 40 41  1  0
 41 42  1  0
 42 43  1  0
 43 44  1  0
 44 45  1  0
 45 46  1  0
 46 47  1  0
 47 48  1  0
 48 49  1  0
 49 50  1  0
 50 51  1  0
 51 52  1  0
 52 53  1  0
 53 54  1  0
 54 55  1  0
 55 56  1  0
 56 57  1  0
 57 58  1  0
 58 59  1  0
 59 60  1  0
 60 61  1  0
 61 62  1  0
 62 63  1  0
 63 64  1  0
 64 65  1  0
 65 66  1  0
 66 67  1  0
 67 68  1  0
 68 69  1  0
 69 70  1  0
 70 71  1  0
 71 72  1  0
 72 73  1  0
 73 74  1  0
 74 75  1  0
 75 76  1  0
 76 77  1  0
 77 78  1  0
 78 79  1  0
 79 80  1  0
 80 81  1  0
 81 82  1  0
 82 83  1  0
 83 84  1  0
 84 85  1  0
 85 86  1  0
 86 87  1  0
 87 88  1  0
 88 89  1  0
 89 90  1  0
 90 91  1  0
 91 92  1  0
 92 93  1  0
 93 94  1  0
 94 95  1  0
 95 96  1  0
 96 97  1  0
 97 98  1  0
 98 99  1  0
 99100  1  0
100101  1  0
101102  1  0
102103  1  0
103104  1  0
104105  1  0
105106  1  0
106  2  1  0
M  END
>  <Title>  (452) 
idAAPLgen8

$$$$

     RDKit          2D

 10 10  0  0  0  0  0  0  0  0999 V2000
    5.2500   -1.2990    0.0000 C   0  0  0  0  0  0  0  0  0  0  0  0
    3.7500   -1.2990    0.0000 N   0  0  0  0  0  0  0  0  0  0  0  0
    3.0000    0.0000    0.0000 C   0  0  0  0  0  0  0  0  0  0  0  0
    1.5000    0.0000    0.0000 C   0  0  0  0  0  0  0  0  0  0  0  0
    0.7500   -1.2990    0.0000 C   0  0  0  0  0  0  0  0  0  0  0  0
   -0.7500   -1.2990    0.0000 C   0  0  0  0  0  0  0  0  0  0  0  0
   -1.5000    0.0000    0.0000 C   0  0  0  0  0  0  0  0  0  0  0  0
   -3.0000    0.0000    0.0000 O   0  0  0  0  0  0  0  0  0  0  0  0
   -0.7500    1.2990    0.0000 C   0  0  0  0  0  0  0  0  0  0  0  0
    0.7500    1.2990    0.0000 C   0  0  0  0  0  0  0  0  0  0  0  0
  1  2  1  0
  2  3  1  0
  3  4  1  0
  4  5  2  0
  5  6  1  0
  6  7  1  0
  7  8  1  0
  7  9  1  0
  9 10  2  0
 10  4  1  0
M  END
>  <Title>  (453) 
idAAPMgen8

$$$$

     RDKit          2D

 15 15  0  0  0  0  0  0  0  0999 V2000
   13.5000    0.0000    0.0000 C   0  0  0  0  0  0  0  0  0  0  0  0
   12.0000    0.0000    0.0000 C   0  0  0  0  0  0  0  0  0  0  0  0
   10.5000    0.0000    0.0000 C   0  0  0  0  0  0  0  0  0  0  0  0
    9.0000    0.0000    0.0000 C   0  0  0  0  0  0  0  0  0  0  0  0
    7.5000    0.0000    0.0000 C   0  0  0  0  0  0  0  0  0  0  0  0
    6.0000    0.0000    0.0000 C   0  0  0  0  0  0  0  0  0  0  0  0
    4.5000    0.0000    0.0000 C   0  0  0  0  0  0  0  0  0  0  0  0
    3.0000    0.0000    0.0000 C   0  0  0  0  0  0  0  0  0  0  0  0
    1.5000    0.0000    0.0000 C   0  0  0  0  0  0  0  0  0  0  0  0
    0.7500   -1.2990    0.0000 C   0  0  0  0  0  0  0  0  0  0  0  0
   -0.7500   -1.2990    0.0000 C   0  0  0  0  0  0  0  0  0  0  0  0
   -1.5000    0.0000    0.0000 C   0  0  0  0  0  0  0  0  0  0  0  0
   -0.7500    1.2990    0.0000 C   0  0  0  0  0  0  0  0  0  0  0  0
    0.7500    1.2990    0.0000 C   0  0  0  0  0  0  0  0  0  0  0  0
    1.5000    2.5981    0.0000 C   0  0  0  0  0  0  0  0  0  0  0  0
  1  2  3  0
  2  3  1  0
  3  4  3  0
  4  5  1  0
  5  6  3  0
  6  7  1  0
  7  8  3  0
  8  9  1  0
  9 10  1  0
 10 11  1  0
 11 12  1  0
 12 13  1  0
 13 14  1  0
 14 15  1  0
 14  9  1  0
M  END
>  <Title>  (454) 
idAAPNgen8

$$$$

     RDKit          2D

 79 79  0  0  0  0  0  0  0  0999 V2000
   20.1262    0.0000    0.0000 C   0  0  0  0  0  0  0  0  0  0  0  0
   18.6262    0.0000    0.0000 C   0  0  0  0  0  0  0  0  0  0  0  0
   18.5658   -1.4988    0.0000 C   0  0  0  0  0  0  0  0  0  0  0  0
   18.3850   -2.9878    0.0000 C   0  0  0  0  0  0  0  0  0  0  0  0
   18.0849   -4.4575    0.0000 C   0  0  0  0  0  0  0  0  0  0  0  0
   17.6676   -5.8983    0.0000 C   0  0  0  0  0  0  0  0  0  0  0  0
   17.1357   -7.3008    0.0000 C   0  0  0  0  0  0  0  0  0  0  0  0
   16.4926   -8.6560    0.0000 C   0  0  0  0  0  0  0  0  0  0  0  0
   15.7426   -9.9550    0.0000 C   0  0  0  0  0  0  0  0  0  0  0  0
   14.8906  -11.1895    0.0000 C   0  0  0  0  0  0  0  0  0  0  0  0
   13.9419  -12.3514    0.0000 C   0  0  0  0  0  0  0  0  0  0  0  0
   12.9028  -13.4332    0.0000 C   0  0  0  0  0  0  0  0  0  0  0  0
   11.7800  -14.4279    0.0000 C   0  0  0  0  0  0  0  0  0  0  0  0
   10.5809  -15.3290    0.0000 C   0  0  0  0  0  0  0  0  0  0  0  0
    9.3131  -16.1307    0.0000 C   0  0  0  0  0  0  0  0  0  0  0  0
    7.9849  -16.8278    0.0000 C   0  0  0  0  0  0  0  0  0  0  0  0
    6.6049  -17.4158    0.0000 C   0  0  0  0  0  0  0  0  0  0  0  0
    5.1821  -17.8908    0.0000 C   0  0  0  0  0  0  0  0  0  0  0  0
    3.7257  -18.2497    0.0000 C   0  0  0  0  0  0  0  0  0  0  0  0
    2.2451  -18.4904    0.0000 C   0  0  0  0  0  0  0  0  0  0  0  0
    0.7500  -18.6111    0.0000 C   0  0  0  0  0  0  0  0  0  0  0  0
   -0.7500  -18.6111    0.0000 C   0  0  0  0  0  0  0  0  0  0  0  0
   -2.2451  -18.4904    0.0000 C   0  0  0  0  0  0  0  0  0  0  0  0
   -3.7257  -18.2497    0.0000 C   0  0  0  0  0  0  0  0  0  0  0  0
   -5.1821  -17.8908    0.0000 C   0  0  0  0  0  0  0  0  0  0  0  0
   -6.6049  -17.4158    0.0000 C   0  0  0  0  0  0  0  0  0  0  0  0
   -7.9849  -16.8278    0.0000 C   0  0  0  0  0  0  0  0  0  0  0  0
   -9.3131  -16.1307    0.0000 C   0  0  0  0  0  0  0  0  0  0  0  0
  -10.5809  -15.3290    0.0000 C   0  0  0  0  0  0  0  0  0  0  0  0
  -11.7800  -14.4279    0.0000 C   0  0  0  0  0  0  0  0  0  0  0  0
  -12.9028  -13.4332    0.0000 C   0  0  0  0  0  0  0  0  0  0  0  0
  -13.9419  -12.3514    0.0000 C   0  0  0  0  0  0  0  0  0  0  0  0
  -14.8906  -11.1895    0.0000 C   0  0  0  0  0  0  0  0  0  0  0  0
  -15.7426   -9.9550    0.0000 C   0  0  0  0  0  0  0  0  0  0  0  0
  -16.4926   -8.6560    0.0000 C   0  0  0  0  0  0  0  0  0  0  0  0
  -17.1357   -7.3008    0.0000 C   0  0  0  0  0  0  0  0  0  0  0  0
  -17.6676   -5.8983    0.0000 C   0  0  0  0  0  0  0  0  0  0  0  0
  -18.0849   -4.4575    0.0000 C   0  0  0  0  0  0  0  0  0  0  0  0
  -18.3850   -2.9878    0.0000 C   0  0  0  0  0  0  0  0  0  0  0  0
  -18.5658   -1.4988    0.0000 C   0  0  0  0  0  0  0  0  0  0  0  0
  -18.6262    0.0000    0.0000 C   0  0  0  0  0  0  0  0  0  0  0  0
  -18.5658    1.4988    0.0000 C   0  0  0  0  0  0  0  0  0  0  0  0
  -18.3850    2.9878    0.0000 C   0  0  0  0  0  0  0  0  0  0  0  0
  -18.0849    4.4575    0.0000 C   0  0  0  0  0  0  0  0  0  0  0  0
  -17.6676    5.8983    0.0000 C   0  0  0  0  0  0  0  0  0  0  0  0
  -17.1357    7.3008    0.0000 C   0  0  0  0  0  0  0  0  0  0  0  0
  -16.4926    8.6560    0.0000 C   0  0  0  0  0  0  0  0  0  0  0  0
  -15.7426    9.9550    0.0000 C   0  0  0  0  0  0  0  0  0  0  0  0
  -14.8906   11.1895    0.0000 C   0  0  0  0  0  0  0  0  0  0  0  0
  -13.9419   12.3514    0.0000 C   0  0  0  0  0  0  0  0  0  0  0  0
  -12.9028   13.4332    0.0000 C   0  0  0  0  0  0  0  0  0  0  0  0
  -11.7800   14.4279    0.0000 C   0  0  0  0  0  0  0  0  0  0  0  0
  -10.5809   15.3290    0.0000 C   0  0  0  0  0  0  0  0  0  0  0  0
   -9.3131   16.1307    0.0000 C   0  0  0  0  0  0  0  0  0  0  0  0
   -7.9849   16.8278    0.0000 C   0  0  0  0  0  0  0  0  0  0  0  0
   -6.6049   17.4158    0.0000 C   0  0  0  0  0  0  0  0  0  0  0  0
   -5.1821   17.8908    0.0000 C   0  0  0  0  0  0  0  0  0  0  0  0
   -3.7257   18.2497    0.0000 C   0  0  0  0  0  0  0  0  0  0  0  0
   -2.2451   18.4904    0.0000 C   0  0  0  0  0  0  0  0  0  0  0  0
   -0.7500   18.6111    0.0000 C   0  0  0  0  0  0  0  0  0  0  0  0
    0.7500   18.6111    0.0000 C   0  0  0  0  0  0  0  0  0  0  0  0
    2.2451   18.4904    0.0000 C   0  0  0  0  0  0  0  0  0  0  0  0
    3.7257   18.2497    0.0000 C   0  0  0  0  0  0  0  0  0  0  0  0
    5.1821   17.8908    0.0000 C   0  0  0  0  0  0  0  0  0  0  0  0
    6.6049   17.4158    0.0000 C   0  0  0  0  0  0  0  0  0  0  0  0
    7.9849   16.8278    0.0000 C   0  0  0  0  0  0  0  0  0  0  0  0
    9.3131   16.1307    0.0000 C   0  0  0  0  0  0  0  0  0  0  0  0
   10.5809   15.3290    0.0000 C   0  0  0  0  0  0  0  0  0  0  0  0
   11.7800   14.4279    0.0000 C   0  0  0  0  0  0  0  0  0  0  0  0
   12.9028   13.4332    0.0000 C   0  0  0  0  0  0  0  0  0  0  0  0
   13.9419   12.3514    0.0000 C   0  0  0  0  0  0  0  0  0  0  0  0
   14.8906   11.1895    0.0000 C   0  0  0  0  0  0  0  0  0  0  0  0
   15.7426    9.9550    0.0000 C   0  0  0  0  0  0  0  0  0  0  0  0
   16.4926    8.6560    0.0000 C   0  0  0  0  0  0  0  0  0  0  0  0
   17.1357    7.3008    0.0000 C   0  0  0  0  0  0  0  0  0  0  0  0
   17.6676    5.8983    0.0000 C   0  0  0  0  0  0  0  0  0  0  0  0
   18.0849    4.4575    0.0000 C   0  0  0  0  0  0  0  0  0  0  0  0
   18.3850    2.9878    0.0000 C   0  0  0  0  0  0  0  0  0  0  0  0
   18.5658    1.4988    0.0000 C   0  0  0  0  0  0  0  0  0  0  0  0
  1  2  1  0
  2  3  1  0
  3  4  1  0
  4  5  2  0
  5  6  1  0
  6  7  2  0
  7  8  1  0
  8  9  2  0
  9 10  1  0
 10 11  1  0
 11 12  1  0
 12 13  1  0
 13 14  1  0
 14 15  1  0
 15 16  1  0
 16 17  1  0
 17 18  1  0
 18 19  1  0
 19 20  1  0
 20 21  1  0
 21 22  1  0
 22 23  1  0
 23 24  1  0
 24 25  1  0
 25 26  1  0
 26 27  1  0
 27 28  1  0
 28 29  1  0
 29 30  1  0
 30 31  1  0
 31 32  1  0
 32 33  1  0
 33 34  1  0
 34 35  1  0
 35 36  1  0
 36 37  1  0
 37 38  1  0
 38 39  1  0
 39 40  1  0
 40 41  1  0
 41 42  1  0
 42 43  1  0
 43 44  1  0
 44 45  1  0
 45 46  1  0
 46 47  1  0
 47 48  1  0
 48 49  1  0
 49 50  1  0
 50 51  1  0
 51 52  1  0
 52 53  1  0
 53 54  1  0
 54 55  1  0
 55 56  1  0
 56 57  1  0
 57 58  1  0
 58 59  1  0
 59 60  1  0
 60 61  1  0
 61 62  1  0
 62 63  1  0
 63 64  1  0
 64 65  1  0
 65 66  1  0
 66 67  1  0
 67 68  1  0
 68 69  1  0
 69 70  1  0
 70 71  1  0
 71 72  1  0
 72 73  1  0
 73 74  1  0
 74 75  1  0
 75 76  1  0
 76 77  1  0
 77 78  1  0
 78 79  1  0
 79  2  1  0
M  END
>  <Title>  (455) 
idAAPOgen8

$$$$

     RDKit          2D

 17 17  0  0  0  0  0  0  0  0999 V2000
    9.7500   -6.4952    0.0000 C   0  0  0  0  0  0  0  0  0  0  0  0
    9.0000   -5.1962    0.0000 C   0  0  0  0  0  0  0  0  0  0  0  0
    8.2500   -3.8971    0.0000 C   0  0  0  0  0  0  0  0  0  0  0  0
    7.5000   -2.5981    0.0000 C   0  0  0  0  0  0  0  0  0  0  0  0
    6.0000   -2.5981    0.0000 C   0  0  0  0  0  0  0  0  0  0  0  0
    5.2500   -1.2990    0.0000 C   0  0  0  0  0  0  0  0  0  0  0  0
    6.0000    0.0000    0.0000 O   0  0  0  0  0  0  0  0  0  0  0  0
    3.7500   -1.2990    0.0000 O   0  0  0  0  0  0  0  0  0  0  0  0
    3.0000    0.0000    0.0000 C   0  0  0  0  0  0  0  0  0  0  0  0
    3.7500    1.2990    0.0000 O   0  0  0  0  0  0  0  0  0  0  0  0
    1.5000    0.0000    0.0000 C   0  0  0  0  0  0  0  0  0  0  0  0
    0.7500   -1.2990    0.0000 C   0  0  0  0  0  0  0  0  0  0  0  0
   -0.7500   -1.2990    0.0000 C   0  0  0  0  0  0  0  0  0  0  0  0
   -1.5000    0.0000    0.0000 C   0  0  0  0  0  0  0  0  0  0  0  0
   -3.0000    0.0000    0.0000 O   0  0  0  0  0  0  0  0  0  0  0  0
   -0.7500    1.2990    0.0000 C   0  0  0  0  0  0  0  0  0  0  0  0
    0.7500    1.2990    0.0000 C   0  0  0  0  0  0  0  0  0  0  0  0
  1  2  1  0
  2  3  3  0
  3  4  1  0
  4  5  2  3
  5  6  1  0
  6  7  2  0
  6  8  1  0
  8  9  1  0
  9 10  2  0
  9 11  1  0
 11 12  2  0
 12 13  1  0
 13 14  2  0
 14 15  1  0
 14 16  1  0
 16 17  1  0
 17 11  1  0
M  END
>  <Title>  (456) 
idAAPPgen8

$$$$

     RDKit          2D

  7  7  0  0  0  0  0  0  0  0999 V2000
    4.2760   -0.0000    0.0000 N   0  0  0  0  0  0  0  0  0  0  0  0
    2.7760    0.0000    0.0000 C   0  0  0  0  0  0  0  0  0  0  0  0
    1.2760    0.0000    0.0000 C   0  0  0  0  0  0  0  0  0  0  0  0
    0.3943    1.2135    0.0000 C   0  0  0  0  0  0  0  0  0  0  0  0
   -1.0323    0.7500    0.0000 C   0  0  0  0  0  0  0  0  0  0  0  0
   -1.0323   -0.7500    0.0000 C   0  0  0  0  0  0  0  0  0  0  0  0
    0.3943   -1.2135    0.0000 C   0  0  0  0  0  0  0  0  0  0  0  0
  1  2  3  0
  2  3  1  0
  3  4  2  0
  4  5  1  0
  5  6  1  0
  6  7  2  0
  7  3  1  0
M  END
>  <Title>  (457) 
idAAPQgen8

$$$$

     RDKit          2D

 10 10  0  0  0  0  0  0  0  0999 V2000
    3.1935   -3.4746    0.0000 C   0  0  0  0  0  0  0  0  0  0  0  0
    2.0788   -2.4709    0.0000 C   0  0  0  0  0  0  0  0  0  0  0  0
    2.3907   -1.0037    0.0000 C   0  0  0  0  0  0  0  0  0  0  0  0
    1.2760    0.0000    0.0000 C   0  0  0  0  0  0  0  0  0  0  0  0
    2.3907    1.0037    0.0000 C   0  0  0  0  0  0  0  0  0  0  0  0
    0.3943    1.2135    0.0000 C   0  0  0  0  0  0  0  0  0  0  0  0
   -1.0323    0.7500    0.0000 C   0  0  0  0  0  0  0  0  0  0  0  0
   -1.0323   -0.7500    0.0000 C   0  0  0  0  0  0  0  0  0  0  0  0
   -2.2458   -1.6317    0.0000 C   0  0  0  0  0  0  0  0  0  0  0  0
    0.3943   -1.2135    0.0000 C   0  0  0  0  0  0  0  0  0  0  0  0
  1  2  1  0
  2  3  1  0
  3  4  1  0
  4  5  1  0
  4  6  1  0
  6  7  1  0
  7  8  1  0
  8  9  1  0
  8 10  1  0
 10  4  1  0
M  END
>  <Title>  (458) 
idAAPRgen8

$$$$

     RDKit          2D

 53 53  0  0  0  0  0  0  0  0999 V2000
   16.9902   -2.5981    0.0000 C   0  0  0  0  0  0  0  0  0  0  0  0
   15.4902   -2.5981    0.0000 C   0  0  0  0  0  0  0  0  0  0  0  0
   14.7402   -1.2990    0.0000 C   0  0  0  0  0  0  0  0  0  0  0  0
   13.2402   -1.2990    0.0000 C   0  0  0  0  0  0  0  0  0  0  0  0
   12.4902    0.0000    0.0000 C   0  0  0  0  0  0  0  0  0  0  0  0
   10.9902    0.0000    0.0000 C   0  0  0  0  0  0  0  0  0  0  0  0
   10.8879   -1.4965    0.0000 N   0  0  0  0  0  0  0  0  0  0  0  0
   10.5827   -2.9651    0.0000 C   0  0  0  0  0  0  0  0  0  0  0  0
   12.0271   -3.3698    0.0000 C   0  0  0  0  0  0  0  0  0  0  0  0
   10.0804   -4.3785    0.0000 C   0  0  0  0  0  0  0  0  0  0  0  0
    9.3903   -5.7103    0.0000 C   0  0  0  0  0  0  0  0  0  0  0  0
    8.5252   -6.9358    0.0000 C   0  0  0  0  0  0  0  0  0  0  0  0
    7.5014   -8.0321    0.0000 C   0  0  0  0  0  0  0  0  0  0  0  0
    6.3379   -8.9787    0.0000 C   0  0  0  0  0  0  0  0  0  0  0  0
    5.0562   -9.7581    0.0000 C   0  0  0  0  0  0  0  0  0  0  0  0
    3.6804  -10.3557    0.0000 C   0  0  0  0  0  0  0  0  0  0  0  0
    2.2360  -10.7604    0.0000 C   0  0  0  0  0  0  0  0  0  0  0  0
    0.7500  -10.9646    0.0000 C   0  0  0  0  0  0  0  0  0  0  0  0
   -0.7500  -10.9646    0.0000 C   0  0  0  0  0  0  0  0  0  0  0  0
   -2.2360  -10.7604    0.0000 C   0  0  0  0  0  0  0  0  0  0  0  0
   -3.6804  -10.3557    0.0000 C   0  0  0  0  0  0  0  0  0  0  0  0
   -5.0562   -9.7581    0.0000 C   0  0  0  0  0  0  0  0  0  0  0  0
   -6.3379   -8.9787    0.0000 C   0  0  0  0  0  0  0  0  0  0  0  0
   -7.5014   -8.0321    0.0000 C   0  0  0  0  0  0  0  0  0  0  0  0
   -8.5252   -6.9358    0.0000 C   0  0  0  0  0  0  0  0  0  0  0  0
   -9.3903   -5.7103    0.0000 C   0  0  0  0  0  0  0  0  0  0  0  0
  -10.0804   -4.3785    0.0000 C   0  0  0  0  0  0  0  0  0  0  0  0
  -10.5827   -2.9651    0.0000 C   0  0  0  0  0  0  0  0  0  0  0  0
  -10.8879   -1.4965    0.0000 C   0  0  0  0  0  0  0  0  0  0  0  0
  -10.9902    0.0000    0.0000 C   0  0  0  0  0  0  0  0  0  0  0  0
  -10.8879    1.4965    0.0000 C   0  0  0  0  0  0  0  0  0  0  0  0
  -10.5827    2.9651    0.0000 C   0  0  0  0  0  0  0  0  0  0  0  0
  -10.0804    4.3785    0.0000 C   0  0  0  0  0  0  0  0  0  0  0  0
   -9.3903    5.7103    0.0000 C   0  0  0  0  0  0  0  0  0  0  0  0
   -8.5252    6.9358    0.0000 C   0  0  0  0  0  0  0  0  0  0  0  0
   -7.5014    8.0321    0.0000 C   0  0  0  0  0  0  0  0  0  0  0  0
   -6.3379    8.9787    0.0000 C   0  0  0  0  0  0  0  0  0  0  0  0
   -5.0562    9.7581    0.0000 C   0  0  0  0  0  0  0  0  0  0  0  0
   -3.6804   10.3557    0.0000 C   0  0  0  0  0  0  0  0  0  0  0  0
   -2.2360   10.7604    0.0000 C   0  0  0  0  0  0  0  0  0  0  0  0
   -0.7500   10.9646    0.0000 C   0  0  0  0  0  0  0  0  0  0  0  0
    0.7500   10.9646    0.0000 C   0  0  0  0  0  0  0  0  0  0  0  0
    2.2360   10.7604    0.0000 C   0  0  0  0  0  0  0  0  0  0  0  0
    3.6804   10.3557    0.0000 C   0  0  0  0  0  0  0  0  0  0  0  0
    5.0562    9.7581    0.0000 C   0  0  0  0  0  0  0  0  0  0  0  0
    6.3379    8.9787    0.0000 C   0  0  0  0  0  0  0  0  0  0  0  0
    7.5014    8.0321    0.0000 C   0  0  0  0  0  0  0  0  0  0  0  0
    8.5252    6.9358    0.0000 C   0  0  0  0  0  0  0  0  0  0  0  0
    9.3903    5.7103    0.0000 C   0  0  0  0  0  0  0  0  0  0  0  0
   10.0804    4.3785    0.0000 C   0  0  0  0  0  0  0  0  0  0  0  0
   10.5827    2.9651    0.0000 C   0  0  0  0  0  0  0  0  0  0  0  0
   10.8879    1.4965    0.0000 C   0  0  0  0  0  0  0  0  0  0  0  0
   12.3739    1.7008    0.0000 C   0  0  0  0  0  0  0  0  0  0  0  0
  1  2  1  0
  2  3  1  0
  3  4  2  3
  4  5  1  0
  5  6  2  3
  6  7  1  0
  7  8  1  0
  8  9  1  0
  8 10  1  0
 10 11  1  0
 11 12  1  0
 12 13  1  0
 13 14  1  0
 14 15  1  0
 15 16  1  0
 16 17  1  0
 17 18  1  0
 18 19  1  0
 19 20  1  0
 20 21  1  0
 21 22  1  0
 22 23  1  0
 23 24  1  0
 24 25  1  0
 25 26  1  0
 26 27  1  0
 27 28  1  0
 28 29  1  0
 29 30  1  0
 30 31  1  0
 31 32  1  0
 32 33  1  0
 33 34  1  0
 34 35  1  0
 35 36  1  0
 36 37  1  0
 37 38  1  0
 38 39  1  0
 39 40  1  0
 40 41  1  0
 41 42  1  0
 42 43  1  0
 43 44  1  0
 44 45  1  0
 45 46  1  0
 46 47  1  0
 47 48  1  0
 48 49  1  0
 49 50  1  0
 50 51  1  0
 51 52  1  0
 52 53  1  0
 52  6  1  0
M  END
>  <Title>  (459) 
idAAPSgen8

$$$$

     RDKit          2D

 22 23  0  0  0  0  0  0  0  0999 V2000
    1.5000   -7.7942    0.0000 C   0  0  0  0  0  0  0  0  0  0  0  0
    0.7500   -6.4952    0.0000 C   0  0  0  0  0  0  0  0  0  0  0  0
    1.5000   -5.1962    0.0000 C   0  0  0  0  0  0  0  0  0  0  0  0
    0.7500   -3.8971    0.0000 C   0  0  0  0  0  0  0  0  0  0  0  0
   -0.7500   -3.8971    0.0000 O   0  0  0  0  0  0  0  0  0  0  0  0
    1.5000   -2.5981    0.0000 N   0  0  0  0  0  0  0  0  0  0  0  0
    0.7500   -1.2990    0.0000 C   0  0  0  0  0  0  0  0  0  0  0  0
    1.5000    0.0000    0.0000 N   0  0  0  0  0  0  0  0  0  0  0  0
    0.7500    1.2990    0.0000 N   0  0  0  0  0  0  0  0  0  0  0  0
   -0.7500    1.2990    0.0000 N   0  0  0  0  0  0  0  0  0  0  0  0
   -1.5000    0.0000    0.0000 N   0  0  0  0  0  0  0  0  0  0  0  0
   -0.7500   -1.2990    0.0000 N   0  0  0  0  0  0  0  0  0  0  0  0
   -0.7500   -6.4952    0.0000 C   0  0  0  0  0  0  0  0  0  0  0  0
   -1.5000   -5.1962    0.0000 O   0  0  0  0  0  0  0  0  0  0  0  0
   -1.5000   -7.7942    0.0000 N   0  0  0  0  0  0  0  0  0  0  0  0
   -3.0000   -7.7942    0.0000 C   0  0  0  0  0  0  0  0  0  0  0  0
   -3.7500   -6.4952    0.0000 C   0  0  0  0  0  0  0  0  0  0  0  0
   -5.2500   -6.4952    0.0000 C   0  0  0  0  0  0  0  0  0  0  0  0
   -6.0000   -7.7942    0.0000 C   0  0  0  0  0  0  0  0  0  0  0  0
   -7.5000   -7.7942    0.0000 O   0  0  0  0  0  0  0  0  0  0  0  0
   -5.2500   -9.0933    0.0000 C   0  0  0  0  0  0  0  0  0  0  0  0
   -3.7500   -9.0933    0.0000 C   0  0  0  0  0  0  0  0  0  0  0  0
  1  2  1  0
  2  3  1  0
  3  4  1  0
  4  5  2  0
  4  6  1  0
  6  7  1  0
  7  8  2  0
  8  9  1  0
  9 10  2  0
 10 11  1  0
 11 12  2  0
  2 13  1  0
 13 14  2  0
 13 15  1  0
 15 16  1  0
 16 17  2  0
 17 18  1  0
 18 19  1  0
 19 20  1  0
 19 21  1  0
 21 22  2  0
 12  7  1  0
 22 16  1  0
M  END
>  <Title>  (460) 
idAAPTgen8

$$$$

     RDKit          2D

  8  7  0  0  0  0  0  0  0  0999 V2000
    0.0000    0.0000    0.0000 C   0  0  0  0  0  0  0  0  0  0  0  0
    1.2990    0.7500    0.0000 C   0  0  0  0  0  0  0  0  0  0  0  0
    2.5981   -0.0000    0.0000 C   0  0  0  0  0  0  0  0  0  0  0  0
    3.8971    0.7500    0.0000 C   0  0  0  0  0  0  0  0  0  0  0  0
    2.5981   -1.5000    0.0000 C   0  0  0  0  0  0  0  0  0  0  0  0
    3.8971   -2.2500    0.0000 C   0  0  0  0  0  0  0  0  0  0  0  0
    3.8971   -3.7500    0.0000 C   0  0  0  0  0  0  0  0  0  0  0  0
    5.1962   -1.5000    0.0000 C   0  0  0  0  0  0  0  0  0  0  0  0
  1  2  1  0
  2  3  1  0
  3  4  1  0
  3  5  1  0
  5  6  2  3
  6  7  1  0
  6  8  1  0
M  END
>  <Title>  (461) 
idAAPUgen8

$$$$

     RDKit          2D

 64 64  0  0  0  0  0  0  0  0999 V2000
   16.3077   -0.0000    0.0000 C   0  0  0  0  0  0  0  0  0  0  0  0
   14.8077    0.0000    0.0000 C   0  0  0  0  0  0  0  0  0  0  0  0
   14.7318   -1.4981    0.0000 C   0  0  0  0  0  0  0  0  0  0  0  0
   14.5046   -2.9808    0.0000 C   0  0  0  0  0  0  0  0  0  0  0  0
   14.1287   -4.4329    0.0000 C   0  0  0  0  0  0  0  0  0  0  0  0
   13.6077   -5.8395    0.0000 C   0  0  0  0  0  0  0  0  0  0  0  0
   12.9471   -7.1862    0.0000 C   0  0  0  0  0  0  0  0  0  0  0  0
   12.1537   -8.4592    0.0000 C   0  0  0  0  0  0  0  0  0  0  0  0
   11.2355   -9.6454    0.0000 C   0  0  0  0  0  0  0  0  0  0  0  0
   10.2020  -10.7325    0.0000 C   0  0  0  0  0  0  0  0  0  0  0  0
    9.0639  -11.7096    0.0000 C   0  0  0  0  0  0  0  0  0  0  0  0
    7.8328  -12.5665    0.0000 C   0  0  0  0  0  0  0  0  0  0  0  0
    6.5212  -13.2945    0.0000 C   0  0  0  0  0  0  0  0  0  0  0  0
    5.1428  -13.8860    0.0000 C   0  0  0  0  0  0  0  0  0  0  0  0
    3.7116  -14.3350    0.0000 C   0  0  0  0  0  0  0  0  0  0  0  0
    2.2423  -14.6370    0.0000 C   0  0  0  0  0  0  0  0  0  0  0  0
    0.7500  -14.7887    0.0000 C   0  0  0  0  0  0  0  0  0  0  0  0
   -0.7500  -14.7887    0.0000 C   0  0  0  0  0  0  0  0  0  0  0  0
   -2.2423  -14.6370    0.0000 C   0  0  0  0  0  0  0  0  0  0  0  0
   -3.7116  -14.3350    0.0000 C   0  0  0  0  0  0  0  0  0  0  0  0
   -5.1428  -13.8860    0.0000 C   0  0  0  0  0  0  0  0  0  0  0  0
   -6.5212  -13.2945    0.0000 C   0  0  0  0  0  0  0  0  0  0  0  0
   -7.8328  -12.5665    0.0000 C   0  0  0  0  0  0  0  0  0  0  0  0
   -9.0639  -11.7096    0.0000 C   0  0  0  0  0  0  0  0  0  0  0  0
  -10.2020  -10.7325    0.0000 C   0  0  0  0  0  0  0  0  0  0  0  0
  -11.2355   -9.6454    0.0000 C   0  0  0  0  0  0  0  0  0  0  0  0
  -12.1537   -8.4592    0.0000 C   0  0  0  0  0  0  0  0  0  0  0  0
  -12.9471   -7.1862    0.0000 C   0  0  0  0  0  0  0  0  0  0  0  0
  -13.6077   -5.8395    0.0000 C   0  0  0  0  0  0  0  0  0  0  0  0
  -14.1287   -4.4329    0.0000 C   0  0  0  0  0  0  0  0  0  0  0  0
  -14.5046   -2.9808    0.0000 C   0  0  0  0  0  0  0  0  0  0  0  0
  -14.7318   -1.4981    0.0000 C   0  0  0  0  0  0  0  0  0  0  0  0
  -14.8077    0.0000    0.0000 C   0  0  0  0  0  0  0  0  0  0  0  0
  -14.7318    1.4981    0.0000 C   0  0  0  0  0  0  0  0  0  0  0  0
  -14.5046    2.9808    0.0000 C   0  0  0  0  0  0  0  0  0  0  0  0
  -14.1287    4.4329    0.0000 C   0  0  0  0  0  0  0  0  0  0  0  0
  -13.6077    5.8395    0.0000 C   0  0  0  0  0  0  0  0  0  0  0  0
  -12.9471    7.1862    0.0000 C   0  0  0  0  0  0  0  0  0  0  0  0
  -12.1537    8.4592    0.0000 C   0  0  0  0  0  0  0  0  0  0  0  0
  -11.2355    9.6454    0.0000 C   0  0  0  0  0  0  0  0  0  0  0  0
  -10.2020   10.7325    0.0000 C   0  0  0  0  0  0  0  0  0  0  0  0
   -9.0639   11.7096    0.0000 C   0  0  0  0  0  0  0  0  0  0  0  0
   -7.8328   12.5665    0.0000 C   0  0  0  0  0  0  0  0  0  0  0  0
   -6.5212   13.2945    0.0000 C   0  0  0  0  0  0  0  0  0  0  0  0
   -5.1428   13.8860    0.0000 C   0  0  0  0  0  0  0  0  0  0  0  0
   -3.7116   14.3350    0.0000 C   0  0  0  0  0  0  0  0  0  0  0  0
   -2.2423   14.6370    0.0000 C   0  0  0  0  0  0  0  0  0  0  0  0
   -0.7500   14.7887    0.0000 C   0  0  0  0  0  0  0  0  0  0  0  0
    0.7500   14.7887    0.0000 C   0  0  0  0  0  0  0  0  0  0  0  0
    2.2423   14.6370    0.0000 C   0  0  0  0  0  0  0  0  0  0  0  0
    3.7116   14.3350    0.0000 C   0  0  0  0  0  0  0  0  0  0  0  0
    5.1428   13.8860    0.0000 C   0  0  0  0  0  0  0  0  0  0  0  0
    6.5212   13.2945    0.0000 C   0  0  0  0  0  0  0  0  0  0  0  0
    7.8328   12.5665    0.0000 C   0  0  0  0  0  0  0  0  0  0  0  0
    9.0639   11.7096    0.0000 C   0  0  0  0  0  0  0  0  0  0  0  0
   10.2020   10.7325    0.0000 C   0  0  0  0  0  0  0  0  0  0  0  0
   11.2355    9.6454    0.0000 C   0  0  0  0  0  0  0  0  0  0  0  0
   12.1537    8.4592    0.0000 C   0  0  0  0  0  0  0  0  0  0  0  0
   12.9471    7.1862    0.0000 C   0  0  0  0  0  0  0  0  0  0  0  0
   13.6077    5.8395    0.0000 C   0  0  0  0  0  0  0  0  0  0  0  0
   14.1287    4.4329    0.0000 C   0  0  0  0  0  0  0  0  0  0  0  0
   14.5046    2.9808    0.0000 C   0  0  0  0  0  0  0  0  0  0  0  0
   15.9739    3.2827    0.0000 C   0  0  0  0  0  0  0  0  0  0  0  0
   14.7318    1.4981    0.0000 N   0  0  0  0  0  0  0  0  0  0  0  0
  1  2  1  0
  2  3  1  0
  3  4  1  0
  4  5  1  0
  5  6  1  0
  6  7  1  0
  7  8  1  0
  8  9  1  0
  9 10  1  0
 10 11  1  0
 11 12  1  0
 12 13  1  0
 13 14  1  0
 14 15  1  0
 15 16  1  0
 16 17  1  0
 17 18  1  0
 18 19  1  0
 19 20  1  0
 20 21  1  0
 21 22  1  0
 22 23  1  0
 23 24  1  0
 24 25  1  0
 25 26  1  0
 26 27  1  0
 27 28  1  0
 28 29  1  0
 29 30  1  0
 30 31  1  0
 31 32  1  0
 32 33  1  0
 33 34  1  0
 34 35  1  0
 35 36  1  0
 36 37  1  0
 37 38  1  0
 38 39  1  0
 39 40  1  0
 40 41  1  0
 41 42  1  0
 42 43  1  0
 43 44  1  0
 44 45  1  0
 45 46  1  0
 46 47  1  0
 47 48  1  0
 48 49  1  0
 49 50  1  0
 50 51  1  0
 51 52  1  0
 52 53  1  0
 53 54  1  0
 54 55  1  0
 55 56  1  0
 56 57  1  0
 57 58  1  0
 58 59  1  0
 59 60  1  0
 60 61  1  0
 61 62  1  0
 62 63  1  0
 62 64  1  0
 64  2  1  0
M  END
>  <Title>  (462) 
idAAPVgen8

$$$$

     RDKit          2D

109109  0  0  0  0  0  0  0  0999 V2000
   27.0480   -0.0000    0.0000 C   0  0  0  0  0  0  0  0  0  0  0  0
   25.5480    0.0000    0.0000 C   0  0  0  0  0  0  0  0  0  0  0  0
   25.5040    1.4994    0.0000 C   0  0  0  0  0  0  0  0  0  0  0  0
   25.3721    2.9935    0.0000 C   0  0  0  0  0  0  0  0  0  0  0  0
   25.1526    4.4774    0.0000 C   0  0  0  0  0  0  0  0  0  0  0  0
   24.8465    5.9458    0.0000 C   0  0  0  0  0  0  0  0  0  0  0  0
   24.4547    7.3938    0.0000 C   0  0  0  0  0  0  0  0  0  0  0  0
   23.9787    8.8162    0.0000 C   0  0  0  0  0  0  0  0  0  0  0  0
   23.4199   10.2083    0.0000 C   0  0  0  0  0  0  0  0  0  0  0  0
   22.7805   11.5651    0.0000 C   0  0  0  0  0  0  0  0  0  0  0  0
   22.0625   12.8821    0.0000 C   0  0  0  0  0  0  0  0  0  0  0  0
   21.2684   14.1547    0.0000 C   0  0  0  0  0  0  0  0  0  0  0  0
   20.4011   15.3785    0.0000 C   0  0  0  0  0  0  0  0  0  0  0  0
   19.4634   16.5493    0.0000 C   0  0  0  0  0  0  0  0  0  0  0  0
   18.4586   17.6630    0.0000 C   0  0  0  0  0  0  0  0  0  0  0  0
   17.3902   18.7159    0.0000 C   0  0  0  0  0  0  0  0  0  0  0  0
   16.2618   19.7042    0.0000 C   0  0  0  0  0  0  0  0  0  0  0  0
   15.0774   20.6246    0.0000 C   0  0  0  0  0  0  0  0  0  0  0  0
   13.8410   21.4739    0.0000 C   0  0  0  0  0  0  0  0  0  0  0  0
   12.5569   22.2492    0.0000 C   0  0  0  0  0  0  0  0  0  0  0  0
   11.2295   22.9478    0.0000 C   0  0  0  0  0  0  0  0  0  0  0  0
    9.8634   23.5673    0.0000 C   0  0  0  0  0  0  0  0  0  0  0  0
    8.4633   24.1055    0.0000 C   0  0  0  0  0  0  0  0  0  0  0  0
    7.0340   24.5606    0.0000 C   0  0  0  0  0  0  0  0  0  0  0  0
    5.5805   24.9311    0.0000 C   0  0  0  0  0  0  0  0  0  0  0  0
    4.1077   25.2157    0.0000 C   0  0  0  0  0  0  0  0  0  0  0  0
    2.6208   25.4133    0.0000 C   0  0  0  0  0  0  0  0  0  0  0  0
    1.1248   25.5233    0.0000 C   0  0  0  0  0  0  0  0  0  0  0  0
   -0.3750   25.5453    0.0000 C   0  0  0  0  0  0  0  0  0  0  0  0
   -1.8736   25.4792    0.0000 C   0  0  0  0  0  0  0  0  0  0  0  0
   -3.3657   25.3254    0.0000 C   0  0  0  0  0  0  0  0  0  0  0  0
   -4.8462   25.0842    0.0000 C   0  0  0  0  0  0  0  0  0  0  0  0
   -6.3099   24.7566    0.0000 C   0  0  0  0  0  0  0  0  0  0  0  0
   -7.7520   24.3436    0.0000 C   0  0  0  0  0  0  0  0  0  0  0  0
   -9.1673   23.8467    0.0000 C   0  0  0  0  0  0  0  0  0  0  0  0
  -10.5510   23.2676    0.0000 C   0  0  0  0  0  0  0  0  0  0  0  0
  -11.8983   22.6082    0.0000 C   0  0  0  0  0  0  0  0  0  0  0  0
  -13.2046   21.8710    0.0000 C   0  0  0  0  0  0  0  0  0  0  0  0
  -14.4654   21.0583    0.0000 C   0  0  0  0  0  0  0  0  0  0  0  0
  -15.6763   20.1731    0.0000 C   0  0  0  0  0  0  0  0  0  0  0  0
  -16.8332   19.2183    0.0000 C   0  0  0  0  0  0  0  0  0  0  0  0
  -17.9321   18.1973    0.0000 C   0  0  0  0  0  0  0  0  0  0  0  0
  -18.9692   17.1135    0.0000 C   0  0  0  0  0  0  0  0  0  0  0  0
  -19.9408   15.9708    0.0000 C   0  0  0  0  0  0  0  0  0  0  0  0
  -20.8437   14.7730    0.0000 C   0  0  0  0  0  0  0  0  0  0  0  0
  -21.6748   13.5243    0.0000 C   0  0  0  0  0  0  0  0  0  0  0  0
  -22.4311   12.2289    0.0000 C   0  0  0  0  0  0  0  0  0  0  0  0
  -23.1102   10.8914    0.0000 C   0  0  0  0  0  0  0  0  0  0  0  0
  -23.7095    9.5163    0.0000 C   0  0  0  0  0  0  0  0  0  0  0  0
  -24.2271    8.1085    0.0000 C   0  0  0  0  0  0  0  0  0  0  0  0
  -24.6613    6.6727    0.0000 C   0  0  0  0  0  0  0  0  0  0  0  0
  -25.0104    5.2139    0.0000 C   0  0  0  0  0  0  0  0  0  0  0  0
  -25.2732    3.7371    0.0000 C   0  0  0  0  0  0  0  0  0  0  0  0
  -25.4490    2.2474    0.0000 C   0  0  0  0  0  0  0  0  0  0  0  0
  -25.5370    0.7500    0.0000 C   0  0  0  0  0  0  0  0  0  0  0  0
  -25.5370   -0.7500    0.0000 C   0  0  0  0  0  0  0  0  0  0  0  0
  -25.4490   -2.2474    0.0000 C   0  0  0  0  0  0  0  0  0  0  0  0
  -25.2732   -3.7371    0.0000 C   0  0  0  0  0  0  0  0  0  0  0  0
  -25.0104   -5.2139    0.0000 C   0  0  0  0  0  0  0  0  0  0  0  0
  -24.6613   -6.6727    0.0000 C   0  0  0  0  0  0  0  0  0  0  0  0
  -24.2271   -8.1085    0.0000 C   0  0  0  0  0  0  0  0  0  0  0  0
  -23.7095   -9.5163    0.0000 C   0  0  0  0  0  0  0  0  0  0  0  0
  -23.1102  -10.8914    0.0000 C   0  0  0  0  0  0  0  0  0  0  0  0
  -22.4311  -12.2289    0.0000 C   0  0  0  0  0  0  0  0  0  0  0  0
  -21.6748  -13.5243    0.0000 C   0  0  0  0  0  0  0  0  0  0  0  0
  -20.8437  -14.7730    0.0000 C   0  0  0  0  0  0  0  0  0  0  0  0
  -19.9408  -15.9708    0.0000 C   0  0  0  0  0  0  0  0  0  0  0  0
  -18.9692  -17.1135    0.0000 C   0  0  0  0  0  0  0  0  0  0  0  0
  -17.9321  -18.1973    0.0000 C   0  0  0  0  0  0  0  0  0  0  0  0
  -16.8332  -19.2183    0.0000 C   0  0  0  0  0  0  0  0  0  0  0  0
  -15.6763  -20.1731    0.0000 C   0  0  0  0  0  0  0  0  0  0  0  0
  -14.4654  -21.0583    0.0000 C   0  0  0  0  0  0  0  0  0  0  0  0
  -13.2046  -21.8710    0.0000 C   0  0  0  0  0  0  0  0  0  0  0  0
  -11.8983  -22.6082    0.0000 C   0  0  0  0  0  0  0  0  0  0  0  0
  -10.5510  -23.2676    0.0000 C   0  0  0  0  0  0  0  0  0  0  0  0
   -9.1673  -23.8467    0.0000 C   0  0  0  0  0  0  0  0  0  0  0  0
   -7.7520  -24.3436    0.0000 C   0  0  0  0  0  0  0  0  0  0  0  0
   -6.3099  -24.7566    0.0000 C   0  0  0  0  0  0  0  0  0  0  0  0
   -4.8462  -25.0842    0.0000 C   0  0  0  0  0  0  0  0  0  0  0  0
   -3.3657  -25.3254    0.0000 C   0  0  0  0  0  0  0  0  0  0  0  0
   -1.8736  -25.4792    0.0000 C   0  0  0  0  0  0  0  0  0  0  0  0
   -0.3750  -25.5453    0.0000 C   0  0  0  0  0  0  0  0  0  0  0  0
    1.1248  -25.5233    0.0000 C   0  0  0  0  0  0  0  0  0  0  0  0
    2.6208  -25.4133    0.0000 C   0  0  0  0  0  0  0  0  0  0  0  0
    4.1077  -25.2157    0.0000 C   0  0  0  0  0  0  0  0  0  0  0  0
    5.5805  -24.9311    0.0000 C   0  0  0  0  0  0  0  0  0  0  0  0
    7.0340  -24.5606    0.0000 C   0  0  0  0  0  0  0  0  0  0  0  0
    8.4633  -24.1055    0.0000 C   0  0  0  0  0  0  0  0  0  0  0  0
    9.8634  -23.5673    0.0000 C   0  0  0  0  0  0  0  0  0  0  0  0
   11.2295  -22.9478    0.0000 C   0  0  0  0  0  0  0  0  0  0  0  0
   12.5569  -22.2492    0.0000 C   0  0  0  0  0  0  0  0  0  0  0  0
   13.8410  -21.4739    0.0000 C   0  0  0  0  0  0  0  0  0  0  0  0
   15.0774  -20.6246    0.0000 C   0  0  0  0  0  0  0  0  0  0  0  0
   16.2618  -19.7042    0.0000 C   0  0  0  0  0  0  0  0  0  0  0  0
   17.3902  -18.7159    0.0000 C   0  0  0  0  0  0  0  0  0  0  0  0
   18.4586  -17.6630    0.0000 C   0  0  0  0  0  0  0  0  0  0  0  0
   19.4634  -16.5493    0.0000 C   0  0  0  0  0  0  0  0  0  0  0  0
   20.4011  -15.3785    0.0000 C   0  0  0  0  0  0  0  0  0  0  0  0
   21.2684  -14.1547    0.0000 C   0  0  0  0  0  0  0  0  0  0  0  0
   22.0625  -12.8821    0.0000 C   0  0  0  0  0  0  0  0  0  0  0  0
   22.7805  -11.5651    0.0000 C   0  0  0  0  0  0  0  0  0  0  0  0
   23.4199  -10.2083    0.0000 C   0  0  0  0  0  0  0  0  0  0  0  0
   23.9787   -8.8162    0.0000 C   0  0  0  0  0  0  0  0  0  0  0  0
   24.4547   -7.3938    0.0000 C   0  0  0  0  0  0  0  0  0  0  0  0
   24.8465   -5.9458    0.0000 C   0  0  0  0  0  0  0  0  0  0  0  0
   25.1526   -4.4774    0.0000 C   0  0  0  0  0  0  0  0  0  0  0  0
   25.3721   -2.9935    0.0000 C   0  0  0  0  0  0  0  0  0  0  0  0
   26.8617   -3.1693    0.0000 C   0  0  0  0  0  0  0  0  0  0  0  0
   25.5040   -1.4994    0.0000 C   0  0  0  0  0  0  0  0  0  0  0  0
  1  2  1  0
  2  3  1  0
  3  4  1  0
  4  5  1  0
  5  6  1  0
  6  7  1  0
  7  8  1  0
  8  9  1  0
  9 10  1  0
 10 11  1  0
 11 12  1  0
 12 13  1  0
 13 14  1  0
 14 15  1  0
 15 16  1  0
 16 17  1  0
 17 18  1  0
 18 19  1  0
 19 20  1  0
 20 21  1  0
 21 22  1  0
 22 23  1  0
 23 24  1  0
 24 25  1  0
 25 26  1  0
 26 27  1  0
 27 28  1  0
 28 29  1  0
 29 30  1  0
 30 31  1  0
 31 32  1  0
 32 33  1  0
 33 34  1  0
 34 35  1  0
 35 36  1  0
 36 37  1  0
 37 38  1  0
 38 39  1  0
 39 40  1  0
 40 41  1  0
 41 42  1  0
 42 43  1  0
 43 44  1  0
 44 45  1  0
 45 46  1  0
 46 47  1  0
 47 48  1  0
 48 49  1  0
 49 50  1  0
 50 51  1  0
 51 52  1  0
 52 53  1  0
 53 54  1  0
 54 55  1  0
 55 56  1  0
 56 57  1  0
 57 58  1  0
 58 59  1  0
 59 60  1  0
 60 61  1  0
 61 62  1  0
 62 63  1  0
 63 64  1  0
 64 65  1  0
 65 66  1  0
 66 67  1  0
 67 68  1  0
 68 69  1  0
 69 70  1  0
 70 71  1  0
 71 72  1  0
 72 73  1  0
 73 74  1  0
 74 75  1  0
 75 76  1  0
 76 77  1  0
 77 78  1  0
 78 79  1  0
 79 80  1  0
 80 81  1  0
 81 82  1  0
 82 83  1  0
 83 84  1  0
 84 85  1  0
 85 86  1  0
 86 87  1  0
 87 88  1  0
 88 89  1  0
 89 90  1  0
 90 91  1  0
 91 92  1  0
 92 93  1  0
 93 94  1  0
 94 95  1  0
 95 96  1  0
 96 97  1  0
 97 98  1  0
 98 99  1  0
 99100  1  0
100101  1  0
101102  1  0
102103  1  0
103104  1  0
104105  1  0
105106  1  0
106107  1  0
107108  1  0
107109  1  0
109  2  1  0
M  END
>  <Title>  (463) 
idAAPWgen8

$$$$

     RDKit          2D

 11 11  0  0  0  0  0  0  0  0999 V2000
    4.5000    0.0000    0.0000 C   0  0  0  0  0  0  0  0  0  0  0  0
    3.0000    0.0000    0.0000 C   0  0  0  0  0  0  0  0  0  0  0  0
    1.5000    0.0000    0.0000 C   0  0  0  0  0  0  0  0  0  0  0  0
    0.7500   -1.2990    0.0000 C   0  0  0  0  0  0  0  0  0  0  0  0
   -0.7500   -1.2990    0.0000 C   0  0  0  0  0  0  0  0  0  0  0  0
   -1.5000    0.0000    0.0000 C   0  0  0  0  0  0  0  0  0  0  0  0
   -0.7500    1.2990    0.0000 C   0  0  0  0  0  0  0  0  0  0  0  0
   -1.5000    2.5981    0.0000 C   0  0  0  0  0  0  0  0  0  0  0  0
   -0.7500    3.8971    0.0000 C   0  0  0  0  0  0  0  0  0  0  0  0
   -3.0000    2.5981    0.0000 C   0  0  0  0  0  0  0  0  0  0  0  0
    0.7500    1.2990    0.0000 C   0  0  0  0  0  0  0  0  0  0  0  0
  1  2  3  0
  2  3  1  0
  3  4  2  0
  4  5  1  0
  5  6  1  0
  6  7  1  0
  7  8  1  0
  8  9  1  0
  8 10  1  0
  7 11  1  0
 11  3  1  0
M  END
>  <Title>  (464) 
idAAPXgen8

$$$$

     RDKit          2D

  8  7  0  0  0  0  0  0  0  0999 V2000
    0.0000    0.0000    0.0000 C   0  0  0  0  0  0  0  0  0  0  0  0
    1.2990    0.7500    0.0000 C   0  0  0  0  0  0  0  0  0  0  0  0
    2.5981   -0.0000    0.0000 C   0  0  0  0  0  0  0  0  0  0  0  0
    2.5981   -1.5000    0.0000 O   0  0  0  0  0  0  0  0  0  0  0  0
    3.8971    0.7500    0.0000 C   0  0  0  0  0  0  0  0  0  0  0  0
    5.1962   -0.0000    0.0000 C   0  0  0  0  0  0  0  0  0  0  0  0
    6.4952    0.7500    0.0000 C   0  0  0  0  0  0  0  0  0  0  0  0
    5.1962   -1.5000    0.0000 C   0  0  0  0  0  0  0  0  0  0  0  0
  1  2  1  0
  2  3  1  0
  3  4  2  0
  3  5  1  0
  5  6  1  0
  6  7  1  0
  6  8  1  0
M  END
>  <Title>  (465) 
idAAPYgen8

$$$$

     RDKit          2D

 55 63  0  0  0  0  0  0  0  0999 V2000
    5.3686   -3.7837    0.0000 C   0  0  0  0  0  0  0  0  0  0  0  0
    3.9258   -4.1942    0.0000 C   0  0  0  0  0  0  0  0  0  0  0  0
    3.2572   -2.8514    0.0000 C   0  0  0  0  0  0  0  0  0  0  0  0
    2.1487   -1.8409    0.0000 C   0  0  0  0  0  0  0  0  0  0  0  0
    2.9384   -0.5656    0.0000 N   0  0  0  0  0  0  0  0  0  0  0  0
    4.4376   -0.6118    0.0000 C   0  0  0  0  0  0  0  0  0  0  0  0
    5.1473   -1.9333    0.0000 O   0  0  0  0  0  0  0  0  0  0  0  0
    5.2273    0.6636    0.0000 C   0  0  0  0  0  0  0  0  0  0  0  0
    6.7266    0.6174    0.0000 C   0  0  0  0  0  0  0  0  0  0  0  0
    7.5162    1.8927    0.0000 C   0  0  0  0  0  0  0  0  0  0  0  0
    6.8066    3.2142    0.0000 C   0  0  0  0  0  0  0  0  0  0  0  0
    5.3073    3.2604    0.0000 N   0  0  0  0  0  0  0  0  0  0  0  0
    4.5177    1.9851    0.0000 N   0  0  0  0  0  0  0  0  0  0  0  0
    0.7500   -1.2990    0.0000 C   0  0  0  0  0  0  0  0  0  0  0  0
    1.5000    0.0000    0.0000 C   0  0  0  0  0  0  0  0  0  0  0  0
    0.7500    1.2990    0.0000 C   0  0  0  0  0  0  0  0  0  0  0  0
   -0.7500    1.2990    0.0000 C   0  0  0  0  0  0  0  0  0  0  0  0
   -1.5000    0.0000    0.0000 C   0  0  0  0  0  0  0  0  0  0  0  0
   -0.7500   -1.2990    0.0000 C   0  0  0  0  0  0  0  0  0  0  0  0
   -2.1487   -1.8409    0.0000 C   0  0  0  0  0  0  0  0  0  0  0  0
   -2.4696   -0.3756    0.0000 C   0  0  0  0  0  0  0  0  0  0  0  0
   -3.8990    0.0791    0.0000 C   0  0  0  0  0  0  0  0  0  0  0  0
   -5.0075   -0.9314    0.0000 C   0  0  0  0  0  0  0  0  0  0  0  0
   -4.6866   -2.3967    0.0000 C   0  0  0  0  0  0  0  0  0  0  0  0
   -3.2572   -2.8514    0.0000 C   0  0  0  0  0  0  0  0  0  0  0  0
   -3.9258   -4.1942    0.0000 C   0  0  0  0  0  0  0  0  0  0  0  0
   -5.1501   -3.3275    0.0000 C   0  0  0  0  0  0  0  0  0  0  0  0
   -6.5128   -3.9545    0.0000 C   0  0  0  0  0  0  0  0  0  0  0  0
   -6.6512   -5.4481    0.0000 C   0  0  0  0  0  0  0  0  0  0  0  0
   -5.4269   -6.3147    0.0000 C   0  0  0  0  0  0  0  0  0  0  0  0
   -4.0642   -5.6878    0.0000 C   0  0  0  0  0  0  0  0  0  0  0  0
   -3.6537   -7.1305    0.0000 C   0  0  0  0  0  0  0  0  0  0  0  0
   -5.1424   -7.3149    0.0000 C   0  0  0  0  0  0  0  0  0  0  0  0
   -5.7270   -8.6962    0.0000 C   0  0  0  0  0  0  0  0  0  0  0  0
   -4.8231   -9.8932    0.0000 C   0  0  0  0  0  0  0  0  0  0  0  0
   -3.3345   -9.7089    0.0000 C   0  0  0  0  0  0  0  0  0  0  0  0
   -2.7498   -8.3276    0.0000 C   0  0  0  0  0  0  0  0  0  0  0  0
   -1.4745   -9.1172    0.0000 C   0  0  0  0  0  0  0  0  0  0  0  0
   -2.4504  -10.2563    0.0000 C   0  0  0  0  0  0  0  0  0  0  0  0
   -1.9519  -11.6710    0.0000 C   0  0  0  0  0  0  0  0  0  0  0  0
   -0.4774  -11.9467    0.0000 C   0  0  0  0  0  0  0  0  0  0  0  0
    0.4985  -10.8076    0.0000 C   0  0  0  0  0  0  0  0  0  0  0  0
   -0.0000   -9.3928    0.0000 C   0  0  0  0  0  0  0  0  0  0  0  0
    1.4745   -9.1172    0.0000 C   0  0  0  0  0  0  0  0  0  0  0  0
    1.5207  -10.6165    0.0000 C   0  0  0  0  0  0  0  0  0  0  0  0
    2.8422  -11.3261    0.0000 C   0  0  0  0  0  0  0  0  0  0  0  0
    4.1175  -10.5365    0.0000 C   0  0  0  0  0  0  0  0  0  0  0  0
    4.0713   -9.0372    0.0000 C   0  0  0  0  0  0  0  0  0  0  0  0
    2.7498   -8.3276    0.0000 C   0  0  0  0  0  0  0  0  0  0  0  0
    3.6537   -7.1305    0.0000 C   0  0  0  0  0  0  0  0  0  0  0  0
    4.6979   -8.2074    0.0000 C   0  0  0  0  0  0  0  0  0  0  0  0
    6.1526   -7.8415    0.0000 C   0  0  0  0  0  0  0  0  0  0  0  0
    6.5631   -6.3988    0.0000 C   0  0  0  0  0  0  0  0  0  0  0  0
    5.5189   -5.3219    0.0000 C   0  0  0  0  0  0  0  0  0  0  0  0
    4.0642   -5.6878    0.0000 C   0  0  0  0  0  0  0  0  0  0  0  0
  1  2  1  0
  2  3  2  0
  3  4  1  0
  4  5  1  0
  5  6  1  0
  6  7  2  0
  6  8  1  0
  8  9  2  0
  9 10  1  0
 10 11  2  0
 11 12  1  0
 12 13  2  0
  4 14  1  0
 14 15  2  0
 15 16  1  0
 16 17  2  0
 17 18  1  0
 18 19  2  0
 19 20  1  0
 20 21  2  0
 21 22  1  0
 22 23  2  0
 23 24  1  0
 24 25  2  0
 25 26  1  0
 26 27  2  0
 27 28  1  0
 28 29  2  0
 29 30  1  0
 30 31  2  0
 31 32  1  0
 32 33  2  0
 33 34  1  0
 34 35  2  0
 35 36  1  0
 36 37  2  0
 37 38  1  0
 38 39  2  0
 39 40  1  0
 40 41  2  0
 41 42  1  0
 42 43  2  0
 43 44  1  0
 44 45  2  0
 45 46  1  0
 46 47  2  0
 47 48  1  0
 48 49  2  0
 49 50  1  0
 50 51  2  0
 51 52  1  0
 52 53  2  0
 53 54  1  0
 54 55  2  0
 55  2  1  0
 13  8  1  0
 19 14  1  0
 25 20  1  0
 31 26  1  0
 37 32  1  0
 43 38  1  0
 49 44  1  0
 55 50  1  0
M  END
>  <Title>  (466) 
idAAPZgen8

$$$$

     RDKit          2D

  5  4  0  0  0  0  0  0  0  0999 V2000
    0.0000    0.0000    0.0000 C   0  0  0  0  0  0  0  0  0  0  0  0
    1.2990    0.7500    0.0000 C   0  0  0  0  0  0  0  0  0  0  0  0
    2.5981   -0.0000    0.0000 C   0  0  0  0  0  0  0  0  0  0  0  0
    3.8971    0.7500    0.0000 C   0  0  0  0  0  0  0  0  0  0  0  0
    5.1962   -0.0000    0.0000 C   0  0  0  0  0  0  0  0  0  0  0  0
  1  2  1  0
  2  3  2  3
  3  4  1  0
  4  5  1  0
M  END
>  <Title>  (467) 
idAAQAgen8

$$$$

     RDKit          2D

 89 89  0  0  0  0  0  0  0  0999 V2000
   22.5129    0.0000    0.0000 O   0  0  0  0  0  0  0  0  0  0  0  0
   21.0129    0.0000    0.0000 C   0  0  0  0  0  0  0  0  0  0  0  0
   20.9594   -1.4990    0.0000 C   0  0  0  0  0  0  0  0  0  0  0  0
   20.7990   -2.9904    0.0000 C   0  0  0  0  0  0  0  0  0  0  0  0
   20.5327   -4.4666    0.0000 C   0  0  0  0  0  0  0  0  0  0  0  0
   20.1617   -5.9200    0.0000 C   0  0  0  0  0  0  0  0  0  0  0  0
   19.6880   -7.3433    0.0000 C   0  0  0  0  0  0  0  0  0  0  0  0
   19.1140   -8.7291    0.0000 C   0  0  0  0  0  0  0  0  0  0  0  0
   18.4426  -10.0704    0.0000 C   0  0  0  0  0  0  0  0  0  0  0  0
   17.6772  -11.3604    0.0000 C   0  0  0  0  0  0  0  0  0  0  0  0
   16.8217  -12.5926    0.0000 C   0  0  0  0  0  0  0  0  0  0  0  0
   15.8805  -13.7605    0.0000 C   0  0  0  0  0  0  0  0  0  0  0  0
   14.8584  -14.8584    0.0000 C   0  0  0  0  0  0  0  0  0  0  0  0
   13.7605  -15.8805    0.0000 C   0  0  0  0  0  0  0  0  0  0  0  0
   12.5926  -16.8217    0.0000 C   0  0  0  0  0  0  0  0  0  0  0  0
   11.3604  -17.6772    0.0000 C   0  0  0  0  0  0  0  0  0  0  0  0
   10.0704  -18.4426    0.0000 C   0  0  0  0  0  0  0  0  0  0  0  0
    8.7291  -19.1140    0.0000 C   0  0  0  0  0  0  0  0  0  0  0  0
    7.3433  -19.6880    0.0000 C   0  0  0  0  0  0  0  0  0  0  0  0
    5.9200  -20.1617    0.0000 C   0  0  0  0  0  0  0  0  0  0  0  0
    4.4666  -20.5327    0.0000 C   0  0  0  0  0  0  0  0  0  0  0  0
    2.9904  -20.7990    0.0000 C   0  0  0  0  0  0  0  0  0  0  0  0
    1.4990  -20.9594    0.0000 C   0  0  0  0  0  0  0  0  0  0  0  0
   -0.0000  -21.0129    0.0000 C   0  0  0  0  0  0  0  0  0  0  0  0
   -1.4990  -20.9594    0.0000 C   0  0  0  0  0  0  0  0  0  0  0  0
   -2.9904  -20.7990    0.0000 C   0  0  0  0  0  0  0  0  0  0  0  0
   -4.4666  -20.5327    0.0000 C   0  0  0  0  0  0  0  0  0  0  0  0
   -5.9200  -20.1617    0.0000 C   0  0  0  0  0  0  0  0  0  0  0  0
   -7.3433  -19.6880    0.0000 C   0  0  0  0  0  0  0  0  0  0  0  0
   -8.7291  -19.1140    0.0000 C   0  0  0  0  0  0  0  0  0  0  0  0
  -10.0704  -18.4426    0.0000 C   0  0  0  0  0  0  0  0  0  0  0  0
  -11.3604  -17.6772    0.0000 C   0  0  0  0  0  0  0  0  0  0  0  0
  -12.5926  -16.8217    0.0000 C   0  0  0  0  0  0  0  0  0  0  0  0
  -13.7605  -15.8805    0.0000 C   0  0  0  0  0  0  0  0  0  0  0  0
  -14.8584  -14.8584    0.0000 C   0  0  0  0  0  0  0  0  0  0  0  0
  -15.8805  -13.7605    0.0000 C   0  0  0  0  0  0  0  0  0  0  0  0
  -16.8217  -12.5926    0.0000 C   0  0  0  0  0  0  0  0  0  0  0  0
  -17.6772  -11.3604    0.0000 C   0  0  0  0  0  0  0  0  0  0  0  0
  -18.4426  -10.0704    0.0000 C   0  0  0  0  0  0  0  0  0  0  0  0
  -19.1140   -8.7291    0.0000 C   0  0  0  0  0  0  0  0  0  0  0  0
  -19.6880   -7.3433    0.0000 C   0  0  0  0  0  0  0  0  0  0  0  0
  -20.1617   -5.9200    0.0000 C   0  0  0  0  0  0  0  0  0  0  0  0
  -20.5327   -4.4666    0.0000 C   0  0  0  0  0  0  0  0  0  0  0  0
  -20.7990   -2.9904    0.0000 C   0  0  0  0  0  0  0  0  0  0  0  0
  -20.9594   -1.4990    0.0000 C   0  0  0  0  0  0  0  0  0  0  0  0
  -21.0129    0.0000    0.0000 C   0  0  0  0  0  0  0  0  0  0  0  0
  -20.9594    1.4990    0.0000 C   0  0  0  0  0  0  0  0  0  0  0  0
  -20.7990    2.9904    0.0000 C   0  0  0  0  0  0  0  0  0  0  0  0
  -20.5327    4.4666    0.0000 C   0  0  0  0  0  0  0  0  0  0  0  0
  -20.1617    5.9200    0.0000 C   0  0  0  0  0  0  0  0  0  0  0  0
  -19.6880    7.3433    0.0000 C   0  0  0  0  0  0  0  0  0  0  0  0
  -19.1140    8.7291    0.0000 C   0  0  0  0  0  0  0  0  0  0  0  0
  -18.4426   10.0704    0.0000 C   0  0  0  0  0  0  0  0  0  0  0  0
  -17.6772   11.3604    0.0000 C   0  0  0  0  0  0  0  0  0  0  0  0
  -16.8217   12.5926    0.0000 C   0  0  0  0  0  0  0  0  0  0  0  0
  -15.8805   13.7605    0.0000 C   0  0  0  0  0  0  0  0  0  0  0  0
  -14.8584   14.8584    0.0000 C   0  0  0  0  0  0  0  0  0  0  0  0
  -13.7605   15.8805    0.0000 C   0  0  0  0  0  0  0  0  0  0  0  0
  -12.5926   16.8217    0.0000 C   0  0  0  0  0  0  0  0  0  0  0  0
  -11.3604   17.6772    0.0000 C   0  0  0  0  0  0  0  0  0  0  0  0
  -10.0704   18.4426    0.0000 C   0  0  0  0  0  0  0  0  0  0  0  0
   -8.7291   19.1140    0.0000 C   0  0  0  0  0  0  0  0  0  0  0  0
   -7.3433   19.6880    0.0000 C   0  0  0  0  0  0  0  0  0  0  0  0
   -5.9200   20.1617    0.0000 C   0  0  0  0  0  0  0  0  0  0  0  0
   -4.4666   20.5327    0.0000 C   0  0  0  0  0  0  0  0  0  0  0  0
   -2.9904   20.7990    0.0000 C   0  0  0  0  0  0  0  0  0  0  0  0
   -1.4990   20.9594    0.0000 C   0  0  0  0  0  0  0  0  0  0  0  0
    0.0000   21.0129    0.0000 C   0  0  0  0  0  0  0  0  0  0  0  0
    1.4990   20.9594    0.0000 C   0  0  0  0  0  0  0  0  0  0  0  0
    2.9904   20.7990    0.0000 C   0  0  0  0  0  0  0  0  0  0  0  0
    4.4666   20.5327    0.0000 C   0  0  0  0  0  0  0  0  0  0  0  0
    5.9200   20.1617    0.0000 C   0  0  0  0  0  0  0  0  0  0  0  0
    7.3433   19.6880    0.0000 C   0  0  0  0  0  0  0  0  0  0  0  0
    8.7291   19.1140    0.0000 C   0  0  0  0  0  0  0  0  0  0  0  0
   10.0704   18.4426    0.0000 C   0  0  0  0  0  0  0  0  0  0  0  0
   11.3604   17.6772    0.0000 C   0  0  0  0  0  0  0  0  0  0  0  0
   12.5926   16.8217    0.0000 C   0  0  0  0  0  0  0  0  0  0  0  0
   13.7605   15.8805    0.0000 C   0  0  0  0  0  0  0  0  0  0  0  0
   14.8584   14.8584    0.0000 C   0  0  0  0  0  0  0  0  0  0  0  0
   15.8805   13.7605    0.0000 C   0  0  0  0  0  0  0  0  0  0  0  0
   16.8217   12.5926    0.0000 C   0  0  0  0  0  0  0  0  0  0  0  0
   17.6772   11.3604    0.0000 C   0  0  0  0  0  0  0  0  0  0  0  0
   18.4426   10.0704    0.0000 C   0  0  0  0  0  0  0  0  0  0  0  0
   19.1140    8.7291    0.0000 C   0  0  0  0  0  0  0  0  0  0  0  0
   19.6880    7.3433    0.0000 C   0  0  0  0  0  0  0  0  0  0  0  0
   20.1617    5.9200    0.0000 C   0  0  0  0  0  0  0  0  0  0  0  0
   20.5327    4.4666    0.0000 C   0  0  0  0  0  0  0  0  0  0  0  0
   20.7990    2.9904    0.0000 C   0  0  0  0  0  0  0  0  0  0  0  0
   20.9594    1.4990    0.0000 C   0  0  0  0  0  0  0  0  0  0  0  0
  1  2  1  0
  2  3  1  0
  3  4  1  0
  4  5  1  0
  5  6  1  0
  6  7  1  0
  7  8  1  0
  8  9  1  0
  9 10  1  0
 10 11  1  0
 11 12  1  0
 12 13  1  0
 13 14  1  0
 14 15  1  0
 15 16  1  0
 16 17  1  0
 17 18  1  0
 18 19  1  0
 19 20  1  0
 20 21  1  0
 21 22  1  0
 22 23  1  0
 23 24  1  0
 24 25  1  0
 25 26  1  0
 26 27  1  0
 27 28  1  0
 28 29  1  0
 29 30  1  0
 30 31  1  0
 31 32  1  0
 32 33  1  0
 33 34  1  0
 34 35  1  0
 35 36  1  0
 36 37  1  0
 37 38  1  0
 38 39  1  0
 39 40  1  0
 40 41  1  0
 41 42  1  0
 42 43  1  0
 43 44  1  0
 44 45  1  0
 45 46  1  0
 46 47  1  0
 47 48  1  0
 48 49  1  0
 49 50  1  0
 50 51  1  0
 51 52  1  0
 52 53  1  0
 53 54  1  0
 54 55  1  0
 55 56  1  0
 56 57  1  0
 57 58  1  0
 58 59  1  0
 59 60  1  0
 60 61  1  0
 61 62  1  0
 62 63  1  0
 63 64  1  0
 64 65  1  0
 65 66  1  0
 66 67  1  0
 67 68  1  0
 68 69  1  0
 69 70  1  0
 70 71  1  0
 71 72  1  0
 72 73  1  0
 73 74  1  0
 74 75  1  0
 75 76  1  0
 76 77  1  0
 77 78  1  0
 78 79  1  0
 79 80  1  0
 80 81  1  0
 81 82  1  0
 82 83  1  0
 83 84  1  0
 84 85  1  0
 85 86  1  0
 86 87  1  0
 87 88  1  0
 88 89  1  0
 89  2  1  0
M  END
>  <Title>  (468) 
idAAQBgen8

$$$$

     RDKit          2D

 10 10  0  0  0  0  0  0  0  0999 V2000
    3.2286   -0.0000    0.0000 C   0  0  0  0  0  0  0  0  0  0  0  0
    1.7286    0.0000    0.0000 C   0  0  0  0  0  0  0  0  0  0  0  0
    1.0777    1.3515    0.0000 C   0  0  0  0  0  0  0  0  0  0  0  0
   -0.3846    1.6852    0.0000 C   0  0  0  0  0  0  0  0  0  0  0  0
   -1.5574    0.7500    0.0000 C   0  0  0  0  0  0  0  0  0  0  0  0
   -1.5574   -0.7500    0.0000 C   0  0  0  0  0  0  0  0  0  0  0  0
   -2.9088   -1.4008    0.0000 C   0  0  0  0  0  0  0  0  0  0  0  0
   -0.3846   -1.6852    0.0000 N   0  0  0  0  0  0  0  0  0  0  0  0
    1.0777   -1.3515    0.0000 C   0  0  0  0  0  0  0  0  0  0  0  0
    2.0130   -2.5242    0.0000 O   0  0  0  0  0  0  0  0  0  0  0  0
  1  2  1  0
  2  3  2  0
  3  4  1  0
  4  5  1  0
  5  6  1  0
  6  7  1  0
  6  8  1  0
  8  9  1  0
  9 10  2  0
  9  2  1  0
M  END
>  <Title>  (469) 
idAAQCgen8

$$$$

     RDKit          2D

 11 10  0  0  0  0  0  0  0  0999 V2000
    0.0000    0.0000    0.0000 C   0  0  0  0  0  0  0  0  0  0  0  0
    1.2990    0.7500    0.0000 C   0  0  0  0  0  0  0  0  0  0  0  0
    2.5981   -0.0000    0.0000 C   0  0  0  0  0  0  0  0  0  0  0  0
    3.8971    0.7500    0.0000 N   0  0  0  0  0  0  0  0  0  0  0  0
    5.1962   -0.0000    0.0000 C   0  0  0  0  0  0  0  0  0  0  0  0
    5.1962   -1.5000    0.0000 O   0  0  0  0  0  0  0  0  0  0  0  0
    6.4952    0.7500    0.0000 C   0  0  0  0  0  0  0  0  0  0  0  0
    7.7942   -0.0000    0.0000 C   0  0  0  0  0  0  0  0  0  0  0  0
    8.5442    1.2990    0.0000 C   0  0  0  0  0  0  0  0  0  0  0  0
    7.0442   -1.2990    0.0000 C   0  0  0  0  0  0  0  0  0  0  0  0
    9.0933   -0.7500    0.0000 C   0  0  0  0  0  0  0  0  0  0  0  0
  1  2  1  0
  2  3  1  0
  3  4  1  0
  4  5  1  0
  5  6  2  0
  5  7  1  0
  7  8  1  0
  8  9  1  0
  8 10  1  0
  8 11  1  0
M  END
>  <Title>  (470) 
idAAQDgen8

$$$$

     RDKit          2D

120120  0  0  0  0  0  0  0  0999 V2000
   29.7076    1.2990    0.0000 C   0  0  0  0  0  0  0  0  0  0  0  0
   28.9576    0.0000    0.0000 C   0  0  0  0  0  0  0  0  0  0  0  0
   27.4576    0.0000    0.0000 C   0  0  0  0  0  0  0  0  0  0  0  0
   27.4167    1.4994    0.0000 C   0  0  0  0  0  0  0  0  0  0  0  0
   27.2939    2.9944    0.0000 C   0  0  0  0  0  0  0  0  0  0  0  0
   28.7849    3.1580    0.0000 O   0  0  0  0  0  0  0  0  0  0  0  0
   27.0896    4.4804    0.0000 C   0  0  0  0  0  0  0  0  0  0  0  0
   28.5695    4.7252    0.0000 C   0  0  0  0  0  0  0  0  0  0  0  0
   26.8045    5.9531    0.0000 C   0  0  0  0  0  0  0  0  0  0  0  0
   26.4394    7.4080    0.0000 C   0  0  0  0  0  0  0  0  0  0  0  0
   25.9954    8.8408    0.0000 C   0  0  0  0  0  0  0  0  0  0  0  0
   25.4739   10.2472    0.0000 C   0  0  0  0  0  0  0  0  0  0  0  0
   24.8763   11.6230    0.0000 C   0  0  0  0  0  0  0  0  0  0  0  0
   24.2044   12.9641    0.0000 C   0  0  0  0  0  0  0  0  0  0  0  0
   23.4603   14.2666    0.0000 C   0  0  0  0  0  0  0  0  0  0  0  0
   22.6463   15.5264    0.0000 C   0  0  0  0  0  0  0  0  0  0  0  0
   21.7646   16.7399    0.0000 C   0  0  0  0  0  0  0  0  0  0  0  0
   20.8179   17.9035    0.0000 C   0  0  0  0  0  0  0  0  0  0  0  0
   19.8092   19.0136    0.0000 C   0  0  0  0  0  0  0  0  0  0  0  0
   18.7413   20.0670    0.0000 C   0  0  0  0  0  0  0  0  0  0  0  0
   17.6175   21.0605    0.0000 C   0  0  0  0  0  0  0  0  0  0  0  0
   16.4411   21.9912    0.0000 C   0  0  0  0  0  0  0  0  0  0  0  0
   15.2156   22.8562    0.0000 C   0  0  0  0  0  0  0  0  0  0  0  0
   13.9448   23.6530    0.0000 C   0  0  0  0  0  0  0  0  0  0  0  0
   12.6323   24.3792    0.0000 C   0  0  0  0  0  0  0  0  0  0  0  0
   11.2821   25.0327    0.0000 C   0  0  0  0  0  0  0  0  0  0  0  0
    9.8983   25.6115    0.0000 C   0  0  0  0  0  0  0  0  0  0  0  0
    8.4849   26.1138    0.0000 C   0  0  0  0  0  0  0  0  0  0  0  0
    7.0462   26.5382    0.0000 C   0  0  0  0  0  0  0  0  0  0  0  0
    5.5864   26.8833    0.0000 C   0  0  0  0  0  0  0  0  0  0  0  0
    4.1100   27.1483    0.0000 C   0  0  0  0  0  0  0  0  0  0  0  0
    2.6213   27.3322    0.0000 C   0  0  0  0  0  0  0  0  0  0  0  0
    1.1248   27.4346    0.0000 C   0  0  0  0  0  0  0  0  0  0  0  0
   -0.3750   27.4551    0.0000 C   0  0  0  0  0  0  0  0  0  0  0  0
   -1.8738   27.3936    0.0000 C   0  0  0  0  0  0  0  0  0  0  0  0
   -3.3669   27.2504    0.0000 C   0  0  0  0  0  0  0  0  0  0  0  0
   -4.8500   27.0259    0.0000 C   0  0  0  0  0  0  0  0  0  0  0  0
   -6.3187   26.7207    0.0000 C   0  0  0  0  0  0  0  0  0  0  0  0
   -7.7684   26.3358    0.0000 C   0  0  0  0  0  0  0  0  0  0  0  0
   -9.1950   25.8723    0.0000 C   0  0  0  0  0  0  0  0  0  0  0  0
  -10.5941   25.3315    0.0000 C   0  0  0  0  0  0  0  0  0  0  0  0
  -11.9617   24.7152    0.0000 C   0  0  0  0  0  0  0  0  0  0  0  0
  -13.2935   24.0251    0.0000 C   0  0  0  0  0  0  0  0  0  0  0  0
  -14.5857   23.2633    0.0000 C   0  0  0  0  0  0  0  0  0  0  0  0
  -15.8343   22.4321    0.0000 C   0  0  0  0  0  0  0  0  0  0  0  0
  -17.0357   21.5339    0.0000 C   0  0  0  0  0  0  0  0  0  0  0  0
  -18.1862   20.5715    0.0000 C   0  0  0  0  0  0  0  0  0  0  0  0
  -19.2824   19.5476    0.0000 C   0  0  0  0  0  0  0  0  0  0  0  0
  -20.3211   18.4655    0.0000 C   0  0  0  0  0  0  0  0  0  0  0  0
  -21.2992   17.3282    0.0000 C   0  0  0  0  0  0  0  0  0  0  0  0
  -22.2137   16.1392    0.0000 C   0  0  0  0  0  0  0  0  0  0  0  0
  -23.0619   14.9020    0.0000 C   0  0  0  0  0  0  0  0  0  0  0  0
  -23.8413   13.6204    0.0000 C   0  0  0  0  0  0  0  0  0  0  0  0
  -24.5495   12.2981    0.0000 C   0  0  0  0  0  0  0  0  0  0  0  0
  -25.1845   10.9392    0.0000 C   0  0  0  0  0  0  0  0  0  0  0  0
  -25.7443    9.5475    0.0000 C   0  0  0  0  0  0  0  0  0  0  0  0
  -26.2272    8.1274    0.0000 C   0  0  0  0  0  0  0  0  0  0  0  0
  -26.6319    6.6830    0.0000 C   0  0  0  0  0  0  0  0  0  0  0  0
  -26.9571    5.2187    0.0000 C   0  0  0  0  0  0  0  0  0  0  0  0
  -27.2019    3.7388    0.0000 C   0  0  0  0  0  0  0  0  0  0  0  0
  -27.3655    2.2478    0.0000 C   0  0  0  0  0  0  0  0  0  0  0  0
  -27.4474    0.7500    0.0000 C   0  0  0  0  0  0  0  0  0  0  0  0
  -27.4474   -0.7500    0.0000 C   0  0  0  0  0  0  0  0  0  0  0  0
  -27.3655   -2.2478    0.0000 C   0  0  0  0  0  0  0  0  0  0  0  0
  -27.2019   -3.7388    0.0000 C   0  0  0  0  0  0  0  0  0  0  0  0
  -26.9571   -5.2187    0.0000 C   0  0  0  0  0  0  0  0  0  0  0  0
  -26.6319   -6.6830    0.0000 C   0  0  0  0  0  0  0  0  0  0  0  0
  -26.2272   -8.1274    0.0000 C   0  0  0  0  0  0  0  0  0  0  0  0
  -25.7443   -9.5475    0.0000 C   0  0  0  0  0  0  0  0  0  0  0  0
  -25.1845  -10.9392    0.0000 C   0  0  0  0  0  0  0  0  0  0  0  0
  -24.5495  -12.2981    0.0000 C   0  0  0  0  0  0  0  0  0  0  0  0
  -23.8413  -13.6204    0.0000 C   0  0  0  0  0  0  0  0  0  0  0  0
  -23.0619  -14.9020    0.0000 C   0  0  0  0  0  0  0  0  0  0  0  0
  -22.2137  -16.1392    0.0000 C   0  0  0  0  0  0  0  0  0  0  0  0
  -21.2992  -17.3282    0.0000 C   0  0  0  0  0  0  0  0  0  0  0  0
  -20.3211  -18.4655    0.0000 C   0  0  0  0  0  0  0  0  0  0  0  0
  -19.2824  -19.5476    0.0000 C   0  0  0  0  0  0  0  0  0  0  0  0
  -18.1862  -20.5715    0.0000 C   0  0  0  0  0  0  0  0  0  0  0  0
  -17.0357  -21.5339    0.0000 C   0  0  0  0  0  0  0  0  0  0  0  0
  -15.8343  -22.4321    0.0000 C   0  0  0  0  0  0  0  0  0  0  0  0
  -14.5857  -23.2633    0.0000 C   0  0  0  0  0  0  0  0  0  0  0  0
  -13.2935  -24.0251    0.0000 C   0  0  0  0  0  0  0  0  0  0  0  0
  -11.9617  -24.7152    0.0000 C   0  0  0  0  0  0  0  0  0  0  0  0
  -10.5941  -25.3315    0.0000 C   0  0  0  0  0  0  0  0  0  0  0  0
   -9.1950  -25.8723    0.0000 C   0  0  0  0  0  0  0  0  0  0  0  0
   -7.7684  -26.3358    0.0000 C   0  0  0  0  0  0  0  0  0  0  0  0
   -6.3187  -26.7207    0.0000 C   0  0  0  0  0  0  0  0  0  0  0  0
   -4.8500  -27.0259    0.0000 C   0  0  0  0  0  0  0  0  0  0  0  0
   -3.3669  -27.2504    0.0000 C   0  0  0  0  0  0  0  0  0  0  0  0
   -1.8738  -27.3936    0.0000 C   0  0  0  0  0  0  0  0  0  0  0  0
   -0.3750  -27.4551    0.0000 C   0  0  0  0  0  0  0  0  0  0  0  0
    1.1248  -27.4346    0.0000 C   0  0  0  0  0  0  0  0  0  0  0  0
    2.6213  -27.3322    0.0000 C   0  0  0  0  0  0  0  0  0  0  0  0
    4.1100  -27.1483    0.0000 C   0  0  0  0  0  0  0  0  0  0  0  0
    5.5864  -26.8833    0.0000 C   0  0  0  0  0  0  0  0  0  0  0  0
    7.0462  -26.5382    0.0000 C   0  0  0  0  0  0  0  0  0  0  0  0
    8.4849  -26.1138    0.0000 C   0  0  0  0  0  0  0  0  0  0  0  0
    9.8983  -25.6115    0.0000 C   0  0  0  0  0  0  0  0  0  0  0  0
   11.2821  -25.0327    0.0000 C   0  0  0  0  0  0  0  0  0  0  0  0
   12.6323  -24.3792    0.0000 C   0  0  0  0  0  0  0  0  0  0  0  0
   13.9448  -23.6530    0.0000 C   0  0  0  0  0  0  0  0  0  0  0  0
   15.2156  -22.8562    0.0000 C   0  0  0  0  0  0  0  0  0  0  0  0
   16.4411  -21.9912    0.0000 C   0  0  0  0  0  0  0  0  0  0  0  0
   17.6175  -21.0605    0.0000 C   0  0  0  0  0  0  0  0  0  0  0  0
   18.7413  -20.0670    0.0000 C   0  0  0  0  0  0  0  0  0  0  0  0
   19.8092  -19.0136    0.0000 C   0  0  0  0  0  0  0  0  0  0  0  0
   20.8179  -17.9035    0.0000 C   0  0  0  0  0  0  0  0  0  0  0  0
   21.7646  -16.7399    0.0000 C   0  0  0  0  0  0  0  0  0  0  0  0
   22.6463  -15.5264    0.0000 C   0  0  0  0  0  0  0  0  0  0  0  0
   23.4603  -14.2666    0.0000 C   0  0  0  0  0  0  0  0  0  0  0  0
   24.2044  -12.9641    0.0000 C   0  0  0  0  0  0  0  0  0  0  0  0
   24.8763  -11.6230    0.0000 C   0  0  0  0  0  0  0  0  0  0  0  0
   25.4739  -10.2472    0.0000 C   0  0  0  0  0  0  0  0  0  0  0  0
   25.9954   -8.8408    0.0000 C   0  0  0  0  0  0  0  0  0  0  0  0
   26.4394   -7.4080    0.0000 C   0  0  0  0  0  0  0  0  0  0  0  0
   26.8045   -5.9531    0.0000 C   0  0  0  0  0  0  0  0  0  0  0  0
   27.0896   -4.4804    0.0000 C   0  0  0  0  0  0  0  0  0  0  0  0
   27.2939   -2.9944    0.0000 C   0  0  0  0  0  0  0  0  0  0  0  0
   27.4167   -1.4994    0.0000 C   0  0  0  0  0  0  0  0  0  0  0  0
   28.9144   -1.5814    0.0000 C   0  0  0  0  0  0  0  0  0  0  0  0
  1  2  1  0
  2  3  2  3
  3  4  1  0
  4  5  1  0
  5  6  2  0
  5  7  1  0
  7  8  1  0
  7  9  1  0
  9 10  1  0
 10 11  1  0
 11 12  1  0
 12 13  1  0
 13 14  1  0
 14 15  1  0
 15 16  1  0
 16 17  1  0
 17 18  1  0
 18 19  1  0
 19 20  1  0
 20 21  1  0
 21 22  1  0
 22 23  1  0
 23 24  1  0
 24 25  1  0
 25 26  1  0
 26 27  1  0
 27 28  1  0
 28 29  1  0
 29 30  1  0
 30 31  1  0
 31 32  1  0
 32 33  1  0
 33 34  1  0
 34 35  1  0
 35 36  1  0
 36 37  1  0
 37 38  1  0
 38 39  1  0
 39 40  1  0
 40 41  1  0
 41 42  1  0
 42 43  1  0
 43 44  1  0
 44 45  1  0
 45 46  1  0
 46 47  1  0
 47 48  1  0
 48 49  1  0
 49 50  1  0
 50 51  1  0
 51 52  1  0
 52 53  1  0
 53 54  1  0
 54 55  1  0
 55 56  1  0
 56 57  1  0
 57 58  1  0
 58 59  1  0
 59 60  1  0
 60 61  1  0
 61 62  1  0
 62 63  1  0
 63 64  1  0
 64 65  1  0
 65 66  1  0
 66 67  1  0
 67 68  1  0
 68 69  1  0
 69 70  1  0
 70 71  1  0
 71 72  1  0
 72 73  1  0
 73 74  1  0
 74 75  1  0
 75 76  1  0
 76 77  1  0
 77 78  1  0
 78 79  1  0
 79 80  1  0
 80 81  1  0
 81 82  1  0
 82 83  1  0
 83 84  1  0
 84 85  1  0
 85 86  1  0
 86 87  1  0
 87 88  1  0
 88 89  1  0
 89 90  1  0
 90 91  1  0
 91 92  1  0
 92 93  1  0
 93 94  1  0
 94 95  1  0
 95 96  1  0
 96 97  1  0
 97 98  1  0
 98 99  1  0
 99100  1  0
100101  1  0
101102  1  0
102103  1  0
103104  1  0
104105  1  0
105106  1  0
106107  1  0
107108  1  0
108109  1  0
109110  1  0
110111  1  0
111112  1  0
112113  1  0
113114  1  0
114115  1  0
115116  1  0
116117  1  0
117118  1  0
118119  1  0
119120  1  0
119  3  1  0
M  END
>  <Title>  (471) 
idAAQEgen8

$$$$

     RDKit          2D

 63 72  0  0  0  0  0  0  0  0999 V2000
    6.4958   -4.6081    0.0000 C   0  0  0  0  0  0  0  0  0  0  0  0
    5.0565   -5.0307    0.0000 C   0  0  0  0  0  0  0  0  0  0  0  0
    4.4334   -3.6662    0.0000 C   0  0  0  0  0  0  0  0  0  0  0  0
    3.4511   -2.5326    0.0000 C   0  0  0  0  0  0  0  0  0  0  0  0
    2.1892   -1.7216    0.0000 C   0  0  0  0  0  0  0  0  0  0  0  0
    2.8124   -0.3572    0.0000 C   0  0  0  0  0  0  0  0  0  0  0  0
    1.9423    0.8647    0.0000 O   0  0  0  0  0  0  0  0  0  0  0  0
    4.3056   -0.2146    0.0000 N   0  0  0  0  0  0  0  0  0  0  0  0
    4.9287    1.1498    0.0000 C   0  0  0  0  0  0  0  0  0  0  0  0
    6.4219    1.2924    0.0000 N   0  0  0  0  0  0  0  0  0  0  0  0
    7.0450    2.6569    0.0000 N   0  0  0  0  0  0  0  0  0  0  0  0
    6.1749    3.8787    0.0000 N   0  0  0  0  0  0  0  0  0  0  0  0
    4.6817    3.7362    0.0000 N   0  0  0  0  0  0  0  0  0  0  0  0
    4.0586    2.3717    0.0000 N   0  0  0  0  0  0  0  0  0  0  0  0
    0.7500   -1.2990    0.0000 C   0  0  0  0  0  0  0  0  0  0  0  0
    1.5000    0.0000    0.0000 C   0  0  0  0  0  0  0  0  0  0  0  0
    0.7500    1.2990    0.0000 C   0  0  0  0  0  0  0  0  0  0  0  0
   -0.7500    1.2990    0.0000 C   0  0  0  0  0  0  0  0  0  0  0  0
   -1.5000    0.0000    0.0000 C   0  0  0  0  0  0  0  0  0  0  0  0
   -0.7500   -1.2990    0.0000 C   0  0  0  0  0  0  0  0  0  0  0  0
   -2.1892   -1.7216    0.0000 C   0  0  0  0  0  0  0  0  0  0  0  0
   -2.2606   -0.2233    0.0000 C   0  0  0  0  0  0  0  0  0  0  0  0
   -3.5939    0.4640    0.0000 C   0  0  0  0  0  0  0  0  0  0  0  0
   -4.8557   -0.3470    0.0000 C   0  0  0  0  0  0  0  0  0  0  0  0
   -4.7844   -1.8453    0.0000 C   0  0  0  0  0  0  0  0  0  0  0  0
   -3.4511   -2.5326    0.0000 C   0  0  0  0  0  0  0  0  0  0  0  0
   -4.4334   -3.6662    0.0000 C   0  0  0  0  0  0  0  0  0  0  0  0
   -5.3035   -2.4444    0.0000 C   0  0  0  0  0  0  0  0  0  0  0  0
   -6.7967   -2.5869    0.0000 C   0  0  0  0  0  0  0  0  0  0  0  0
   -7.4198   -3.9514    0.0000 C   0  0  0  0  0  0  0  0  0  0  0  0
   -6.5497   -5.1733    0.0000 C   0  0  0  0  0  0  0  0  0  0  0  0
   -5.0565   -5.0307    0.0000 C   0  0  0  0  0  0  0  0  0  0  0  0
   -5.2700   -6.5154    0.0000 C   0  0  0  0  0  0  0  0  0  0  0  0
   -6.6626   -5.9579    0.0000 C   0  0  0  0  0  0  0  0  0  0  0  0
   -7.8416   -6.8851    0.0000 C   0  0  0  0  0  0  0  0  0  0  0  0
   -7.6282   -8.3699    0.0000 C   0  0  0  0  0  0  0  0  0  0  0  0
   -6.2356   -8.9274    0.0000 C   0  0  0  0  0  0  0  0  0  0  0  0
   -5.0565   -8.0001    0.0000 C   0  0  0  0  0  0  0  0  0  0  0  0
   -4.4334   -9.3646    0.0000 C   0  0  0  0  0  0  0  0  0  0  0  0
   -5.9063   -9.6485    0.0000 C   0  0  0  0  0  0  0  0  0  0  0  0
   -6.3969  -11.0660    0.0000 C   0  0  0  0  0  0  0  0  0  0  0  0
   -5.4146  -12.1996    0.0000 C   0  0  0  0  0  0  0  0  0  0  0  0
   -3.9417  -11.9157    0.0000 C   0  0  0  0  0  0  0  0  0  0  0  0
   -3.4511  -10.4982    0.0000 C   0  0  0  0  0  0  0  0  0  0  0  0
   -2.1892  -11.3092    0.0000 C   0  0  0  0  0  0  0  0  0  0  0  0
   -3.2748  -12.3443    0.0000 C   0  0  0  0  0  0  0  0  0  0  0  0
   -2.9212  -13.8020    0.0000 C   0  0  0  0  0  0  0  0  0  0  0  0
   -1.4820  -14.2246    0.0000 C   0  0  0  0  0  0  0  0  0  0  0  0
   -0.3964  -13.1895    0.0000 C   0  0  0  0  0  0  0  0  0  0  0  0
   -0.7500  -11.7318    0.0000 C   0  0  0  0  0  0  0  0  0  0  0  0
    0.7500  -11.7318    0.0000 C   0  0  0  0  0  0  0  0  0  0  0  0
    0.3964  -13.1895    0.0000 C   0  0  0  0  0  0  0  0  0  0  0  0
    1.4820  -14.2246    0.0000 C   0  0  0  0  0  0  0  0  0  0  0  0
    2.9212  -13.8020    0.0000 C   0  0  0  0  0  0  0  0  0  0  0  0
    3.2748  -12.3443    0.0000 C   0  0  0  0  0  0  0  0  0  0  0  0
    2.1892  -11.3092    0.0000 C   0  0  0  0  0  0  0  0  0  0  0  0
    3.4511  -10.4982    0.0000 C   0  0  0  0  0  0  0  0  0  0  0  0
    4.4334   -9.3646    0.0000 C   0  0  0  0  0  0  0  0  0  0  0  0
    5.0565   -8.0001    0.0000 C   0  0  0  0  0  0  0  0  0  0  0  0
    5.2700   -6.5154    0.0000 C   0  0  0  0  0  0  0  0  0  0  0  0
    4.2877   -7.6490    0.0000 O   0  0  0  0  0  0  0  0  0  0  0  0
    3.6646   -9.0135    0.0000 C   0  0  0  0  0  0  0  0  0  0  0  0
    2.2254   -8.5909    0.0000 O   0  0  0  0  0  0  0  0  0  0  0  0
  1  2  1  0
  2  3  1  0
  3  4  1  0
  4  5  1  0
  5  6  1  0
  6  7  2  0
  6  8  1  0
  8  9  1  0
  9 10  2  0
 10 11  1  0
 11 12  2  0
 12 13  1  0
 13 14  2  0
  5 15  1  0
 15 16  2  0
 16 17  1  0
 17 18  2  0
 18 19  1  0
 19 20  2  0
 20 21  1  0
 21 22  2  0
 22 23  1  0
 23 24  2  0
 24 25  1  0
 25 26  2  0
 26 27  1  0
 27 28  2  0
 28 29  1  0
 29 30  2  0
 30 31  1  0
 31 32  2  0
 32 33  1  0
 33 34  2  0
 34 35  1  0
 35 36  2  0
 36 37  1  0
 37 38  2  0
 38 39  1  0
 39 40  2  0
 40 41  1  0
 41 42  2  0
 42 43  1  0
 43 44  2  0
 44 45  1  0
 45 46  2  0
 46 47  1  0
 47 48  2  0
 48 49  1  0
 49 50  2  0
 50 51  1  0
 51 52  2  0
 52 53  1  0
 53 54  2  0
 54 55  1  0
 55 56  2  0
 56 57  1  0
 57 58  2  0
 58 59  1  0
 59 60  2  0
 60 61  1  0
 61 62  1  0
 62 63  2  0
 60  2  1  0
 14  9  1  0
 20 15  1  0
 26 21  1  0
 32 27  1  0
 38 33  1  0
 44 39  1  0
 50 45  1  0
 56 51  1  0
 62 57  1  0
M  END
>  <Title>  (472) 
idAAQFgen8

$$$$

     RDKit          2D

  9  9  0  0  0  0  0  0  0  0999 V2000
    3.1935   -3.4746    0.0000 C   0  0  0  0  0  0  0  0  0  0  0  0
    2.0788   -2.4709    0.0000 C   0  0  0  0  0  0  0  0  0  0  0  0
    2.3907   -1.0037    0.0000 C   0  0  0  0  0  0  0  0  0  0  0  0
    1.2760    0.0000    0.0000 C   0  0  0  0  0  0  0  0  0  0  0  0
    2.3907    1.0037    0.0000 C   0  0  0  0  0  0  0  0  0  0  0  0
    0.3943    1.2135    0.0000 C   0  0  0  0  0  0  0  0  0  0  0  0
   -1.0323    0.7500    0.0000 C   0  0  0  0  0  0  0  0  0  0  0  0
   -1.0323   -0.7500    0.0000 C   0  0  0  0  0  0  0  0  0  0  0  0
    0.3943   -1.2135    0.0000 C   0  0  0  0  0  0  0  0  0  0  0  0
  1  2  1  0
  2  3  1  0
  3  4  1  0
  4  5  1  0
  4  6  1  0
  6  7  1  0
  7  8  2  0
  8  9  1  0
  9  4  1  0
M  END
>  <Title>  (473) 
idAAQGgen8

$$$$

     RDKit          2D

 57 65  0  0  0  0  0  0  0  0999 V2000
    5.8713   -7.2804    0.0000 C   0  0  0  0  0  0  0  0  0  0  0  0
    4.4172   -6.9121    0.0000 C   0  0  0  0  0  0  0  0  0  0  0  0
    4.5411   -5.4173    0.0000 C   0  0  0  0  0  0  0  0  0  0  0  0
    4.1729   -3.9632    0.0000 C   0  0  0  0  0  0  0  0  0  0  0  0
    3.3524   -2.7074    0.0000 C   0  0  0  0  0  0  0  0  0  0  0  0
    2.1687   -1.7861    0.0000 C   0  0  0  0  0  0  0  0  0  0  0  0
    2.8826   -0.4669    0.0000 C   0  0  0  0  0  0  0  0  0  0  0  0
    2.0971    0.8110    0.0000 O   0  0  0  0  0  0  0  0  0  0  0  0
    4.3821   -0.4255    0.0000 N   0  0  0  0  0  0  0  0  0  0  0  0
    5.0960    0.8937    0.0000 C   0  0  0  0  0  0  0  0  0  0  0  0
    6.5954    0.9350    0.0000 N   0  0  0  0  0  0  0  0  0  0  0  0
    7.3094    2.2542    0.0000 N   0  0  0  0  0  0  0  0  0  0  0  0
    6.5238    3.5321    0.0000 N   0  0  0  0  0  0  0  0  0  0  0  0
    5.0244    3.4908    0.0000 N   0  0  0  0  0  0  0  0  0  0  0  0
    4.3105    2.1715    0.0000 N   0  0  0  0  0  0  0  0  0  0  0  0
    0.7500   -1.2990    0.0000 C   0  0  0  0  0  0  0  0  0  0  0  0
    1.5000    0.0000    0.0000 C   0  0  0  0  0  0  0  0  0  0  0  0
    0.7500    1.2990    0.0000 C   0  0  0  0  0  0  0  0  0  0  0  0
   -0.7500    1.2990    0.0000 C   0  0  0  0  0  0  0  0  0  0  0  0
   -1.5000    0.0000    0.0000 C   0  0  0  0  0  0  0  0  0  0  0  0
   -0.7500   -1.2990    0.0000 C   0  0  0  0  0  0  0  0  0  0  0  0
   -2.1687   -1.7861    0.0000 C   0  0  0  0  0  0  0  0  0  0  0  0
   -2.3748   -0.3003    0.0000 C   0  0  0  0  0  0  0  0  0  0  0  0
   -3.7645    0.2642    0.0000 C   0  0  0  0  0  0  0  0  0  0  0  0
   -4.9482   -0.6572    0.0000 C   0  0  0  0  0  0  0  0  0  0  0  0
   -4.7422   -2.1429    0.0000 C   0  0  0  0  0  0  0  0  0  0  0  0
   -3.3524   -2.7074    0.0000 C   0  0  0  0  0  0  0  0  0  0  0  0
   -4.1729   -3.9632    0.0000 C   0  0  0  0  0  0  0  0  0  0  0  0
   -5.2480   -2.9172    0.0000 C   0  0  0  0  0  0  0  0  0  0  0  0
   -6.6914   -3.3254    0.0000 C   0  0  0  0  0  0  0  0  0  0  0  0
   -7.0597   -4.7795    0.0000 C   0  0  0  0  0  0  0  0  0  0  0  0
   -5.9845   -5.8254    0.0000 C   0  0  0  0  0  0  0  0  0  0  0  0
   -4.5411   -5.4173    0.0000 C   0  0  0  0  0  0  0  0  0  0  0  0
   -4.4172   -6.9121    0.0000 C   0  0  0  0  0  0  0  0  0  0  0  0
   -5.9081   -6.7471    0.0000 C   0  0  0  0  0  0  0  0  0  0  0  0
   -6.7965   -7.9558    0.0000 C   0  0  0  0  0  0  0  0  0  0  0  0
   -6.1939   -9.3294    0.0000 C   0  0  0  0  0  0  0  0  0  0  0  0
   -4.7030   -9.4944    0.0000 C   0  0  0  0  0  0  0  0  0  0  0  0
   -3.8147   -8.2858    0.0000 C   0  0  0  0  0  0  0  0  0  0  0  0
   -2.7988   -9.3894    0.0000 C   0  0  0  0  0  0  0  0  0  0  0  0
   -4.0766  -10.1749    0.0000 C   0  0  0  0  0  0  0  0  0  0  0  0
   -4.0353  -11.6743    0.0000 C   0  0  0  0  0  0  0  0  0  0  0  0
   -2.7161  -12.3882    0.0000 C   0  0  0  0  0  0  0  0  0  0  0  0
   -1.4382  -11.6027    0.0000 C   0  0  0  0  0  0  0  0  0  0  0  0
   -1.4795  -10.1033    0.0000 C   0  0  0  0  0  0  0  0  0  0  0  0
   -0.0000  -10.3502    0.0000 C   0  0  0  0  0  0  0  0  0  0  0  0
   -0.5260  -11.7550    0.0000 C   0  0  0  0  0  0  0  0  0  0  0  0
    0.4276  -12.9128    0.0000 C   0  0  0  0  0  0  0  0  0  0  0  0
    1.9072  -12.6659    0.0000 C   0  0  0  0  0  0  0  0  0  0  0  0
    2.4331  -11.2612    0.0000 C   0  0  0  0  0  0  0  0  0  0  0  0
    1.4795  -10.1033    0.0000 C   0  0  0  0  0  0  0  0  0  0  0  0
    2.7988   -9.3894    0.0000 C   0  0  0  0  0  0  0  0  0  0  0  0
    3.2465  -10.8210    0.0000 C   0  0  0  0  0  0  0  0  0  0  0  0
    4.7102  -11.1490    0.0000 C   0  0  0  0  0  0  0  0  0  0  0  0
    5.7261  -10.0454    0.0000 C   0  0  0  0  0  0  0  0  0  0  0  0
    5.2784   -8.6138    0.0000 C   0  0  0  0  0  0  0  0  0  0  0  0
    3.8147   -8.2858    0.0000 C   0  0  0  0  0  0  0  0  0  0  0  0
  1  2  1  0
  2  3  2  0
  3  4  1  0
  4  5  1  0
  5  6  1  0
  6  7  1  0
  7  8  2  0
  7  9  1  0
  9 10  1  0
 10 11  2  0
 11 12  1  0
 12 13  2  0
 13 14  1  0
 14 15  2  0
  6 16  1  0
 16 17  2  0
 17 18  1  0
 18 19  2  0
 19 20  1  0
 20 21  2  0
 21 22  1  0
 22 23  2  0
 23 24  1  0
 24 25  2  0
 25 26  1  0
 26 27  2  0
 27 28  1  0
 28 29  2  0
 29 30  1  0
 30 31  2  0
 31 32  1  0
 32 33  2  0
 33 34  1  0
 34 35  2  0
 35 36  1  0
 36 37  2  0
 37 38  1  0
 38 39  2  0
 39 40  1  0
 40 41  2  0
 41 42  1  0
 42 43  2  0
 43 44  1  0
 44 45  2  0
 45 46  1  0
 46 47  2  0
 47 48  1  0
 48 49  2  0
 49 50  1  0
 50 51  2  0
 51 52  1  0
 52 53  2  0
 53 54  1  0
 54 55  2  0
 55 56  1  0
 56 57  2  0
 57  2  1  0
 15 10  1  0
 21 16  1  0
 27 22  1  0
 33 28  1  0
 39 34  1  0
 45 40  1  0
 51 46  1  0
 57 52  1  0
M  END
>  <Title>  (474) 
idAAQHgen8

$$$$

     RDKit          2D

104104  0  0  0  0  0  0  0  0999 V2000
   25.6159   -0.0000    0.0000 C   0  0  0  0  0  0  0  0  0  0  0  0
   24.1159    0.0000    0.0000 C   0  0  0  0  0  0  0  0  0  0  0  0
   24.0692    1.4993    0.0000 C   0  0  0  0  0  0  0  0  0  0  0  0
   23.9294    2.9927    0.0000 C   0  0  0  0  0  0  0  0  0  0  0  0
   23.6971    4.4746    0.0000 C   0  0  0  0  0  0  0  0  0  0  0  0
   23.3731    5.9392    0.0000 C   0  0  0  0  0  0  0  0  0  0  0  0
   22.9586    7.3808    0.0000 C   0  0  0  0  0  0  0  0  0  0  0  0
   22.4553    8.7939    0.0000 C   0  0  0  0  0  0  0  0  0  0  0  0
   21.8652   10.1729    0.0000 C   0  0  0  0  0  0  0  0  0  0  0  0
   21.1904   11.5126    0.0000 C   0  0  0  0  0  0  0  0  0  0  0  0
   20.4337   12.8077    0.0000 C   0  0  0  0  0  0  0  0  0  0  0  0
   19.5979   14.0533    0.0000 C   0  0  0  0  0  0  0  0  0  0  0  0
   18.6863   15.2445    0.0000 C   0  0  0  0  0  0  0  0  0  0  0  0
   17.7025   16.3767    0.0000 C   0  0  0  0  0  0  0  0  0  0  0  0
   16.6501   17.4456    0.0000 C   0  0  0  0  0  0  0  0  0  0  0  0
   15.5333   18.4470    0.0000 C   0  0  0  0  0  0  0  0  0  0  0  0
   14.3564   19.3770    0.0000 C   0  0  0  0  0  0  0  0  0  0  0  0
   13.1240   20.2321    0.0000 C   0  0  0  0  0  0  0  0  0  0  0  0
   11.8407   21.0088    0.0000 C   0  0  0  0  0  0  0  0  0  0  0  0
   10.5117   21.7043    0.0000 C   0  0  0  0  0  0  0  0  0  0  0  0
    9.1420   22.3159    0.0000 C   0  0  0  0  0  0  0  0  0  0  0  0
    7.7370   22.8411    0.0000 C   0  0  0  0  0  0  0  0  0  0  0  0
    6.3020   23.2779    0.0000 C   0  0  0  0  0  0  0  0  0  0  0  0
    4.8426   23.6246    0.0000 C   0  0  0  0  0  0  0  0  0  0  0  0
    3.3645   23.8800    0.0000 C   0  0  0  0  0  0  0  0  0  0  0  0
    1.8734   24.0430    0.0000 C   0  0  0  0  0  0  0  0  0  0  0  0
    0.3750   24.1129    0.0000 C   0  0  0  0  0  0  0  0  0  0  0  0
   -1.1248   24.0896    0.0000 C   0  0  0  0  0  0  0  0  0  0  0  0
   -2.6202   23.9731    0.0000 C   0  0  0  0  0  0  0  0  0  0  0  0
   -4.1056   23.7638    0.0000 C   0  0  0  0  0  0  0  0  0  0  0  0
   -5.5750   23.4626    0.0000 C   0  0  0  0  0  0  0  0  0  0  0  0
   -7.0229   23.0706    0.0000 C   0  0  0  0  0  0  0  0  0  0  0  0
   -8.4436   22.5894    0.0000 C   0  0  0  0  0  0  0  0  0  0  0  0
   -9.8316   22.0208    0.0000 C   0  0  0  0  0  0  0  0  0  0  0  0
  -11.1816   21.3669    0.0000 C   0  0  0  0  0  0  0  0  0  0  0  0
  -12.4884   20.6304    0.0000 C   0  0  0  0  0  0  0  0  0  0  0  0
  -13.7468   19.8141    0.0000 C   0  0  0  0  0  0  0  0  0  0  0  0
  -14.9521   18.9212    0.0000 C   0  0  0  0  0  0  0  0  0  0  0  0
  -16.0995   17.9550    0.0000 C   0  0  0  0  0  0  0  0  0  0  0  0
  -17.1846   16.9194    0.0000 C   0  0  0  0  0  0  0  0  0  0  0  0
  -18.2032   15.8183    0.0000 C   0  0  0  0  0  0  0  0  0  0  0  0
  -19.1514   14.6560    0.0000 C   0  0  0  0  0  0  0  0  0  0  0  0
  -20.0255   13.4370    0.0000 C   0  0  0  0  0  0  0  0  0  0  0  0
  -20.8222   12.1660    0.0000 C   0  0  0  0  0  0  0  0  0  0  0  0
  -21.5382   10.8480    0.0000 C   0  0  0  0  0  0  0  0  0  0  0  0
  -22.1710    9.4880    0.0000 C   0  0  0  0  0  0  0  0  0  0  0  0
  -22.7180    8.0913    0.0000 C   0  0  0  0  0  0  0  0  0  0  0  0
  -23.1771    6.6633    0.0000 C   0  0  0  0  0  0  0  0  0  0  0  0
  -23.5465    5.2095    0.0000 C   0  0  0  0  0  0  0  0  0  0  0  0
  -23.8248    3.7355    0.0000 C   0  0  0  0  0  0  0  0  0  0  0  0
  -24.0109    2.2471    0.0000 C   0  0  0  0  0  0  0  0  0  0  0  0
  -24.1042    0.7500    0.0000 C   0  0  0  0  0  0  0  0  0  0  0  0
  -24.1042   -0.7500    0.0000 C   0  0  0  0  0  0  0  0  0  0  0  0
  -24.0109   -2.2471    0.0000 C   0  0  0  0  0  0  0  0  0  0  0  0
  -23.8248   -3.7355    0.0000 C   0  0  0  0  0  0  0  0  0  0  0  0
  -23.5465   -5.2095    0.0000 C   0  0  0  0  0  0  0  0  0  0  0  0
  -23.1771   -6.6633    0.0000 C   0  0  0  0  0  0  0  0  0  0  0  0
  -22.7180   -8.0913    0.0000 C   0  0  0  0  0  0  0  0  0  0  0  0
  -22.1710   -9.4880    0.0000 C   0  0  0  0  0  0  0  0  0  0  0  0
  -21.5382  -10.8480    0.0000 C   0  0  0  0  0  0  0  0  0  0  0  0
  -20.8222  -12.1660    0.0000 C   0  0  0  0  0  0  0  0  0  0  0  0
  -20.0255  -13.4370    0.0000 C   0  0  0  0  0  0  0  0  0  0  0  0
  -19.1514  -14.6560    0.0000 C   0  0  0  0  0  0  0  0  0  0  0  0
  -18.2032  -15.8183    0.0000 C   0  0  0  0  0  0  0  0  0  0  0  0
  -17.1846  -16.9194    0.0000 C   0  0  0  0  0  0  0  0  0  0  0  0
  -16.0995  -17.9550    0.0000 C   0  0  0  0  0  0  0  0  0  0  0  0
  -14.9521  -18.9212    0.0000 C   0  0  0  0  0  0  0  0  0  0  0  0
  -13.7468  -19.8141    0.0000 C   0  0  0  0  0  0  0  0  0  0  0  0
  -12.4884  -20.6304    0.0000 C   0  0  0  0  0  0  0  0  0  0  0  0
  -11.1816  -21.3669    0.0000 C   0  0  0  0  0  0  0  0  0  0  0  0
   -9.8316  -22.0208    0.0000 C   0  0  0  0  0  0  0  0  0  0  0  0
   -8.4436  -22.5894    0.0000 C   0  0  0  0  0  0  0  0  0  0  0  0
   -7.0229  -23.0706    0.0000 C   0  0  0  0  0  0  0  0  0  0  0  0
   -5.5750  -23.4626    0.0000 C   0  0  0  0  0  0  0  0  0  0  0  0
   -4.1056  -23.7638    0.0000 C   0  0  0  0  0  0  0  0  0  0  0  0
   -2.6202  -23.9731    0.0000 C   0  0  0  0  0  0  0  0  0  0  0  0
   -1.1248  -24.0896    0.0000 C   0  0  0  0  0  0  0  0  0  0  0  0
    0.3750  -24.1129    0.0000 C   0  0  0  0  0  0  0  0  0  0  0  0
    1.8734  -24.0430    0.0000 C   0  0  0  0  0  0  0  0  0  0  0  0
    3.3645  -23.8800    0.0000 C   0  0  0  0  0  0  0  0  0  0  0  0
    4.8426  -23.6246    0.0000 C   0  0  0  0  0  0  0  0  0  0  0  0
    6.3020  -23.2779    0.0000 C   0  0  0  0  0  0  0  0  0  0  0  0
    7.7370  -22.8411    0.0000 C   0  0  0  0  0  0  0  0  0  0  0  0
    9.1420  -22.3159    0.0000 C   0  0  0  0  0  0  0  0  0  0  0  0
   10.5117  -21.7043    0.0000 C   0  0  0  0  0  0  0  0  0  0  0  0
   11.8407  -21.0088    0.0000 C   0  0  0  0  0  0  0  0  0  0  0  0
   13.1240  -20.2321    0.0000 C   0  0  0  0  0  0  0  0  0  0  0  0
   14.3564  -19.3770    0.0000 C   0  0  0  0  0  0  0  0  0  0  0  0
   15.5333  -18.4470    0.0000 C   0  0  0  0  0  0  0  0  0  0  0  0
   16.6501  -17.4456    0.0000 C   0  0  0  0  0  0  0  0  0  0  0  0
   17.7025  -16.3767    0.0000 C   0  0  0  0  0  0  0  0  0  0  0  0
   18.6863  -15.2445    0.0000 C   0  0  0  0  0  0  0  0  0  0  0  0
   19.5979  -14.0533    0.0000 C   0  0  0  0  0  0  0  0  0  0  0  0
   20.4337  -12.8077    0.0000 C   0  0  0  0  0  0  0  0  0  0  0  0
   21.1904  -11.5126    0.0000 C   0  0  0  0  0  0  0  0  0  0  0  0
   21.8652  -10.1729    0.0000 C   0  0  0  0  0  0  0  0  0  0  0  0
   22.4553   -8.7939    0.0000 C   0  0  0  0  0  0  0  0  0  0  0  0
   22.9586   -7.3808    0.0000 C   0  0  0  0  0  0  0  0  0  0  0  0
   23.3731   -5.9392    0.0000 C   0  0  0  0  0  0  0  0  0  0  0  0
   23.6971   -4.4746    0.0000 C   0  0  0  0  0  0  0  0  0  0  0  0
   25.1710   -4.7530    0.0000 C   0  0  0  0  0  0  0  0  0  0  0  0
   23.9294   -2.9927    0.0000 C   0  0  0  0  0  0  0  0  0  0  0  0
   25.4178   -3.1789    0.0000 O   0  0  0  0  0  0  0  0  0  0  0  0
   24.0692   -1.4993    0.0000 N   0  0  0  0  0  0  0  0  0  0  0  0
  1  2  1  0
  2  3  1  0
  3  4  1  0
  4  5  1  0
  5  6  1  0
  6  7  1  0
  7  8  1  0
  8  9  1  0
  9 10  1  0
 10 11  1  0
 11 12  1  0
 12 13  1  0
 13 14  1  0
 14 15  1  0
 15 16  1  0
 16 17  1  0
 17 18  1  0
 18 19  1  0
 19 20  1  0
 20 21  1  0
 21 22  1  0
 22 23  1  0
 23 24  1  0
 24 25  1  0
 25 26  1  0
 26 27  1  0
 27 28  1  0
 28 29  1  0
 29 30  1  0
 30 31  1  0
 31 32  1  0
 32 33  1  0
 33 34  1  0
 34 35  1  0
 35 36  1  0
 36 37  1  0
 37 38  1  0
 38 39  1  0
 39 40  1  0
 40 41  1  0
 41 42  1  0
 42 43  1  0
 43 44  1  0
 44 45  1  0
 45 46  1  0
 46 47  1  0
 47 48  1  0
 48 49  1  0
 49 50  1  0
 50 51  1  0
 51 52  1  0
 52 53  1  0
 53 54  1  0
 54 55  1  0
 55 56  1  0
 56 57  1  0
 57 58  1  0
 58 59  1  0
 59 60  1  0
 60 61  1  0
 61 62  1  0
 62 63  1  0
 63 64  1  0
 64 65  1  0
 65 66  1  0
 66 67  1  0
 67 68  1  0
 68 69  1  0
 69 70  1  0
 70 71  1  0
 71 72  1  0
 72 73  1  0
 73 74  1  0
 74 75  1  0
 75 76  1  0
 76 77  1  0
 77 78  1  0
 78 79  1  0
 79 80  1  0
 80 81  1  0
 81 82  1  0
 82 83  1  0
 83 84  1  0
 84 85  1  0
 85 86  1  0
 86 87  1  0
 87 88  1  0
 88 89  1  0
 89 90  1  0
 90 91  1  0
 91 92  1  0
 92 93  1  0
 93 94  1  0
 94 95  1  0
 95 96  1  0
 96 97  1  0
 97 98  1  0
 98 99  1  0
 99100  1  0
100101  1  0
100102  1  0
102103  2  0
102104  1  0
104  2  1  0
M  END
>  <Title>  (475) 
idAAQIgen8

$$$$

     RDKit          2D

 15 16  0  0  0  0  0  0  0  0999 V2000
    3.0000    0.0000    0.0000 O   0  0  0  0  0  0  0  0  0  0  0  0
    1.5000    0.0000    0.0000 C   0  0  0  0  0  0  0  0  0  0  0  0
    0.7500   -1.2990    0.0000 C   0  0  0  0  0  0  0  0  0  0  0  0
   -0.7500   -1.2990    0.0000 C   0  0  0  0  0  0  0  0  0  0  0  0
   -1.5000    0.0000    0.0000 C   0  0  0  0  0  0  0  0  0  0  0  0
   -3.0000    0.0000    0.0000 C   0  0  0  0  0  0  0  0  0  0  0  0
   -3.7500    1.2990    0.0000 C   0  0  0  0  0  0  0  0  0  0  0  0
   -5.2500    1.2990    0.0000 C   0  0  0  0  0  0  0  0  0  0  0  0
   -6.0000    2.5981    0.0000 C   0  0  0  0  0  0  0  0  0  0  0  0
   -7.5000    2.5981    0.0000 C   0  0  0  0  0  0  0  0  0  0  0  0
   -8.2500    1.2990    0.0000 C   0  0  0  0  0  0  0  0  0  0  0  0
   -7.5000    0.0000    0.0000 C   0  0  0  0  0  0  0  0  0  0  0  0
   -6.0000    0.0000    0.0000 C   0  0  0  0  0  0  0  0  0  0  0  0
   -0.7500    1.2990    0.0000 N   0  0  0  0  0  0  0  0  0  0  0  0
    0.7500    1.2990    0.0000 N   0  0  0  0  0  0  0  0  0  0  0  0
  1  2  1  0
  2  3  2  0
  3  4  1  0
  4  5  2  0
  5  6  1  0
  6  7  1  0
  7  8  1  0
  8  9  2  0
  9 10  1  0
 10 11  2  0
 11 12  1  0
 12 13  2  0
  5 14  1  0
 14 15  2  0
 15  2  1  0
 13  8  1  0
M  END
>  <Title>  (476) 
idAAQJgen8

$$$$

     RDKit          2D

  9  9  0  0  0  0  0  0  0  0999 V2000
    5.2500   -1.2990    0.0000 C   0  0  0  0  0  0  0  0  0  0  0  0
    3.7500   -1.2990    0.0000 O   0  0  0  0  0  0  0  0  0  0  0  0
    3.0000    0.0000    0.0000 C   0  0  0  0  0  0  0  0  0  0  0  0
    1.5000    0.0000    0.0000 C   0  0  0  0  0  0  0  0  0  0  0  0
    0.7500   -1.2990    0.0000 C   0  0  0  0  0  0  0  0  0  0  0  0
   -0.7500   -1.2990    0.0000 C   0  0  0  0  0  0  0  0  0  0  0  0
   -1.5000    0.0000    0.0000 C   0  0  0  0  0  0  0  0  0  0  0  0
   -0.7500    1.2990    0.0000 C   0  0  0  0  0  0  0  0  0  0  0  0
    0.7500    1.2990    0.0000 C   0  0  0  0  0  0  0  0  0  0  0  0
  1  2  1  0
  2  3  1  0
  3  4  1  0
  4  5  2  0
  5  6  1  0
  6  7  1  0
  7  8  2  0
  8  9  1  0
  9  4  1  0
M  END
>  <Title>  (477) 
idAAQKgen8

$$$$

     RDKit          2D

 59 67  0  0  0  0  0  0  0  0999 V2000
    7.2502    0.2237    0.0000 C   0  0  0  0  0  0  0  0  0  0  0  0
    7.0852   -1.2672    0.0000 C   0  0  0  0  0  0  0  0  0  0  0  0
    5.7115   -1.8697    0.0000 C   0  0  0  0  0  0  0  0  0  0  0  0
    4.8275   -1.0362    0.0000 O   0  0  0  0  0  0  0  0  0  0  0  0
    5.5465   -3.3606    0.0000 N   0  0  0  0  0  0  0  0  0  0  0  0
    4.1729   -3.9632    0.0000 C   0  0  0  0  0  0  0  0  0  0  0  0
    3.3524   -2.7074    0.0000 C   0  0  0  0  0  0  0  0  0  0  0  0
    2.1687   -1.7861    0.0000 C   0  0  0  0  0  0  0  0  0  0  0  0
    2.8826   -0.4669    0.0000 C   0  0  0  0  0  0  0  0  0  0  0  0
    4.0840   -0.2856    0.0000 O   0  0  0  0  0  0  0  0  0  0  0  0
    2.0971    0.8110    0.0000 O   0  0  0  0  0  0  0  0  0  0  0  0
    0.7500   -1.2990    0.0000 C   0  0  0  0  0  0  0  0  0  0  0  0
    1.5000    0.0000    0.0000 C   0  0  0  0  0  0  0  0  0  0  0  0
    0.7500    1.2990    0.0000 C   0  0  0  0  0  0  0  0  0  0  0  0
   -0.7500    1.2990    0.0000 C   0  0  0  0  0  0  0  0  0  0  0  0
   -1.5000    0.0000    0.0000 C   0  0  0  0  0  0  0  0  0  0  0  0
   -0.7500   -1.2990    0.0000 C   0  0  0  0  0  0  0  0  0  0  0  0
   -2.1687   -1.7861    0.0000 C   0  0  0  0  0  0  0  0  0  0  0  0
   -2.3748   -0.3003    0.0000 C   0  0  0  0  0  0  0  0  0  0  0  0
   -3.7645    0.2642    0.0000 C   0  0  0  0  0  0  0  0  0  0  0  0
   -4.9482   -0.6572    0.0000 C   0  0  0  0  0  0  0  0  0  0  0  0
   -4.7422   -2.1429    0.0000 C   0  0  0  0  0  0  0  0  0  0  0  0
   -3.3524   -2.7074    0.0000 C   0  0  0  0  0  0  0  0  0  0  0  0
   -4.1729   -3.9632    0.0000 C   0  0  0  0  0  0  0  0  0  0  0  0
   -5.2480   -2.9172    0.0000 C   0  0  0  0  0  0  0  0  0  0  0  0
   -6.6914   -3.3254    0.0000 C   0  0  0  0  0  0  0  0  0  0  0  0
   -7.0597   -4.7795    0.0000 C   0  0  0  0  0  0  0  0  0  0  0  0
   -5.9845   -5.8254    0.0000 C   0  0  0  0  0  0  0  0  0  0  0  0
   -4.5411   -5.4173    0.0000 C   0  0  0  0  0  0  0  0  0  0  0  0
   -4.4172   -6.9121    0.0000 C   0  0  0  0  0  0  0  0  0  0  0  0
   -5.9081   -6.7471    0.0000 C   0  0  0  0  0  0  0  0  0  0  0  0
   -6.7965   -7.9558    0.0000 C   0  0  0  0  0  0  0  0  0  0  0  0
   -6.1939   -9.3294    0.0000 C   0  0  0  0  0  0  0  0  0  0  0  0
   -4.7030   -9.4944    0.0000 C   0  0  0  0  0  0  0  0  0  0  0  0
   -3.8147   -8.2858    0.0000 C   0  0  0  0  0  0  0  0  0  0  0  0
   -2.7988   -9.3894    0.0000 C   0  0  0  0  0  0  0  0  0  0  0  0
   -4.0766  -10.1749    0.0000 C   0  0  0  0  0  0  0  0  0  0  0  0
   -4.0353  -11.6743    0.0000 C   0  0  0  0  0  0  0  0  0  0  0  0
   -2.7161  -12.3882    0.0000 C   0  0  0  0  0  0  0  0  0  0  0  0
   -1.4382  -11.6027    0.0000 C   0  0  0  0  0  0  0  0  0  0  0  0
   -1.4795  -10.1033    0.0000 C   0  0  0  0  0  0  0  0  0  0  0  0
   -0.0000  -10.3502    0.0000 C   0  0  0  0  0  0  0  0  0  0  0  0
   -0.5260  -11.7550    0.0000 C   0  0  0  0  0  0  0  0  0  0  0  0
    0.4276  -12.9128    0.0000 C   0  0  0  0  0  0  0  0  0  0  0  0
    1.9072  -12.6659    0.0000 C   0  0  0  0  0  0  0  0  0  0  0  0
    2.4331  -11.2612    0.0000 C   0  0  0  0  0  0  0  0  0  0  0  0
    1.4795  -10.1033    0.0000 C   0  0  0  0  0  0  0  0  0  0  0  0
    2.7988   -9.3894    0.0000 C   0  0  0  0  0  0  0  0  0  0  0  0
    3.2465  -10.8210    0.0000 C   0  0  0  0  0  0  0  0  0  0  0  0
    4.7102  -11.1490    0.0000 C   0  0  0  0  0  0  0  0  0  0  0  0
    5.7261  -10.0454    0.0000 C   0  0  0  0  0  0  0  0  0  0  0  0
    5.2784   -8.6138    0.0000 C   0  0  0  0  0  0  0  0  0  0  0  0
    3.8147   -8.2858    0.0000 C   0  0  0  0  0  0  0  0  0  0  0  0
    4.4172   -6.9121    0.0000 C   0  0  0  0  0  0  0  0  0  0  0  0
    5.6499   -7.7668    0.0000 C   0  0  0  0  0  0  0  0  0  0  0  0
    7.0064   -7.1267    0.0000 C   0  0  0  0  0  0  0  0  0  0  0  0
    7.1303   -5.6318    0.0000 C   0  0  0  0  0  0  0  0  0  0  0  0
    5.8976   -4.7771    0.0000 C   0  0  0  0  0  0  0  0  0  0  0  0
    4.5411   -5.4173    0.0000 C   0  0  0  0  0  0  0  0  0  0  0  0
  1  2  1  0
  2  3  1  0
  3  4  2  0
  3  5  1  0
  5  6  1  0
  6  7  2  0
  7  8  1  0
  8  9  1  0
  9 10  2  0
  9 11  1  0
  8 12  1  0
 12 13  2  0
 13 14  1  0
 14 15  2  0
 15 16  1  0
 16 17  2  0
 17 18  1  0
 18 19  2  0
 19 20  1  0
 20 21  2  0
 21 22  1  0
 22 23  2  0
 23 24  1  0
 24 25  2  0
 25 26  1  0
 26 27  2  0
 27 28  1  0
 28 29  2  0
 29 30  1  0
 30 31  2  0
 31 32  1  0
 32 33  2  0
 33 34  1  0
 34 35  2  0
 35 36  1  0
 36 37  2  0
 37 38  1  0
 38 39  2  0
 39 40  1  0
 40 41  2  0
 41 42  1  0
 42 43  2  0
 43 44  1  0
 44 45  2  0
 45 46  1  0
 46 47  2  0
 47 48  1  0
 48 49  2  0
 49 50  1  0
 50 51  2  0
 51 52  1  0
 52 53  2  0
 53 54  1  0
 54 55  2  0
 55 56  1  0
 56 57  2  0
 57 58  1  0
 58 59  2  0
 59  6  1  0
 17 12  1  0
 23 18  1  0
 29 24  1  0
 35 30  1  0
 41 36  1  0
 47 42  1  0
 53 48  1  0
 59 54  1  0
M  END
>  <Title>  (478) 
idAAQLgen8

$$$$

     RDKit          2D

 16 17  0  0  0  0  0  0  0  0999 V2000
    3.0000    0.0000    0.0000 C   0  0  0  0  0  0  0  0  0  0  0  0
    1.5000    0.0000    0.0000 C   0  0  0  0  0  0  0  0  0  0  0  0
    0.7500   -1.2990    0.0000 C   0  0  0  0  0  0  0  0  0  0  0  0
   -0.7500   -1.2990    0.0000 C   0  0  0  0  0  0  0  0  0  0  0  0
   -1.5000    0.0000    0.0000 C   0  0  0  0  0  0  0  0  0  0  0  0
   -0.7500    1.2990    0.0000 C   0  0  0  0  0  0  0  0  0  0  0  0
   -1.5000    2.5981    0.0000 C   0  0  0  0  0  0  0  0  0  0  0  0
   -3.0000    2.5981    0.0000 O   0  0  0  0  0  0  0  0  0  0  0  0
   -0.7500    3.8971    0.0000 N   0  0  0  0  0  0  0  0  0  0  0  0
   -1.5000    5.1962    0.0000 C   0  0  0  0  0  0  0  0  0  0  0  0
   -0.7500    6.4952    0.0000 N   0  0  0  0  0  0  0  0  0  0  0  0
   -1.5000    7.7942    0.0000 N   0  0  0  0  0  0  0  0  0  0  0  0
   -3.0000    7.7942    0.0000 N   0  0  0  0  0  0  0  0  0  0  0  0
   -3.7500    6.4952    0.0000 N   0  0  0  0  0  0  0  0  0  0  0  0
   -3.0000    5.1962    0.0000 N   0  0  0  0  0  0  0  0  0  0  0  0
    0.7500    1.2990    0.0000 C   0  0  0  0  0  0  0  0  0  0  0  0
  1  2  1  0
  2  3  2  0
  3  4  1  0
  4  5  1  0
  5  6  1  0
  6  7  1  0
  7  8  2  0
  7  9  1  0
  9 10  1  0
 10 11  2  0
 11 12  1  0
 12 13  2  0
 13 14  1  0
 14 15  2  0
  6 16  1  0
 16  2  1  0
 15 10  1  0
M  END
>  <Title>  (479) 
idAAQMgen8

$$$$

     RDKit          2D

 10 10  0  0  0  0  0  0  0  0999 V2000
    2.7760   -1.5000    0.0000 C   0  0  0  0  0  0  0  0  0  0  0  0
    2.7760    0.0000    0.0000 C   0  0  0  0  0  0  0  0  0  0  0  0
    2.7760    1.5000    0.0000 C   0  0  0  0  0  0  0  0  0  0  0  0
    4.2760    0.0000    0.0000 C   0  0  0  0  0  0  0  0  0  0  0  0
    1.2760    0.0000    0.0000 C   0  0  0  0  0  0  0  0  0  0  0  0
    0.3943    1.2135    0.0000 C   0  0  0  0  0  0  0  0  0  0  0  0
   -1.0323    0.7500    0.0000 C   0  0  0  0  0  0  0  0  0  0  0  0
   -1.0323   -0.7500    0.0000 C   0  0  0  0  0  0  0  0  0  0  0  0
   -2.2458   -1.6317    0.0000 O   0  0  0  0  0  0  0  0  0  0  0  0
    0.3943   -1.2135    0.0000 C   0  0  0  0  0  0  0  0  0  0  0  0
  1  2  1  0
  2  3  1  0
  2  4  1  0
  2  5  1  0
  5  6  2  0
  6  7  1  0
  7  8  2  0
  8  9  1  0
  8 10  1  0
 10  5  1  0
M  END
>  <Title>  (480) 
idAAQNgen8

$$$$

     RDKit          2D

 10 10  0  0  0  0  0  0  0  0999 V2000
    5.0260   -1.2990    0.0000 C   0  0  0  0  0  0  0  0  0  0  0  0
    3.5260   -1.2990    0.0000 N   0  0  0  0  0  0  0  0  0  0  0  0
    2.7760   -2.5981    0.0000 C   0  0  0  0  0  0  0  0  0  0  0  0
    2.7760    0.0000    0.0000 C   0  0  0  0  0  0  0  0  0  0  0  0
    3.5260    1.2990    0.0000 O   0  0  0  0  0  0  0  0  0  0  0  0
    1.2760    0.0000    0.0000 C   0  0  0  0  0  0  0  0  0  0  0  0
    0.3943    1.2135    0.0000 C   0  0  0  0  0  0  0  0  0  0  0  0
   -1.0323    0.7500    0.0000 C   0  0  0  0  0  0  0  0  0  0  0  0
   -1.0323   -0.7500    0.0000 C   0  0  0  0  0  0  0  0  0  0  0  0
    0.3943   -1.2135    0.0000 C   0  0  0  0  0  0  0  0  0  0  0  0
  1  2  1  0
  2  3  1  0
  2  4  1  0
  4  5  2  0
  4  6  1  0
  6  7  2  0
  7  8  1  0
  8  9  1  0
  9 10  2  0
 10  6  1  0
M  END
>  <Title>  (481) 
idAAQOgen8

$$$$

     RDKit          2D

 64 64  0  0  0  0  0  0  0  0999 V2000
   16.5464    0.0000    0.0000 C   0  0  0  0  0  0  0  0  0  0  0  0
   15.0464    0.0000    0.0000 C   0  0  0  0  0  0  0  0  0  0  0  0
   14.9716    1.4981    0.0000 C   0  0  0  0  0  0  0  0  0  0  0  0
   14.7480    2.9814    0.0000 C   0  0  0  0  0  0  0  0  0  0  0  0
   14.3779    4.4350    0.0000 C   0  0  0  0  0  0  0  0  0  0  0  0
   13.8649    5.8445    0.0000 C   0  0  0  0  0  0  0  0  0  0  0  0
   13.2141    7.1960    0.0000 C   0  0  0  0  0  0  0  0  0  0  0  0
   12.4319    8.4759    0.0000 C   0  0  0  0  0  0  0  0  0  0  0  0
   11.5262    9.6716    0.0000 C   0  0  0  0  0  0  0  0  0  0  0  0
   10.5059   10.7712    0.0000 C   0  0  0  0  0  0  0  0  0  0  0  0
    9.3813   11.7637    0.0000 C   0  0  0  0  0  0  0  0  0  0  0  0
    8.1634   12.6393    0.0000 C   0  0  0  0  0  0  0  0  0  0  0  0
    6.8643   13.3893    0.0000 C   0  0  0  0  0  0  0  0  0  0  0  0
    5.4971   14.0063    0.0000 C   0  0  0  0  0  0  0  0  0  0  0  0
    4.0752   14.4840    0.0000 C   0  0  0  0  0  0  0  0  0  0  0  0
    2.6128   14.8178    0.0000 C   0  0  0  0  0  0  0  0  0  0  0  0
    1.1244   15.0043    0.0000 C   0  0  0  0  0  0  0  0  0  0  0  0
   -0.3751   15.0417    0.0000 C   0  0  0  0  0  0  0  0  0  0  0  0
   -1.8709   14.9296    0.0000 C   0  0  0  0  0  0  0  0  0  0  0  0
   -3.3481   14.6691    0.0000 C   0  0  0  0  0  0  0  0  0  0  0  0
   -4.7921   14.2629    0.0000 C   0  0  0  0  0  0  0  0  0  0  0  0
   -6.1884   13.7149    0.0000 C   0  0  0  0  0  0  0  0  0  0  0  0
   -7.5232   13.0305    0.0000 C   0  0  0  0  0  0  0  0  0  0  0  0
   -8.7832   12.2167    0.0000 C   0  0  0  0  0  0  0  0  0  0  0  0
   -9.9560   11.2815    0.0000 C   0  0  0  0  0  0  0  0  0  0  0  0
  -11.0298   10.2341    0.0000 C   0  0  0  0  0  0  0  0  0  0  0  0
  -11.9940    9.0851    0.0000 C   0  0  0  0  0  0  0  0  0  0  0  0
  -12.8389    7.8457    0.0000 C   0  0  0  0  0  0  0  0  0  0  0  0
  -13.5563    6.5284    0.0000 C   0  0  0  0  0  0  0  0  0  0  0  0
  -14.1390    5.1462    0.0000 C   0  0  0  0  0  0  0  0  0  0  0  0
  -14.5811    3.7128    0.0000 C   0  0  0  0  0  0  0  0  0  0  0  0
  -14.8783    2.2425    0.0000 C   0  0  0  0  0  0  0  0  0  0  0  0
  -15.0277    0.7500    0.0000 C   0  0  0  0  0  0  0  0  0  0  0  0
  -15.0277   -0.7500    0.0000 C   0  0  0  0  0  0  0  0  0  0  0  0
  -14.8783   -2.2425    0.0000 C   0  0  0  0  0  0  0  0  0  0  0  0
  -14.5811   -3.7128    0.0000 C   0  0  0  0  0  0  0  0  0  0  0  0
  -14.1390   -5.1462    0.0000 C   0  0  0  0  0  0  0  0  0  0  0  0
  -13.5563   -6.5284    0.0000 C   0  0  0  0  0  0  0  0  0  0  0  0
  -12.8389   -7.8457    0.0000 C   0  0  0  0  0  0  0  0  0  0  0  0
  -11.9940   -9.0851    0.0000 C   0  0  0  0  0  0  0  0  0  0  0  0
  -11.0298  -10.2341    0.0000 C   0  0  0  0  0  0  0  0  0  0  0  0
   -9.9560  -11.2815    0.0000 C   0  0  0  0  0  0  0  0  0  0  0  0
   -8.7832  -12.2167    0.0000 C   0  0  0  0  0  0  0  0  0  0  0  0
   -7.5232  -13.0305    0.0000 C   0  0  0  0  0  0  0  0  0  0  0  0
   -6.1884  -13.7149    0.0000 C   0  0  0  0  0  0  0  0  0  0  0  0
   -4.7921  -14.2629    0.0000 C   0  0  0  0  0  0  0  0  0  0  0  0
   -3.3481  -14.6691    0.0000 C   0  0  0  0  0  0  0  0  0  0  0  0
   -1.8709  -14.9296    0.0000 C   0  0  0  0  0  0  0  0  0  0  0  0
   -0.3751  -15.0417    0.0000 C   0  0  0  0  0  0  0  0  0  0  0  0
    1.1244  -15.0043    0.0000 C   0  0  0  0  0  0  0  0  0  0  0  0
    2.6128  -14.8178    0.0000 C   0  0  0  0  0  0  0  0  0  0  0  0
    4.0752  -14.4840    0.0000 C   0  0  0  0  0  0  0  0  0  0  0  0
    5.4971  -14.0063    0.0000 C   0  0  0  0  0  0  0  0  0  0  0  0
    6.8643  -13.3893    0.0000 C   0  0  0  0  0  0  0  0  0  0  0  0
    8.1634  -12.6393    0.0000 C   0  0  0  0  0  0  0  0  0  0  0  0
    9.3813  -11.7637    0.0000 C   0  0  0  0  0  0  0  0  0  0  0  0
   10.5059  -10.7712    0.0000 C   0  0  0  0  0  0  0  0  0  0  0  0
   11.5262   -9.6716    0.0000 C   0  0  0  0  0  0  0  0  0  0  0  0
   12.4319   -8.4759    0.0000 C   0  0  0  0  0  0  0  0  0  0  0  0
   13.2141   -7.1960    0.0000 C   0  0  0  0  0  0  0  0  0  0  0  0
   13.8649   -5.8445    0.0000 C   0  0  0  0  0  0  0  0  0  0  0  0
   14.3779   -4.4350    0.0000 C   0  0  0  0  0  0  0  0  0  0  0  0
   14.7480   -2.9814    0.0000 C   0  0  0  0  0  0  0  0  0  0  0  0
   14.9716   -1.4981    0.0000 C   0  0  0  0  0  0  0  0  0  0  0  0
  1  2  1  0
  2  3  1  0
  3  4  1  0
  4  5  2  0
  5  6  1  0
  6  7  2  0
  7  8  1  0
  8  9  2  0
  9 10  1  0
 10 11  1  0
 11 12  1  0
 12 13  1  0
 13 14  1  0
 14 15  1  0
 15 16  1  0
 16 17  1  0
 17 18  1  0
 18 19  1  0
 19 20  1  0
 20 21  1  0
 21 22  1  0
 22 23  1  0
 23 24  1  0
 24 25  1  0
 25 26  1  0
 26 27  1  0
 27 28  1  0
 28 29  1  0
 29 30  1  0
 30 31  1  0
 31 32  1  0
 32 33  1  0
 33 34  1  0
 34 35  1  0
 35 36  1  0
 36 37  1  0
 37 38  1  0
 38 39  1  0
 39 40  1  0
 40 41  1  0
 41 42  1  0
 42 43  1  0
 43 44  1  0
 44 45  1  0
 45 46  1  0
 46 47  1  0
 47 48  1  0
 48 49  1  0
 49 50  1  0
 50 51  1  0
 51 52  1  0
 52 53  1  0
 53 54  1  0
 54 55  1  0
 55 56  1  0
 56 57  1  0
 57 58  1  0
 58 59  1  0
 59 60  1  0
 60 61  1  0
 61 62  1  0
 62 63  1  0
 63 64  1  0
 64  2  1  0
M  END
>  <Title>  (482) 
idAAQPgen8

$$$$

     RDKit          2D

 59 60  0  0  0  0  0  0  0  0999 V2000
   13.2059   -0.0000    0.0000 C   0  0  0  0  0  0  0  0  0  0  0  0
   11.7059    0.0000    0.0000 C   0  0  0  0  0  0  0  0  0  0  0  0
   11.6098    1.4969    0.0000 C   0  0  0  0  0  0  0  0  0  0  0  0
   11.3231    2.9693    0.0000 C   0  0  0  0  0  0  0  0  0  0  0  0
   10.8504    4.3928    0.0000 C   0  0  0  0  0  0  0  0  0  0  0  0
   12.2408    4.9557    0.0000 N   0  0  0  0  0  0  0  0  0  0  0  0
   13.4234    4.0331    0.0000 C   0  0  0  0  0  0  0  0  0  0  0  0
   13.2157    2.5475    0.0000 O   0  0  0  0  0  0  0  0  0  0  0  0
   14.8138    4.5960    0.0000 C   0  0  0  0  0  0  0  0  0  0  0  0
   15.9965    3.6733    0.0000 C   0  0  0  0  0  0  0  0  0  0  0  0
   17.3869    4.2362    0.0000 C   0  0  0  0  0  0  0  0  0  0  0  0
   17.5946    5.7218    0.0000 C   0  0  0  0  0  0  0  0  0  0  0  0
   16.4119    6.6444    0.0000 C   0  0  0  0  0  0  0  0  0  0  0  0
   15.0215    6.0815    0.0000 C   0  0  0  0  0  0  0  0  0  0  0  0
   10.1996    5.7443    0.0000 C   0  0  0  0  0  0  0  0  0  0  0  0
    9.3813    7.0014    0.0000 C   0  0  0  0  0  0  0  0  0  0  0  0
    8.4089    8.1436    0.0000 C   0  0  0  0  0  0  0  0  0  0  0  0
    7.2985    9.1520    0.0000 C   0  0  0  0  0  0  0  0  0  0  0  0
    6.0683   10.0102    0.0000 C   0  0  0  0  0  0  0  0  0  0  0  0
    4.7384   10.7040    0.0000 C   0  0  0  0  0  0  0  0  0  0  0  0
    3.3307   11.2221    0.0000 C   0  0  0  0  0  0  0  0  0  0  0  0
    1.8683   11.5559    0.0000 C   0  0  0  0  0  0  0  0  0  0  0  0
    0.3752   11.6999    0.0000 C   0  0  0  0  0  0  0  0  0  0  0  0
   -1.1240   11.6518    0.0000 C   0  0  0  0  0  0  0  0  0  0  0  0
   -2.6048   11.4124    0.0000 C   0  0  0  0  0  0  0  0  0  0  0  0
   -4.0428   10.9856    0.0000 C   0  0  0  0  0  0  0  0  0  0  0  0
   -5.4144   10.3784    0.0000 C   0  0  0  0  0  0  0  0  0  0  0  0
   -6.6971    9.6009    0.0000 C   0  0  0  0  0  0  0  0  0  0  0  0
   -7.8699    8.6656    0.0000 C   0  0  0  0  0  0  0  0  0  0  0  0
   -8.9134    7.5881    0.0000 C   0  0  0  0  0  0  0  0  0  0  0  0
   -9.8106    6.3860    0.0000 C   0  0  0  0  0  0  0  0  0  0  0  0
  -10.5467    5.0790    0.0000 C   0  0  0  0  0  0  0  0  0  0  0  0
  -11.1096    3.6886    0.0000 C   0  0  0  0  0  0  0  0  0  0  0  0
  -11.4900    2.2377    0.0000 C   0  0  0  0  0  0  0  0  0  0  0  0
  -11.6819    0.7500    0.0000 C   0  0  0  0  0  0  0  0  0  0  0  0
  -11.6819   -0.7500    0.0000 C   0  0  0  0  0  0  0  0  0  0  0  0
  -11.4900   -2.2377    0.0000 C   0  0  0  0  0  0  0  0  0  0  0  0
  -11.1096   -3.6886    0.0000 C   0  0  0  0  0  0  0  0  0  0  0  0
  -10.5467   -5.0790    0.0000 C   0  0  0  0  0  0  0  0  0  0  0  0
   -9.8106   -6.3860    0.0000 C   0  0  0  0  0  0  0  0  0  0  0  0
   -8.9134   -7.5881    0.0000 C   0  0  0  0  0  0  0  0  0  0  0  0
   -7.8699   -8.6656    0.0000 C   0  0  0  0  0  0  0  0  0  0  0  0
   -6.6971   -9.6009    0.0000 C   0  0  0  0  0  0  0  0  0  0  0  0
   -5.4144  -10.3784    0.0000 C   0  0  0  0  0  0  0  0  0  0  0  0
   -4.0428  -10.9856    0.0000 C   0  0  0  0  0  0  0  0  0  0  0  0
   -2.6048  -11.4124    0.0000 C   0  0  0  0  0  0  0  0  0  0  0  0
   -1.1240  -11.6518    0.0000 C   0  0  0  0  0  0  0  0  0  0  0  0
    0.3752  -11.6999    0.0000 C   0  0  0  0  0  0  0  0  0  0  0  0
    1.8683  -11.5559    0.0000 C   0  0  0  0  0  0  0  0  0  0  0  0
    3.3307  -11.2221    0.0000 C   0  0  0  0  0  0  0  0  0  0  0  0
    4.7384  -10.7040    0.0000 C   0  0  0  0  0  0  0  0  0  0  0  0
    6.0683  -10.0102    0.0000 C   0  0  0  0  0  0  0  0  0  0  0  0
    7.2985   -9.1520    0.0000 C   0  0  0  0  0  0  0  0  0  0  0  0
    8.4089   -8.1436    0.0000 C   0  0  0  0  0  0  0  0  0  0  0  0
    9.3813   -7.0014    0.0000 C   0  0  0  0  0  0  0  0  0  0  0  0
   10.1996   -5.7443    0.0000 C   0  0  0  0  0  0  0  0  0  0  0  0
   10.8504   -4.3928    0.0000 C   0  0  0  0  0  0  0  0  0  0  0  0
   11.3231   -2.9693    0.0000 C   0  0  0  0  0  0  0  0  0  0  0  0
   11.6098   -1.4969    0.0000 C   0  0  0  0  0  0  0  0  0  0  0  0
  1  2  1  0
  2  3  1  0
  3  4  1  0
  4  5  2  0
  5  6  1  0
  6  7  1  0
  7  8  2  0
  7  9  1  0
  9 10  2  0
 10 11  1  0
 11 12  2  0
 12 13  1  0
 13 14  2  0
  5 15  1  0
 15 16  1  0
 16 17  1  0
 17 18  1  0
 18 19  1  0
 19 20  1  0
 20 21  1  0
 21 22  1  0
 22 23  1  0
 23 24  1  0
 24 25  1  0
 25 26  1  0
 26 27  1  0
 27 28  1  0
 28 29  1  0
 29 30  1  0
 30 31  1  0
 31 32  1  0
 32 33  1  0
 33 34  1  0
 34 35  1  0
 35 36  1  0
 36 37  1  0
 37 38  1  0
 38 39  1  0
 39 40  1  0
 40 41  1  0
 41 42  1  0
 42 43  1  0
 43 44  1  0
 44 45  1  0
 45 46  1  0
 46 47  1  0
 47 48  1  0
 48 49  1  0
 49 50  1  0
 50 51  1  0
 51 52  1  0
 52 53  1  0
 53 54  1  0
 54 55  1  0
 55 56  1  0
 56 57  1  0
 57 58  1  0
 58 59  1  0
 59  2  1  0
 14  9  1  0
M  END
>  <Title>  (483) 
idAAQQgen8

$$$$

     RDKit          2D

 13 13  0  0  0  0  0  0  0  0999 V2000
    7.5000   -5.1962    0.0000 C   0  0  0  0  0  0  0  0  0  0  0  0
    6.7500   -3.8971    0.0000 C   0  0  0  0  0  0  0  0  0  0  0  0
    6.0000   -2.5981    0.0000 C   0  0  0  0  0  0  0  0  0  0  0  0
    5.2500   -1.2990    0.0000 C   0  0  0  0  0  0  0  0  0  0  0  0
    3.7500   -1.2990    0.0000 C   0  0  0  0  0  0  0  0  0  0  0  0
    3.0000   -2.5981    0.0000 O   0  0  0  0  0  0  0  0  0  0  0  0
    3.0000    0.0000    0.0000 C   0  0  0  0  0  0  0  0  0  0  0  0
    1.5000    0.0000    0.0000 C   0  0  0  0  0  0  0  0  0  0  0  0
    0.7500   -1.2990    0.0000 C   0  0  0  0  0  0  0  0  0  0  0  0
   -0.7500   -1.2990    0.0000 C   0  0  0  0  0  0  0  0  0  0  0  0
   -1.5000    0.0000    0.0000 C   0  0  0  0  0  0  0  0  0  0  0  0
   -0.7500    1.2990    0.0000 C   0  0  0  0  0  0  0  0  0  0  0  0
    0.7500    1.2990    0.0000 C   0  0  0  0  0  0  0  0  0  0  0  0
  1  2  1  0
  2  3  3  0
  3  4  1  0
  4  5  1  0
  5  6  2  0
  5  7  1  0
  7  8  1  0
  8  9  2  0
  9 10  1  0
 10 11  1  0
 11 12  1  0
 12 13  2  0
 13  8  1  0
M  END
>  <Title>  (484) 
idAAQRgen8

$$$$

     RDKit          2D

109109  0  0  0  0  0  0  0  0999 V2000
   27.2867    0.0000    0.0000 C   0  0  0  0  0  0  0  0  0  0  0  0
   25.7867    0.0000    0.0000 C   0  0  0  0  0  0  0  0  0  0  0  0
   25.7431   -1.4994    0.0000 C   0  0  0  0  0  0  0  0  0  0  0  0
   25.6124   -2.9937    0.0000 C   0  0  0  0  0  0  0  0  0  0  0  0
   25.3950   -4.4778    0.0000 C   0  0  0  0  0  0  0  0  0  0  0  0
   25.0917   -5.9468    0.0000 C   0  0  0  0  0  0  0  0  0  0  0  0
   24.7034   -7.3957    0.0000 C   0  0  0  0  0  0  0  0  0  0  0  0
   24.2316   -8.8196    0.0000 C   0  0  0  0  0  0  0  0  0  0  0  0
   23.6778  -10.2136    0.0000 C   0  0  0  0  0  0  0  0  0  0  0  0
   23.0439  -11.5731    0.0000 C   0  0  0  0  0  0  0  0  0  0  0  0
   22.3320  -12.8934    0.0000 C   0  0  0  0  0  0  0  0  0  0  0  0
   21.5445  -14.1700    0.0000 C   0  0  0  0  0  0  0  0  0  0  0  0
   20.6841  -15.3988    0.0000 C   0  0  0  0  0  0  0  0  0  0  0  0
   19.7538  -16.5754    0.0000 C   0  0  0  0  0  0  0  0  0  0  0  0
   18.7566  -17.6959    0.0000 C   0  0  0  0  0  0  0  0  0  0  0  0
   17.6959  -18.7566    0.0000 C   0  0  0  0  0  0  0  0  0  0  0  0
   16.5754  -19.7538    0.0000 C   0  0  0  0  0  0  0  0  0  0  0  0
   15.3988  -20.6841    0.0000 C   0  0  0  0  0  0  0  0  0  0  0  0
   14.1700  -21.5445    0.0000 C   0  0  0  0  0  0  0  0  0  0  0  0
   12.8934  -22.3320    0.0000 C   0  0  0  0  0  0  0  0  0  0  0  0
   11.5731  -23.0439    0.0000 C   0  0  0  0  0  0  0  0  0  0  0  0
   10.2136  -23.6778    0.0000 C   0  0  0  0  0  0  0  0  0  0  0  0
    8.8196  -24.2316    0.0000 C   0  0  0  0  0  0  0  0  0  0  0  0
    7.3957  -24.7034    0.0000 C   0  0  0  0  0  0  0  0  0  0  0  0
    5.9468  -25.0917    0.0000 C   0  0  0  0  0  0  0  0  0  0  0  0
    4.4778  -25.3950    0.0000 C   0  0  0  0  0  0  0  0  0  0  0  0
    2.9937  -25.6124    0.0000 C   0  0  0  0  0  0  0  0  0  0  0  0
    1.4994  -25.7431    0.0000 C   0  0  0  0  0  0  0  0  0  0  0  0
   -0.0000  -25.7867    0.0000 C   0  0  0  0  0  0  0  0  0  0  0  0
   -1.4994  -25.7431    0.0000 C   0  0  0  0  0  0  0  0  0  0  0  0
   -2.9937  -25.6124    0.0000 C   0  0  0  0  0  0  0  0  0  0  0  0
   -4.4778  -25.3950    0.0000 C   0  0  0  0  0  0  0  0  0  0  0  0
   -5.9468  -25.0917    0.0000 C   0  0  0  0  0  0  0  0  0  0  0  0
   -7.3957  -24.7034    0.0000 C   0  0  0  0  0  0  0  0  0  0  0  0
   -8.8196  -24.2316    0.0000 C   0  0  0  0  0  0  0  0  0  0  0  0
  -10.2136  -23.6778    0.0000 C   0  0  0  0  0  0  0  0  0  0  0  0
  -11.5731  -23.0439    0.0000 C   0  0  0  0  0  0  0  0  0  0  0  0
  -12.8934  -22.3320    0.0000 C   0  0  0  0  0  0  0  0  0  0  0  0
  -14.1700  -21.5445    0.0000 C   0  0  0  0  0  0  0  0  0  0  0  0
  -15.3988  -20.6841    0.0000 C   0  0  0  0  0  0  0  0  0  0  0  0
  -16.5754  -19.7538    0.0000 C   0  0  0  0  0  0  0  0  0  0  0  0
  -17.6959  -18.7566    0.0000 C   0  0  0  0  0  0  0  0  0  0  0  0
  -18.7566  -17.6959    0.0000 C   0  0  0  0  0  0  0  0  0  0  0  0
  -19.7538  -16.5754    0.0000 C   0  0  0  0  0  0  0  0  0  0  0  0
  -20.6841  -15.3988    0.0000 C   0  0  0  0  0  0  0  0  0  0  0  0
  -21.5445  -14.1700    0.0000 C   0  0  0  0  0  0  0  0  0  0  0  0
  -22.3320  -12.8934    0.0000 C   0  0  0  0  0  0  0  0  0  0  0  0
  -23.0439  -11.5731    0.0000 C   0  0  0  0  0  0  0  0  0  0  0  0
  -23.6778  -10.2136    0.0000 C   0  0  0  0  0  0  0  0  0  0  0  0
  -24.2316   -8.8196    0.0000 C   0  0  0  0  0  0  0  0  0  0  0  0
  -24.7034   -7.3957    0.0000 C   0  0  0  0  0  0  0  0  0  0  0  0
  -25.0917   -5.9468    0.0000 C   0  0  0  0  0  0  0  0  0  0  0  0
  -25.3950   -4.4778    0.0000 C   0  0  0  0  0  0  0  0  0  0  0  0
  -25.6124   -2.9937    0.0000 C   0  0  0  0  0  0  0  0  0  0  0  0
  -25.7431   -1.4994    0.0000 C   0  0  0  0  0  0  0  0  0  0  0  0
  -25.7867    0.0000    0.0000 C   0  0  0  0  0  0  0  0  0  0  0  0
  -25.7431    1.4994    0.0000 C   0  0  0  0  0  0  0  0  0  0  0  0
  -25.6124    2.9937    0.0000 C   0  0  0  0  0  0  0  0  0  0  0  0
  -25.3950    4.4778    0.0000 C   0  0  0  0  0  0  0  0  0  0  0  0
  -25.0917    5.9468    0.0000 C   0  0  0  0  0  0  0  0  0  0  0  0
  -24.7034    7.3957    0.0000 C   0  0  0  0  0  0  0  0  0  0  0  0
  -24.2316    8.8196    0.0000 C   0  0  0  0  0  0  0  0  0  0  0  0
  -23.6778   10.2136    0.0000 C   0  0  0  0  0  0  0  0  0  0  0  0
  -23.0439   11.5731    0.0000 C   0  0  0  0  0  0  0  0  0  0  0  0
  -22.3320   12.8934    0.0000 C   0  0  0  0  0  0  0  0  0  0  0  0
  -21.5445   14.1700    0.0000 C   0  0  0  0  0  0  0  0  0  0  0  0
  -20.6841   15.3988    0.0000 C   0  0  0  0  0  0  0  0  0  0  0  0
  -19.7538   16.5754    0.0000 C   0  0  0  0  0  0  0  0  0  0  0  0
  -18.7566   17.6959    0.0000 C   0  0  0  0  0  0  0  0  0  0  0  0
  -17.6959   18.7566    0.0000 C   0  0  0  0  0  0  0  0  0  0  0  0
  -16.5754   19.7538    0.0000 C   0  0  0  0  0  0  0  0  0  0  0  0
  -15.3988   20.6841    0.0000 C   0  0  0  0  0  0  0  0  0  0  0  0
  -14.1700   21.5445    0.0000 C   0  0  0  0  0  0  0  0  0  0  0  0
  -12.8934   22.3320    0.0000 C   0  0  0  0  0  0  0  0  0  0  0  0
  -11.5731   23.0439    0.0000 C   0  0  0  0  0  0  0  0  0  0  0  0
  -10.2136   23.6778    0.0000 C   0  0  0  0  0  0  0  0  0  0  0  0
   -8.8196   24.2316    0.0000 C   0  0  0  0  0  0  0  0  0  0  0  0
   -7.3957   24.7034    0.0000 C   0  0  0  0  0  0  0  0  0  0  0  0
   -5.9468   25.0917    0.0000 C   0  0  0  0  0  0  0  0  0  0  0  0
   -4.4778   25.3950    0.0000 C   0  0  0  0  0  0  0  0  0  0  0  0
   -2.9937   25.6124    0.0000 C   0  0  0  0  0  0  0  0  0  0  0  0
   -1.4994   25.7431    0.0000 C   0  0  0  0  0  0  0  0  0  0  0  0
    0.0000   25.7867    0.0000 C   0  0  0  0  0  0  0  0  0  0  0  0
    1.4994   25.7431    0.0000 C   0  0  0  0  0  0  0  0  0  0  0  0
    2.9937   25.6124    0.0000 C   0  0  0  0  0  0  0  0  0  0  0  0
    4.4778   25.3950    0.0000 C   0  0  0  0  0  0  0  0  0  0  0  0
    5.9468   25.0917    0.0000 C   0  0  0  0  0  0  0  0  0  0  0  0
    7.3957   24.7034    0.0000 C   0  0  0  0  0  0  0  0  0  0  0  0
    8.8196   24.2316    0.0000 C   0  0  0  0  0  0  0  0  0  0  0  0
   10.2136   23.6778    0.0000 C   0  0  0  0  0  0  0  0  0  0  0  0
   11.5731   23.0439    0.0000 C   0  0  0  0  0  0  0  0  0  0  0  0
   12.8934   22.3320    0.0000 C   0  0  0  0  0  0  0  0  0  0  0  0
   14.1700   21.5445    0.0000 C   0  0  0  0  0  0  0  0  0  0  0  0
   15.3988   20.6841    0.0000 C   0  0  0  0  0  0  0  0  0  0  0  0
   16.5754   19.7538    0.0000 C   0  0  0  0  0  0  0  0  0  0  0  0
   17.6959   18.7566    0.0000 C   0  0  0  0  0  0  0  0  0  0  0  0
   18.7566   17.6959    0.0000 C   0  0  0  0  0  0  0  0  0  0  0  0
   19.7538   16.5754    0.0000 C   0  0  0  0  0  0  0  0  0  0  0  0
   20.6841   15.3988    0.0000 C   0  0  0  0  0  0  0  0  0  0  0  0
   21.5445   14.1700    0.0000 C   0  0  0  0  0  0  0  0  0  0  0  0
   22.3320   12.8934    0.0000 C   0  0  0  0  0  0  0  0  0  0  0  0
   23.0439   11.5731    0.0000 C   0  0  0  0  0  0  0  0  0  0  0  0
   23.6778   10.2136    0.0000 C   0  0  0  0  0  0  0  0  0  0  0  0
   24.2316    8.8196    0.0000 C   0  0  0  0  0  0  0  0  0  0  0  0
   24.7034    7.3957    0.0000 C   0  0  0  0  0  0  0  0  0  0  0  0
   25.0917    5.9468    0.0000 C   0  0  0  0  0  0  0  0  0  0  0  0
   25.3950    4.4778    0.0000 C   0  0  0  0  0  0  0  0  0  0  0  0
   25.6124    2.9937    0.0000 C   0  0  0  0  0  0  0  0  0  0  0  0
   25.7431    1.4994    0.0000 C   0  0  0  0  0  0  0  0  0  0  0  0
  1  2  1  0
  2  3  1  0
  3  4  1  0
  4  5  1  0
  5  6  1  0
  6  7  1  0
  7  8  1  0
  8  9  1  0
  9 10  1  0
 10 11  1  0
 11 12  1  0
 12 13  1  0
 13 14  1  0
 14 15  1  0
 15 16  1  0
 16 17  1  0
 17 18  1  0
 18 19  1  0
 19 20  1  0
 20 21  1  0
 21 22  1  0
 22 23  1  0
 23 24  1  0
 24 25  1  0
 25 26  1  0
 26 27  1  0
 27 28  1  0
 28 29  1  0
 29 30  1  0
 30 31  1  0
 31 32  1  0
 32 33  1  0
 33 34  1  0
 34 35  1  0
 35 36  1  0
 36 37  1  0
 37 38  1  0
 38 39  1  0
 39 40  1  0
 40 41  1  0
 41 42  1  0
 42 43  1  0
 43 44  1  0
 44 45  1  0
 45 46  1  0
 46 47  1  0
 47 48  1  0
 48 49  1  0
 49 50  1  0
 50 51  1  0
 51 52  1  0
 52 53  1  0
 53 54  1  0
 54 55  1  0
 55 56  1  0
 56 57  1  0
 57 58  1  0
 58 59  1  0
 59 60  1  0
 60 61  1  0
 61 62  1  0
 62 63  1  0
 63 64  1  0
 64 65  1  0
 65 66  1  0
 66 67  1  0
 67 68  1  0
 68 69  1  0
 69 70  1  0
 70 71  1  0
 71 72  1  0
 72 73  1  0
 73 74  1  0
 74 75  1  0
 75 76  1  0
 76 77  1  0
 77 78  1  0
 78 79  1  0
 79 80  1  0
 80 81  1  0
 81 82  1  0
 82 83  1  0
 83 84  1  0
 84 85  1  0
 85 86  1  0
 86 87  1  0
 87 88  1  0
 88 89  1  0
 89 90  1  0
 90 91  1  0
 91 92  1  0
 92 93  1  0
 93 94  1  0
 94 95  1  0
 95 96  1  0
 96 97  1  0
 97 98  1  0
 98 99  1  0
 99100  1  0
100101  1  0
101102  1  0
102103  1  0
103104  1  0
104105  1  0
105106  1  0
106107  1  0
107108  1  0
108109  1  0
109  2  1  0
M  END
>  <Title>  (485) 
idAAQSgen8

$$$$

     RDKit          2D

 10 10  0  0  0  0  0  0  0  0999 V2000
    4.7286   -0.0000    0.0000 N   0  0  0  0  0  0  0  0  0  0  0  0
    3.2286   -0.0000    0.0000 C   0  0  0  0  0  0  0  0  0  0  0  0
    1.7286    0.0000    0.0000 C   0  0  0  0  0  0  0  0  0  0  0  0
    1.0777    1.3515    0.0000 C   0  0  0  0  0  0  0  0  0  0  0  0
   -0.3846    1.6852    0.0000 C   0  0  0  0  0  0  0  0  0  0  0  0
   -1.5574    0.7500    0.0000 C   0  0  0  0  0  0  0  0  0  0  0  0
   -1.5574   -0.7500    0.0000 C   0  0  0  0  0  0  0  0  0  0  0  0
   -2.9088   -1.4008    0.0000 O   0  0  0  0  0  0  0  0  0  0  0  0
   -0.3846   -1.6852    0.0000 C   0  0  0  0  0  0  0  0  0  0  0  0
    1.0777   -1.3515    0.0000 C   0  0  0  0  0  0  0  0  0  0  0  0
  1  2  3  0
  2  3  1  0
  3  4  2  0
  4  5  1  0
  5  6  1  0
  6  7  1  0
  7  8  1  0
  7  9  1  0
  9 10  1  0
 10  3  1  0
M  END
>  <Title>  (486) 
idAAQTgen8

$$$$

     RDKit          2D

  8  8  0  0  0  0  0  0  0  0999 V2000
    4.5000    0.0000    0.0000 C   0  0  0  0  0  0  0  0  0  0  0  0
    3.0000    0.0000    0.0000 C   0  0  0  0  0  0  0  0  0  0  0  0
    1.5000    0.0000    0.0000 C   0  0  0  0  0  0  0  0  0  0  0  0
    0.7500   -1.2990    0.0000 C   0  0  0  0  0  0  0  0  0  0  0  0
   -0.7500   -1.2990    0.0000 C   0  0  0  0  0  0  0  0  0  0  0  0
   -1.5000    0.0000    0.0000 C   0  0  0  0  0  0  0  0  0  0  0  0
   -0.7500    1.2990    0.0000 C   0  0  0  0  0  0  0  0  0  0  0  0
    0.7500    1.2990    0.0000 C   0  0  0  0  0  0  0  0  0  0  0  0
  1  2  3  0
  2  3  1  0
  3  4  1  0
  4  5  2  0
  5  6  1  0
  6  7  1  0
  7  8  1  0
  8  3  1  0
M  END
>  <Title>  (487) 
idAAQUgen8

$$$$

     RDKit          2D

 17 18  0  0  0  0  0  0  0  0999 V2000
    4.5000    0.0000    0.0000 C   0  0  0  0  0  0  0  0  0  0  0  0
    3.0000    0.0000    0.0000 C   0  0  0  0  0  0  0  0  0  0  0  0
    1.5000    0.0000    0.0000 C   0  0  0  0  0  0  0  0  0  0  0  0
    0.7500   -1.2990    0.0000 C   0  0  0  0  0  0  0  0  0  0  0  0
   -0.7500   -1.2990    0.0000 C   0  0  0  0  0  0  0  0  0  0  0  0
   -1.5000    0.0000    0.0000 C   0  0  0  0  0  0  0  0  0  0  0  0
   -0.7500    1.2990    0.0000 C   0  0  0  0  0  0  0  0  0  0  0  0
   -1.5000    2.5981    0.0000 C   0  0  0  0  0  0  0  0  0  0  0  0
   -3.0000    2.5981    0.0000 O   0  0  0  0  0  0  0  0  0  0  0  0
   -0.7500    3.8971    0.0000 N   0  0  0  0  0  0  0  0  0  0  0  0
   -1.5000    5.1962    0.0000 C   0  0  0  0  0  0  0  0  0  0  0  0
   -0.7500    6.4952    0.0000 N   0  0  0  0  0  0  0  0  0  0  0  0
   -1.5000    7.7942    0.0000 N   0  0  0  0  0  0  0  0  0  0  0  0
   -3.0000    7.7942    0.0000 N   0  0  0  0  0  0  0  0  0  0  0  0
   -3.7500    6.4952    0.0000 N   0  0  0  0  0  0  0  0  0  0  0  0
   -3.0000    5.1962    0.0000 N   0  0  0  0  0  0  0  0  0  0  0  0
    0.7500    1.2990    0.0000 C   0  0  0  0  0  0  0  0  0  0  0  0
  1  2  3  0
  2  3  1  0
  3  4  1  0
  4  5  1  0
  5  6  1  0
  6  7  1  0
  7  8  1  0
  8  9  2  0
  8 10  1  0
 10 11  1  0
 11 12  2  0
 12 13  1  0
 13 14  2  0
 14 15  1  0
 15 16  2  0
  7 17  1  0
 17  3  1  0
 16 11  1  0
M  END
>  <Title>  (488) 
idAAQVgen8

$$$$

     RDKit          2D

  9  9  0  0  0  0  0  0  0  0999 V2000
    2.7938   -3.5702    0.0000 C   0  0  0  0  0  0  0  0  0  0  0  0
    1.7331   -2.5095    0.0000 C   0  0  0  0  0  0  0  0  0  0  0  0
    2.1213   -1.0607    0.0000 C   0  0  0  0  0  0  0  0  0  0  0  0
    1.0607    0.0000    0.0000 C   0  0  0  0  0  0  0  0  0  0  0  0
    2.1213    1.0607    0.0000 C   0  0  0  0  0  0  0  0  0  0  0  0
   -0.0000   -1.0607    0.0000 C   0  0  0  0  0  0  0  0  0  0  0  0
   -1.0607    0.0000    0.0000 C   0  0  0  0  0  0  0  0  0  0  0  0
    0.0000    1.0607    0.0000 C   0  0  0  0  0  0  0  0  0  0  0  0
    0.0000    2.5607    0.0000 O   0  0  0  0  0  0  0  0  0  0  0  0
  1  2  1  0
  2  3  1  0
  3  4  1  0
  4  5  1  0
  4  6  1  0
  6  7  1  0
  7  8  2  0
  8  9  1  0
  8  4  1  0
M  END
>  <Title>  (489) 
idAAQWgen8

$$$$

     RDKit          2D

 79 80  0  0  0  0  0  0  0  0999 V2000
   17.9782    0.0000    0.0000 C   0  0  0  0  0  0  0  0  0  0  0  0
   16.4782    0.0000    0.0000 C   0  0  0  0  0  0  0  0  0  0  0  0
   16.4100    1.4984    0.0000 C   0  0  0  0  0  0  0  0  0  0  0  0
   16.2057    2.9845    0.0000 C   0  0  0  0  0  0  0  0  0  0  0  0
   17.6809    3.2561    0.0000 C   0  0  0  0  0  0  0  0  0  0  0  0
   18.6538    2.1144    0.0000 O   0  0  0  0  0  0  0  0  0  0  0  0
   18.1832    4.6695    0.0000 N   0  0  0  0  0  0  0  0  0  0  0  0
   19.6584    4.9412    0.0000 C   0  0  0  0  0  0  0  0  0  0  0  0
   20.6313    3.7995    0.0000 N   0  0  0  0  0  0  0  0  0  0  0  0
   22.1065    4.0712    0.0000 N   0  0  0  0  0  0  0  0  0  0  0  0
   22.6088    5.4846    0.0000 N   0  0  0  0  0  0  0  0  0  0  0  0
   21.6359    6.6263    0.0000 N   0  0  0  0  0  0  0  0  0  0  0  0
   20.1607    6.3546    0.0000 N   0  0  0  0  0  0  0  0  0  0  0  0
   15.8672    4.4458    0.0000 C   0  0  0  0  0  0  0  0  0  0  0  0
   15.3972    5.8702    0.0000 C   0  0  0  0  0  0  0  0  0  0  0  0
   14.7996    7.2460    0.0000 C   0  0  0  0  0  0  0  0  0  0  0  0
   14.0793    8.5618    0.0000 C   0  0  0  0  0  0  0  0  0  0  0  0
   13.2424    9.8067    0.0000 C   0  0  0  0  0  0  0  0  0  0  0  0
   12.2958   10.9702    0.0000 C   0  0  0  0  0  0  0  0  0  0  0  0
   11.2473   12.0429    0.0000 C   0  0  0  0  0  0  0  0  0  0  0  0
   10.1056   13.0158    0.0000 C   0  0  0  0  0  0  0  0  0  0  0  0
    8.8801   13.8808    0.0000 C   0  0  0  0  0  0  0  0  0  0  0  0
    7.5811   14.6308    0.0000 C   0  0  0  0  0  0  0  0  0  0  0  0
    6.2192   15.2595    0.0000 C   0  0  0  0  0  0  0  0  0  0  0  0
    4.8058   15.7619    0.0000 C   0  0  0  0  0  0  0  0  0  0  0  0
    3.3526   16.1336    0.0000 C   0  0  0  0  0  0  0  0  0  0  0  0
    1.8716   16.3716    0.0000 C   0  0  0  0  0  0  0  0  0  0  0  0
    0.3751   16.4740    0.0000 C   0  0  0  0  0  0  0  0  0  0  0  0
   -1.1245   16.4398    0.0000 C   0  0  0  0  0  0  0  0  0  0  0  0
   -2.6148   16.2694    0.0000 C   0  0  0  0  0  0  0  0  0  0  0  0
   -4.0834   15.9643    0.0000 C   0  0  0  0  0  0  0  0  0  0  0  0
   -5.5182   15.5268    0.0000 C   0  0  0  0  0  0  0  0  0  0  0  0
   -6.9073   14.9607    0.0000 C   0  0  0  0  0  0  0  0  0  0  0  0
   -8.2391   14.2706    0.0000 C   0  0  0  0  0  0  0  0  0  0  0  0
   -9.5027   13.4622    0.0000 C   0  0  0  0  0  0  0  0  0  0  0  0
  -10.6875   12.5423    0.0000 C   0  0  0  0  0  0  0  0  0  0  0  0
  -11.7837   11.5185    0.0000 C   0  0  0  0  0  0  0  0  0  0  0  0
  -12.7823   10.3992    0.0000 C   0  0  0  0  0  0  0  0  0  0  0  0
  -13.6750    9.1938    0.0000 C   0  0  0  0  0  0  0  0  0  0  0  0
  -14.4544    7.9121    0.0000 C   0  0  0  0  0  0  0  0  0  0  0  0
  -15.1140    6.5649    0.0000 C   0  0  0  0  0  0  0  0  0  0  0  0
  -15.6484    5.1634    0.0000 C   0  0  0  0  0  0  0  0  0  0  0  0
  -16.0531    3.7190    0.0000 C   0  0  0  0  0  0  0  0  0  0  0  0
  -16.3248    2.2438    0.0000 C   0  0  0  0  0  0  0  0  0  0  0  0
  -16.4612    0.7500    0.0000 C   0  0  0  0  0  0  0  0  0  0  0  0
  -16.4612   -0.7500    0.0000 C   0  0  0  0  0  0  0  0  0  0  0  0
  -16.3248   -2.2438    0.0000 C   0  0  0  0  0  0  0  0  0  0  0  0
  -16.0531   -3.7190    0.0000 C   0  0  0  0  0  0  0  0  0  0  0  0
  -15.6484   -5.1634    0.0000 C   0  0  0  0  0  0  0  0  0  0  0  0
  -15.1140   -6.5649    0.0000 C   0  0  0  0  0  0  0  0  0  0  0  0
  -14.4544   -7.9121    0.0000 C   0  0  0  0  0  0  0  0  0  0  0  0
  -13.6750   -9.1938    0.0000 C   0  0  0  0  0  0  0  0  0  0  0  0
  -12.7823  -10.3992    0.0000 C   0  0  0  0  0  0  0  0  0  0  0  0
  -11.7837  -11.5185    0.0000 C   0  0  0  0  0  0  0  0  0  0  0  0
  -10.6875  -12.5423    0.0000 C   0  0  0  0  0  0  0  0  0  0  0  0
   -9.5027  -13.4622    0.0000 C   0  0  0  0  0  0  0  0  0  0  0  0
   -8.2391  -14.2706    0.0000 C   0  0  0  0  0  0  0  0  0  0  0  0
   -6.9073  -14.9607    0.0000 C   0  0  0  0  0  0  0  0  0  0  0  0
   -5.5182  -15.5268    0.0000 C   0  0  0  0  0  0  0  0  0  0  0  0
   -4.0834  -15.9643    0.0000 C   0  0  0  0  0  0  0  0  0  0  0  0
   -2.6148  -16.2694    0.0000 C   0  0  0  0  0  0  0  0  0  0  0  0
   -1.1245  -16.4398    0.0000 C   0  0  0  0  0  0  0  0  0  0  0  0
    0.3751  -16.4740    0.0000 C   0  0  0  0  0  0  0  0  0  0  0  0
    1.8716  -16.3716    0.0000 C   0  0  0  0  0  0  0  0  0  0  0  0
    3.3526  -16.1336    0.0000 C   0  0  0  0  0  0  0  0  0  0  0  0
    4.8058  -15.7619    0.0000 C   0  0  0  0  0  0  0  0  0  0  0  0
    6.2192  -15.2595    0.0000 C   0  0  0  0  0  0  0  0  0  0  0  0
    7.5811  -14.6308    0.0000 C   0  0  0  0  0  0  0  0  0  0  0  0
    8.8801  -13.8808    0.0000 C   0  0  0  0  0  0  0  0  0  0  0  0
   10.1056  -13.0158    0.0000 C   0  0  0  0  0  0  0  0  0  0  0  0
   11.2473  -12.0429    0.0000 C   0  0  0  0  0  0  0  0  0  0  0  0
   12.2958  -10.9702    0.0000 C   0  0  0  0  0  0  0  0  0  0  0  0
   13.2424   -9.8067    0.0000 C   0  0  0  0  0  0  0  0  0  0  0  0
   14.0793   -8.5618    0.0000 C   0  0  0  0  0  0  0  0  0  0  0  0
   14.7996   -7.2460    0.0000 C   0  0  0  0  0  0  0  0  0  0  0  0
   15.3972   -5.8702    0.0000 C   0  0  0  0  0  0  0  0  0  0  0  0
   15.8672   -4.4458    0.0000 C   0  0  0  0  0  0  0  0  0  0  0  0
   16.2057   -2.9845    0.0000 C   0  0  0  0  0  0  0  0  0  0  0  0
   16.4100   -1.4984    0.0000 C   0  0  0  0  0  0  0  0  0  0  0  0
  1  2  1  0
  2  3  1  0
  3  4  2  0
  4  5  1  0
  5  6  2  0
  5  7  1  0
  7  8  1  0
  8  9  2  0
  9 10  1  0
 10 11  2  0
 11 12  1  0
 12 13  2  0
  4 14  1  0
 14 15  2  0
 15 16  1  0
 16 17  2  0
 17 18  1  0
 18 19  2  0
 19 20  1  0
 20 21  2  0
 21 22  1  0
 22 23  2  0
 23 24  1  0
 24 25  2  0
 25 26  1  0
 26 27  2  0
 27 28  1  0
 28 29  2  0
 29 30  1  0
 30 31  2  0
 31 32  1  0
 32 33  2  0
 33 34  1  0
 34 35  2  0
 35 36  1  0
 36 37  2  0
 37 38  1  0
 38 39  2  0
 39 40  1  0
 40 41  2  0
 41 42  1  0
 42 43  1  0
 43 44  1  0
 44 45  1  0
 45 46  1  0
 46 47  1  0
 47 48  1  0
 48 49  1  0
 49 50  1  0
 50 51  1  0
 51 52  1  0
 52 53  1  0
 53 54  1  0
 54 55  1  0
 55 56  1  0
 56 57  1  0
 57 58  1  0
 58 59  1  0
 59 60  1  0
 60 61  1  0
 61 62  1  0
 62 63  1  0
 63 64  1  0
 64 65  1  0
 65 66  1  0
 66 67  1  0
 67 68  1  0
 68 69  1  0
 69 70  1  0
 70 71  1  0
 71 72  1  0
 72 73  1  0
 73 74  1  0
 74 75  1  0
 75 76  1  0
 76 77  1  0
 77 78  1  0
 78 79  1  0
 79  2  1  0
 13  8  1  0
M  END
>  <Title>  (490) 
idAAQXgen8

$$$$

     RDKit          2D

102103  0  0  0  0  0  0  0  0999 V2000
   -2.3924    0.0968    0.0000 C   0  0  0  0  0  0  0  0  0  0  0  0
   -2.2469   -1.3961    0.0000 C   0  0  0  0  0  0  0  0  0  0  0  0
   -3.7343   -1.5899    0.0000 C   0  0  0  0  0  0  0  0  0  0  0  0
   -5.2061   -1.8796    0.0000 C   0  0  0  0  0  0  0  0  0  0  0  0
   -6.6560   -2.2639    0.0000 C   0  0  0  0  0  0  0  0  0  0  0  0
   -8.0780   -2.7413    0.0000 C   0  0  0  0  0  0  0  0  0  0  0  0
   -9.4661   -3.3097    0.0000 C   0  0  0  0  0  0  0  0  0  0  0  0
  -10.8146   -3.9667    0.0000 C   0  0  0  0  0  0  0  0  0  0  0  0
  -12.1176   -4.7097    0.0000 C   0  0  0  0  0  0  0  0  0  0  0  0
  -13.3699   -5.5355    0.0000 C   0  0  0  0  0  0  0  0  0  0  0  0
  -14.5660   -6.4406    0.0000 C   0  0  0  0  0  0  0  0  0  0  0  0
  -15.7011   -7.4212    0.0000 C   0  0  0  0  0  0  0  0  0  0  0  0
  -16.7703   -8.4732    0.0000 C   0  0  0  0  0  0  0  0  0  0  0  0
  -17.7692   -9.5923    0.0000 C   0  0  0  0  0  0  0  0  0  0  0  0
  -18.6935  -10.7736    0.0000 C   0  0  0  0  0  0  0  0  0  0  0  0
  -19.5395  -12.0123    0.0000 C   0  0  0  0  0  0  0  0  0  0  0  0
  -20.3034  -13.3032    0.0000 C   0  0  0  0  0  0  0  0  0  0  0  0
  -20.9823  -14.6408    0.0000 C   0  0  0  0  0  0  0  0  0  0  0  0
  -21.5731  -16.0195    0.0000 C   0  0  0  0  0  0  0  0  0  0  0  0
  -22.0734  -17.4336    0.0000 C   0  0  0  0  0  0  0  0  0  0  0  0
  -22.4812  -18.8772    0.0000 C   0  0  0  0  0  0  0  0  0  0  0  0
  -22.7946  -20.3440    0.0000 C   0  0  0  0  0  0  0  0  0  0  0  0
  -23.0124  -21.8281    0.0000 C   0  0  0  0  0  0  0  0  0  0  0  0
  -23.1338  -23.3232    0.0000 C   0  0  0  0  0  0  0  0  0  0  0  0
  -23.1581  -24.8230    0.0000 C   0  0  0  0  0  0  0  0  0  0  0  0
  -23.0852  -26.3213    0.0000 C   0  0  0  0  0  0  0  0  0  0  0  0
  -22.9155  -27.8116    0.0000 C   0  0  0  0  0  0  0  0  0  0  0  0
  -22.6498  -29.2879    0.0000 C   0  0  0  0  0  0  0  0  0  0  0  0
  -22.2890  -30.7439    0.0000 C   0  0  0  0  0  0  0  0  0  0  0  0
  -21.8347  -32.1734    0.0000 C   0  0  0  0  0  0  0  0  0  0  0  0
  -21.2888  -33.5706    0.0000 C   0  0  0  0  0  0  0  0  0  0  0  0
  -20.6537  -34.9295    0.0000 C   0  0  0  0  0  0  0  0  0  0  0  0
  -19.9319  -36.2444    0.0000 C   0  0  0  0  0  0  0  0  0  0  0  0
  -19.1265  -37.5098    0.0000 C   0  0  0  0  0  0  0  0  0  0  0  0
  -18.2409  -38.7205    0.0000 C   0  0  0  0  0  0  0  0  0  0  0  0
  -17.2788  -39.8713    0.0000 C   0  0  0  0  0  0  0  0  0  0  0  0
  -16.2442  -40.9574    0.0000 C   0  0  0  0  0  0  0  0  0  0  0  0
  -15.1415  -41.9743    0.0000 C   0  0  0  0  0  0  0  0  0  0  0  0
  -13.9753  -42.9176    0.0000 C   0  0  0  0  0  0  0  0  0  0  0  0
  -12.7504  -43.7835    0.0000 C   0  0  0  0  0  0  0  0  0  0  0  0
  -11.4721  -44.5683    0.0000 C   0  0  0  0  0  0  0  0  0  0  0  0
  -10.1457  -45.2687    0.0000 C   0  0  0  0  0  0  0  0  0  0  0  0
   -8.7767  -45.8818    0.0000 C   0  0  0  0  0  0  0  0  0  0  0  0
   -7.3709  -46.4049    0.0000 C   0  0  0  0  0  0  0  0  0  0  0  0
   -5.9341  -46.8360    0.0000 C   0  0  0  0  0  0  0  0  0  0  0  0
   -4.4725  -47.1731    0.0000 C   0  0  0  0  0  0  0  0  0  0  0  0
   -2.9921  -47.4150    0.0000 C   0  0  0  0  0  0  0  0  0  0  0  0
   -1.4992  -47.5605    0.0000 C   0  0  0  0  0  0  0  0  0  0  0  0
    0.0000  -47.6091    0.0000 C   0  0  0  0  0  0  0  0  0  0  0  0
    1.4992  -47.5605    0.0000 C   0  0  0  0  0  0  0  0  0  0  0  0
    2.9921  -47.4150    0.0000 C   0  0  0  0  0  0  0  0  0  0  0  0
    4.4725  -47.1731    0.0000 C   0  0  0  0  0  0  0  0  0  0  0  0
    5.9341  -46.8360    0.0000 C   0  0  0  0  0  0  0  0  0  0  0  0
    7.3709  -46.4049    0.0000 C   0  0  0  0  0  0  0  0  0  0  0  0
    8.7767  -45.8818    0.0000 C   0  0  0  0  0  0  0  0  0  0  0  0
   10.1457  -45.2687    0.0000 C   0  0  0  0  0  0  0  0  0  0  0  0
   11.4721  -44.5683    0.0000 C   0  0  0  0  0  0  0  0  0  0  0  0
   12.7504  -43.7835    0.0000 C   0  0  0  0  0  0  0  0  0  0  0  0
   13.9753  -42.9176    0.0000 C   0  0  0  0  0  0  0  0  0  0  0  0
   15.1415  -41.9743    0.0000 C   0  0  0  0  0  0  0  0  0  0  0  0
   16.2442  -40.9574    0.0000 C   0  0  0  0  0  0  0  0  0  0  0  0
   17.2788  -39.8713    0.0000 C   0  0  0  0  0  0  0  0  0  0  0  0
   18.2409  -38.7205    0.0000 C   0  0  0  0  0  0  0  0  0  0  0  0
   19.1265  -37.5098    0.0000 C   0  0  0  0  0  0  0  0  0  0  0  0
   19.9319  -36.2444    0.0000 C   0  0  0  0  0  0  0  0  0  0  0  0
   20.6537  -34.9295    0.0000 C   0  0  0  0  0  0  0  0  0  0  0  0
   21.2888  -33.5706    0.0000 C   0  0  0  0  0  0  0  0  0  0  0  0
   21.8347  -32.1734    0.0000 C   0  0  0  0  0  0  0  0  0  0  0  0
   22.2890  -30.7439    0.0000 C   0  0  0  0  0  0  0  0  0  0  0  0
   22.6498  -29.2879    0.0000 C   0  0  0  0  0  0  0  0  0  0  0  0
   22.9155  -27.8116    0.0000 C   0  0  0  0  0  0  0  0  0  0  0  0
   23.0852  -26.3213    0.0000 C   0  0  0  0  0  0  0  0  0  0  0  0
   23.1581  -24.8230    0.0000 C   0  0  0  0  0  0  0  0  0  0  0  0
   23.1338  -23.3232    0.0000 C   0  0  0  0  0  0  0  0  0  0  0  0
   23.0124  -21.8281    0.0000 C   0  0  0  0  0  0  0  0  0  0  0  0
   22.7946  -20.3440    0.0000 C   0  0  0  0  0  0  0  0  0  0  0  0
   22.4812  -18.8772    0.0000 C   0  0  0  0  0  0  0  0  0  0  0  0
   22.0734  -17.4336    0.0000 C   0  0  0  0  0  0  0  0  0  0  0  0
   21.5731  -16.0195    0.0000 C   0  0  0  0  0  0  0  0  0  0  0  0
   20.9823  -14.6408    0.0000 C   0  0  0  0  0  0  0  0  0  0  0  0
   20.3034  -13.3032    0.0000 C   0  0  0  0  0  0  0  0  0  0  0  0
   19.5395  -12.0123    0.0000 C   0  0  0  0  0  0  0  0  0  0  0  0
   18.6935  -10.7736    0.0000 C   0  0  0  0  0  0  0  0  0  0  0  0
   17.7692   -9.5923    0.0000 C   0  0  0  0  0  0  0  0  0  0  0  0
   16.7703   -8.4732    0.0000 C   0  0  0  0  0  0  0  0  0  0  0  0
   15.7011   -7.4212    0.0000 C   0  0  0  0  0  0  0  0  0  0  0  0
   14.5660   -6.4406    0.0000 C   0  0  0  0  0  0  0  0  0  0  0  0
   13.3699   -5.5355    0.0000 C   0  0  0  0  0  0  0  0  0  0  0  0
   12.1176   -4.7097    0.0000 C   0  0  0  0  0  0  0  0  0  0  0  0
   10.8146   -3.9667    0.0000 C   0  0  0  0  0  0  0  0  0  0  0  0
    9.4661   -3.3097    0.0000 C   0  0  0  0  0  0  0  0  0  0  0  0
    8.0780   -2.7413    0.0000 C   0  0  0  0  0  0  0  0  0  0  0  0
    6.6560   -2.2639    0.0000 C   0  0  0  0  0  0  0  0  0  0  0  0
    5.2061   -1.8796    0.0000 C   0  0  0  0  0  0  0  0  0  0  0  0
    3.7343   -1.5899    0.0000 C   0  0  0  0  0  0  0  0  0  0  0  0
    2.2469   -1.3961    0.0000 C   0  0  0  0  0  0  0  0  0  0  0  0
    0.7500   -1.2990    0.0000 C   0  0  0  0  0  0  0  0  0  0  0  0
    1.5000    0.0000    0.0000 C   0  0  0  0  0  0  0  0  0  0  0  0
    0.7500    1.2990    0.0000 C   0  0  0  0  0  0  0  0  0  0  0  0
   -0.7500    1.2990    0.0000 C   0  0  0  0  0  0  0  0  0  0  0  0
   -1.5000    0.0000    0.0000 C   0  0  0  0  0  0  0  0  0  0  0  0
   -0.7500   -1.2990    0.0000 C   0  0  0  0  0  0  0  0  0  0  0  0
  1  2  1  0
  2  3  1  0
  3  4  1  0
  4  5  1  0
  5  6  1  0
  6  7  1  0
  7  8  1  0
  8  9  1  0
  9 10  1  0
 10 11  1  0
 11 12  1  0
 12 13  1  0
 13 14  1  0
 14 15  1  0
 15 16  1  0
 16 17  1  0
 17 18  1  0
 18 19  1  0
 19 20  1  0
 20 21  1  0
 21 22  1  0
 22 23  1  0
 23 24  1  0
 24 25  1  0
 25 26  1  0
 26 27  1  0
 27 28  1  0
 28 29  1  0
 29 30  1  0
 30 31  1  0
 31 32  1  0
 32 33  1  0
 33 34  1  0
 34 35  1  0
 35 36  1  0
 36 37  1  0
 37 38  1  0
 38 39  1  0
 39 40  1  0
 40 41  1  0
 41 42  1  0
 42 43  1  0
 43 44  1  0
 44 45  1  0
 45 46  1  0
 46 47  1  0
 47 48  1  0
 48 49  1  0
 49 50  1  0
 50 51  1  0
 51 52  1  0
 52 53  1  0
 53 54  1  0
 54 55  1  0
 55 56  1  0
 56 57  1  0
 57 58  1  0
 58 59  1  0
 59 60  1  0
 60 61  1  0
 61 62  1  0
 62 63  1  0
 63 64  1  0
 64 65  1  0
 65 66  1  0
 66 67  1  0
 67 68  1  0
 68 69  1  0
 69 70  1  0
 70 71  1  0
 71 72  1  0
 72 73  1  0
 73 74  1  0
 74 75  1  0
 75 76  1  0
 76 77  1  0
 77 78  1  0
 78 79  1  0
 79 80  1  0
 80 81  1  0
 81 82  1  0
 82 83  1  0
 83 84  1  0
 84 85  1  0
 85 86  1  0
 86 87  1  0
 87 88  1  0
 88 89  1  0
 89 90  1  0
 90 91  1  0
 91 92  1  0
 92 93  1  0
 93 94  1  0
 94 95  1  0
 95 96  1  0
 96 97  1  0
 97 98  2  0
 98 99  1  0
 99100  1  0
100101  1  0
101102  2  0
102  2  1  0
102 97  1  0
M  END
>  <Title>  (491) 
idAAQYgen8

$$$$

     RDKit          2D

  9  9  0  0  0  0  0  0  0  0999 V2000
    3.0000    0.0000    0.0000 C   0  0  0  0  0  0  0  0  0  0  0  0
    1.5000    0.0000    0.0000 C   0  0  0  0  0  0  0  0  0  0  0  0
    0.7500   -1.2990    0.0000 C   0  0  0  0  0  0  0  0  0  0  0  0
   -0.7500   -1.2990    0.0000 C   0  0  0  0  0  0  0  0  0  0  0  0
   -1.5000    0.0000    0.0000 C   0  0  0  0  0  0  0  0  0  0  0  0
   -0.7500    1.2990    0.0000 C   0  0  0  0  0  0  0  0  0  0  0  0
   -1.5000    2.5981    0.0000 C   0  0  0  0  0  0  0  0  0  0  0  0
   -0.7500    3.8971    0.0000 O   0  0  0  0  0  0  0  0  0  0  0  0
    0.7500    1.2990    0.0000 C   0  0  0  0  0  0  0  0  0  0  0  0
  1  2  1  0
  2  3  1  0
  3  4  1  0
  4  5  1  0
  5  6  1  0
  6  7  1  0
  7  8  1  0
  6  9  1  0
  9  2  1  0
M  END
>  <Title>  (492) 
idAAQZgen8

$$$$

     RDKit          2D

  7  6  0  0  0  0  0  0  0  0999 V2000
    0.0000    0.0000    0.0000 C   0  0  0  0  0  0  0  0  0  0  0  0
    1.2990    0.7500    0.0000 C   0  0  0  0  0  0  0  0  0  0  0  0
    2.5981   -0.0000    0.0000 C   0  0  0  0  0  0  0  0  0  0  0  0
    3.8971    0.7500    0.0000 C   0  0  0  0  0  0  0  0  0  0  0  0
    3.8971    2.2500    0.0000 O   0  0  0  0  0  0  0  0  0  0  0  0
    5.1962   -0.0000    0.0000 C   0  0  0  0  0  0  0  0  0  0  0  0
    6.4952    0.7500    0.0000 O   0  0  0  0  0  0  0  0  0  0  0  0
  1  2  1  0
  2  3  2  3
  3  4  1  0
  4  5  2  0
  4  6  1  0
  6  7  2  0
M  END
>  <Title>  (493) 
idAARAgen8

$$$$

     RDKit          2D

 13 13  0  0  0  0  0  0  0  0999 V2000
    6.0000   -2.5981    0.0000 C   0  0  0  0  0  0  0  0  0  0  0  0
    5.2500   -1.2990    0.0000 C   0  0  0  0  0  0  0  0  0  0  0  0
    3.7500   -1.2990    0.0000 C   0  0  0  0  0  0  0  0  0  0  0  0
    3.0000   -2.5981    0.0000 O   0  0  0  0  0  0  0  0  0  0  0  0
    3.0000    0.0000    0.0000 N   0  0  0  0  0  0  0  0  0  0  0  0
    1.5000    0.0000    0.0000 C   0  0  0  0  0  0  0  0  0  0  0  0
    0.7500   -1.2990    0.0000 C   0  0  0  0  0  0  0  0  0  0  0  0
   -0.7500   -1.2990    0.0000 C   0  0  0  0  0  0  0  0  0  0  0  0
   -1.5000   -2.5981    0.0000 O   0  0  0  0  0  0  0  0  0  0  0  0
   -1.5000    0.0000    0.0000 C   0  0  0  0  0  0  0  0  0  0  0  0
   -3.0000    0.0000    0.0000 O   0  0  0  0  0  0  0  0  0  0  0  0
   -0.7500    1.2990    0.0000 C   0  0  0  0  0  0  0  0  0  0  0  0
    0.7500    1.2990    0.0000 C   0  0  0  0  0  0  0  0  0  0  0  0
  1  2  1  0
  2  3  1  0
  3  4  2  0
  3  5  1  0
  5  6  1  0
  6  7  2  0
  7  8  1  0
  8  9  1  0
  8 10  1  0
 10 11  1  0
 10 12  1  0
 12 13  2  0
 13  6  1  0
M  END
>  <Title>  (494) 
idAARBgen8

$$$$

     RDKit          2D

 10 10  0  0  0  0  0  0  0  0999 V2000
    5.2500   -1.2990    0.0000 C   0  0  0  0  0  0  0  0  0  0  0  0
    3.7500   -1.2990    0.0000 N   0  0  0  0  0  0  0  0  0  0  0  0
    3.0000    0.0000    0.0000 C   0  0  0  0  0  0  0  0  0  0  0  0
    1.5000    0.0000    0.0000 C   0  0  0  0  0  0  0  0  0  0  0  0
    0.7500   -1.2990    0.0000 C   0  0  0  0  0  0  0  0  0  0  0  0
   -0.7500   -1.2990    0.0000 C   0  0  0  0  0  0  0  0  0  0  0  0
   -1.5000    0.0000    0.0000 C   0  0  0  0  0  0  0  0  0  0  0  0
   -3.0000    0.0000    0.0000 O   0  0  0  0  0  0  0  0  0  0  0  0
   -0.7500    1.2990    0.0000 C   0  0  0  0  0  0  0  0  0  0  0  0
    0.7500    1.2990    0.0000 C   0  0  0  0  0  0  0  0  0  0  0  0
  1  2  1  0
  2  3  1  0
  3  4  1  0
  4  5  2  0
  5  6  1  0
  6  7  2  0
  7  8  1  0
  7  9  1  0
  9 10  1  0
 10  4  1  0
M  END
>  <Title>  (495) 
idAARCgen8

$$$$

     RDKit          2D

 59 67  0  0  0  0  0  0  0  0999 V2000
    5.1070  -10.3477    0.0000 C   0  0  0  0  0  0  0  0  0  0  0  0
    3.9343   -9.4124    0.0000 C   0  0  0  0  0  0  0  0  0  0  0  0
    4.6843   -8.1134    0.0000 C   0  0  0  0  0  0  0  0  0  0  0  0
    5.0181   -6.6510    0.0000 C   0  0  0  0  0  0  0  0  0  0  0  0
    4.9060   -5.1552    0.0000 C   0  0  0  0  0  0  0  0  0  0  0  0
    4.3580   -3.7589    0.0000 C   0  0  0  0  0  0  0  0  0  0  0  0
    3.4227   -2.5862    0.0000 C   0  0  0  0  0  0  0  0  0  0  0  0
    2.1834   -1.7412    0.0000 C   0  0  0  0  0  0  0  0  0  0  0  0
    2.8342   -0.3897    0.0000 C   0  0  0  0  0  0  0  0  0  0  0  0
    1.9892    0.8496    0.0000 O   0  0  0  0  0  0  0  0  0  0  0  0
    4.3300   -0.2776    0.0000 N   0  0  0  0  0  0  0  0  0  0  0  0
    4.9808    1.0738    0.0000 C   0  0  0  0  0  0  0  0  0  0  0  0
    6.4766    1.1859    0.0000 N   0  0  0  0  0  0  0  0  0  0  0  0
    7.1274    2.5374    0.0000 N   0  0  0  0  0  0  0  0  0  0  0  0
    6.2825    3.7767    0.0000 N   0  0  0  0  0  0  0  0  0  0  0  0
    4.7867    3.6646    0.0000 N   0  0  0  0  0  0  0  0  0  0  0  0
    4.1358    2.3132    0.0000 N   0  0  0  0  0  0  0  0  0  0  0  0
    0.7500   -1.2990    0.0000 C   0  0  0  0  0  0  0  0  0  0  0  0
    1.5000    0.0000    0.0000 C   0  0  0  0  0  0  0  0  0  0  0  0
    0.7500    1.2990    0.0000 C   0  0  0  0  0  0  0  0  0  0  0  0
   -0.7500    1.2990    0.0000 C   0  0  0  0  0  0  0  0  0  0  0  0
   -1.5000    0.0000    0.0000 C   0  0  0  0  0  0  0  0  0  0  0  0
   -0.7500   -1.2990    0.0000 C   0  0  0  0  0  0  0  0  0  0  0  0
   -2.1834   -1.7412    0.0000 C   0  0  0  0  0  0  0  0  0  0  0  0
   -2.2955   -0.2454    0.0000 C   0  0  0  0  0  0  0  0  0  0  0  0
   -3.6469    0.4055    0.0000 C   0  0  0  0  0  0  0  0  0  0  0  0
   -4.8863   -0.4395    0.0000 C   0  0  0  0  0  0  0  0  0  0  0  0
   -4.7742   -1.9353    0.0000 C   0  0  0  0  0  0  0  0  0  0  0  0
   -3.4227   -2.5862    0.0000 C   0  0  0  0  0  0  0  0  0  0  0  0
   -4.3580   -3.7589    0.0000 C   0  0  0  0  0  0  0  0  0  0  0  0
   -5.2932   -2.5862    0.0000 C   0  0  0  0  0  0  0  0  0  0  0  0
   -6.7764   -2.8097    0.0000 C   0  0  0  0  0  0  0  0  0  0  0  0
   -7.3244   -4.2060    0.0000 C   0  0  0  0  0  0  0  0  0  0  0  0
   -6.3892   -5.3788    0.0000 C   0  0  0  0  0  0  0  0  0  0  0  0
   -4.9060   -5.1552    0.0000 C   0  0  0  0  0  0  0  0  0  0  0  0
   -5.0181   -6.6510    0.0000 C   0  0  0  0  0  0  0  0  0  0  0  0
   -6.4514   -6.2089    0.0000 C   0  0  0  0  0  0  0  0  0  0  0  0
   -7.5510   -7.2291    0.0000 C   0  0  0  0  0  0  0  0  0  0  0  0
   -7.2172   -8.6915    0.0000 C   0  0  0  0  0  0  0  0  0  0  0  0
   -5.7839   -9.1337    0.0000 C   0  0  0  0  0  0  0  0  0  0  0  0
   -4.6843   -8.1134    0.0000 C   0  0  0  0  0  0  0  0  0  0  0  0
   -3.9343   -9.4124    0.0000 C   0  0  0  0  0  0  0  0  0  0  0  0
   -5.3676   -9.8546    0.0000 C   0  0  0  0  0  0  0  0  0  0  0  0
   -5.7014  -11.3170    0.0000 C   0  0  0  0  0  0  0  0  0  0  0  0
   -4.6018  -12.3372    0.0000 C   0  0  0  0  0  0  0  0  0  0  0  0
   -3.1685  -11.8951    0.0000 C   0  0  0  0  0  0  0  0  0  0  0  0
   -2.8347  -10.4327    0.0000 C   0  0  0  0  0  0  0  0  0  0  0  0
   -1.4832  -11.0835    0.0000 C   0  0  0  0  0  0  0  0  0  0  0  0
   -2.4185  -12.2563    0.0000 C   0  0  0  0  0  0  0  0  0  0  0  0
   -1.8705  -13.6526    0.0000 C   0  0  0  0  0  0  0  0  0  0  0  0
   -0.3872  -13.8762    0.0000 C   0  0  0  0  0  0  0  0  0  0  0  0
    0.5480  -12.7034    0.0000 C   0  0  0  0  0  0  0  0  0  0  0  0
   -0.0000  -11.3071    0.0000 C   0  0  0  0  0  0  0  0  0  0  0  0
    1.4832  -11.0835    0.0000 C   0  0  0  0  0  0  0  0  0  0  0  0
    1.3712  -12.5793    0.0000 C   0  0  0  0  0  0  0  0  0  0  0  0
    2.6105  -13.4243    0.0000 C   0  0  0  0  0  0  0  0  0  0  0  0
    3.9620  -12.7735    0.0000 C   0  0  0  0  0  0  0  0  0  0  0  0
    4.0741  -11.2777    0.0000 C   0  0  0  0  0  0  0  0  0  0  0  0
    2.8347  -10.4327    0.0000 C   0  0  0  0  0  0  0  0  0  0  0  0
  1  2  1  0
  2  3  1  0
  3  4  1  0
  4  5  1  0
  5  6  1  0
  6  7  1  0
  7  8  1  0
  8  9  1  0
  9 10  2  0
  9 11  1  0
 11 12  1  0
 12 13  2  0
 13 14  1  0
 14 15  2  0
 15 16  1  0
 16 17  2  0
  8 18  1  0
 18 19  2  0
 19 20  1  0
 20 21  2  0
 21 22  1  0
 22 23  2  0
 23 24  1  0
 24 25  2  0
 25 26  1  0
 26 27  2  0
 27 28  1  0
 28 29  2  0
 29 30  1  0
 30 31  2  0
 31 32  1  0
 32 33  2  0
 33 34  1  0
 34 35  2  0
 35 36  1  0
 36 37  2  0
 37 38  1  0
 38 39  2  0
 39 40  1  0
 40 41  2  0
 41 42  1  0
 42 43  2  0
 43 44  1  0
 44 45  2  0
 45 46  1  0
 46 47  2  0
 47 48  1  0
 48 49  2  0
 49 50  1  0
 50 51  2  0
 51 52  1  0
 52 53  2  0
 53 54  1  0
 54 55  2  0
 55 56  1  0
 56 57  2  0
 57 58  1  0
 58 59  2  0
 59  2  1  0
 17 12  1  0
 23 18  1  0
 29 24  1  0
 35 30  1  0
 41 36  1  0
 47 42  1  0
 53 48  1  0
 59 54  1  0
M  END
>  <Title>  (496) 
idAARDgen8

$$$$

     RDKit          2D

 10  9  0  0  0  0  0  0  0  0999 V2000
    0.0000    0.0000    0.0000 C   0  0  0  0  0  0  0  0  0  0  0  0
    1.2990    0.7500    0.0000 C   0  0  0  0  0  0  0  0  0  0  0  0
    2.5981   -0.0000    0.0000 C   0  0  0  0  0  0  0  0  0  0  0  0
    2.5981   -1.5000    0.0000 O   0  0  0  0  0  0  0  0  0  0  0  0
    3.8971    0.7500    0.0000 C   0  0  0  0  0  0  0  0  0  0  0  0
    5.1962   -0.0000    0.0000 C   0  0  0  0  0  0  0  0  0  0  0  0
    6.4952    0.7500    0.0000 C   0  0  0  0  0  0  0  0  0  0  0  0
    7.7942   -0.0000    0.0000 C   0  0  0  0  0  0  0  0  0  0  0  0
    9.0933    0.7500    0.0000 C   0  0  0  0  0  0  0  0  0  0  0  0
    7.7942   -1.5000    0.0000 O   0  0  0  0  0  0  0  0  0  0  0  0
  1  2  1  0
  2  3  1  0
  3  4  2  0
  3  5  1  0
  5  6  1  0
  6  7  1  0
  7  8  1  0
  8  9  1  0
  8 10  2  0
M  END
>  <Title>  (497) 
idAAREgen8

$$$$

     RDKit          2D

122122  0  0  0  0  0  0  0  0999 V2000
   30.3899    0.0000    0.0000 C   0  0  0  0  0  0  0  0  0  0  0  0
   28.8899    0.0000    0.0000 C   0  0  0  0  0  0  0  0  0  0  0  0
   28.8509    1.4995    0.0000 C   0  0  0  0  0  0  0  0  0  0  0  0
   28.7342    2.9949    0.0000 C   0  0  0  0  0  0  0  0  0  0  0  0
   28.5400    4.4823    0.0000 C   0  0  0  0  0  0  0  0  0  0  0  0
   28.2689    5.9576    0.0000 C   0  0  0  0  0  0  0  0  0  0  0  0
   27.9216    7.4169    0.0000 C   0  0  0  0  0  0  0  0  0  0  0  0
   27.4990    8.8561    0.0000 C   0  0  0  0  0  0  0  0  0  0  0  0
   27.0023   10.2715    0.0000 C   0  0  0  0  0  0  0  0  0  0  0  0
   26.4327   11.6591    0.0000 C   0  0  0  0  0  0  0  0  0  0  0  0
   25.7919   13.0154    0.0000 C   0  0  0  0  0  0  0  0  0  0  0  0
   25.0816   14.3365    0.0000 C   0  0  0  0  0  0  0  0  0  0  0  0
   24.3037   15.6190    0.0000 C   0  0  0  0  0  0  0  0  0  0  0  0
   23.4603   16.8594    0.0000 C   0  0  0  0  0  0  0  0  0  0  0  0
   22.5536   18.0544    0.0000 C   0  0  0  0  0  0  0  0  0  0  0  0
   21.5861   19.2007    0.0000 C   0  0  0  0  0  0  0  0  0  0  0  0
   20.5604   20.2952    0.0000 C   0  0  0  0  0  0  0  0  0  0  0  0
   19.4793   21.3350    0.0000 C   0  0  0  0  0  0  0  0  0  0  0  0
   18.3457   22.3173    0.0000 C   0  0  0  0  0  0  0  0  0  0  0  0
   17.1626   23.2394    0.0000 C   0  0  0  0  0  0  0  0  0  0  0  0
   15.9332   24.0989    0.0000 C   0  0  0  0  0  0  0  0  0  0  0  0
   14.6609   24.8934    0.0000 C   0  0  0  0  0  0  0  0  0  0  0  0
   13.3491   25.6208    0.0000 C   0  0  0  0  0  0  0  0  0  0  0  0
   12.0013   26.2791    0.0000 C   0  0  0  0  0  0  0  0  0  0  0  0
   10.6211   26.8666    0.0000 C   0  0  0  0  0  0  0  0  0  0  0  0
    9.2123   27.3817    0.0000 C   0  0  0  0  0  0  0  0  0  0  0  0
    7.7787   27.8229    0.0000 C   0  0  0  0  0  0  0  0  0  0  0  0
    6.3241   28.1892    0.0000 C   0  0  0  0  0  0  0  0  0  0  0  0
    4.8524   28.4794    0.0000 C   0  0  0  0  0  0  0  0  0  0  0  0
    3.3677   28.6929    0.0000 C   0  0  0  0  0  0  0  0  0  0  0  0
    1.8739   28.8290    0.0000 C   0  0  0  0  0  0  0  0  0  0  0  0
    0.3750   28.8874    0.0000 C   0  0  0  0  0  0  0  0  0  0  0  0
   -1.1248   28.8680    0.0000 C   0  0  0  0  0  0  0  0  0  0  0  0
   -2.6217   28.7707    0.0000 C   0  0  0  0  0  0  0  0  0  0  0  0
   -4.1115   28.5958    0.0000 C   0  0  0  0  0  0  0  0  0  0  0  0
   -5.5901   28.3439    0.0000 C   0  0  0  0  0  0  0  0  0  0  0  0
   -7.0538   28.0155    0.0000 C   0  0  0  0  0  0  0  0  0  0  0  0
   -8.4984   27.6116    0.0000 C   0  0  0  0  0  0  0  0  0  0  0  0
   -9.9201   27.1333    0.0000 C   0  0  0  0  0  0  0  0  0  0  0  0
  -11.3150   26.5819    0.0000 C   0  0  0  0  0  0  0  0  0  0  0  0
  -12.6795   25.9587    0.0000 C   0  0  0  0  0  0  0  0  0  0  0  0
  -14.0097   25.2656    0.0000 C   0  0  0  0  0  0  0  0  0  0  0  0
  -15.3022   24.5044    0.0000 C   0  0  0  0  0  0  0  0  0  0  0  0
  -16.5535   23.6771    0.0000 C   0  0  0  0  0  0  0  0  0  0  0  0
  -17.7601   22.7860    0.0000 C   0  0  0  0  0  0  0  0  0  0  0  0
  -18.9188   21.8335    0.0000 C   0  0  0  0  0  0  0  0  0  0  0  0
  -20.0266   20.8221    0.0000 C   0  0  0  0  0  0  0  0  0  0  0  0
  -21.0803   19.7546    0.0000 C   0  0  0  0  0  0  0  0  0  0  0  0
  -22.0773   18.6338    0.0000 C   0  0  0  0  0  0  0  0  0  0  0  0
  -23.0147   17.4628    0.0000 C   0  0  0  0  0  0  0  0  0  0  0  0
  -23.8900   16.2447    0.0000 C   0  0  0  0  0  0  0  0  0  0  0  0
  -24.7010   14.9828    0.0000 C   0  0  0  0  0  0  0  0  0  0  0  0
  -25.4454   13.6806    0.0000 C   0  0  0  0  0  0  0  0  0  0  0  0
  -26.1211   12.3414    0.0000 C   0  0  0  0  0  0  0  0  0  0  0  0
  -26.7265   10.9690    0.0000 C   0  0  0  0  0  0  0  0  0  0  0  0
  -27.2598    9.5670    0.0000 C   0  0  0  0  0  0  0  0  0  0  0  0
  -27.7196    8.1392    0.0000 C   0  0  0  0  0  0  0  0  0  0  0  0
  -28.1047    6.6895    0.0000 C   0  0  0  0  0  0  0  0  0  0  0  0
  -28.4140    5.2217    0.0000 C   0  0  0  0  0  0  0  0  0  0  0  0
  -28.6468    3.7399    0.0000 C   0  0  0  0  0  0  0  0  0  0  0  0
  -28.8023    2.2480    0.0000 C   0  0  0  0  0  0  0  0  0  0  0  0
  -28.8801    0.7500    0.0000 C   0  0  0  0  0  0  0  0  0  0  0  0
  -28.8801   -0.7500    0.0000 C   0  0  0  0  0  0  0  0  0  0  0  0
  -28.8023   -2.2480    0.0000 C   0  0  0  0  0  0  0  0  0  0  0  0
  -28.6468   -3.7399    0.0000 C   0  0  0  0  0  0  0  0  0  0  0  0
  -28.4140   -5.2217    0.0000 C   0  0  0  0  0  0  0  0  0  0  0  0
  -28.1047   -6.6895    0.0000 C   0  0  0  0  0  0  0  0  0  0  0  0
  -27.7196   -8.1392    0.0000 C   0  0  0  0  0  0  0  0  0  0  0  0
  -27.2598   -9.5670    0.0000 C   0  0  0  0  0  0  0  0  0  0  0  0
  -26.7265  -10.9690    0.0000 C   0  0  0  0  0  0  0  0  0  0  0  0
  -26.1211  -12.3414    0.0000 C   0  0  0  0  0  0  0  0  0  0  0  0
  -25.4454  -13.6806    0.0000 C   0  0  0  0  0  0  0  0  0  0  0  0
  -24.7010  -14.9828    0.0000 C   0  0  0  0  0  0  0  0  0  0  0  0
  -23.8900  -16.2447    0.0000 C   0  0  0  0  0  0  0  0  0  0  0  0
  -23.0147  -17.4628    0.0000 C   0  0  0  0  0  0  0  0  0  0  0  0
  -22.0773  -18.6338    0.0000 C   0  0  0  0  0  0  0  0  0  0  0  0
  -21.0803  -19.7546    0.0000 C   0  0  0  0  0  0  0  0  0  0  0  0
  -20.0266  -20.8221    0.0000 C   0  0  0  0  0  0  0  0  0  0  0  0
  -18.9188  -21.8335    0.0000 C   0  0  0  0  0  0  0  0  0  0  0  0
  -17.7601  -22.7860    0.0000 C   0  0  0  0  0  0  0  0  0  0  0  0
  -16.5535  -23.6771    0.0000 C   0  0  0  0  0  0  0  0  0  0  0  0
  -15.3022  -24.5044    0.0000 C   0  0  0  0  0  0  0  0  0  0  0  0
  -14.0097  -25.2656    0.0000 C   0  0  0  0  0  0  0  0  0  0  0  0
  -12.6795  -25.9587    0.0000 C   0  0  0  0  0  0  0  0  0  0  0  0
  -11.3150  -26.5819    0.0000 C   0  0  0  0  0  0  0  0  0  0  0  0
   -9.9201  -27.1333    0.0000 C   0  0  0  0  0  0  0  0  0  0  0  0
   -8.4984  -27.6116    0.0000 C   0  0  0  0  0  0  0  0  0  0  0  0
   -7.0538  -28.0155    0.0000 C   0  0  0  0  0  0  0  0  0  0  0  0
   -5.5901  -28.3439    0.0000 C   0  0  0  0  0  0  0  0  0  0  0  0
   -4.1115  -28.5958    0.0000 C   0  0  0  0  0  0  0  0  0  0  0  0
   -2.6217  -28.7707    0.0000 C   0  0  0  0  0  0  0  0  0  0  0  0
   -1.1248  -28.8680    0.0000 C   0  0  0  0  0  0  0  0  0  0  0  0
    0.3750  -28.8874    0.0000 C   0  0  0  0  0  0  0  0  0  0  0  0
    1.8739  -28.8290    0.0000 C   0  0  0  0  0  0  0  0  0  0  0  0
    3.3677  -28.6929    0.0000 C   0  0  0  0  0  0  0  0  0  0  0  0
    4.8524  -28.4794    0.0000 C   0  0  0  0  0  0  0  0  0  0  0  0
    6.3241  -28.1892    0.0000 C   0  0  0  0  0  0  0  0  0  0  0  0
    7.7787  -27.8229    0.0000 C   0  0  0  0  0  0  0  0  0  0  0  0
    9.2123  -27.3817    0.0000 C   0  0  0  0  0  0  0  0  0  0  0  0
   10.6211  -26.8666    0.0000 C   0  0  0  0  0  0  0  0  0  0  0  0
   12.0013  -26.2791    0.0000 C   0  0  0  0  0  0  0  0  0  0  0  0
   13.3491  -25.6208    0.0000 C   0  0  0  0  0  0  0  0  0  0  0  0
   14.6609  -24.8934    0.0000 C   0  0  0  0  0  0  0  0  0  0  0  0
   15.9332  -24.0989    0.0000 C   0  0  0  0  0  0  0  0  0  0  0  0
   17.1626  -23.2394    0.0000 C   0  0  0  0  0  0  0  0  0  0  0  0
   18.3457  -22.3173    0.0000 C   0  0  0  0  0  0  0  0  0  0  0  0
   19.4793  -21.3350    0.0000 C   0  0  0  0  0  0  0  0  0  0  0  0
   20.5604  -20.2952    0.0000 C   0  0  0  0  0  0  0  0  0  0  0  0
   21.5861  -19.2007    0.0000 C   0  0  0  0  0  0  0  0  0  0  0  0
   22.5536  -18.0544    0.0000 C   0  0  0  0  0  0  0  0  0  0  0  0
   23.4603  -16.8594    0.0000 C   0  0  0  0  0  0  0  0  0  0  0  0
   24.3037  -15.6190    0.0000 C   0  0  0  0  0  0  0  0  0  0  0  0
   25.0816  -14.3365    0.0000 C   0  0  0  0  0  0  0  0  0  0  0  0
   25.7919  -13.0154    0.0000 C   0  0  0  0  0  0  0  0  0  0  0  0
   26.4327  -11.6591    0.0000 C   0  0  0  0  0  0  0  0  0  0  0  0
   27.0023  -10.2715    0.0000 C   0  0  0  0  0  0  0  0  0  0  0  0
   27.4990   -8.8561    0.0000 C   0  0  0  0  0  0  0  0  0  0  0  0
   27.9216   -7.4169    0.0000 C   0  0  0  0  0  0  0  0  0  0  0  0
   28.2689   -5.9576    0.0000 C   0  0  0  0  0  0  0  0  0  0  0  0
   28.5400   -4.4823    0.0000 C   0  0  0  0  0  0  0  0  0  0  0  0
   28.7342   -2.9949    0.0000 C   0  0  0  0  0  0  0  0  0  0  0  0
   28.8509   -1.4995    0.0000 C   0  0  0  0  0  0  0  0  0  0  0  0
  1  2  1  0
  2  3  1  0
  3  4  1  0
  4  5  1  0
  5  6  1  0
  6  7  1  0
  7  8  1  0
  8  9  1  0
  9 10  1  0
 10 11  1  0
 11 12  1  0
 12 13  1  0
 13 14  1  0
 14 15  1  0
 15 16  1  0
 16 17  1  0
 17 18  1  0
 18 19  1  0
 19 20  1  0
 20 21  1  0
 21 22  1  0
 22 23  1  0
 23 24  1  0
 24 25  1  0
 25 26  1  0
 26 27  1  0
 27 28  1  0
 28 29  1  0
 29 30  1  0
 30 31  1  0
 31 32  1  0
 32 33  1  0
 33 34  1  0
 34 35  1  0
 35 36  1  0
 36 37  1  0
 37 38  1  0
 38 39  1  0
 39 40  1  0
 40 41  1  0
 41 42  1  0
 42 43  1  0
 43 44  1  0
 44 45  1  0
 45 46  1  0
 46 47  1  0
 47 48  1  0
 48 49  1  0
 49 50  1  0
 50 51  1  0
 51 52  1  0
 52 53  1  0
 53 54  1  0
 54 55  1  0
 55 56  1  0
 56 57  1  0
 57 58  1  0
 58 59  1  0
 59 60  1  0
 60 61  1  0
 61 62  1  0
 62 63  1  0
 63 64  1  0
 64 65  1  0
 65 66  1  0
 66 67  1  0
 67 68  1  0
 68 69  1  0
 69 70  1  0
 70 71  1  0
 71 72  1  0
 72 73  1  0
 73 74  1  0
 74 75  1  0
 75 76  1  0
 76 77  1  0
 77 78  1  0
 78 79  1  0
 79 80  1  0
 80 81  1  0
 81 82  1  0
 82 83  1  0
 83 84  1  0
 84 85  1  0
 85 86  1  0
 86 87  1  0
 87 88  1  0
 88 89  1  0
 89 90  1  0
 90 91  1  0
 91 92  1  0
 92 93  1  0
 93 94  1  0
 94 95  1  0
 95 96  1  0
 96 97  1  0
 97 98  1  0
 98 99  1  0
 99100  1  0
100101  1  0
101102  1  0
102103  1  0
103104  1  0
104105  1  0
105106  1  0
106107  1  0
107108  1  0
108109  1  0
109110  1  0
110111  1  0
111112  1  0
112113  1  0
113114  1  0
114115  1  0
115116  1  0
116117  1  0
117118  1  0
118119  1  0
119120  1  0
120121  1  0
121122  1  0
122  2  1  0
M  END
>  <Title>  (498) 
idAARFgen8

$$$$

     RDKit          2D

  8  7  0  0  0  0  0  0  0  0999 V2000
    0.0000    0.0000    0.0000 C   0  0  0  0  0  0  0  0  0  0  0  0
    1.2990    0.7500    0.0000 C   0  0  0  0  0  0  0  0  0  0  0  0
    2.5981   -0.0000    0.0000 C   0  0  0  0  0  0  0  0  0  0  0  0
    2.5981   -1.5000    0.0000 O   0  0  0  0  0  0  0  0  0  0  0  0
    3.8971    0.7500    0.0000 C   0  0  0  0  0  0  0  0  0  0  0  0
    5.1962   -0.0000    0.0000 C   0  0  0  0  0  0  0  0  0  0  0  0
    3.8971    2.2500    0.0000 C   0  0  0  0  0  0  0  0  0  0  0  0
    5.1962    3.0000    0.0000 C   0  0  0  0  0  0  0  0  0  0  0  0
  1  2  1  0
  2  3  1  0
  3  4  2  0
  3  5  1  0
  5  6  1  0
  5  7  1  0
  7  8  1  0
M  END
>  <Title>  (499) 
idAARGgen8

$$$$

     RDKit          2D

  9  9  0  0  0  0  0  0  0  0999 V2000
    3.2286   -0.0000    0.0000 C   0  0  0  0  0  0  0  0  0  0  0  0
    1.7286    0.0000    0.0000 C   0  0  0  0  0  0  0  0  0  0  0  0
    1.0777    1.3515    0.0000 C   0  0  0  0  0  0  0  0  0  0  0  0
   -0.3846    1.6852    0.0000 C   0  0  0  0  0  0  0  0  0  0  0  0
   -1.5574    0.7500    0.0000 C   0  0  0  0  0  0  0  0  0  0  0  0
   -1.5574   -0.7500    0.0000 C   0  0  0  0  0  0  0  0  0  0  0  0
   -2.9088   -1.4008    0.0000 C   0  0  0  0  0  0  0  0  0  0  0  0
   -0.3846   -1.6852    0.0000 C   0  0  0  0  0  0  0  0  0  0  0  0
    1.0777   -1.3515    0.0000 C   0  0  0  0  0  0  0  0  0  0  0  0
  1  2  1  0
  2  3  1  0
  3  4  1  0
  4  5  1  0
  5  6  1  0
  6  7  1  0
  6  8  1  0
  8  9  1  0
  9  2  1  0
M  END
>  <Title>  (500) 
idAARHgen8

$$$$

     RDKit          2D

  8  8  0  0  0  0  0  0  0  0999 V2000
    4.2760   -0.0000    0.0000 C   0  0  0  0  0  0  0  0  0  0  0  0
    2.7760    0.0000    0.0000 C   0  0  0  0  0  0  0  0  0  0  0  0
    1.2760    0.0000    0.0000 C   0  0  0  0  0  0  0  0  0  0  0  0
    0.3943    1.2135    0.0000 C   0  0  0  0  0  0  0  0  0  0  0  0
   -1.0323    0.7500    0.0000 C   0  0  0  0  0  0  0  0  0  0  0  0
   -1.0323   -0.7500    0.0000 C   0  0  0  0  0  0  0  0  0  0  0  0
   -2.2458   -1.6317    0.0000 O   0  0  0  0  0  0  0  0  0  0  0  0
    0.3943   -1.2135    0.0000 C   0  0  0  0  0  0  0  0  0  0  0  0
  1  2  3  0
  2  3  1  0
  3  4  2  0
  4  5  1  0
  5  6  1  0
  6  7  1  0
  6  8  1  0
  8  3  1  0
M  END
>  <Title>  (501) 
idAARIgen8

$$$$

     RDKit          2D

  9  9  0  0  0  0  0  0  0  0999 V2000
    5.2500   -1.2990    0.0000 C   0  0  0  0  0  0  0  0  0  0  0  0
    3.7500   -1.2990    0.0000 C   0  0  0  0  0  0  0  0  0  0  0  0
    3.0000    0.0000    0.0000 C   0  0  0  0  0  0  0  0  0  0  0  0
    1.5000    0.0000    0.0000 C   0  0  0  0  0  0  0  0  0  0  0  0
    0.7500   -1.2990    0.0000 C   0  0  0  0  0  0  0  0  0  0  0  0
   -0.7500   -1.2990    0.0000 C   0  0  0  0  0  0  0  0  0  0  0  0
   -1.5000    0.0000    0.0000 C   0  0  0  0  0  0  0  0  0  0  0  0
   -0.7500    1.2990    0.0000 C   0  0  0  0  0  0  0  0  0  0  0  0
    0.7500    1.2990    0.0000 C   0  0  0  0  0  0  0  0  0  0  0  0
  1  2  1  0
  2  3  1  0
  3  4  1  0
  4  5  2  0
  5  6  1  0
  6  7  1  0
  7  8  1  0
  8  9  2  0
  9  4  1  0
M  END
>  <Title>  (502) 
idAARJgen8

$$$$

     RDKit          2D

 32 36  0  0  0  0  0  0  0  0999 V2000
    1.2135   -7.3421    0.0000 C   0  0  0  0  0  0  0  0  0  0  0  0
    0.7500   -5.9156    0.0000 C   0  0  0  0  0  0  0  0  0  0  0  0
    1.9635   -5.0339    0.0000 C   0  0  0  0  0  0  0  0  0  0  0  0
    2.4271   -3.6073    0.0000 C   0  0  0  0  0  0  0  0  0  0  0  0
    1.9635   -2.1807    0.0000 C   0  0  0  0  0  0  0  0  0  0  0  0
    3.1771   -1.2990    0.0000 C   0  0  0  0  0  0  0  0  0  0  0  0
    3.0203    0.1927    0.0000 O   0  0  0  0  0  0  0  0  0  0  0  0
    4.5474   -1.9091    0.0000 N   0  0  0  0  0  0  0  0  0  0  0  0
    5.7609   -1.0275    0.0000 C   0  0  0  0  0  0  0  0  0  0  0  0
    7.1312   -1.6376    0.0000 N   0  0  0  0  0  0  0  0  0  0  0  0
    8.3447   -0.7559    0.0000 N   0  0  0  0  0  0  0  0  0  0  0  0
    8.1879    0.7359    0.0000 N   0  0  0  0  0  0  0  0  0  0  0  0
    6.8176    1.3460    0.0000 N   0  0  0  0  0  0  0  0  0  0  0  0
    5.6041    0.4643    0.0000 N   0  0  0  0  0  0  0  0  0  0  0  0
    0.7500   -1.2990    0.0000 C   0  0  0  0  0  0  0  0  0  0  0  0
    1.5000    0.0000    0.0000 C   0  0  0  0  0  0  0  0  0  0  0  0
    0.7500    1.2990    0.0000 C   0  0  0  0  0  0  0  0  0  0  0  0
   -0.7500    1.2990    0.0000 C   0  0  0  0  0  0  0  0  0  0  0  0
   -1.5000    0.0000    0.0000 C   0  0  0  0  0  0  0  0  0  0  0  0
   -0.7500   -1.2990    0.0000 C   0  0  0  0  0  0  0  0  0  0  0  0
   -1.9635   -2.1807    0.0000 C   0  0  0  0  0  0  0  0  0  0  0  0
   -2.9672   -1.0660    0.0000 C   0  0  0  0  0  0  0  0  0  0  0  0
   -4.4344   -1.3779    0.0000 C   0  0  0  0  0  0  0  0  0  0  0  0
   -4.8980   -2.8045    0.0000 C   0  0  0  0  0  0  0  0  0  0  0  0
   -3.8943   -3.9192    0.0000 C   0  0  0  0  0  0  0  0  0  0  0  0
   -2.4271   -3.6073    0.0000 C   0  0  0  0  0  0  0  0  0  0  0  0
   -1.9635   -5.0339    0.0000 C   0  0  0  0  0  0  0  0  0  0  0  0
   -3.3338   -5.6440    0.0000 C   0  0  0  0  0  0  0  0  0  0  0  0
   -3.4906   -7.1358    0.0000 C   0  0  0  0  0  0  0  0  0  0  0  0
   -2.2771   -8.0175    0.0000 C   0  0  0  0  0  0  0  0  0  0  0  0
   -0.9068   -7.4073    0.0000 C   0  0  0  0  0  0  0  0  0  0  0  0
   -0.7500   -5.9156    0.0000 C   0  0  0  0  0  0  0  0  0  0  0  0
  1  2  1  0
  2  3  1  0
  3  4  1  0
  4  5  1  0
  5  6  1  0
  6  7  2  0
  6  8  1  0
  8  9  1  0
  9 10  2  0
 10 11  1  0
 11 12  2  0
 12 13  1  0
 13 14  2  0
  5 15  1  0
 15 16  2  0
 16 17  1  0
 17 18  2  0
 18 19  1  0
 19 20  2  0
 20 21  1  0
 21 22  2  0
 22 23  1  0
 23 24  2  0
 24 25  1  0
 25 26  2  0
 26 27  1  0
 27 28  2  0
 28 29  1  0
 29 30  2  0
 30 31  1  0
 31 32  2  0
 32  2  1  0
 14  9  1  0
 20 15  1  0
 26 21  1  0
 32 27  1  0
M  END
>  <Title>  (503) 
idAARKgen8

$$$$

     RDKit          2D

  9  9  0  0  0  0  0  0  0  0999 V2000
    3.0000    0.0000    0.0000 C   0  0  0  0  0  0  0  0  0  0  0  0
    1.5000    0.0000    0.0000 C   0  0  0  0  0  0  0  0  0  0  0  0
    0.7500   -1.2990    0.0000 C   0  0  0  0  0  0  0  0  0  0  0  0
   -0.7500   -1.2990    0.0000 C   0  0  0  0  0  0  0  0  0  0  0  0
   -1.5000    0.0000    0.0000 C   0  0  0  0  0  0  0  0  0  0  0  0
   -3.0000    0.0000    0.0000 O   0  0  0  0  0  0  0  0  0  0  0  0
   -0.7500    1.2990    0.0000 C   0  0  0  0  0  0  0  0  0  0  0  0
    0.7500    1.2990    0.0000 C   0  0  0  0  0  0  0  0  0  0  0  0
    1.5000    2.5981    0.0000 C   0  0  0  0  0  0  0  0  0  0  0  0
  1  2  1  0
  2  3  1  0
  3  4  2  0
  4  5  1  0
  5  6  1  0
  5  7  1  0
  7  8  1  0
  8  9  1  0
  8  2  1  0
M  END
>  <Title>  (504) 
idAARLgen8

$$$$

     RDKit          2D

  8  8  0  0  0  0  0  0  0  0999 V2000
    3.0000    0.0000    0.0000 O   0  0  0  0  0  0  0  0  0  0  0  0
    1.5000    0.0000    0.0000 C   0  0  0  0  0  0  0  0  0  0  0  0
    0.7500   -1.2990    0.0000 C   0  0  0  0  0  0  0  0  0  0  0  0
   -0.7500   -1.2990    0.0000 C   0  0  0  0  0  0  0  0  0  0  0  0
   -1.5000    0.0000    0.0000 C   0  0  0  0  0  0  0  0  0  0  0  0
   -3.0000    0.0000    0.0000 O   0  0  0  0  0  0  0  0  0  0  0  0
   -0.7500    1.2990    0.0000 C   0  0  0  0  0  0  0  0  0  0  0  0
    0.7500    1.2990    0.0000 C   0  0  0  0  0  0  0  0  0  0  0  0
  1  2  1  0
  2  3  2  0
  3  4  1  0
  4  5  1  0
  5  6  1  0
  5  7  1  0
  7  8  1  0
  8  2  1  0
M  END
>  <Title>  (505) 
idAARMgen8

$$$$

     RDKit          2D

  7  6  0  0  0  0  0  0  0  0999 V2000
    0.0000    0.0000    0.0000 C   0  0  0  0  0  0  0  0  0  0  0  0
    1.2990    0.7500    0.0000 C   0  0  0  0  0  0  0  0  0  0  0  0
    2.5981   -0.0000    0.0000 C   0  0  0  0  0  0  0  0  0  0  0  0
    3.8971    0.7500    0.0000 C   0  0  0  0  0  0  0  0  0  0  0  0
    5.1962   -0.0000    0.0000 C   0  0  0  0  0  0  0  0  0  0  0  0
    5.1962   -1.5000    0.0000 O   0  0  0  0  0  0  0  0  0  0  0  0
    6.4952    0.7500    0.0000 O   0  0  0  0  0  0  0  0  0  0  0  0
  1  2  1  0
  2  3  2  3
  3  4  1  0
  4  5  1  0
  5  6  2  0
  5  7  1  0
M  END
>  <Title>  (506) 
idAARNgen8

$$$$

     RDKit          2D

  9  9  0  0  0  0  0  0  0  0999 V2000
    4.2760   -0.0000    0.0000 C   0  0  0  0  0  0  0  0  0  0  0  0
    2.7760    0.0000    0.0000 C   0  0  0  0  0  0  0  0  0  0  0  0
    1.2760    0.0000    0.0000 C   0  0  0  0  0  0  0  0  0  0  0  0
    0.3943    1.2135    0.0000 C   0  0  0  0  0  0  0  0  0  0  0  0
   -1.0323    0.7500    0.0000 C   0  0  0  0  0  0  0  0  0  0  0  0
   -1.0323   -0.7500    0.0000 C   0  0  0  0  0  0  0  0  0  0  0  0
   -2.2458   -1.6317    0.0000 O   0  0  0  0  0  0  0  0  0  0  0  0
   -3.6161   -1.0216    0.0000 C   0  0  0  0  0  0  0  0  0  0  0  0
    0.3943   -1.2135    0.0000 C   0  0  0  0  0  0  0  0  0  0  0  0
  1  2  3  0
  2  3  1  0
  3  4  2  0
  4  5  1  0
  5  6  1  0
  6  7  1  0
  7  8  1  0
  6  9  2  0
  9  3  1  0
M  END
>  <Title>  (507) 
idAAROgen8

$$$$

     RDKit          2D

 48 48  0  0  0  0  0  0  0  0999 V2000
   13.9902   -0.0000    0.0000 C   0  0  0  0  0  0  0  0  0  0  0  0
   12.4902    0.0000    0.0000 C   0  0  0  0  0  0  0  0  0  0  0  0
   10.9902    0.0000    0.0000 C   0  0  0  0  0  0  0  0  0  0  0  0
   10.8879   -1.4965    0.0000 C   0  0  0  0  0  0  0  0  0  0  0  0
   10.5827   -2.9651    0.0000 C   0  0  0  0  0  0  0  0  0  0  0  0
   10.0804   -4.3785    0.0000 C   0  0  0  0  0  0  0  0  0  0  0  0
    9.3903   -5.7103    0.0000 C   0  0  0  0  0  0  0  0  0  0  0  0
    8.5252   -6.9358    0.0000 C   0  0  0  0  0  0  0  0  0  0  0  0
    7.5014   -8.0321    0.0000 C   0  0  0  0  0  0  0  0  0  0  0  0
    6.3379   -8.9787    0.0000 C   0  0  0  0  0  0  0  0  0  0  0  0
    5.0562   -9.7581    0.0000 C   0  0  0  0  0  0  0  0  0  0  0  0
    3.6804  -10.3557    0.0000 C   0  0  0  0  0  0  0  0  0  0  0  0
    2.2360  -10.7604    0.0000 C   0  0  0  0  0  0  0  0  0  0  0  0
    0.7500  -10.9646    0.0000 C   0  0  0  0  0  0  0  0  0  0  0  0
   -0.7500  -10.9646    0.0000 C   0  0  0  0  0  0  0  0  0  0  0  0
   -2.2360  -10.7604    0.0000 C   0  0  0  0  0  0  0  0  0  0  0  0
   -3.6804  -10.3557    0.0000 C   0  0  0  0  0  0  0  0  0  0  0  0
   -5.0562   -9.7581    0.0000 C   0  0  0  0  0  0  0  0  0  0  0  0
   -6.3379   -8.9787    0.0000 C   0  0  0  0  0  0  0  0  0  0  0  0
   -7.5014   -8.0321    0.0000 C   0  0  0  0  0  0  0  0  0  0  0  0
   -8.5252   -6.9358    0.0000 C   0  0  0  0  0  0  0  0  0  0  0  0
   -9.3903   -5.7103    0.0000 C   0  0  0  0  0  0  0  0  0  0  0  0
  -10.0804   -4.3785    0.0000 C   0  0  0  0  0  0  0  0  0  0  0  0
  -10.5827   -2.9651    0.0000 C   0  0  0  0  0  0  0  0  0  0  0  0
  -10.8879   -1.4965    0.0000 C   0  0  0  0  0  0  0  0  0  0  0  0
  -10.9902    0.0000    0.0000 C   0  0  0  0  0  0  0  0  0  0  0  0
  -10.8879    1.4965    0.0000 C   0  0  0  0  0  0  0  0  0  0  0  0
  -10.5827    2.9651    0.0000 C   0  0  0  0  0  0  0  0  0  0  0  0
  -10.0804    4.3785    0.0000 C   0  0  0  0  0  0  0  0  0  0  0  0
   -9.3903    5.7103    0.0000 C   0  0  0  0  0  0  0  0  0  0  0  0
   -8.5252    6.9358    0.0000 C   0  0  0  0  0  0  0  0  0  0  0  0
   -7.5014    8.0321    0.0000 C   0  0  0  0  0  0  0  0  0  0  0  0
   -6.3379    8.9787    0.0000 C   0  0  0  0  0  0  0  0  0  0  0  0
   -5.0562    9.7581    0.0000 C   0  0  0  0  0  0  0  0  0  0  0  0
   -3.6804   10.3557    0.0000 C   0  0  0  0  0  0  0  0  0  0  0  0
   -2.2360   10.7604    0.0000 C   0  0  0  0  0  0  0  0  0  0  0  0
   -0.7500   10.9646    0.0000 C   0  0  0  0  0  0  0  0  0  0  0  0
    0.7500   10.9646    0.0000 C   0  0  0  0  0  0  0  0  0  0  0  0
    2.2360   10.7604    0.0000 C   0  0  0  0  0  0  0  0  0  0  0  0
    3.6804   10.3557    0.0000 C   0  0  0  0  0  0  0  0  0  0  0  0
    5.0562    9.7581    0.0000 C   0  0  0  0  0  0  0  0  0  0  0  0
    6.3379    8.9787    0.0000 C   0  0  0  0  0  0  0  0  0  0  0  0
    7.5014    8.0321    0.0000 C   0  0  0  0  0  0  0  0  0  0  0  0
    8.5252    6.9358    0.0000 C   0  0  0  0  0  0  0  0  0  0  0  0
    9.3903    5.7103    0.0000 C   0  0  0  0  0  0  0  0  0  0  0  0
   10.0804    4.3785    0.0000 C   0  0  0  0  0  0  0  0  0  0  0  0
   10.5827    2.9651    0.0000 C   0  0  0  0  0  0  0  0  0  0  0  0
   10.8879    1.4965    0.0000 C   0  0  0  0  0  0  0  0  0  0  0  0
  1  2  3  0
  2  3  1  0
  3  4  1  0
  4  5  1  0
  5  6  1  0
  6  7  1  0
  7  8  1  0
  8  9  1  0
  9 10  1  0
 10 11  1  0
 11 12  1  0
 12 13  1  0
 13 14  1  0
 14 15  1  0
 15 16  1  0
 16 17  1  0
 17 18  1  0
 18 19  1  0
 19 20  1  0
 20 21  1  0
 21 22  1  0
 22 23  1  0
 23 24  1  0
 24 25  1  0
 25 26  1  0
 26 27  1  0
 27 28  1  0
 28 29  1  0
 29 30  1  0
 30 31  1  0
 31 32  1  0
 32 33  1  0
 33 34  1  0
 34 35  1  0
 35 36  1  0
 36 37  1  0
 37 38  1  0
 38 39  1  0
 39 40  1  0
 40 41  1  0
 41 42  1  0
 42 43  1  0
 43 44  1  0
 44 45  1  0
 45 46  1  0
 46 47  1  0
 47 48  1  0
 48  3  1  0
M  END
>  <Title>  (508) 
idAARPgen8

$$$$

     RDKit          2D

  7  7  0  0  0  0  0  0  0  0999 V2000
    2.1213    1.0607    0.0000 C   0  0  0  0  0  0  0  0  0  0  0  0
    1.0607    0.0000    0.0000 C   0  0  0  0  0  0  0  0  0  0  0  0
    2.1213   -1.0607    0.0000 C   0  0  0  0  0  0  0  0  0  0  0  0
   -0.0000   -1.0607    0.0000 C   0  0  0  0  0  0  0  0  0  0  0  0
   -1.0607    0.0000    0.0000 C   0  0  0  0  0  0  0  0  0  0  0  0
    0.0000    1.0607    0.0000 C   0  0  0  0  0  0  0  0  0  0  0  0
    0.0000    2.5607    0.0000 O   0  0  0  0  0  0  0  0  0  0  0  0
  1  2  1  0
  2  3  1  0
  2  4  1  0
  4  5  2  0
  5  6  1  0
  6  7  1  0
  6  2  1  0
M  END
>  <Title>  (509) 
idAARQgen8

$$$$

     RDKit          2D

 67 76  0  0  0  0  0  0  0  0999 V2000
    5.8713   -7.2804    0.0000 C   0  0  0  0  0  0  0  0  0  0  0  0
    4.4172   -6.9121    0.0000 C   0  0  0  0  0  0  0  0  0  0  0  0
    4.5411   -5.4173    0.0000 C   0  0  0  0  0  0  0  0  0  0  0  0
    4.1729   -3.9632    0.0000 C   0  0  0  0  0  0  0  0  0  0  0  0
    3.3524   -2.7074    0.0000 C   0  0  0  0  0  0  0  0  0  0  0  0
    4.4189   -2.1253    0.0000 O   0  0  0  0  0  0  0  0  0  0  0  0
    2.1687   -1.7861    0.0000 C   0  0  0  0  0  0  0  0  0  0  0  0
    2.8826   -0.4669    0.0000 N   0  0  0  0  0  0  0  0  0  0  0  0
    4.3821   -0.4255    0.0000 C   0  0  0  0  0  0  0  0  0  0  0  0
    4.4850    0.3649    0.0000 O   0  0  0  0  0  0  0  0  0  0  0  0
    5.1676   -1.7034    0.0000 C   0  0  0  0  0  0  0  0  0  0  0  0
    6.6670   -1.6621    0.0000 C   0  0  0  0  0  0  0  0  0  0  0  0
    7.5818   -2.8509    0.0000 N   0  0  0  0  0  0  0  0  0  0  0  0
    8.9951   -2.3482    0.0000 N   0  0  0  0  0  0  0  0  0  0  0  0
    8.9537   -0.8488    0.0000 N   0  0  0  0  0  0  0  0  0  0  0  0
    7.5149   -0.4247    0.0000 N   0  0  0  0  0  0  0  0  0  0  0  0
    7.0123    0.9885    0.0000 N   0  0  0  0  0  0  0  0  0  0  0  0
    7.8602    2.2259    0.0000 C   0  0  0  0  0  0  0  0  0  0  0  0
    6.9454    3.4147    0.0000 C   0  0  0  0  0  0  0  0  0  0  0  0
    5.5321    2.9120    0.0000 C   0  0  0  0  0  0  0  0  0  0  0  0
    4.2948    3.7599    0.0000 C   0  0  0  0  0  0  0  0  0  0  0  0
    2.9418    3.1123    0.0000 O   0  0  0  0  0  0  0  0  0  0  0  0
    4.4104    5.2555    0.0000 O   0  0  0  0  0  0  0  0  0  0  0  0
    5.5734    1.4126    0.0000 C   0  0  0  0  0  0  0  0  0  0  0  0
    4.8871    1.0071    0.0000 O   0  0  0  0  0  0  0  0  0  0  0  0
    0.7500   -1.2990    0.0000 C   0  0  0  0  0  0  0  0  0  0  0  0
    1.5000    0.0000    0.0000 C   0  0  0  0  0  0  0  0  0  0  0  0
    0.7500    1.2990    0.0000 C   0  0  0  0  0  0  0  0  0  0  0  0
   -0.7500    1.2990    0.0000 C   0  0  0  0  0  0  0  0  0  0  0  0
   -1.5000    0.0000    0.0000 C   0  0  0  0  0  0  0  0  0  0  0  0
   -0.7500   -1.2990    0.0000 C   0  0  0  0  0  0  0  0  0  0  0  0
   -2.1687   -1.7861    0.0000 C   0  0  0  0  0  0  0  0  0  0  0  0
   -2.3748   -0.3003    0.0000 C   0  0  0  0  0  0  0  0  0  0  0  0
   -3.7645    0.2642    0.0000 C   0  0  0  0  0  0  0  0  0  0  0  0
   -4.9482   -0.6572    0.0000 C   0  0  0  0  0  0  0  0  0  0  0  0
   -4.7422   -2.1429    0.0000 C   0  0  0  0  0  0  0  0  0  0  0  0
   -3.3524   -2.7074    0.0000 C   0  0  0  0  0  0  0  0  0  0  0  0
   -4.1729   -3.9632    0.0000 C   0  0  0  0  0  0  0  0  0  0  0  0
   -5.2480   -2.9172    0.0000 C   0  0  0  0  0  0  0  0  0  0  0  0
   -6.6914   -3.3254    0.0000 C   0  0  0  0  0  0  0  0  0  0  0  0
   -7.0597   -4.7795    0.0000 C   0  0  0  0  0  0  0  0  0  0  0  0
   -5.9845   -5.8254    0.0000 C   0  0  0  0  0  0  0  0  0  0  0  0
   -4.5411   -5.4173    0.0000 C   0  0  0  0  0  0  0  0  0  0  0  0
   -4.4172   -6.9121    0.0000 C   0  0  0  0  0  0  0  0  0  0  0  0
   -5.9081   -6.7471    0.0000 C   0  0  0  0  0  0  0  0  0  0  0  0
   -6.7965   -7.9558    0.0000 C   0  0  0  0  0  0  0  0  0  0  0  0
   -6.1939   -9.3294    0.0000 C   0  0  0  0  0  0  0  0  0  0  0  0
   -4.7030   -9.4944    0.0000 C   0  0  0  0  0  0  0  0  0  0  0  0
   -3.8147   -8.2858    0.0000 C   0  0  0  0  0  0  0  0  0  0  0  0
   -2.7988   -9.3894    0.0000 C   0  0  0  0  0  0  0  0  0  0  0  0
   -4.0766  -10.1749    0.0000 C   0  0  0  0  0  0  0  0  0  0  0  0
   -4.0353  -11.6743    0.0000 C   0  0  0  0  0  0  0  0  0  0  0  0
   -2.7161  -12.3882    0.0000 C   0  0  0  0  0  0  0  0  0  0  0  0
   -1.4382  -11.6027    0.0000 C   0  0  0  0  0  0  0  0  0  0  0  0
   -1.4795  -10.1033    0.0000 C   0  0  0  0  0  0  0  0  0  0  0  0
   -0.0000  -10.3502    0.0000 C   0  0  0  0  0  0  0  0  0  0  0  0
   -0.5260  -11.7550    0.0000 C   0  0  0  0  0  0  0  0  0  0  0  0
    0.4276  -12.9128    0.0000 C   0  0  0  0  0  0  0  0  0  0  0  0
    1.9072  -12.6659    0.0000 C   0  0  0  0  0  0  0  0  0  0  0  0
    2.4331  -11.2612    0.0000 C   0  0  0  0  0  0  0  0  0  0  0  0
    1.4795  -10.1033    0.0000 C   0  0  0  0  0  0  0  0  0  0  0  0
    2.7988   -9.3894    0.0000 C   0  0  0  0  0  0  0  0  0  0  0  0
    3.2465  -10.8210    0.0000 C   0  0  0  0  0  0  0  0  0  0  0  0
    4.7102  -11.1490    0.0000 C   0  0  0  0  0  0  0  0  0  0  0  0
    5.7261  -10.0454    0.0000 C   0  0  0  0  0  0  0  0  0  0  0  0
    5.2784   -8.6138    0.0000 C   0  0  0  0  0  0  0  0  0  0  0  0
    3.8147   -8.2858    0.0000 C   0  0  0  0  0  0  0  0  0  0  0  0
  1  2  1  0
  2  3  2  0
  3  4  1  0
  4  5  1  0
  5  6  1  0
  5  7  2  0
  7  8  1  0
  8  9  1  0
  9 10  2  0
  9 11  1  0
 11 12  1  0
 12 13  2  0
 13 14  1  0
 14 15  2  0
 15 16  1  0
 16 17  1  0
 17 18  1  0
 18 19  1  0
 19 20  1  0
 20 21  1  0
 21 22  2  0
 21 23  1  0
 20 24  1  0
 24 25  2  0
  7 26  1  0
 26 27  2  0
 27 28  1  0
 28 29  2  0
 29 30  1  0
 30 31  2  0
 31 32  1  0
 32 33  2  0
 33 34  1  0
 34 35  2  0
 35 36  1  0
 36 37  2  0
 37 38  1  0
 38 39  2  0
 39 40  1  0
 40 41  2  0
 41 42  1  0
 42 43  2  0
 43 44  1  0
 44 45  2  0
 45 46  1  0
 46 47  2  0
 47 48  1  0
 48 49  2  0
 49 50  1  0
 50 51  2  0
 51 52  1  0
 52 53  2  0
 53 54  1  0
 54 55  2  0
 55 56  1  0
 56 57  2  0
 57 58  1  0
 58 59  2  0
 59 60  1  0
 60 61  2  0
 61 62  1  0
 62 63  2  0
 63 64  1  0
 64 65  2  0
 65 66  1  0
 66 67  2  0
 67  2  1  0
 16 12  1  0
 24 17  1  0
 31 26  1  0
 37 32  1  0
 43 38  1  0
 49 44  1  0
 55 50  1  0
 61 56  1  0
 67 62  1  0
M  END
>  <Title>  (510) 
idAARRgen8

$$$$

     RDKit          2D

  8  8  0  0  0  0  0  0  0  0999 V2000
    4.2760   -0.0000    0.0000 C   0  0  0  0  0  0  0  0  0  0  0  0
    2.7760    0.0000    0.0000 C   0  0  0  0  0  0  0  0  0  0  0  0
    1.2760    0.0000    0.0000 C   0  0  0  0  0  0  0  0  0  0  0  0
    0.3943    1.2135    0.0000 C   0  0  0  0  0  0  0  0  0  0  0  0
   -1.0323    0.7500    0.0000 C   0  0  0  0  0  0  0  0  0  0  0  0
   -2.2458    1.6317    0.0000 O   0  0  0  0  0  0  0  0  0  0  0  0
   -1.0323   -0.7500    0.0000 C   0  0  0  0  0  0  0  0  0  0  0  0
    0.3943   -1.2135    0.0000 C   0  0  0  0  0  0  0  0  0  0  0  0
  1  2  3  0
  2  3  1  0
  3  4  2  0
  4  5  1  0
  5  6  1  0
  5  7  1  0
  7  8  2  0
  8  3  1  0
M  END
>  <Title>  (511) 
idAARSgen8

$$$$

     RDKit          2D

  8  8  0  0  0  0  0  0  0  0999 V2000
    3.0000    0.0000    0.0000 C   0  0  0  0  0  0  0  0  0  0  0  0
    1.5000    0.0000    0.0000 C   0  0  0  0  0  0  0  0  0  0  0  0
    0.7500   -1.2990    0.0000 C   0  0  0  0  0  0  0  0  0  0  0  0
   -0.7500   -1.2990    0.0000 C   0  0  0  0  0  0  0  0  0  0  0  0
   -1.5000   -2.5981    0.0000 O   0  0  0  0  0  0  0  0  0  0  0  0
   -1.5000    0.0000    0.0000 C   0  0  0  0  0  0  0  0  0  0  0  0
   -0.7500    1.2990    0.0000 C   0  0  0  0  0  0  0  0  0  0  0  0
    0.7500    1.2990    0.0000 C   0  0  0  0  0  0  0  0  0  0  0  0
  1  2  1  0
  2  3  2  0
  3  4  1  0
  4  5  1  0
  4  6  1  0
  6  7  2  0
  7  8  1  0
  8  2  1  0
M  END
>  <Title>  (512) 
idAARTgen8

$$$$

     RDKit          2D

  8  7  0  0  0  0  0  0  0  0999 V2000
    0.0000    0.0000    0.0000 C   0  0  0  0  0  0  0  0  0  0  0  0
   -0.0000   -1.5000    0.0000 C   0  0  0  0  0  0  0  0  0  0  0  0
   -0.0000   -3.0000    0.0000 C   0  0  0  0  0  0  0  0  0  0  0  0
   -0.0000   -4.5000    0.0000 C   0  0  0  0  0  0  0  0  0  0  0  0
   -0.0000   -6.0000    0.0000 C   0  0  0  0  0  0  0  0  0  0  0  0
   -0.0000   -7.5000    0.0000 C   0  0  0  0  0  0  0  0  0  0  0  0
   -0.0000   -9.0000    0.0000 C   0  0  0  0  0  0  0  0  0  0  0  0
    1.2990   -9.7500    0.0000 C   0  0  0  0  0  0  0  0  0  0  0  0
  1  2  3  0
  2  3  1  0
  3  4  3  0
  4  5  1  0
  5  6  3  0
  6  7  1  0
  7  8  2  0
M  END
>  <Title>  (513) 
idAARUgen8

$$$$

     RDKit          2D

  9  8  0  0  0  0  0  0  0  0999 V2000
    0.0000    0.0000    0.0000 C   0  0  0  0  0  0  0  0  0  0  0  0
    1.2990    0.7500    0.0000 C   0  0  0  0  0  0  0  0  0  0  0  0
    2.5981   -0.0000    0.0000 C   0  0  0  0  0  0  0  0  0  0  0  0
    3.8971    0.7500    0.0000 C   0  0  0  0  0  0  0  0  0  0  0  0
    5.1962    1.5000    0.0000 C   0  0  0  0  0  0  0  0  0  0  0  0
    6.4952    2.2500    0.0000 C   0  0  0  0  0  0  0  0  0  0  0  0
    7.2452    0.9510    0.0000 C   0  0  0  0  0  0  0  0  0  0  0  0
    5.7452    3.5490    0.0000 C   0  0  0  0  0  0  0  0  0  0  0  0
    7.7942    3.0000    0.0000 C   0  0  0  0  0  0  0  0  0  0  0  0
  1  2  1  0
  2  3  2  3
  3  4  1  0
  4  5  3  0
  5  6  1  0
  6  7  1  0
  6  8  1  0
  6  9  1  0
M  END
>  <Title>  (514) 
idAARVgen8

$$$$

     RDKit          2D

  8  8  0  0  0  0  0  0  0  0999 V2000
    3.0000    0.0000    0.0000 O   0  0  0  0  0  0  0  0  0  0  0  0
    1.5000    0.0000    0.0000 C   0  0  0  0  0  0  0  0  0  0  0  0
    0.7500   -1.2990    0.0000 C   0  0  0  0  0  0  0  0  0  0  0  0
   -0.7500   -1.2990    0.0000 C   0  0  0  0  0  0  0  0  0  0  0  0
   -1.5000    0.0000    0.0000 C   0  0  0  0  0  0  0  0  0  0  0  0
   -3.0000    0.0000    0.0000 F   0  0  0  0  0  0  0  0  0  0  0  0
   -0.7500    1.2990    0.0000 C   0  0  0  0  0  0  0  0  0  0  0  0
    0.7500    1.2990    0.0000 C   0  0  0  0  0  0  0  0  0  0  0  0
  1  2  1  0
  2  3  2  0
  3  4  1  0
  4  5  2  0
  5  6  1  0
  5  7  1  0
  7  8  2  0
  8  2  1  0
M  END
>  <Title>  (515) 
idAARWgen8

$$$$

     RDKit          2D

  9  9  0  0  0  0  0  0  0  0999 V2000
    3.2286   -0.0000    0.0000 C   0  0  0  0  0  0  0  0  0  0  0  0
    1.7286    0.0000    0.0000 C   0  0  0  0  0  0  0  0  0  0  0  0
    1.0777    1.3515    0.0000 C   0  0  0  0  0  0  0  0  0  0  0  0
   -0.3846    1.6852    0.0000 C   0  0  0  0  0  0  0  0  0  0  0  0
   -1.5574    0.7500    0.0000 C   0  0  0  0  0  0  0  0  0  0  0  0
   -1.5574   -0.7500    0.0000 C   0  0  0  0  0  0  0  0  0  0  0  0
   -2.9088   -1.4008    0.0000 C   0  0  0  0  0  0  0  0  0  0  0  0
   -0.3846   -1.6852    0.0000 C   0  0  0  0  0  0  0  0  0  0  0  0
    1.0777   -1.3515    0.0000 C   0  0  0  0  0  0  0  0  0  0  0  0
  1  2  1  0
  2  3  2  0
  3  4  1  0
  4  5  1  0
  5  6  1  0
  6  7  1  0
  6  8  2  0
  8  9  1  0
  9  2  1  0
M  END
>  <Title>  (516) 
idAARXgen8

$$$$

     RDKit          2D

 11 11  0  0  0  0  0  0  0  0999 V2000
    3.4598   -0.0000    0.0000 C   0  0  0  0  0  0  0  0  0  0  0  0
    1.9598    0.0000    0.0000 C   0  0  0  0  0  0  0  0  0  0  0  0
    1.3858   -1.3858    0.0000 C   0  0  0  0  0  0  0  0  0  0  0  0
   -0.0000   -1.9598    0.0000 C   0  0  0  0  0  0  0  0  0  0  0  0
   -1.3858   -1.3858    0.0000 C   0  0  0  0  0  0  0  0  0  0  0  0
   -1.9598    0.0000    0.0000 C   0  0  0  0  0  0  0  0  0  0  0  0
   -1.3858    1.3858    0.0000 C   0  0  0  0  0  0  0  0  0  0  0  0
   -2.4465    2.4465    0.0000 F   0  0  0  0  0  0  0  0  0  0  0  0
    0.0000    1.9598    0.0000 C   0  0  0  0  0  0  0  0  0  0  0  0
    0.0000    3.4598    0.0000 O   0  0  0  0  0  0  0  0  0  0  0  0
    1.3858    1.3858    0.0000 C   0  0  0  0  0  0  0  0  0  0  0  0
  1  2  1  0
  2  3  2  0
  3  4  1  0
  4  5  1  0
  5  6  1  0
  6  7  1  0
  7  8  1  0
  7  9  1  0
  9 10  1  0
  9 11  1  0
 11  2  1  0
M  END
>  <Title>  (517) 
idAARYgen8

$$$$

     RDKit          2D

  9  9  0  0  0  0  0  0  0  0999 V2000
    4.2760   -0.0000    0.0000 C   0  0  0  0  0  0  0  0  0  0  0  0
    2.7760    0.0000    0.0000 C   0  0  0  0  0  0  0  0  0  0  0  0
    1.2760    0.0000    0.0000 C   0  0  0  0  0  0  0  0  0  0  0  0
    0.3943    1.2135    0.0000 C   0  0  0  0  0  0  0  0  0  0  0  0
   -1.0323    0.7500    0.0000 C   0  0  0  0  0  0  0  0  0  0  0  0
   -1.0323   -0.7500    0.0000 C   0  0  0  0  0  0  0  0  0  0  0  0
   -2.2458   -1.6317    0.0000 C   0  0  0  0  0  0  0  0  0  0  0  0
   -3.4593   -2.5134    0.0000 N   0  0  0  0  0  0  0  0  0  0  0  0
    0.3943   -1.2135    0.0000 C   0  0  0  0  0  0  0  0  0  0  0  0
  1  2  3  0
  2  3  1  0
  3  4  2  0
  4  5  1  0
  5  6  1  0
  6  7  1  0
  7  8  3  0
  6  9  1  0
  9  3  1  0
M  END
>  <Title>  (518) 
idAARZgen8

$$$$

     RDKit          2D

 81 81  0  0  0  0  0  0  0  0999 V2000
   20.6035    0.0000    0.0000 C   0  0  0  0  0  0  0  0  0  0  0  0
   19.1035    0.0000    0.0000 C   0  0  0  0  0  0  0  0  0  0  0  0
   19.0446   -1.4988    0.0000 C   0  0  0  0  0  0  0  0  0  0  0  0
   18.8683   -2.9884    0.0000 C   0  0  0  0  0  0  0  0  0  0  0  0
   18.5757   -4.4596    0.0000 C   0  0  0  0  0  0  0  0  0  0  0  0
   18.1685   -5.9033    0.0000 C   0  0  0  0  0  0  0  0  0  0  0  0
   17.6493   -7.3106    0.0000 C   0  0  0  0  0  0  0  0  0  0  0  0
   17.0213   -8.6728    0.0000 C   0  0  0  0  0  0  0  0  0  0  0  0
   16.2884   -9.9816    0.0000 C   0  0  0  0  0  0  0  0  0  0  0  0
   15.4551  -11.2288    0.0000 C   0  0  0  0  0  0  0  0  0  0  0  0
   14.5264  -12.4067    0.0000 C   0  0  0  0  0  0  0  0  0  0  0  0
   13.5082  -13.5082    0.0000 C   0  0  0  0  0  0  0  0  0  0  0  0
   12.4067  -14.5264    0.0000 C   0  0  0  0  0  0  0  0  0  0  0  0
   11.2288  -15.4551    0.0000 C   0  0  0  0  0  0  0  0  0  0  0  0
    9.9816  -16.2884    0.0000 C   0  0  0  0  0  0  0  0  0  0  0  0
    8.6728  -17.0213    0.0000 C   0  0  0  0  0  0  0  0  0  0  0  0
    7.3106  -17.6493    0.0000 C   0  0  0  0  0  0  0  0  0  0  0  0
    5.9033  -18.1685    0.0000 C   0  0  0  0  0  0  0  0  0  0  0  0
    4.4596  -18.5757    0.0000 C   0  0  0  0  0  0  0  0  0  0  0  0
    2.9884  -18.8683    0.0000 C   0  0  0  0  0  0  0  0  0  0  0  0
    1.4988  -19.0446    0.0000 C   0  0  0  0  0  0  0  0  0  0  0  0
   -0.0000  -19.1035    0.0000 C   0  0  0  0  0  0  0  0  0  0  0  0
   -1.4988  -19.0446    0.0000 C   0  0  0  0  0  0  0  0  0  0  0  0
   -2.9884  -18.8683    0.0000 C   0  0  0  0  0  0  0  0  0  0  0  0
   -4.4596  -18.5757    0.0000 C   0  0  0  0  0  0  0  0  0  0  0  0
   -5.9033  -18.1685    0.0000 C   0  0  0  0  0  0  0  0  0  0  0  0
   -7.3106  -17.6493    0.0000 C   0  0  0  0  0  0  0  0  0  0  0  0
   -8.6728  -17.0213    0.0000 C   0  0  0  0  0  0  0  0  0  0  0  0
   -9.9816  -16.2884    0.0000 C   0  0  0  0  0  0  0  0  0  0  0  0
  -11.2288  -15.4551    0.0000 C   0  0  0  0  0  0  0  0  0  0  0  0
  -12.4067  -14.5264    0.0000 C   0  0  0  0  0  0  0  0  0  0  0  0
  -13.5082  -13.5082    0.0000 C   0  0  0  0  0  0  0  0  0  0  0  0
  -14.5264  -12.4067    0.0000 C   0  0  0  0  0  0  0  0  0  0  0  0
  -15.4551  -11.2288    0.0000 C   0  0  0  0  0  0  0  0  0  0  0  0
  -16.2884   -9.9816    0.0000 C   0  0  0  0  0  0  0  0  0  0  0  0
  -17.0213   -8.6728    0.0000 C   0  0  0  0  0  0  0  0  0  0  0  0
  -17.6493   -7.3106    0.0000 C   0  0  0  0  0  0  0  0  0  0  0  0
  -18.1685   -5.9033    0.0000 C   0  0  0  0  0  0  0  0  0  0  0  0
  -18.5757   -4.4596    0.0000 C   0  0  0  0  0  0  0  0  0  0  0  0
  -18.8683   -2.9884    0.0000 C   0  0  0  0  0  0  0  0  0  0  0  0
  -19.0446   -1.4988    0.0000 C   0  0  0  0  0  0  0  0  0  0  0  0
  -19.1035    0.0000    0.0000 C   0  0  0  0  0  0  0  0  0  0  0  0
  -19.0446    1.4988    0.0000 C   0  0  0  0  0  0  0  0  0  0  0  0
  -18.8683    2.9884    0.0000 C   0  0  0  0  0  0  0  0  0  0  0  0
  -18.5757    4.4596    0.0000 C   0  0  0  0  0  0  0  0  0  0  0  0
  -18.1685    5.9033    0.0000 C   0  0  0  0  0  0  0  0  0  0  0  0
  -17.6493    7.3106    0.0000 C   0  0  0  0  0  0  0  0  0  0  0  0
  -17.0213    8.6728    0.0000 C   0  0  0  0  0  0  0  0  0  0  0  0
  -16.2884    9.9816    0.0000 C   0  0  0  0  0  0  0  0  0  0  0  0
  -15.4551   11.2288    0.0000 C   0  0  0  0  0  0  0  0  0  0  0  0
  -14.5264   12.4067    0.0000 C   0  0  0  0  0  0  0  0  0  0  0  0
  -13.5082   13.5082    0.0000 C   0  0  0  0  0  0  0  0  0  0  0  0
  -12.4067   14.5264    0.0000 C   0  0  0  0  0  0  0  0  0  0  0  0
  -11.2288   15.4551    0.0000 C   0  0  0  0  0  0  0  0  0  0  0  0
   -9.9816   16.2884    0.0000 C   0  0  0  0  0  0  0  0  0  0  0  0
   -8.6728   17.0213    0.0000 C   0  0  0  0  0  0  0  0  0  0  0  0
   -7.3106   17.6493    0.0000 C   0  0  0  0  0  0  0  0  0  0  0  0
   -5.9033   18.1685    0.0000 C   0  0  0  0  0  0  0  0  0  0  0  0
   -4.4596   18.5757    0.0000 C   0  0  0  0  0  0  0  0  0  0  0  0
   -2.9884   18.8683    0.0000 C   0  0  0  0  0  0  0  0  0  0  0  0
   -1.4988   19.0446    0.0000 C   0  0  0  0  0  0  0  0  0  0  0  0
    0.0000   19.1035    0.0000 C   0  0  0  0  0  0  0  0  0  0  0  0
    1.4988   19.0446    0.0000 C   0  0  0  0  0  0  0  0  0  0  0  0
    2.9884   18.8683    0.0000 C   0  0  0  0  0  0  0  0  0  0  0  0
    4.4596   18.5757    0.0000 C   0  0  0  0  0  0  0  0  0  0  0  0
    5.9033   18.1685    0.0000 C   0  0  0  0  0  0  0  0  0  0  0  0
    7.3106   17.6493    0.0000 C   0  0  0  0  0  0  0  0  0  0  0  0
    8.6728   17.0213    0.0000 C   0  0  0  0  0  0  0  0  0  0  0  0
    9.9816   16.2884    0.0000 C   0  0  0  0  0  0  0  0  0  0  0  0
   11.2288   15.4551    0.0000 C   0  0  0  0  0  0  0  0  0  0  0  0
   12.4067   14.5264    0.0000 C   0  0  0  0  0  0  0  0  0  0  0  0
   13.5082   13.5082    0.0000 C   0  0  0  0  0  0  0  0  0  0  0  0
   14.5264   12.4067    0.0000 C   0  0  0  0  0  0  0  0  0  0  0  0
   15.4551   11.2288    0.0000 C   0  0  0  0  0  0  0  0  0  0  0  0
   16.2884    9.9816    0.0000 C   0  0  0  0  0  0  0  0  0  0  0  0
   17.0213    8.6728    0.0000 C   0  0  0  0  0  0  0  0  0  0  0  0
   17.6493    7.3106    0.0000 C   0  0  0  0  0  0  0  0  0  0  0  0
   18.1685    5.9033    0.0000 C   0  0  0  0  0  0  0  0  0  0  0  0
   18.5757    4.4596    0.0000 C   0  0  0  0  0  0  0  0  0  0  0  0
   18.8683    2.9884    0.0000 C   0  0  0  0  0  0  0  0  0  0  0  0
   19.0446    1.4988    0.0000 C   0  0  0  0  0  0  0  0  0  0  0  0
  1  2  1  0
  2  3  1  0
  3  4  1  0
  4  5  1  0
  5  6  1  0
  6  7  1  0
  7  8  1  0
  8  9  1  0
  9 10  1  0
 10 11  1  0
 11 12  1  0
 12 13  1  0
 13 14  1  0
 14 15  1  0
 15 16  1  0
 16 17  1  0
 17 18  1  0
 18 19  1  0
 19 20  1  0
 20 21  1  0
 21 22  1  0
 22 23  1  0
 23 24  1  0
 24 25  1  0
 25 26  1  0
 26 27  1  0
 27 28  1  0
 28 29  1  0
 29 30  1  0
 30 31  1  0
 31 32  1  0
 32 33  1  0
 33 34  1  0
 34 35  1  0
 35 36  1  0
 36 37  1  0
 37 38  1  0
 38 39  1  0
 39 40  1  0
 40 41  1  0
 41 42  1  0
 42 43  1  0
 43 44  1  0
 44 45  1  0
 45 46  1  0
 46 47  1  0
 47 48  1  0
 48 49  1  0
 49 50  1  0
 50 51  1  0
 51 52  1  0
 52 53  1  0
 53 54  1  0
 54 55  1  0
 55 56  1  0
 56 57  1  0
 57 58  1  0
 58 59  1  0
 59 60  1  0
 60 61  1  0
 61 62  1  0
 62 63  1  0
 63 64  1  0
 64 65  1  0
 65 66  1  0
 66 67  1  0
 67 68  1  0
 68 69  1  0
 69 70  1  0
 70 71  1  0
 71 72  1  0
 72 73  1  0
 73 74  1  0
 74 75  1  0
 75 76  1  0
 76 77  1  0
 77 78  1  0
 78 79  1  0
 79 80  1  0
 80 81  1  0
 81  2  1  0
M  END
>  <Title>  (519) 
idAASAgen8

$$$$

     RDKit          2D

  9  9  0  0  0  0  0  0  0  0999 V2000
    5.0260   -1.2990    0.0000 C   0  0  0  0  0  0  0  0  0  0  0  0
    3.5260   -1.2990    0.0000 C   0  0  0  0  0  0  0  0  0  0  0  0
    2.7760    0.0000    0.0000 C   0  0  0  0  0  0  0  0  0  0  0  0
    1.2760    0.0000    0.0000 C   0  0  0  0  0  0  0  0  0  0  0  0
    0.3943    1.2135    0.0000 C   0  0  0  0  0  0  0  0  0  0  0  0
   -1.0323    0.7500    0.0000 C   0  0  0  0  0  0  0  0  0  0  0  0
   -2.2458    1.6317    0.0000 C   0  0  0  0  0  0  0  0  0  0  0  0
   -1.0323   -0.7500    0.0000 C   0  0  0  0  0  0  0  0  0  0  0  0
    0.3943   -1.2135    0.0000 C   0  0  0  0  0  0  0  0  0  0  0  0
  1  2  1  0
  2  3  1  0
  3  4  1  0
  4  5  2  0
  5  6  1  0
  6  7  1  0
  6  8  2  0
  8  9  1  0
  9  4  1  0
M  END
>  <Title>  (520) 
idAASBgen8

$$$$

     RDKit          2D

 13 12  0  0  0  0  0  0  0  0999 V2000
    0.0000    0.0000    0.0000 C   0  0  0  0  0  0  0  0  0  0  0  0
    1.2990    0.7500    0.0000 C   0  0  0  0  0  0  0  0  0  0  0  0
    2.5981    1.5000    0.0000 C   0  0  0  0  0  0  0  0  0  0  0  0
    3.8971    2.2500    0.0000 C   0  0  0  0  0  0  0  0  0  0  0  0
    3.8971    3.7500    0.0000 C   0  0  0  0  0  0  0  0  0  0  0  0
    5.1962    4.5000    0.0000 O   0  0  0  0  0  0  0  0  0  0  0  0
    5.1962    1.5000    0.0000 C   0  0  0  0  0  0  0  0  0  0  0  0
    6.4952    2.2500    0.0000 C   0  0  0  0  0  0  0  0  0  0  0  0
    7.7942    1.5000    0.0000 C   0  0  0  0  0  0  0  0  0  0  0  0
    9.0933    2.2500    0.0000 C   0  0  0  0  0  0  0  0  0  0  0  0
   10.3923    1.5000    0.0000 C   0  0  0  0  0  0  0  0  0  0  0  0
   11.6913    2.2500    0.0000 C   0  0  0  0  0  0  0  0  0  0  0  0
   12.9904    1.5000    0.0000 C   0  0  0  0  0  0  0  0  0  0  0  0
  1  2  1  0
  2  3  3  0
  3  4  1  0
  4  5  1  0
  5  6  1  0
  4  7  1  0
  7  8  1  0
  8  9  1  0
  9 10  1  0
 10 11  1  0
 11 12  2  3
 12 13  1  0
M  END
>  <Title>  (521) 
idAASCgen8

$$$$

     RDKit          2D

 10 10  0  0  0  0  0  0  0  0999 V2000
    3.2286   -0.0000    0.0000 C   0  0  0  0  0  0  0  0  0  0  0  0
    1.7286    0.0000    0.0000 C   0  0  0  0  0  0  0  0  0  0  0  0
    1.0777    1.3515    0.0000 C   0  0  0  0  0  0  0  0  0  0  0  0
   -0.3846    1.6852    0.0000 C   0  0  0  0  0  0  0  0  0  0  0  0
   -1.5574    0.7500    0.0000 C   0  0  0  0  0  0  0  0  0  0  0  0
   -2.9088    1.4008    0.0000 O   0  0  0  0  0  0  0  0  0  0  0  0
   -1.5574   -0.7500    0.0000 C   0  0  0  0  0  0  0  0  0  0  0  0
   -0.3846   -1.6852    0.0000 C   0  0  0  0  0  0  0  0  0  0  0  0
    1.0777   -1.3515    0.0000 C   0  0  0  0  0  0  0  0  0  0  0  0
    2.0130   -2.5242    0.0000 O   0  0  0  0  0  0  0  0  0  0  0  0
  1  2  1  0
  2  3  2  0
  3  4  1  0
  4  5  1  0
  5  6  1  0
  5  7  1  0
  7  8  1  0
  8  9  1  0
  9 10  1  0
  9  2  1  0
M  END
>  <Title>  (522) 
idAASDgen8

$$$$

     RDKit          2D

  7  6  0  0  0  0  0  0  0  0999 V2000
    0.0000    0.0000    0.0000 C   0  0  0  0  0  0  0  0  0  0  0  0
    1.2990    0.7500    0.0000 C   0  0  0  0  0  0  0  0  0  0  0  0
    2.5981   -0.0000    0.0000 C   0  0  0  0  0  0  0  0  0  0  0  0
    3.8971    0.7500    0.0000 C   0  0  0  0  0  0  0  0  0  0  0  0
    5.1962   -0.0000    0.0000 C   0  0  0  0  0  0  0  0  0  0  0  0
    6.4952    0.7500    0.0000 C   0  0  0  0  0  0  0  0  0  0  0  0
    5.1962   -1.5000    0.0000 O   0  0  0  0  0  0  0  0  0  0  0  0
  1  2  1  0
  2  3  1  0
  3  4  2  3
  4  5  1  0
  5  6  1  0
  5  7  2  0
M  END
>  <Title>  (523) 
idAASEgen8

$$$$

     RDKit          2D

  9  9  0  0  0  0  0  0  0  0999 V2000
    2.7760   -1.5000    0.0000 C   0  0  0  0  0  0  0  0  0  0  0  0
    2.7760    0.0000    0.0000 C   0  0  0  0  0  0  0  0  0  0  0  0
    2.7760    1.5000    0.0000 C   0  0  0  0  0  0  0  0  0  0  0  0
    4.2760    0.0000    0.0000 C   0  0  0  0  0  0  0  0  0  0  0  0
    1.2760    0.0000    0.0000 C   0  0  0  0  0  0  0  0  0  0  0  0
    0.3943    1.2135    0.0000 C   0  0  0  0  0  0  0  0  0  0  0  0
   -1.0323    0.7500    0.0000 C   0  0  0  0  0  0  0  0  0  0  0  0
   -1.0323   -0.7500    0.0000 C   0  0  0  0  0  0  0  0  0  0  0  0
    0.3943   -1.2135    0.0000 C   0  0  0  0  0  0  0  0  0  0  0  0
  1  2  1  0
  2  3  1  0
  2  4  1  0
  2  5  1  0
  5  6  2  0
  6  7  1  0
  7  8  1  0
  8  9  2  0
  9  5  1  0
M  END
>  <Title>  (524) 
idAASFgen8

$$$$

     RDKit          2D

104104  0  0  0  0  0  0  0  0999 V2000
   26.0933    0.0000    0.0000 C   0  0  0  0  0  0  0  0  0  0  0  0
   24.5933    0.0000    0.0000 C   0  0  0  0  0  0  0  0  0  0  0  0
   24.5475    1.4993    0.0000 C   0  0  0  0  0  0  0  0  0  0  0  0
   24.4104    2.9930    0.0000 C   0  0  0  0  0  0  0  0  0  0  0  0
   24.1826    4.4756    0.0000 C   0  0  0  0  0  0  0  0  0  0  0  0
   23.8647    5.9416    0.0000 C   0  0  0  0  0  0  0  0  0  0  0  0
   23.4581    7.3854    0.0000 C   0  0  0  0  0  0  0  0  0  0  0  0
   22.9643    8.8018    0.0000 C   0  0  0  0  0  0  0  0  0  0  0  0
   22.3850   10.1854    0.0000 C   0  0  0  0  0  0  0  0  0  0  0  0
   21.7224   11.5311    0.0000 C   0  0  0  0  0  0  0  0  0  0  0  0
   20.9790   12.8339    0.0000 C   0  0  0  0  0  0  0  0  0  0  0  0
   20.1576   14.0890    0.0000 C   0  0  0  0  0  0  0  0  0  0  0  0
   19.2611   15.2917    0.0000 C   0  0  0  0  0  0  0  0  0  0  0  0
   18.2931   16.4375    0.0000 C   0  0  0  0  0  0  0  0  0  0  0  0
   17.2569   17.5222    0.0000 C   0  0  0  0  0  0  0  0  0  0  0  0
   16.1566   18.5416    0.0000 C   0  0  0  0  0  0  0  0  0  0  0  0
   14.9962   19.4921    0.0000 C   0  0  0  0  0  0  0  0  0  0  0  0
   13.7800   20.3701    0.0000 C   0  0  0  0  0  0  0  0  0  0  0  0
   12.5125   21.1723    0.0000 C   0  0  0  0  0  0  0  0  0  0  0  0
   11.1985   21.8957    0.0000 C   0  0  0  0  0  0  0  0  0  0  0  0
    9.8428   22.5377    0.0000 C   0  0  0  0  0  0  0  0  0  0  0  0
    8.4505   23.0958    0.0000 C   0  0  0  0  0  0  0  0  0  0  0  0
    7.0268   23.5680    0.0000 C   0  0  0  0  0  0  0  0  0  0  0  0
    5.5769   23.9526    0.0000 C   0  0  0  0  0  0  0  0  0  0  0  0
    4.1063   24.2480    0.0000 C   0  0  0  0  0  0  0  0  0  0  0  0
    2.6204   24.4532    0.0000 C   0  0  0  0  0  0  0  0  0  0  0  0
    1.1248   24.5675    0.0000 C   0  0  0  0  0  0  0  0  0  0  0  0
   -0.3750   24.5904    0.0000 C   0  0  0  0  0  0  0  0  0  0  0  0
   -1.8735   24.5218    0.0000 C   0  0  0  0  0  0  0  0  0  0  0  0
   -3.3649   24.3620    0.0000 C   0  0  0  0  0  0  0  0  0  0  0  0
   -4.8439   24.1115    0.0000 C   0  0  0  0  0  0  0  0  0  0  0  0
   -6.3048   23.7714    0.0000 C   0  0  0  0  0  0  0  0  0  0  0  0
   -7.7423   23.3428    0.0000 C   0  0  0  0  0  0  0  0  0  0  0  0
   -9.1509   22.8274    0.0000 C   0  0  0  0  0  0  0  0  0  0  0  0
  -10.5256   22.2270    0.0000 C   0  0  0  0  0  0  0  0  0  0  0  0
  -11.8610   21.5440    0.0000 C   0  0  0  0  0  0  0  0  0  0  0  0
  -13.1524   20.7808    0.0000 C   0  0  0  0  0  0  0  0  0  0  0  0
  -14.3948   19.9404    0.0000 C   0  0  0  0  0  0  0  0  0  0  0  0
  -15.5837   19.0257    0.0000 C   0  0  0  0  0  0  0  0  0  0  0  0
  -16.7146   18.0403    0.0000 C   0  0  0  0  0  0  0  0  0  0  0  0
  -17.7833   16.9877    0.0000 C   0  0  0  0  0  0  0  0  0  0  0  0
  -18.7858   15.8720    0.0000 C   0  0  0  0  0  0  0  0  0  0  0  0
  -19.7185   14.6972    0.0000 C   0  0  0  0  0  0  0  0  0  0  0  0
  -20.5778   13.4678    0.0000 C   0  0  0  0  0  0  0  0  0  0  0  0
  -21.3606   12.1882    0.0000 C   0  0  0  0  0  0  0  0  0  0  0  0
  -22.0639   10.8633    0.0000 C   0  0  0  0  0  0  0  0  0  0  0  0
  -22.6852    9.4980    0.0000 C   0  0  0  0  0  0  0  0  0  0  0  0
  -23.2220    8.0973    0.0000 C   0  0  0  0  0  0  0  0  0  0  0  0
  -23.6724    6.6666    0.0000 C   0  0  0  0  0  0  0  0  0  0  0  0
  -24.0348    5.2110    0.0000 C   0  0  0  0  0  0  0  0  0  0  0  0
  -24.3078    3.7361    0.0000 C   0  0  0  0  0  0  0  0  0  0  0  0
  -24.4904    2.2472    0.0000 C   0  0  0  0  0  0  0  0  0  0  0  0
  -24.5818    0.7500    0.0000 C   0  0  0  0  0  0  0  0  0  0  0  0
  -24.5818   -0.7500    0.0000 C   0  0  0  0  0  0  0  0  0  0  0  0
  -24.4904   -2.2472    0.0000 C   0  0  0  0  0  0  0  0  0  0  0  0
  -24.3078   -3.7361    0.0000 C   0  0  0  0  0  0  0  0  0  0  0  0
  -24.0348   -5.2110    0.0000 C   0  0  0  0  0  0  0  0  0  0  0  0
  -23.6724   -6.6666    0.0000 C   0  0  0  0  0  0  0  0  0  0  0  0
  -23.2220   -8.0973    0.0000 C   0  0  0  0  0  0  0  0  0  0  0  0
  -22.6852   -9.4980    0.0000 C   0  0  0  0  0  0  0  0  0  0  0  0
  -22.0639  -10.8633    0.0000 C   0  0  0  0  0  0  0  0  0  0  0  0
  -21.3606  -12.1882    0.0000 C   0  0  0  0  0  0  0  0  0  0  0  0
  -20.5778  -13.4678    0.0000 C   0  0  0  0  0  0  0  0  0  0  0  0
  -19.7185  -14.6972    0.0000 C   0  0  0  0  0  0  0  0  0  0  0  0
  -18.7858  -15.8720    0.0000 C   0  0  0  0  0  0  0  0  0  0  0  0
  -17.7833  -16.9877    0.0000 C   0  0  0  0  0  0  0  0  0  0  0  0
  -16.7146  -18.0403    0.0000 C   0  0  0  0  0  0  0  0  0  0  0  0
  -15.5837  -19.0257    0.0000 C   0  0  0  0  0  0  0  0  0  0  0  0
  -14.3948  -19.9404    0.0000 C   0  0  0  0  0  0  0  0  0  0  0  0
  -13.1524  -20.7808    0.0000 C   0  0  0  0  0  0  0  0  0  0  0  0
  -11.8610  -21.5440    0.0000 C   0  0  0  0  0  0  0  0  0  0  0  0
  -10.5256  -22.2270    0.0000 C   0  0  0  0  0  0  0  0  0  0  0  0
   -9.1509  -22.8274    0.0000 C   0  0  0  0  0  0  0  0  0  0  0  0
   -7.7423  -23.3428    0.0000 C   0  0  0  0  0  0  0  0  0  0  0  0
   -6.3048  -23.7714    0.0000 C   0  0  0  0  0  0  0  0  0  0  0  0
   -4.8439  -24.1115    0.0000 C   0  0  0  0  0  0  0  0  0  0  0  0
   -3.3649  -24.3620    0.0000 C   0  0  0  0  0  0  0  0  0  0  0  0
   -1.8735  -24.5218    0.0000 C   0  0  0  0  0  0  0  0  0  0  0  0
   -0.3750  -24.5904    0.0000 C   0  0  0  0  0  0  0  0  0  0  0  0
    1.1248  -24.5675    0.0000 C   0  0  0  0  0  0  0  0  0  0  0  0
    2.6204  -24.4532    0.0000 C   0  0  0  0  0  0  0  0  0  0  0  0
    4.1063  -24.2480    0.0000 C   0  0  0  0  0  0  0  0  0  0  0  0
    5.5769  -23.9526    0.0000 C   0  0  0  0  0  0  0  0  0  0  0  0
    7.0268  -23.5680    0.0000 C   0  0  0  0  0  0  0  0  0  0  0  0
    8.4505  -23.0958    0.0000 C   0  0  0  0  0  0  0  0  0  0  0  0
    9.8428  -22.5377    0.0000 C   0  0  0  0  0  0  0  0  0  0  0  0
   11.1985  -21.8957    0.0000 C   0  0  0  0  0  0  0  0  0  0  0  0
   12.5125  -21.1723    0.0000 C   0  0  0  0  0  0  0  0  0  0  0  0
   13.7800  -20.3701    0.0000 C   0  0  0  0  0  0  0  0  0  0  0  0
   14.9962  -19.4921    0.0000 C   0  0  0  0  0  0  0  0  0  0  0  0
   16.1566  -18.5416    0.0000 C   0  0  0  0  0  0  0  0  0  0  0  0
   17.2569  -17.5222    0.0000 C   0  0  0  0  0  0  0  0  0  0  0  0
   18.2931  -16.4375    0.0000 C   0  0  0  0  0  0  0  0  0  0  0  0
   19.2611  -15.2917    0.0000 C   0  0  0  0  0  0  0  0  0  0  0  0
   20.1576  -14.0890    0.0000 C   0  0  0  0  0  0  0  0  0  0  0  0
   20.9790  -12.8339    0.0000 C   0  0  0  0  0  0  0  0  0  0  0  0
   21.7224  -11.5311    0.0000 C   0  0  0  0  0  0  0  0  0  0  0  0
   22.3850  -10.1854    0.0000 C   0  0  0  0  0  0  0  0  0  0  0  0
   22.9643   -8.8018    0.0000 C   0  0  0  0  0  0  0  0  0  0  0  0
   23.4581   -7.3854    0.0000 C   0  0  0  0  0  0  0  0  0  0  0  0
   23.8647   -5.9416    0.0000 C   0  0  0  0  0  0  0  0  0  0  0  0
   24.1826   -4.4756    0.0000 C   0  0  0  0  0  0  0  0  0  0  0  0
   24.4104   -2.9930    0.0000 C   0  0  0  0  0  0  0  0  0  0  0  0
   24.5475   -1.4993    0.0000 C   0  0  0  0  0  0  0  0  0  0  0  0
  1  2  1  0
  2  3  1  0
  3  4  1  0
  4  5  1  0
  5  6  1  0
  6  7  1  0
  7  8  1  0
  8  9  1  0
  9 10  1  0
 10 11  1  0
 11 12  1  0
 12 13  1  0
 13 14  1  0
 14 15  1  0
 15 16  1  0
 16 17  1  0
 17 18  1  0
 18 19  1  0
 19 20  1  0
 20 21  1  0
 21 22  1  0
 22 23  1  0
 23 24  1  0
 24 25  1  0
 25 26  1  0
 26 27  1  0
 27 28  1  0
 28 29  1  0
 29 30  1  0
 30 31  1  0
 31 32  1  0
 32 33  1  0
 33 34  1  0
 34 35  1  0
 35 36  1  0
 36 37  1  0
 37 38  1  0
 38 39  1  0
 39 40  1  0
 40 41  1  0
 41 42  1  0
 42 43  1  0
 43 44  1  0
 44 45  1  0
 45 46  1  0
 46 47  1  0
 47 48  1  0
 48 49  1  0
 49 50  1  0
 50 51  1  0
 51 52  1  0
 52 53  1  0
 53 54  1  0
 54 55  1  0
 55 56  1  0
 56 57  1  0
 57 58  1  0
 58 59  1  0
 59 60  1  0
 60 61  1  0
 61 62  1  0
 62 63  1  0
 63 64  1  0
 64 65  1  0
 65 66  1  0
 66 67  1  0
 67 68  1  0
 68 69  1  0
 69 70  1  0
 70 71  1  0
 71 72  1  0
 72 73  1  0
 73 74  1  0
 74 75  1  0
 75 76  1  0
 76 77  1  0
 77 78  1  0
 78 79  1  0
 79 80  1  0
 80 81  1  0
 81 82  1  0
 82 83  1  0
 83 84  1  0
 84 85  1  0
 85 86  1  0
 86 87  1  0
 87 88  1  0
 88 89  1  0
 89 90  1  0
 90 91  1  0
 91 92  1  0
 92 93  1  0
 93 94  1  0
 94 95  1  0
 95 96  1  0
 96 97  1  0
 97 98  1  0
 98 99  1  0
 99100  1  0
100101  1  0
101102  1  0
102103  1  0
103104  1  0
104  2  1  0
M  END
>  <Title>  (525) 
idAASGgen8

$$$$

     RDKit          2D

 15 15  0  0  0  0  0  0  0  0999 V2000
   16.2760   -0.0000    0.0000 C   0  0  0  0  0  0  0  0  0  0  0  0
   14.7760   -0.0000    0.0000 C   0  0  0  0  0  0  0  0  0  0  0  0
   13.2760   -0.0000    0.0000 C   0  0  0  0  0  0  0  0  0  0  0  0
   11.7760   -0.0000    0.0000 C   0  0  0  0  0  0  0  0  0  0  0  0
   10.2760   -0.0000    0.0000 C   0  0  0  0  0  0  0  0  0  0  0  0
    8.7760   -0.0000    0.0000 C   0  0  0  0  0  0  0  0  0  0  0  0
    7.2760   -0.0000    0.0000 C   0  0  0  0  0  0  0  0  0  0  0  0
    5.7760   -0.0000    0.0000 C   0  0  0  0  0  0  0  0  0  0  0  0
    4.2760   -0.0000    0.0000 C   0  0  0  0  0  0  0  0  0  0  0  0
    2.7760    0.0000    0.0000 C   0  0  0  0  0  0  0  0  0  0  0  0
    1.2760    0.0000    0.0000 C   0  0  0  0  0  0  0  0  0  0  0  0
    0.3943    1.2135    0.0000 C   0  0  0  0  0  0  0  0  0  0  0  0
   -1.0323    0.7500    0.0000 C   0  0  0  0  0  0  0  0  0  0  0  0
   -1.0323   -0.7500    0.0000 C   0  0  0  0  0  0  0  0  0  0  0  0
    0.3943   -1.2135    0.0000 C   0  0  0  0  0  0  0  0  0  0  0  0
  1  2  3  0
  2  3  1  0
  3  4  3  0
  4  5  1  0
  5  6  3  0
  6  7  1  0
  7  8  3  0
  8  9  1  0
  9 10  3  0
 10 11  1  0
 11 12  2  0
 12 13  1  0
 13 14  1  0
 14 15  2  0
 15 11  1  0
M  END
>  <Title>  (526) 
idAASHgen8

$$$$

     RDKit          2D

  8  8  0  0  0  0  0  0  0  0999 V2000
    2.7760    0.0000    0.0000 C   0  0  0  0  0  0  0  0  0  0  0  0
    1.2760    0.0000    0.0000 C   0  0  0  0  0  0  0  0  0  0  0  0
    0.3943    1.2135    0.0000 C   0  0  0  0  0  0  0  0  0  0  0  0
    0.8578    2.6401    0.0000 C   0  0  0  0  0  0  0  0  0  0  0  0
   -1.0323    0.7500    0.0000 C   0  0  0  0  0  0  0  0  0  0  0  0
   -2.2458    1.6317    0.0000 O   0  0  0  0  0  0  0  0  0  0  0  0
   -1.0323   -0.7500    0.0000 C   0  0  0  0  0  0  0  0  0  0  0  0
    0.3943   -1.2135    0.0000 C   0  0  0  0  0  0  0  0  0  0  0  0
  1  2  1  0
  2  3  2  0
  3  4  1  0
  3  5  1  0
  5  6  2  0
  5  7  1  0
  7  8  1  0
  8  2  1  0
M  END
>  <Title>  (527) 
idAASIgen8

$$$$

     RDKit          2D

 85 85  0  0  0  0  0  0  0  0999 V2000
   21.5582    0.0000    0.0000 C   0  0  0  0  0  0  0  0  0  0  0  0
   20.0582    0.0000    0.0000 C   0  0  0  0  0  0  0  0  0  0  0  0
   20.0021   -1.4990    0.0000 C   0  0  0  0  0  0  0  0  0  0  0  0
   19.8342   -2.9895    0.0000 C   0  0  0  0  0  0  0  0  0  0  0  0
   19.5553   -4.4634    0.0000 C   0  0  0  0  0  0  0  0  0  0  0  0
   19.1671   -5.9123    0.0000 C   0  0  0  0  0  0  0  0  0  0  0  0
   18.6717   -7.3281    0.0000 C   0  0  0  0  0  0  0  0  0  0  0  0
   18.0718   -8.7029    0.0000 C   0  0  0  0  0  0  0  0  0  0  0  0
   17.3709  -10.0291    0.0000 C   0  0  0  0  0  0  0  0  0  0  0  0
   16.5729  -11.2992    0.0000 C   0  0  0  0  0  0  0  0  0  0  0  0
   15.6821  -12.5061    0.0000 C   0  0  0  0  0  0  0  0  0  0  0  0
   14.7037  -13.6430    0.0000 C   0  0  0  0  0  0  0  0  0  0  0  0
   13.6430  -14.7037    0.0000 C   0  0  0  0  0  0  0  0  0  0  0  0
   12.5061  -15.6821    0.0000 C   0  0  0  0  0  0  0  0  0  0  0  0
   11.2992  -16.5729    0.0000 C   0  0  0  0  0  0  0  0  0  0  0  0
   10.0291  -17.3709    0.0000 C   0  0  0  0  0  0  0  0  0  0  0  0
    8.7029  -18.0718    0.0000 C   0  0  0  0  0  0  0  0  0  0  0  0
    7.3281  -18.6717    0.0000 C   0  0  0  0  0  0  0  0  0  0  0  0
    5.9123  -19.1671    0.0000 C   0  0  0  0  0  0  0  0  0  0  0  0
    4.4634  -19.5553    0.0000 C   0  0  0  0  0  0  0  0  0  0  0  0
    2.9895  -19.8342    0.0000 C   0  0  0  0  0  0  0  0  0  0  0  0
    1.4990  -20.0021    0.0000 C   0  0  0  0  0  0  0  0  0  0  0  0
   -0.0000  -20.0582    0.0000 C   0  0  0  0  0  0  0  0  0  0  0  0
   -1.4990  -20.0021    0.0000 C   0  0  0  0  0  0  0  0  0  0  0  0
   -2.9895  -19.8342    0.0000 C   0  0  0  0  0  0  0  0  0  0  0  0
   -4.4634  -19.5553    0.0000 C   0  0  0  0  0  0  0  0  0  0  0  0
   -5.9123  -19.1671    0.0000 C   0  0  0  0  0  0  0  0  0  0  0  0
   -7.3281  -18.6717    0.0000 C   0  0  0  0  0  0  0  0  0  0  0  0
   -8.7029  -18.0718    0.0000 C   0  0  0  0  0  0  0  0  0  0  0  0
  -10.0291  -17.3709    0.0000 C   0  0  0  0  0  0  0  0  0  0  0  0
  -11.2992  -16.5729    0.0000 C   0  0  0  0  0  0  0  0  0  0  0  0
  -12.5061  -15.6821    0.0000 C   0  0  0  0  0  0  0  0  0  0  0  0
  -13.6430  -14.7037    0.0000 C   0  0  0  0  0  0  0  0  0  0  0  0
  -14.7037  -13.6430    0.0000 C   0  0  0  0  0  0  0  0  0  0  0  0
  -15.6821  -12.5061    0.0000 C   0  0  0  0  0  0  0  0  0  0  0  0
  -16.5729  -11.2992    0.0000 C   0  0  0  0  0  0  0  0  0  0  0  0
  -17.3709  -10.0291    0.0000 C   0  0  0  0  0  0  0  0  0  0  0  0
  -18.0718   -8.7029    0.0000 C   0  0  0  0  0  0  0  0  0  0  0  0
  -18.6717   -7.3281    0.0000 C   0  0  0  0  0  0  0  0  0  0  0  0
  -19.1671   -5.9123    0.0000 C   0  0  0  0  0  0  0  0  0  0  0  0
  -19.5553   -4.4634    0.0000 C   0  0  0  0  0  0  0  0  0  0  0  0
  -19.8342   -2.9895    0.0000 C   0  0  0  0  0  0  0  0  0  0  0  0
  -20.0021   -1.4990    0.0000 C   0  0  0  0  0  0  0  0  0  0  0  0
  -20.0582    0.0000    0.0000 C   0  0  0  0  0  0  0  0  0  0  0  0
  -20.0021    1.4990    0.0000 C   0  0  0  0  0  0  0  0  0  0  0  0
  -19.8342    2.9895    0.0000 C   0  0  0  0  0  0  0  0  0  0  0  0
  -19.5553    4.4634    0.0000 C   0  0  0  0  0  0  0  0  0  0  0  0
  -19.1671    5.9123    0.0000 C   0  0  0  0  0  0  0  0  0  0  0  0
  -18.6717    7.3281    0.0000 C   0  0  0  0  0  0  0  0  0  0  0  0
  -18.0718    8.7029    0.0000 C   0  0  0  0  0  0  0  0  0  0  0  0
  -17.3709   10.0291    0.0000 C   0  0  0  0  0  0  0  0  0  0  0  0
  -16.5729   11.2992    0.0000 C   0  0  0  0  0  0  0  0  0  0  0  0
  -15.6821   12.5061    0.0000 C   0  0  0  0  0  0  0  0  0  0  0  0
  -14.7037   13.6430    0.0000 C   0  0  0  0  0  0  0  0  0  0  0  0
  -13.6430   14.7037    0.0000 C   0  0  0  0  0  0  0  0  0  0  0  0
  -12.5061   15.6821    0.0000 C   0  0  0  0  0  0  0  0  0  0  0  0
  -11.2992   16.5729    0.0000 C   0  0  0  0  0  0  0  0  0  0  0  0
  -10.0291   17.3709    0.0000 C   0  0  0  0  0  0  0  0  0  0  0  0
   -8.7029   18.0718    0.0000 C   0  0  0  0  0  0  0  0  0  0  0  0
   -7.3281   18.6717    0.0000 C   0  0  0  0  0  0  0  0  0  0  0  0
   -5.9123   19.1671    0.0000 C   0  0  0  0  0  0  0  0  0  0  0  0
   -4.4634   19.5553    0.0000 C   0  0  0  0  0  0  0  0  0  0  0  0
   -2.9895   19.8342    0.0000 C   0  0  0  0  0  0  0  0  0  0  0  0
   -1.4990   20.0021    0.0000 C   0  0  0  0  0  0  0  0  0  0  0  0
    0.0000   20.0582    0.0000 C   0  0  0  0  0  0  0  0  0  0  0  0
    1.4990   20.0021    0.0000 C   0  0  0  0  0  0  0  0  0  0  0  0
    2.9895   19.8342    0.0000 C   0  0  0  0  0  0  0  0  0  0  0  0
    4.4634   19.5553    0.0000 C   0  0  0  0  0  0  0  0  0  0  0  0
    5.9123   19.1671    0.0000 C   0  0  0  0  0  0  0  0  0  0  0  0
    7.3281   18.6717    0.0000 C   0  0  0  0  0  0  0  0  0  0  0  0
    8.7029   18.0718    0.0000 C   0  0  0  0  0  0  0  0  0  0  0  0
   10.0291   17.3709    0.0000 C   0  0  0  0  0  0  0  0  0  0  0  0
   11.2992   16.5729    0.0000 C   0  0  0  0  0  0  0  0  0  0  0  0
   12.5061   15.6821    0.0000 C   0  0  0  0  0  0  0  0  0  0  0  0
   13.6430   14.7037    0.0000 C   0  0  0  0  0  0  0  0  0  0  0  0
   14.7037   13.6430    0.0000 C   0  0  0  0  0  0  0  0  0  0  0  0
   15.6821   12.5061    0.0000 C   0  0  0  0  0  0  0  0  0  0  0  0
   16.5729   11.2992    0.0000 C   0  0  0  0  0  0  0  0  0  0  0  0
   17.3709   10.0291    0.0000 C   0  0  0  0  0  0  0  0  0  0  0  0
   18.0718    8.7029    0.0000 C   0  0  0  0  0  0  0  0  0  0  0  0
   18.6717    7.3281    0.0000 C   0  0  0  0  0  0  0  0  0  0  0  0
   19.1671    5.9123    0.0000 C   0  0  0  0  0  0  0  0  0  0  0  0
   19.5553    4.4634    0.0000 C   0  0  0  0  0  0  0  0  0  0  0  0
   19.8342    2.9895    0.0000 C   0  0  0  0  0  0  0  0  0  0  0  0
   20.0021    1.4990    0.0000 C   0  0  0  0  0  0  0  0  0  0  0  0
  1  2  1  0
  2  3  1  0
  3  4  2  0
  4  5  1  0
  5  6  2  0
  6  7  1  0
  7  8  2  0
  8  9  1  0
  9 10  2  0
 10 11  1  0
 11 12  2  0
 12 13  1  0
 13 14  2  0
 14 15  1  0
 15 16  1  0
 16 17  1  0
 17 18  1  0
 18 19  1  0
 19 20  1  0
 20 21  1  0
 21 22  1  0
 22 23  1  0
 23 24  1  0
 24 25  1  0
 25 26  1  0
 26 27  1  0
 27 28  1  0
 28 29  1  0
 29 30  1  0
 30 31  1  0
 31 32  1  0
 32 33  1  0
 33 34  1  0
 34 35  1  0
 35 36  1  0
 36 37  1  0
 37 38  1  0
 38 39  1  0
 39 40  1  0
 40 41  1  0
 41 42  1  0
 42 43  1  0
 43 44  1  0
 44 45  1  0
 45 46  1  0
 46 47  1  0
 47 48  1  0
 48 49  1  0
 49 50  1  0
 50 51  1  0
 51 52  1  0
 52 53  1  0
 53 54  1  0
 54 55  1  0
 55 56  1  0
 56 57  1  0
 57 58  1  0
 58 59  1  0
 59 60  1  0
 60 61  1  0
 61 62  1  0
 62 63  1  0
 63 64  1  0
 64 65  1  0
 65 66  1  0
 66 67  1  0
 67 68  1  0
 68 69  1  0
 69 70  1  0
 70 71  1  0
 71 72  1  0
 72 73  1  0
 73 74  1  0
 74 75  1  0
 75 76  1  0
 76 77  1  0
 77 78  1  0
 78 79  1  0
 79 80  1  0
 80 81  1  0
 81 82  1  0
 82 83  1  0
 83 84  1  0
 84 85  1  0
 85  2  1  0
M  END
>  <Title>  (528) 
idAASJgen8

$$$$

     RDKit          2D

  9  9  0  0  0  0  0  0  0  0999 V2000
    3.0000    0.0000    0.0000 C   0  0  0  0  0  0  0  0  0  0  0  0
    1.5000    0.0000    0.0000 C   0  0  0  0  0  0  0  0  0  0  0  0
    0.7500   -1.2990    0.0000 C   0  0  0  0  0  0  0  0  0  0  0  0
   -0.7500   -1.2990    0.0000 C   0  0  0  0  0  0  0  0  0  0  0  0
   -1.5000    0.0000    0.0000 C   0  0  0  0  0  0  0  0  0  0  0  0
   -3.0000    0.0000    0.0000 O   0  0  0  0  0  0  0  0  0  0  0  0
   -0.7500    1.2990    0.0000 C   0  0  0  0  0  0  0  0  0  0  0  0
   -1.5000    2.5981    0.0000 O   0  0  0  0  0  0  0  0  0  0  0  0
    0.7500    1.2990    0.0000 C   0  0  0  0  0  0  0  0  0  0  0  0
  1  2  1  0
  2  3  2  0
  3  4  1  0
  4  5  1  0
  5  6  1  0
  5  7  1  0
  7  8  1  0
  7  9  2  0
  9  2  1  0
M  END
>  <Title>  (529) 
idAASKgen8

$$$$

     RDKit          2D

  7  7  0  0  0  0  0  0  0  0999 V2000
    3.0000    0.0000    0.0000 O   0  0  0  0  0  0  0  0  0  0  0  0
    1.5000    0.0000    0.0000 C   0  0  0  0  0  0  0  0  0  0  0  0
    0.7500   -1.2990    0.0000 C   0  0  0  0  0  0  0  0  0  0  0  0
   -0.7500   -1.2990    0.0000 C   0  0  0  0  0  0  0  0  0  0  0  0
   -1.5000    0.0000    0.0000 C   0  0  0  0  0  0  0  0  0  0  0  0
   -0.7500    1.2990    0.0000 C   0  0  0  0  0  0  0  0  0  0  0  0
    0.7500    1.2990    0.0000 C   0  0  0  0  0  0  0  0  0  0  0  0
  1  2  2  0
  2  3  1  0
  3  4  1  0
  4  5  1  0
  5  6  1  0
  6  7  1  0
  7  2  1  0
M  END
>  <Title>  (530) 
idAASLgen8

$$$$

     RDKit          2D

 31 34  0  0  0  0  0  0  0  0999 V2000
    1.2990  -13.2654    0.0000 C   0  0  0  0  0  0  0  0  0  0  0  0
    1.2990  -11.7654    0.0000 C   0  0  0  0  0  0  0  0  0  0  0  0
    1.2990  -10.2654    0.0000 C   0  0  0  0  0  0  0  0  0  0  0  0
    1.2990   -8.7654    0.0000 C   0  0  0  0  0  0  0  0  0  0  0  0
    2.5981   -8.0154    0.0000 O   0  0  0  0  0  0  0  0  0  0  0  0
   -0.0000   -8.0154    0.0000 N   0  0  0  0  0  0  0  0  0  0  0  0
   -0.0000   -6.5154    0.0000 C   0  0  0  0  0  0  0  0  0  0  0  0
    1.4392   -6.0928    0.0000 N   0  0  0  0  0  0  0  0  0  0  0  0
    2.4215   -4.9592    0.0000 N   0  0  0  0  0  0  0  0  0  0  0  0
    2.6350   -3.4744    0.0000 C   0  0  0  0  0  0  0  0  0  0  0  0
    4.1197   -3.2610    0.0000 N   0  0  0  0  0  0  0  0  0  0  0  0
    2.0119   -2.1100    0.0000 C   0  0  0  0  0  0  0  0  0  0  0  0
    3.1455   -1.1277    0.0000 O   0  0  0  0  0  0  0  0  0  0  0  0
    0.7500   -1.2990    0.0000 C   0  0  0  0  0  0  0  0  0  0  0  0
    1.5000    0.0000    0.0000 C   0  0  0  0  0  0  0  0  0  0  0  0
    0.7500    1.2990    0.0000 C   0  0  0  0  0  0  0  0  0  0  0  0
   -0.7500    1.2990    0.0000 C   0  0  0  0  0  0  0  0  0  0  0  0
   -1.5000    0.0000    0.0000 C   0  0  0  0  0  0  0  0  0  0  0  0
   -0.7500   -1.2990    0.0000 C   0  0  0  0  0  0  0  0  0  0  0  0
   -2.0119   -2.1100    0.0000 C   0  0  0  0  0  0  0  0  0  0  0  0
   -2.8820   -0.8881    0.0000 C   0  0  0  0  0  0  0  0  0  0  0  0
   -4.3752   -1.0307    0.0000 C   0  0  0  0  0  0  0  0  0  0  0  0
   -4.9983   -2.3952    0.0000 C   0  0  0  0  0  0  0  0  0  0  0  0
   -4.1282   -3.6170    0.0000 C   0  0  0  0  0  0  0  0  0  0  0  0
   -2.6350   -3.4744    0.0000 C   0  0  0  0  0  0  0  0  0  0  0  0
   -2.4215   -4.9592    0.0000 C   0  0  0  0  0  0  0  0  0  0  0  0
   -3.8944   -5.2431    0.0000 C   0  0  0  0  0  0  0  0  0  0  0  0
   -4.3850   -6.6606    0.0000 C   0  0  0  0  0  0  0  0  0  0  0  0
   -3.4027   -7.7942    0.0000 C   0  0  0  0  0  0  0  0  0  0  0  0
   -1.9298   -7.5103    0.0000 C   0  0  0  0  0  0  0  0  0  0  0  0
   -1.4392   -6.0928    0.0000 C   0  0  0  0  0  0  0  0  0  0  0  0
  1  2  1  0
  2  3  3  0
  3  4  1  0
  4  5  2  0
  4  6  1  0
  6  7  1  0
  7  8  2  0
  8  9  1  0
  9 10  2  0
 10 11  1  0
 10 12  1  0
 12 13  2  0
 12 14  1  0
 14 15  2  0
 15 16  1  0
 16 17  2  0
 17 18  1  0
 18 19  2  0
 19 20  1  0
 20 21  2  0
 21 22  1  0
 22 23  2  0
 23 24  1  0
 24 25  2  0
 25 26  1  0
 26 27  2  0
 27 28  1  0
 28 29  2  0
 29 30  1  0
 30 31  2  0
 31  7  1  0
 19 14  1  0
 25 20  1  0
 31 26  1  0
M  END
>  <Title>  (531) 
idAASMgen8

$$$$

     RDKit          2D

 98101  0  0  0  0  0  0  0  0999 V2000
   -8.6196   -1.5619    0.0000 C   0  0  0  0  0  0  0  0  0  0  0  0
   -8.0264   -2.9396    0.0000 C   0  0  0  0  0  0  0  0  0  0  0  0
   -9.3813   -3.5833    0.0000 C   0  0  0  0  0  0  0  0  0  0  0  0
  -10.6849   -4.3253    0.0000 C   0  0  0  0  0  0  0  0  0  0  0  0
  -11.9302   -5.1615    0.0000 C   0  0  0  0  0  0  0  0  0  0  0  0
  -13.1103   -6.0875    0.0000 C   0  0  0  0  0  0  0  0  0  0  0  0
  -14.2188   -7.0980    0.0000 C   0  0  0  0  0  0  0  0  0  0  0  0
  -15.2497   -8.1876    0.0000 C   0  0  0  0  0  0  0  0  0  0  0  0
  -16.1973   -9.3505    0.0000 C   0  0  0  0  0  0  0  0  0  0  0  0
  -17.0564  -10.5801    0.0000 C   0  0  0  0  0  0  0  0  0  0  0  0
  -17.8223  -11.8698    0.0000 C   0  0  0  0  0  0  0  0  0  0  0  0
  -18.4909  -13.2125    0.0000 C   0  0  0  0  0  0  0  0  0  0  0  0
  -19.0585  -14.6010    0.0000 C   0  0  0  0  0  0  0  0  0  0  0  0
  -19.5221  -16.0275    0.0000 C   0  0  0  0  0  0  0  0  0  0  0  0
  -19.8790  -17.4845    0.0000 C   0  0  0  0  0  0  0  0  0  0  0  0
  -20.1273  -18.9638    0.0000 C   0  0  0  0  0  0  0  0  0  0  0  0
  -20.2657  -20.4574    0.0000 C   0  0  0  0  0  0  0  0  0  0  0  0
  -20.2934  -21.9571    0.0000 C   0  0  0  0  0  0  0  0  0  0  0  0
  -20.2103  -23.4548    0.0000 C   0  0  0  0  0  0  0  0  0  0  0  0
  -20.0168  -24.9423    0.0000 C   0  0  0  0  0  0  0  0  0  0  0  0
  -19.7140  -26.4114    0.0000 C   0  0  0  0  0  0  0  0  0  0  0  0
  -19.3035  -27.8541    0.0000 C   0  0  0  0  0  0  0  0  0  0  0  0
  -18.7876  -29.2626    0.0000 C   0  0  0  0  0  0  0  0  0  0  0  0
  -18.1690  -30.6291    0.0000 C   0  0  0  0  0  0  0  0  0  0  0  0
  -17.4513  -31.9463    0.0000 C   0  0  0  0  0  0  0  0  0  0  0  0
  -16.6382  -33.2068    0.0000 C   0  0  0  0  0  0  0  0  0  0  0  0
  -15.7342  -34.4038    0.0000 C   0  0  0  0  0  0  0  0  0  0  0  0
  -14.7443  -35.5308    0.0000 C   0  0  0  0  0  0  0  0  0  0  0  0
  -13.6739  -36.5816    0.0000 C   0  0  0  0  0  0  0  0  0  0  0  0
  -12.5288  -37.5505    0.0000 C   0  0  0  0  0  0  0  0  0  0  0  0
  -11.3153  -38.4322    0.0000 C   0  0  0  0  0  0  0  0  0  0  0  0
  -10.0400  -39.2218    0.0000 C   0  0  0  0  0  0  0  0  0  0  0  0
   -8.7098  -39.9151    0.0000 C   0  0  0  0  0  0  0  0  0  0  0  0
   -7.3321  -40.5083    0.0000 C   0  0  0  0  0  0  0  0  0  0  0  0
   -5.9143  -40.9981    0.0000 C   0  0  0  0  0  0  0  0  0  0  0  0
   -4.4642  -41.3819    0.0000 C   0  0  0  0  0  0  0  0  0  0  0  0
   -2.9898  -41.6575    0.0000 C   0  0  0  0  0  0  0  0  0  0  0  0
   -1.4990  -41.8235    0.0000 C   0  0  0  0  0  0  0  0  0  0  0  0
    0.0000  -41.8789    0.0000 C   0  0  0  0  0  0  0  0  0  0  0  0
    1.4990  -41.8235    0.0000 C   0  0  0  0  0  0  0  0  0  0  0  0
    2.9898  -41.6575    0.0000 C   0  0  0  0  0  0  0  0  0  0  0  0
    4.4642  -41.3819    0.0000 C   0  0  0  0  0  0  0  0  0  0  0  0
    5.9143  -40.9981    0.0000 C   0  0  0  0  0  0  0  0  0  0  0  0
    7.3321  -40.5083    0.0000 C   0  0  0  0  0  0  0  0  0  0  0  0
    8.7098  -39.9151    0.0000 C   0  0  0  0  0  0  0  0  0  0  0  0
   10.0400  -39.2218    0.0000 C   0  0  0  0  0  0  0  0  0  0  0  0
   11.3153  -38.4322    0.0000 C   0  0  0  0  0  0  0  0  0  0  0  0
   12.5288  -37.5505    0.0000 C   0  0  0  0  0  0  0  0  0  0  0  0
   13.6739  -36.5816    0.0000 C   0  0  0  0  0  0  0  0  0  0  0  0
   14.7443  -35.5308    0.0000 C   0  0  0  0  0  0  0  0  0  0  0  0
   15.7342  -34.4038    0.0000 C   0  0  0  0  0  0  0  0  0  0  0  0
   16.6382  -33.2068    0.0000 C   0  0  0  0  0  0  0  0  0  0  0  0
   17.4513  -31.9463    0.0000 C   0  0  0  0  0  0  0  0  0  0  0  0
   18.1690  -30.6291    0.0000 C   0  0  0  0  0  0  0  0  0  0  0  0
   18.7876  -29.2626    0.0000 C   0  0  0  0  0  0  0  0  0  0  0  0
   19.3035  -27.8541    0.0000 C   0  0  0  0  0  0  0  0  0  0  0  0
   19.7140  -26.4114    0.0000 C   0  0  0  0  0  0  0  0  0  0  0  0
   20.0168  -24.9423    0.0000 C   0  0  0  0  0  0  0  0  0  0  0  0
   20.2103  -23.4548    0.0000 C   0  0  0  0  0  0  0  0  0  0  0  0
   20.2934  -21.9571    0.0000 C   0  0  0  0  0  0  0  0  0  0  0  0
   20.2657  -20.4574    0.0000 C   0  0  0  0  0  0  0  0  0  0  0  0
   20.1273  -18.9638    0.0000 C   0  0  0  0  0  0  0  0  0  0  0  0
   19.8790  -17.4845    0.0000 C   0  0  0  0  0  0  0  0  0  0  0  0
   19.5221  -16.0275    0.0000 C   0  0  0  0  0  0  0  0  0  0  0  0
   19.0585  -14.6010    0.0000 C   0  0  0  0  0  0  0  0  0  0  0  0
   18.4909  -13.2125    0.0000 C   0  0  0  0  0  0  0  0  0  0  0  0
   17.8223  -11.8698    0.0000 C   0  0  0  0  0  0  0  0  0  0  0  0
   17.0564  -10.5801    0.0000 C   0  0  0  0  0  0  0  0  0  0  0  0
   16.1973   -9.3505    0.0000 C   0  0  0  0  0  0  0  0  0  0  0  0
   15.2497   -8.1876    0.0000 C   0  0  0  0  0  0  0  0  0  0  0  0
   14.2188   -7.0980    0.0000 C   0  0  0  0  0  0  0  0  0  0  0  0
   13.1103   -6.0875    0.0000 C   0  0  0  0  0  0  0  0  0  0  0  0
   11.9302   -5.1615    0.0000 C   0  0  0  0  0  0  0  0  0  0  0  0
   10.6849   -4.3253    0.0000 C   0  0  0  0  0  0  0  0  0  0  0  0
    9.3813   -3.5833    0.0000 C   0  0  0  0  0  0  0  0  0  0  0  0
    8.0264   -2.9396    0.0000 C   0  0  0  0  0  0  0  0  0  0  0  0
    6.6277   -2.3978    0.0000 C   0  0  0  0  0  0  0  0  0  0  0  0
    5.1928   -1.9607    0.0000 C   0  0  0  0  0  0  0  0  0  0  0  0
    3.7295   -1.6308    0.0000 C   0  0  0  0  0  0  0  0  0  0  0  0
    2.2459   -1.4098    0.0000 C   0  0  0  0  0  0  0  0  0  0  0  0
    0.7500   -1.2990    0.0000 C   0  0  0  0  0  0  0  0  0  0  0  0
    1.5000    0.0000    0.0000 C   0  0  0  0  0  0  0  0  0  0  0  0
    0.7500    1.2990    0.0000 C   0  0  0  0  0  0  0  0  0  0  0  0
   -0.7500    1.2990    0.0000 C   0  0  0  0  0  0  0  0  0  0  0  0
   -1.5000    0.0000    0.0000 C   0  0  0  0  0  0  0  0  0  0  0  0
   -0.7500   -1.2990    0.0000 C   0  0  0  0  0  0  0  0  0  0  0  0
   -2.2459   -1.4098    0.0000 C   0  0  0  0  0  0  0  0  0  0  0  0
   -1.3127   -2.5842    0.0000 C   0  0  0  0  0  0  0  0  0  0  0  0
   -1.8632   -3.9796    0.0000 C   0  0  0  0  0  0  0  0  0  0  0  0
   -3.3468   -4.2005    0.0000 C   0  0  0  0  0  0  0  0  0  0  0  0
   -4.2800   -3.0261    0.0000 C   0  0  0  0  0  0  0  0  0  0  0  0
   -3.7295   -1.6308    0.0000 C   0  0  0  0  0  0  0  0  0  0  0  0
   -5.1928   -1.9607    0.0000 C   0  0  0  0  0  0  0  0  0  0  0  0
   -4.8539   -0.4995    0.0000 C   0  0  0  0  0  0  0  0  0  0  0  0
   -5.9499    0.5246    0.0000 C   0  0  0  0  0  0  0  0  0  0  0  0
   -7.3848    0.0876    0.0000 C   0  0  0  0  0  0  0  0  0  0  0  0
   -7.7237   -1.3737    0.0000 C   0  0  0  0  0  0  0  0  0  0  0  0
   -6.6277   -2.3978    0.0000 C   0  0  0  0  0  0  0  0  0  0  0  0
  1  2  1  0
  2  3  1  0
  3  4  1  0
  4  5  1  0
  5  6  1  0
  6  7  1  0
  7  8  1  0
  8  9  1  0
  9 10  1  0
 10 11  1  0
 11 12  1  0
 12 13  1  0
 13 14  1  0
 14 15  1  0
 15 16  1  0
 16 17  1  0
 17 18  1  0
 18 19  1  0
 19 20  1  0
 20 21  1  0
 21 22  1  0
 22 23  1  0
 23 24  1  0
 24 25  1  0
 25 26  1  0
 26 27  1  0
 27 28  1  0
 28 29  1  0
 29 30  1  0
 30 31  1  0
 31 32  1  0
 32 33  1  0
 33 34  1  0
 34 35  1  0
 35 36  1  0
 36 37  1  0
 37 38  1  0
 38 39  1  0
 39 40  1  0
 40 41  1  0
 41 42  1  0
 42 43  1  0
 43 44  1  0
 44 45  1  0
 45 46  1  0
 46 47  1  0
 47 48  1  0
 48 49  1  0
 49 50  1  0
 50 51  1  0
 51 52  2  0
 52 53  1  0
 53 54  1  0
 54 55  2  0
 55 56  1  0
 56 57  2  0
 57 58  1  0
 58 59  2  0
 59 60  1  0
 60 61  2  0
 61 62  1  0
 62 63  2  0
 63 64  1  0
 64 65  2  0
 65 66  1  0
 66 67  2  0
 67 68  1  0
 68 69  2  0
 69 70  1  0
 70 71  2  0
 71 72  1  0
 72 73  2  0
 73 74  1  0
 74 75  2  0
 75 76  1  0
 76 77  2  0
 77 78  1  0
 78 79  2  0
 79 80  1  0
 80 81  2  0
 81 82  1  0
 82 83  1  0
 83 84  1  0
 84 85  1  0
 85 86  1  0
 86 87  1  0
 87 88  2  0
 88 89  1  0
 89 90  2  0
 90 91  1  0
 91 92  2  0
 92 93  1  0
 93 94  2  0
 94 95  1  0
 95 96  2  0
 96 97  1  0
 97 98  2  0
 98  2  1  0
 86 81  1  0
 92 87  1  0
 98 93  1  0
M  END
>  <Title>  (532) 
idAASNgen8

$$$$

     RDKit          2D

 72 81  0  0  0  0  0  0  0  0999 V2000
   -0.0000  -19.4991    0.0000 C   0  0  0  0  0  0  0  0  0  0  0  0
   -0.0000  -17.9991    0.0000 C   0  0  0  0  0  0  0  0  0  0  0  0
    1.4940  -17.8646    0.0000 C   0  0  0  0  0  0  0  0  0  0  0  0
    2.9399  -17.4656    0.0000 C   0  0  0  0  0  0  0  0  0  0  0  0
    4.2914  -16.8147    0.0000 C   0  0  0  0  0  0  0  0  0  0  0  0
    5.5049  -15.9331    0.0000 C   0  0  0  0  0  0  0  0  0  0  0  0
    6.5415  -14.8489    0.0000 C   0  0  0  0  0  0  0  0  0  0  0  0
    7.3678  -13.5970    0.0000 C   0  0  0  0  0  0  0  0  0  0  0  0
    7.9574  -12.2177    0.0000 C   0  0  0  0  0  0  0  0  0  0  0  0
    8.2911  -10.7553    0.0000 C   0  0  0  0  0  0  0  0  0  0  0  0
    8.3584   -9.2568    0.0000 C   0  0  0  0  0  0  0  0  0  0  0  0
    8.1571   -7.7704    0.0000 C   0  0  0  0  0  0  0  0  0  0  0  0
    7.6936   -6.3438    0.0000 C   0  0  0  0  0  0  0  0  0  0  0  0
    6.9828   -5.0229    0.0000 C   0  0  0  0  0  0  0  0  0  0  0  0
    6.0475   -3.8502    0.0000 C   0  0  0  0  0  0  0  0  0  0  0  0
    4.9179   -2.8633    0.0000 C   0  0  0  0  0  0  0  0  0  0  0  0
    3.6302   -2.0939    0.0000 C   0  0  0  0  0  0  0  0  0  0  0  0
    2.2259   -1.5669    0.0000 C   0  0  0  0  0  0  0  0  0  0  0  0
    0.7500   -1.2990    0.0000 C   0  0  0  0  0  0  0  0  0  0  0  0
    1.5000    0.0000    0.0000 C   0  0  0  0  0  0  0  0  0  0  0  0
    0.7500    1.2990    0.0000 C   0  0  0  0  0  0  0  0  0  0  0  0
   -0.7500    1.2990    0.0000 C   0  0  0  0  0  0  0  0  0  0  0  0
   -1.5000    0.0000    0.0000 C   0  0  0  0  0  0  0  0  0  0  0  0
   -0.7500   -1.2990    0.0000 C   0  0  0  0  0  0  0  0  0  0  0  0
   -2.2259   -1.5669    0.0000 C   0  0  0  0  0  0  0  0  0  0  0  0
   -2.6355   -0.3331    0.0000 C   0  0  0  0  0  0  0  0  0  0  0  0
   -3.2535    0.1750    0.0000 C   0  0  0  0  0  0  0  0  0  0  0  0
   -4.0025   -0.1061    0.0000 C   0  0  0  0  0  0  0  0  0  0  0  0
   -4.1335   -0.8953    0.0000 C   0  0  0  0  0  0  0  0  0  0  0  0
   -3.6302   -2.0939    0.0000 C   0  0  0  0  0  0  0  0  0  0  0  0
   -4.9179   -2.8633    0.0000 C   0  0  0  0  0  0  0  0  0  0  0  0
   -5.2078   -1.3916    0.0000 C   0  0  0  0  0  0  0  0  0  0  0  0
   -6.6273   -0.9067    0.0000 C   0  0  0  0  0  0  0  0  0  0  0  0
   -7.7569   -1.8937    0.0000 C   0  0  0  0  0  0  0  0  0  0  0  0
   -7.4670   -3.3654    0.0000 C   0  0  0  0  0  0  0  0  0  0  0  0
   -6.0475   -3.8502    0.0000 C   0  0  0  0  0  0  0  0  0  0  0  0
   -6.9828   -5.0229    0.0000 C   0  0  0  0  0  0  0  0  0  0  0  0
   -8.1030   -4.3633    0.0000 C   0  0  0  0  0  0  0  0  0  0  0  0
   -8.9026   -4.3873    0.0000 C   0  0  0  0  0  0  0  0  0  0  0  0
   -9.2817   -5.0917    0.0000 C   0  0  0  0  0  0  0  0  0  0  0  0
   -8.8612   -5.7723    0.0000 C   0  0  0  0  0  0  0  0  0  0  0  0
   -7.6936   -6.3438    0.0000 C   0  0  0  0  0  0  0  0  0  0  0  0
   -8.1571   -7.7704    0.0000 C   0  0  0  0  0  0  0  0  0  0  0  0
   -9.3437   -6.8528    0.0000 C   0  0  0  0  0  0  0  0  0  0  0  0
  -10.7317   -7.4217    0.0000 C   0  0  0  0  0  0  0  0  0  0  0  0
  -10.9330   -8.9081    0.0000 C   0  0  0  0  0  0  0  0  0  0  0  0
   -9.7464   -9.8257    0.0000 C   0  0  0  0  0  0  0  0  0  0  0  0
   -8.3584   -9.2568    0.0000 C   0  0  0  0  0  0  0  0  0  0  0  0
   -8.2911  -10.7553    0.0000 C   0  0  0  0  0  0  0  0  0  0  0  0
   -9.5687  -10.9956    0.0000 C   0  0  0  0  0  0  0  0  0  0  0  0
  -10.1552  -11.5398    0.0000 C   0  0  0  0  0  0  0  0  0  0  0  0
   -9.9772  -12.3197    0.0000 C   0  0  0  0  0  0  0  0  0  0  0  0
   -9.2127  -12.5555    0.0000 C   0  0  0  0  0  0  0  0  0  0  0  0
   -7.9574  -12.2177    0.0000 C   0  0  0  0  0  0  0  0  0  0  0  0
   -7.3678  -13.5970    0.0000 C   0  0  0  0  0  0  0  0  0  0  0  0
   -8.8651  -13.6867    0.0000 C   0  0  0  0  0  0  0  0  0  0  0  0
   -9.5361  -15.0283    0.0000 C   0  0  0  0  0  0  0  0  0  0  0  0
   -8.7098  -16.2801    0.0000 C   0  0  0  0  0  0  0  0  0  0  0  0
   -7.2124  -16.1904    0.0000 C   0  0  0  0  0  0  0  0  0  0  0  0
   -6.5415  -14.8489    0.0000 C   0  0  0  0  0  0  0  0  0  0  0  0
   -5.5049  -15.9331    0.0000 C   0  0  0  0  0  0  0  0  0  0  0  0
   -6.3089  -16.9546    0.0000 C   0  0  0  0  0  0  0  0  0  0  0  0
   -6.3925  -17.7502    0.0000 C   0  0  0  0  0  0  0  0  0  0  0  0
   -5.7453  -18.2205    0.0000 C   0  0  0  0  0  0  0  0  0  0  0  0
   -5.0145  -17.8951    0.0000 C   0  0  0  0  0  0  0  0  0  0  0  0
   -4.2914  -16.8147    0.0000 C   0  0  0  0  0  0  0  0  0  0  0  0
   -2.9399  -17.4656    0.0000 C   0  0  0  0  0  0  0  0  0  0  0  0
   -4.0085  -18.5183    0.0000 C   0  0  0  0  0  0  0  0  0  0  0  0
   -3.6311  -19.9700    0.0000 C   0  0  0  0  0  0  0  0  0  0  0  0
   -2.1851  -20.3691    0.0000 C   0  0  0  0  0  0  0  0  0  0  0  0
   -1.1166  -19.3164    0.0000 C   0  0  0  0  0  0  0  0  0  0  0  0
   -1.4940  -17.8646    0.0000 C   0  0  0  0  0  0  0  0  0  0  0  0
  1  2  1  0
  2  3  1  0
  3  4  1  0
  4  5  1  0
  5  6  1  0
  6  7  1  0
  7  8  1  0
  8  9  1  0
  9 10  1  0
 10 11  1  0
 11 12  1  0
 12 13  1  0
 13 14  1  0
 14 15  1  0
 15 16  1  0
 16 17  1  0
 17 18  1  0
 18 19  1  0
 19 20  2  0
 20 21  1  0
 21 22  2  0
 22 23  1  0
 23 24  2  0
 24 25  1  0
 25 26  2  0
 26 27  1  0
 27 28  2  0
 28 29  1  0
 29 30  2  0
 30 31  1  0
 31 32  2  0
 32 33  1  0
 33 34  2  0
 34 35  1  0
 35 36  2  0
 36 37  1  0
 37 38  2  0
 38 39  1  0
 39 40  2  0
 40 41  1  0
 41 42  2  0
 42 43  1  0
 43 44  2  0
 44 45  1  0
 45 46  2  0
 46 47  1  0
 47 48  2  0
 48 49  1  0
 49 50  2  0
 50 51  1  0
 51 52  2  0
 52 53  1  0
 53 54  2  0
 54 55  1  0
 55 56  2  0
 56 57  1  0
 57 58  2  0
 58 59  1  0
 59 60  2  0
 60 61  1  0
 61 62  2  0
 62 63  1  0
 63 64  2  0
 64 65  1  0
 65 66  2  0
 66 67  1  0
 67 68  2  0
 68 69  1  0
 69 70  2  0
 70 71  1  0
 71 72  2  0
 72  2  1  0
 24 19  1  0
 30 25  1  0
 36 31  1  0
 42 37  1  0
 48 43  1  0
 54 49  1  0
 60 55  1  0
 66 61  1  0
 72 67  1  0
M  END
>  <Title>  (533) 
idAASOgen8

$$$$

     RDKit          2D

 47 53  0  0  0  0  0  0  0  0999 V2000
    0.9635  -13.2165    0.0000 C   0  0  0  0  0  0  0  0  0  0  0  0
    0.7500  -11.7318    0.0000 C   0  0  0  0  0  0  0  0  0  0  0  0
    2.1892  -11.3092    0.0000 C   0  0  0  0  0  0  0  0  0  0  0  0
    3.4511  -10.4982    0.0000 C   0  0  0  0  0  0  0  0  0  0  0  0
    4.4334   -9.3646    0.0000 C   0  0  0  0  0  0  0  0  0  0  0  0
    5.0565   -8.0001    0.0000 C   0  0  0  0  0  0  0  0  0  0  0  0
    5.2700   -6.5154    0.0000 C   0  0  0  0  0  0  0  0  0  0  0  0
    5.0565   -5.0307    0.0000 C   0  0  0  0  0  0  0  0  0  0  0  0
    4.4334   -3.6662    0.0000 C   0  0  0  0  0  0  0  0  0  0  0  0
    3.4511   -2.5326    0.0000 C   0  0  0  0  0  0  0  0  0  0  0  0
    2.1892   -1.7216    0.0000 C   0  0  0  0  0  0  0  0  0  0  0  0
    0.7500   -1.2990    0.0000 C   0  0  0  0  0  0  0  0  0  0  0  0
    1.5000    0.0000    0.0000 C   0  0  0  0  0  0  0  0  0  0  0  0
    0.7500    1.2990    0.0000 C   0  0  0  0  0  0  0  0  0  0  0  0
   -0.7500    1.2990    0.0000 C   0  0  0  0  0  0  0  0  0  0  0  0
   -1.5000    0.0000    0.0000 C   0  0  0  0  0  0  0  0  0  0  0  0
   -0.7500   -1.2990    0.0000 C   0  0  0  0  0  0  0  0  0  0  0  0
   -2.1892   -1.7216    0.0000 C   0  0  0  0  0  0  0  0  0  0  0  0
   -2.2606   -0.2233    0.0000 C   0  0  0  0  0  0  0  0  0  0  0  0
   -3.5939    0.4640    0.0000 C   0  0  0  0  0  0  0  0  0  0  0  0
   -4.8557   -0.3470    0.0000 C   0  0  0  0  0  0  0  0  0  0  0  0
   -4.7844   -1.8453    0.0000 C   0  0  0  0  0  0  0  0  0  0  0  0
   -3.4511   -2.5326    0.0000 C   0  0  0  0  0  0  0  0  0  0  0  0
   -4.4334   -3.6662    0.0000 C   0  0  0  0  0  0  0  0  0  0  0  0
   -5.3035   -2.4444    0.0000 C   0  0  0  0  0  0  0  0  0  0  0  0
   -6.7967   -2.5869    0.0000 C   0  0  0  0  0  0  0  0  0  0  0  0
   -7.4198   -3.9514    0.0000 C   0  0  0  0  0  0  0  0  0  0  0  0
   -6.5497   -5.1733    0.0000 C   0  0  0  0  0  0  0  0  0  0  0  0
   -5.0565   -5.0307    0.0000 C   0  0  0  0  0  0  0  0  0  0  0  0
   -5.2700   -6.5154    0.0000 C   0  0  0  0  0  0  0  0  0  0  0  0
   -6.6626   -5.9579    0.0000 C   0  0  0  0  0  0  0  0  0  0  0  0
   -7.8416   -6.8851    0.0000 C   0  0  0  0  0  0  0  0  0  0  0  0
   -7.6282   -8.3699    0.0000 C   0  0  0  0  0  0  0  0  0  0  0  0
   -6.2356   -8.9274    0.0000 C   0  0  0  0  0  0  0  0  0  0  0  0
   -5.0565   -8.0001    0.0000 C   0  0  0  0  0  0  0  0  0  0  0  0
   -4.4334   -9.3646    0.0000 C   0  0  0  0  0  0  0  0  0  0  0  0
   -5.9063   -9.6485    0.0000 C   0  0  0  0  0  0  0  0  0  0  0  0
   -6.3969  -11.0660    0.0000 C   0  0  0  0  0  0  0  0  0  0  0  0
   -5.4146  -12.1996    0.0000 C   0  0  0  0  0  0  0  0  0  0  0  0
   -3.9417  -11.9157    0.0000 C   0  0  0  0  0  0  0  0  0  0  0  0
   -3.4511  -10.4982    0.0000 C   0  0  0  0  0  0  0  0  0  0  0  0
   -2.1892  -11.3092    0.0000 C   0  0  0  0  0  0  0  0  0  0  0  0
   -3.2748  -12.3443    0.0000 C   0  0  0  0  0  0  0  0  0  0  0  0
   -2.9212  -13.8020    0.0000 C   0  0  0  0  0  0  0  0  0  0  0  0
   -1.4820  -14.2246    0.0000 C   0  0  0  0  0  0  0  0  0  0  0  0
   -0.3964  -13.1895    0.0000 C   0  0  0  0  0  0  0  0  0  0  0  0
   -0.7500  -11.7318    0.0000 C   0  0  0  0  0  0  0  0  0  0  0  0
  1  2  1  0
  2  3  1  0
  3  4  1  0
  4  5  1  0
  5  6  1  0
  6  7  1  0
  7  8  1  0
  8  9  1  0
  9 10  1  0
 10 11  1  0
 11 12  1  0
 12 13  2  0
 13 14  1  0
 14 15  2  0
 15 16  1  0
 16 17  2  0
 17 18  1  0
 18 19  2  0
 19 20  1  0
 20 21  2  0
 21 22  1  0
 22 23  2  0
 23 24  1  0
 24 25  2  0
 25 26  1  0
 26 27  2  0
 27 28  1  0
 28 29  2  0
 29 30  1  0
 30 31  2  0
 31 32  1  0
 32 33  2  0
 33 34  1  0
 34 35  2  0
 35 36  1  0
 36 37  2  0
 37 38  1  0
 38 39  2  0
 39 40  1  0
 40 41  2  0
 41 42  1  0
 42 43  2  0
 43 44  1  0
 44 45  2  0
 45 46  1  0
 46 47  2  0
 47  2  1  0
 17 12  1  0
 23 18  1  0
 29 24  1  0
 35 30  1  0
 41 36  1  0
 47 42  1  0
M  END
>  <Title>  (534) 
idAASPgen8

$$$$

     RDKit          2D

 97 97  0  0  0  0  0  0  0  0999 V2000
   24.4224   -0.0000    0.0000 C   0  0  0  0  0  0  0  0  0  0  0  0
   22.9224    0.0000    0.0000 C   0  0  0  0  0  0  0  0  0  0  0  0
   22.8733   -1.4992    0.0000 C   0  0  0  0  0  0  0  0  0  0  0  0
   22.7263   -2.9920    0.0000 C   0  0  0  0  0  0  0  0  0  0  0  0
   22.4820   -4.4719    0.0000 C   0  0  0  0  0  0  0  0  0  0  0  0
   22.1413   -5.9328    0.0000 C   0  0  0  0  0  0  0  0  0  0  0  0
   21.7059   -7.3682    0.0000 C   0  0  0  0  0  0  0  0  0  0  0  0
   21.1775   -8.7720    0.0000 C   0  0  0  0  0  0  0  0  0  0  0  0
   20.5585  -10.1383    0.0000 C   0  0  0  0  0  0  0  0  0  0  0  0
   19.8514  -11.4612    0.0000 C   0  0  0  0  0  0  0  0  0  0  0  0
   19.0593  -12.7350    0.0000 C   0  0  0  0  0  0  0  0  0  0  0  0
   18.1856  -13.9543    0.0000 C   0  0  0  0  0  0  0  0  0  0  0  0
   17.2340  -15.1138    0.0000 C   0  0  0  0  0  0  0  0  0  0  0  0
   16.2086  -16.2086    0.0000 C   0  0  0  0  0  0  0  0  0  0  0  0
   15.1138  -17.2340    0.0000 C   0  0  0  0  0  0  0  0  0  0  0  0
   13.9543  -18.1856    0.0000 C   0  0  0  0  0  0  0  0  0  0  0  0
   12.7350  -19.0593    0.0000 C   0  0  0  0  0  0  0  0  0  0  0  0
   11.4612  -19.8514    0.0000 C   0  0  0  0  0  0  0  0  0  0  0  0
   10.1383  -20.5585    0.0000 C   0  0  0  0  0  0  0  0  0  0  0  0
    8.7720  -21.1775    0.0000 C   0  0  0  0  0  0  0  0  0  0  0  0
    7.3682  -21.7059    0.0000 C   0  0  0  0  0  0  0  0  0  0  0  0
    5.9328  -22.1413    0.0000 C   0  0  0  0  0  0  0  0  0  0  0  0
    4.4719  -22.4820    0.0000 C   0  0  0  0  0  0  0  0  0  0  0  0
    2.9920  -22.7263    0.0000 C   0  0  0  0  0  0  0  0  0  0  0  0
    1.4992  -22.8733    0.0000 C   0  0  0  0  0  0  0  0  0  0  0  0
   -0.0000  -22.9224    0.0000 C   0  0  0  0  0  0  0  0  0  0  0  0
   -1.4992  -22.8733    0.0000 C   0  0  0  0  0  0  0  0  0  0  0  0
   -2.9920  -22.7263    0.0000 C   0  0  0  0  0  0  0  0  0  0  0  0
   -4.4719  -22.4820    0.0000 C   0  0  0  0  0  0  0  0  0  0  0  0
   -5.9328  -22.1413    0.0000 C   0  0  0  0  0  0  0  0  0  0  0  0
   -7.3682  -21.7059    0.0000 C   0  0  0  0  0  0  0  0  0  0  0  0
   -8.7720  -21.1775    0.0000 C   0  0  0  0  0  0  0  0  0  0  0  0
  -10.1383  -20.5585    0.0000 C   0  0  0  0  0  0  0  0  0  0  0  0
  -11.4612  -19.8514    0.0000 C   0  0  0  0  0  0  0  0  0  0  0  0
  -12.7350  -19.0593    0.0000 C   0  0  0  0  0  0  0  0  0  0  0  0
  -13.9543  -18.1856    0.0000 C   0  0  0  0  0  0  0  0  0  0  0  0
  -15.1138  -17.2340    0.0000 C   0  0  0  0  0  0  0  0  0  0  0  0
  -16.2086  -16.2086    0.0000 C   0  0  0  0  0  0  0  0  0  0  0  0
  -17.2340  -15.1138    0.0000 C   0  0  0  0  0  0  0  0  0  0  0  0
  -18.1856  -13.9543    0.0000 C   0  0  0  0  0  0  0  0  0  0  0  0
  -19.0593  -12.7350    0.0000 C   0  0  0  0  0  0  0  0  0  0  0  0
  -19.8514  -11.4612    0.0000 C   0  0  0  0  0  0  0  0  0  0  0  0
  -20.5585  -10.1383    0.0000 C   0  0  0  0  0  0  0  0  0  0  0  0
  -21.1775   -8.7720    0.0000 C   0  0  0  0  0  0  0  0  0  0  0  0
  -21.7059   -7.3682    0.0000 C   0  0  0  0  0  0  0  0  0  0  0  0
  -22.1413   -5.9328    0.0000 C   0  0  0  0  0  0  0  0  0  0  0  0
  -22.4820   -4.4719    0.0000 C   0  0  0  0  0  0  0  0  0  0  0  0
  -22.7263   -2.9920    0.0000 C   0  0  0  0  0  0  0  0  0  0  0  0
  -22.8733   -1.4992    0.0000 C   0  0  0  0  0  0  0  0  0  0  0  0
  -22.9224    0.0000    0.0000 C   0  0  0  0  0  0  0  0  0  0  0  0
  -22.8733    1.4992    0.0000 C   0  0  0  0  0  0  0  0  0  0  0  0
  -22.7263    2.9920    0.0000 C   0  0  0  0  0  0  0  0  0  0  0  0
  -22.4820    4.4719    0.0000 C   0  0  0  0  0  0  0  0  0  0  0  0
  -22.1413    5.9328    0.0000 C   0  0  0  0  0  0  0  0  0  0  0  0
  -21.7059    7.3682    0.0000 C   0  0  0  0  0  0  0  0  0  0  0  0
  -21.1775    8.7720    0.0000 C   0  0  0  0  0  0  0  0  0  0  0  0
  -20.5585   10.1383    0.0000 C   0  0  0  0  0  0  0  0  0  0  0  0
  -19.8514   11.4612    0.0000 C   0  0  0  0  0  0  0  0  0  0  0  0
  -19.0593   12.7350    0.0000 C   0  0  0  0  0  0  0  0  0  0  0  0
  -18.1856   13.9543    0.0000 C   0  0  0  0  0  0  0  0  0  0  0  0
  -17.2340   15.1138    0.0000 C   0  0  0  0  0  0  0  0  0  0  0  0
  -16.2086   16.2086    0.0000 C   0  0  0  0  0  0  0  0  0  0  0  0
  -15.1138   17.2340    0.0000 C   0  0  0  0  0  0  0  0  0  0  0  0
  -13.9543   18.1856    0.0000 C   0  0  0  0  0  0  0  0  0  0  0  0
  -12.7350   19.0593    0.0000 C   0  0  0  0  0  0  0  0  0  0  0  0
  -11.4612   19.8514    0.0000 C   0  0  0  0  0  0  0  0  0  0  0  0
  -10.1383   20.5585    0.0000 C   0  0  0  0  0  0  0  0  0  0  0  0
   -8.7720   21.1775    0.0000 C   0  0  0  0  0  0  0  0  0  0  0  0
   -7.3682   21.7059    0.0000 C   0  0  0  0  0  0  0  0  0  0  0  0
   -5.9328   22.1413    0.0000 C   0  0  0  0  0  0  0  0  0  0  0  0
   -4.4719   22.4820    0.0000 C   0  0  0  0  0  0  0  0  0  0  0  0
   -2.9920   22.7263    0.0000 C   0  0  0  0  0  0  0  0  0  0  0  0
   -1.4992   22.8733    0.0000 C   0  0  0  0  0  0  0  0  0  0  0  0
    0.0000   22.9224    0.0000 C   0  0  0  0  0  0  0  0  0  0  0  0
    1.4992   22.8733    0.0000 C   0  0  0  0  0  0  0  0  0  0  0  0
    2.9920   22.7263    0.0000 C   0  0  0  0  0  0  0  0  0  0  0  0
    4.4719   22.4820    0.0000 C   0  0  0  0  0  0  0  0  0  0  0  0
    5.9328   22.1413    0.0000 C   0  0  0  0  0  0  0  0  0  0  0  0
    7.3682   21.7059    0.0000 C   0  0  0  0  0  0  0  0  0  0  0  0
    8.7720   21.1775    0.0000 C   0  0  0  0  0  0  0  0  0  0  0  0
   10.1383   20.5585    0.0000 C   0  0  0  0  0  0  0  0  0  0  0  0
   11.4612   19.8514    0.0000 C   0  0  0  0  0  0  0  0  0  0  0  0
   12.7350   19.0593    0.0000 C   0  0  0  0  0  0  0  0  0  0  0  0
   13.9543   18.1856    0.0000 C   0  0  0  0  0  0  0  0  0  0  0  0
   15.1138   17.2340    0.0000 C   0  0  0  0  0  0  0  0  0  0  0  0
   16.2086   16.2086    0.0000 C   0  0  0  0  0  0  0  0  0  0  0  0
   17.2340   15.1138    0.0000 C   0  0  0  0  0  0  0  0  0  0  0  0
   18.1856   13.9543    0.0000 C   0  0  0  0  0  0  0  0  0  0  0  0
   19.0593   12.7350    0.0000 C   0  0  0  0  0  0  0  0  0  0  0  0
   19.8514   11.4612    0.0000 C   0  0  0  0  0  0  0  0  0  0  0  0
   20.5585   10.1383    0.0000 C   0  0  0  0  0  0  0  0  0  0  0  0
   21.1775    8.7720    0.0000 C   0  0  0  0  0  0  0  0  0  0  0  0
   21.7059    7.3682    0.0000 C   0  0  0  0  0  0  0  0  0  0  0  0
   22.1413    5.9328    0.0000 C   0  0  0  0  0  0  0  0  0  0  0  0
   22.4820    4.4719    0.0000 C   0  0  0  0  0  0  0  0  0  0  0  0
   22.7263    2.9920    0.0000 C   0  0  0  0  0  0  0  0  0  0  0  0
   22.8733    1.4992    0.0000 C   0  0  0  0  0  0  0  0  0  0  0  0
  1  2  1  0
  2  3  1  0
  3  4  1  0
  4  5  1  0
  5  6  2  0
  6  7  1  0
  7  8  2  0
  8  9  1  0
  9 10  1  0
 10 11  1  0
 11 12  1  0
 12 13  1  0
 13 14  1  0
 14 15  1  0
 15 16  1  0
 16 17  1  0
 17 18  1  0
 18 19  1  0
 19 20  1  0
 20 21  1  0
 21 22  1  0
 22 23  1  0
 23 24  1  0
 24 25  1  0
 25 26  1  0
 26 27  1  0
 27 28  1  0
 28 29  1  0
 29 30  1  0
 30 31  1  0
 31 32  1  0
 32 33  1  0
 33 34  1  0
 34 35  1  0
 35 36  1  0
 36 37  1  0
 37 38  1  0
 38 39  1  0
 39 40  1  0
 40 41  1  0
 41 42  1  0
 42 43  1  0
 43 44  1  0
 44 45  1  0
 45 46  1  0
 46 47  1  0
 47 48  1  0
 48 49  1  0
 49 50  1  0
 50 51  1  0
 51 52  1  0
 52 53  1  0
 53 54  1  0
 54 55  1  0
 55 56  1  0
 56 57  1  0
 57 58  1  0
 58 59  1  0
 59 60  1  0
 60 61  1  0
 61 62  1  0
 62 63  1  0
 63 64  1  0
 64 65  1  0
 65 66  1  0
 66 67  1  0
 67 68  1  0
 68 69  1  0
 69 70  1  0
 70 71  1  0
 71 72  1  0
 72 73  1  0
 73 74  1  0
 74 75  1  0
 75 76  1  0
 76 77  1  0
 77 78  1  0
 78 79  1  0
 79 80  1  0
 80 81  1  0
 81 82  1  0
 82 83  1  0
 83 84  1  0
 84 85  1  0
 85 86  1  0
 86 87  1  0
 87 88  1  0
 88 89  1  0
 89 90  1  0
 90 91  1  0
 91 92  1  0
 92 93  1  0
 93 94  1  0
 94 95  1  0
 95 96  1  0
 96 97  1  0
 97  2  1  0
M  END
>  <Title>  (535) 
idAASQgen8

$$$$

     RDKit          2D

  6  6  0  0  0  0  0  0  0  0999 V2000
    2.1213    1.0607    0.0000 C   0  0  0  0  0  0  0  0  0  0  0  0
    1.0607    0.0000    0.0000 C   0  0  0  0  0  0  0  0  0  0  0  0
    2.1213   -1.0607    0.0000 C   0  0  0  0  0  0  0  0  0  0  0  0
   -0.0000   -1.0607    0.0000 C   0  0  0  0  0  0  0  0  0  0  0  0
   -1.0607    0.0000    0.0000 C   0  0  0  0  0  0  0  0  0  0  0  0
    0.0000    1.0607    0.0000 O   0  0  0  0  0  0  0  0  0  0  0  0
  1  2  1  0
  2  3  1  0
  2  4  1  0
  4  5  1  0
  5  6  1  0
  6  2  1  0
M  END
>  <Title>  (536) 
idAASRgen8

$$$$

     RDKit          2D

 34 36  0  0  0  0  0  0  0  0999 V2000
   -4.6972    2.5790    0.0000 C   0  0  0  0  0  0  0  0  0  0  0  0
   -4.0871    3.9493    0.0000 C   0  0  0  0  0  0  0  0  0  0  0  0
   -4.9688    5.1628    0.0000 O   0  0  0  0  0  0  0  0  0  0  0  0
   -2.5953    4.1061    0.0000 C   0  0  0  0  0  0  0  0  0  0  0  0
   -1.8453    5.4051    0.0000 C   0  0  0  0  0  0  0  0  0  0  0  0
   -0.3781    5.0932    0.0000 C   0  0  0  0  0  0  0  0  0  0  0  0
   -0.2213    3.6015    0.0000 C   0  0  0  0  0  0  0  0  0  0  0  0
    1.0777    2.8515    0.0000 C   0  0  0  0  0  0  0  0  0  0  0  0
    2.3768    3.6015    0.0000 O   0  0  0  0  0  0  0  0  0  0  0  0
    1.0777    1.3515    0.0000 C   0  0  0  0  0  0  0  0  0  0  0  0
    2.5401    1.6852    0.0000 N   0  0  0  0  0  0  0  0  0  0  0  0
    3.5604    0.5857    0.0000 C   0  0  0  0  0  0  0  0  0  0  0  0
    3.1183   -0.8477    0.0000 O   0  0  0  0  0  0  0  0  0  0  0  0
    5.0228    0.9194    0.0000 C   0  0  0  0  0  0  0  0  0  0  0  0
    5.6123    2.2987    0.0000 C   0  0  0  0  0  0  0  0  0  0  0  0
    7.1063    2.1643    0.0000 C   0  0  0  0  0  0  0  0  0  0  0  0
    7.4401    0.7019    0.0000 C   0  0  0  0  0  0  0  0  0  0  0  0
    8.8194    0.1123    0.0000 C   0  0  0  0  0  0  0  0  0  0  0  0
   10.0196    1.0121    0.0000 O   0  0  0  0  0  0  0  0  0  0  0  0
    8.9985   -1.3769    0.0000 O   0  0  0  0  0  0  0  0  0  0  0  0
    6.1524   -0.0675    0.0000 C   0  0  0  0  0  0  0  0  0  0  0  0
    6.0179   -1.5614    0.0000 O   0  0  0  0  0  0  0  0  0  0  0  0
    1.7286    0.0000    0.0000 C   0  0  0  0  0  0  0  0  0  0  0  0
    1.0777   -1.3515    0.0000 C   0  0  0  0  0  0  0  0  0  0  0  0
    2.0130   -2.5242    0.0000 O   0  0  0  0  0  0  0  0  0  0  0  0
   -0.3846   -1.6852    0.0000 C   0  0  0  0  0  0  0  0  0  0  0  0
   -0.7184   -3.1476    0.0000 O   0  0  0  0  0  0  0  0  0  0  0  0
   -1.5574   -0.7500    0.0000 C   0  0  0  0  0  0  0  0  0  0  0  0
   -2.9088   -1.4008    0.0000 O   0  0  0  0  0  0  0  0  0  0  0  0
   -1.5574    0.7500    0.0000 C   0  0  0  0  0  0  0  0  0  0  0  0
   -0.3846    1.6852    0.0000 C   0  0  0  0  0  0  0  0  0  0  0  0
   -0.8787    2.6608    0.0000 C   0  0  0  0  0  0  0  0  0  0  0  0
   -1.5916    2.9913    0.0000 C   0  0  0  0  0  0  0  0  0  0  0  0
   -1.9035    1.5241    0.0000 O   0  0  0  0  0  0  0  0  0  0  0  0
  1  2  1  0
  2  3  2  0
  2  4  1  0
  4  5  1  0
  5  6  1  0
  6  7  1  0
  7  8  1  0
  8  9  2  0
  8 10  1  0
 10 11  1  0
 11 12  1  0
 12 13  2  0
 12 14  1  0
 14 15  1  0
 15 16  1  0
 16 17  1  0
 17 18  1  0
 18 19  2  0
 18 20  1  0
 17 21  1  0
 21 22  2  0
 10 23  1  0
 23 24  1  0
 24 25  1  0
 24 26  1  0
 26 27  1  0
 26 28  1  0
 28 29  1  0
 28 30  1  0
 30 31  2  0
 31 32  1  0
  7 33  1  0
 33 34  2  0
 33  4  1  0
 31 10  1  0
 21 14  1  0
M  END
>  <Title>  (537) 
idAASSgen8

$$$$

     RDKit          2D

  6  6  0  0  0  0  0  0  0  0999 V2000
    1.5000    0.0000    0.0000 C   0  0  0  0  0  0  0  0  0  0  0  0
    0.7500   -1.2990    0.0000 N   0  0  0  0  0  0  0  0  0  0  0  0
   -0.7500   -1.2990    0.0000 C   0  0  0  0  0  0  0  0  0  0  0  0
   -1.5000    0.0000    0.0000 C   0  0  0  0  0  0  0  0  0  0  0  0
   -0.7500    1.2990    0.0000 C   0  0  0  0  0  0  0  0  0  0  0  0
    0.7500    1.2990    0.0000 C   0  0  0  0  0  0  0  0  0  0  0  0
  1  2  2  0
  2  3  1  0
  3  4  1  0
  4  5  1  0
  5  6  1  0
  6  1  1  0
M  END
>  <Title>  (538) 
idAASTgen8

$$$$

     RDKit          2D

 78 84  0  0  0  0  0  0  0  0999 V2000
  -12.0271   -8.8938    0.0000 C   0  0  0  0  0  0  0  0  0  0  0  0
  -10.5827   -9.2985    0.0000 C   0  0  0  0  0  0  0  0  0  0  0  0
  -10.8879  -10.7671    0.0000 C   0  0  0  0  0  0  0  0  0  0  0  0
  -10.9902  -12.2636    0.0000 C   0  0  0  0  0  0  0  0  0  0  0  0
  -10.8879  -13.7602    0.0000 C   0  0  0  0  0  0  0  0  0  0  0  0
  -10.5827  -15.2288    0.0000 C   0  0  0  0  0  0  0  0  0  0  0  0
  -10.0804  -16.6422    0.0000 C   0  0  0  0  0  0  0  0  0  0  0  0
   -9.3903  -17.9740    0.0000 C   0  0  0  0  0  0  0  0  0  0  0  0
   -8.5252  -19.1995    0.0000 C   0  0  0  0  0  0  0  0  0  0  0  0
   -7.5014  -20.2957    0.0000 C   0  0  0  0  0  0  0  0  0  0  0  0
   -6.3379  -21.2423    0.0000 C   0  0  0  0  0  0  0  0  0  0  0  0
   -5.0562  -22.0217    0.0000 C   0  0  0  0  0  0  0  0  0  0  0  0
   -3.6804  -22.6193    0.0000 C   0  0  0  0  0  0  0  0  0  0  0  0
   -2.2360  -23.0240    0.0000 C   0  0  0  0  0  0  0  0  0  0  0  0
   -0.7500  -23.2283    0.0000 C   0  0  0  0  0  0  0  0  0  0  0  0
    0.7500  -23.2283    0.0000 C   0  0  0  0  0  0  0  0  0  0  0  0
    2.2360  -23.0240    0.0000 C   0  0  0  0  0  0  0  0  0  0  0  0
    3.6804  -22.6193    0.0000 C   0  0  0  0  0  0  0  0  0  0  0  0
    5.0562  -22.0217    0.0000 C   0  0  0  0  0  0  0  0  0  0  0  0
    6.3379  -21.2423    0.0000 C   0  0  0  0  0  0  0  0  0  0  0  0
    7.5014  -20.2957    0.0000 C   0  0  0  0  0  0  0  0  0  0  0  0
    8.5252  -19.1995    0.0000 C   0  0  0  0  0  0  0  0  0  0  0  0
    9.3903  -17.9740    0.0000 C   0  0  0  0  0  0  0  0  0  0  0  0
   10.0804  -16.6422    0.0000 C   0  0  0  0  0  0  0  0  0  0  0  0
   10.5827  -15.2288    0.0000 C   0  0  0  0  0  0  0  0  0  0  0  0
   10.8879  -13.7602    0.0000 C   0  0  0  0  0  0  0  0  0  0  0  0
   10.9902  -12.2636    0.0000 C   0  0  0  0  0  0  0  0  0  0  0  0
   10.8879  -10.7671    0.0000 C   0  0  0  0  0  0  0  0  0  0  0  0
   10.5827   -9.2985    0.0000 C   0  0  0  0  0  0  0  0  0  0  0  0
   10.0804   -7.8851    0.0000 C   0  0  0  0  0  0  0  0  0  0  0  0
    9.3903   -6.5533    0.0000 C   0  0  0  0  0  0  0  0  0  0  0  0
    8.5252   -5.3278    0.0000 C   0  0  0  0  0  0  0  0  0  0  0  0
    7.5014   -4.2316    0.0000 C   0  0  0  0  0  0  0  0  0  0  0  0
    6.3379   -3.2850    0.0000 C   0  0  0  0  0  0  0  0  0  0  0  0
    5.0562   -2.5056    0.0000 C   0  0  0  0  0  0  0  0  0  0  0  0
    3.6804   -1.9080    0.0000 C   0  0  0  0  0  0  0  0  0  0  0  0
    2.2360   -1.5033    0.0000 C   0  0  0  0  0  0  0  0  0  0  0  0
    2.5412   -0.0347    0.0000 C   0  0  0  0  0  0  0  0  0  0  0  0
    1.6968    1.2051    0.0000 O   0  0  0  0  0  0  0  0  0  0  0  0
    3.9657    0.4354    0.0000 N   0  0  0  0  0  0  0  0  0  0  0  0
    4.2709    1.9040    0.0000 C   0  0  0  0  0  0  0  0  0  0  0  0
    5.6953    2.3740    0.0000 N   0  0  0  0  0  0  0  0  0  0  0  0
    6.0005    3.8426    0.0000 N   0  0  0  0  0  0  0  0  0  0  0  0
    4.8812    4.8412    0.0000 N   0  0  0  0  0  0  0  0  0  0  0  0
    3.4568    4.3712    0.0000 N   0  0  0  0  0  0  0  0  0  0  0  0
    3.1516    2.9026    0.0000 N   0  0  0  0  0  0  0  0  0  0  0  0
    0.7500   -1.2990    0.0000 C   0  0  0  0  0  0  0  0  0  0  0  0
    1.5000    0.0000    0.0000 C   0  0  0  0  0  0  0  0  0  0  0  0
    0.7500    1.2990    0.0000 C   0  0  0  0  0  0  0  0  0  0  0  0
   -0.7500    1.2990    0.0000 C   0  0  0  0  0  0  0  0  0  0  0  0
   -1.5000    0.0000    0.0000 C   0  0  0  0  0  0  0  0  0  0  0  0
   -0.7500   -1.2990    0.0000 C   0  0  0  0  0  0  0  0  0  0  0  0
   -2.2360   -1.5033    0.0000 C   0  0  0  0  0  0  0  0  0  0  0  0
   -1.4048   -2.7519    0.0000 C   0  0  0  0  0  0  0  0  0  0  0  0
   -2.3355   -3.9283    0.0000 C   0  0  0  0  0  0  0  0  0  0  0  0
   -1.9308   -5.3727    0.0000 C   0  0  0  0  0  0  0  0  0  0  0  0
   -0.4775   -5.7444    0.0000 O   0  0  0  0  0  0  0  0  0  0  0  0
   -2.9793   -6.4453    0.0000 O   0  0  0  0  0  0  0  0  0  0  0  0
   -3.7419   -3.4067    0.0000 C   0  0  0  0  0  0  0  0  0  0  0  0
   -3.6804   -1.9080    0.0000 C   0  0  0  0  0  0  0  0  0  0  0  0
   -5.0562   -2.5056    0.0000 C   0  0  0  0  0  0  0  0  0  0  0  0
   -5.0904   -1.0060    0.0000 C   0  0  0  0  0  0  0  0  0  0  0  0
   -6.4061   -0.2857    0.0000 C   0  0  0  0  0  0  0  0  0  0  0  0
   -7.6878   -1.0651    0.0000 C   0  0  0  0  0  0  0  0  0  0  0  0
   -7.6536   -2.5647    0.0000 C   0  0  0  0  0  0  0  0  0  0  0  0
   -6.3379   -3.2850    0.0000 C   0  0  0  0  0  0  0  0  0  0  0  0
   -7.5014   -4.2316    0.0000 C   0  0  0  0  0  0  0  0  0  0  0  0
   -8.4167   -3.3084    0.0000 C   0  0  0  0  0  0  0  0  0  0  0  0
   -9.1960   -3.1278    0.0000 C   0  0  0  0  0  0  0  0  0  0  0  0
   -9.7421   -3.7125    0.0000 C   0  0  0  0  0  0  0  0  0  0  0  0
   -9.5088   -4.4777    0.0000 C   0  0  0  0  0  0  0  0  0  0  0  0
   -8.5252   -5.3278    0.0000 C   0  0  0  0  0  0  0  0  0  0  0  0
   -9.3903   -6.5533    0.0000 C   0  0  0  0  0  0  0  0  0  0  0  0
   -7.8918   -6.4850    0.0000 C   0  0  0  0  0  0  0  0  0  0  0  0
   -7.0835   -7.7486    0.0000 C   0  0  0  0  0  0  0  0  0  0  0  0
   -7.7736   -9.0804    0.0000 C   0  0  0  0  0  0  0  0  0  0  0  0
   -9.2720   -9.1487    0.0000 C   0  0  0  0  0  0  0  0  0  0  0  0
  -10.0804   -7.8851    0.0000 C   0  0  0  0  0  0  0  0  0  0  0  0
  1  2  1  0
  2  3  1  0
  3  4  1  0
  4  5  1  0
  5  6  1  0
  6  7  1  0
  7  8  1  0
  8  9  1  0
  9 10  1  0
 10 11  1  0
 11 12  1  0
 12 13  1  0
 13 14  1  0
 14 15  1  0
 15 16  1  0
 16 17  1  0
 17 18  1  0
 18 19  1  0
 19 20  1  0
 20 21  1  0
 21 22  1  0
 22 23  1  0
 23 24  1  0
 24 25  1  0
 25 26  1  0
 26 27  1  0
 27 28  1  0
 28 29  1  0
 29 30  1  0
 30 31  1  0
 31 32  1  0
 32 33  1  0
 33 34  1  0
 34 35  1  0
 35 36  1  0
 36 37  1  0
 37 38  1  0
 38 39  2  0
 38 40  1  0
 40 41  1  0
 41 42  2  0
 42 43  1  0
 43 44  2  0
 44 45  1  0
 45 46  2  0
 37 47  1  0
 47 48  2  0
 48 49  1  0
 49 50  2  0
 50 51  1  0
 51 52  2  0
 52 53  1  0
 53 54  2  0
 54 55  1  0
 55 56  1  0
 56 57  2  0
 56 58  1  0
 55 59  1  0
 59 60  2  0
 60 61  1  0
 61 62  2  0
 62 63  1  0
 63 64  2  0
 64 65  1  0
 65 66  2  0
 66 67  1  0
 67 68  2  0
 68 69  1  0
 69 70  2  0
 70 71  1  0
 71 72  2  0
 72 73  1  0
 73 74  2  0
 74 75  1  0
 75 76  2  0
 76 77  1  0
 77 78  2  0
 78  2  1  0
 46 41  1  0
 52 47  1  0
 60 53  1  0
 66 61  1  0
 72 67  1  0
 78 73  1  0
M  END
>  <Title>  (539) 
idAASUgen8

$$$$

     RDKit          2D

  9  9  0  0  0  0  0  0  0  0999 V2000
    2.7938   -3.5702    0.0000 C   0  0  0  0  0  0  0  0  0  0  0  0
    1.7331   -2.5095    0.0000 C   0  0  0  0  0  0  0  0  0  0  0  0
    2.1213   -1.0607    0.0000 O   0  0  0  0  0  0  0  0  0  0  0  0
    1.0607    0.0000    0.0000 C   0  0  0  0  0  0  0  0  0  0  0  0
    2.1213    1.0607    0.0000 C   0  0  0  0  0  0  0  0  0  0  0  0
   -0.0000   -1.0607    0.0000 C   0  0  0  0  0  0  0  0  0  0  0  0
   -1.0607    0.0000    0.0000 C   0  0  0  0  0  0  0  0  0  0  0  0
    0.0000    1.0607    0.0000 C   0  0  0  0  0  0  0  0  0  0  0  0
    0.0000    2.5607    0.0000 C   0  0  0  0  0  0  0  0  0  0  0  0
  1  2  1  0
  2  3  1  0
  3  4  1  0
  4  5  1  0
  4  6  1  0
  6  7  1  0
  7  8  2  0
  8  9  1  0
  8  4  1  0
M  END
>  <Title>  (540) 
idAASVgen8

$$$$

     RDKit          2D

 34 34  0  0  0  0  0  0  0  0999 V2000
    8.9134    0.0000    0.0000 C   0  0  0  0  0  0  0  0  0  0  0  0
    7.4134    0.0000    0.0000 C   0  0  0  0  0  0  0  0  0  0  0  0
    7.2616    1.4923    0.0000 C   0  0  0  0  0  0  0  0  0  0  0  0
    6.8126    2.9235    0.0000 C   0  0  0  0  0  0  0  0  0  0  0  0
    6.0846    4.2350    0.0000 C   0  0  0  0  0  0  0  0  0  0  0  0
    5.1076    5.3732    0.0000 C   0  0  0  0  0  0  0  0  0  0  0  0
    3.9214    6.2913    0.0000 C   0  0  0  0  0  0  0  0  0  0  0  0
    2.5747    6.9519    0.0000 C   0  0  0  0  0  0  0  0  0  0  0  0
    1.1226    7.3279    0.0000 C   0  0  0  0  0  0  0  0  0  0  0  0
   -0.3755    7.4039    0.0000 C   0  0  0  0  0  0  0  0  0  0  0  0
   -1.8582    7.1767    0.0000 C   0  0  0  0  0  0  0  0  0  0  0  0
   -3.2648    6.6558    0.0000 C   0  0  0  0  0  0  0  0  0  0  0  0
   -4.5378    5.8623    0.0000 C   0  0  0  0  0  0  0  0  0  0  0  0
   -5.6250    4.8289    0.0000 C   0  0  0  0  0  0  0  0  0  0  0  0
   -6.4819    3.5977    0.0000 C   0  0  0  0  0  0  0  0  0  0  0  0
   -7.0734    2.2193    0.0000 C   0  0  0  0  0  0  0  0  0  0  0  0
   -7.3754    0.7500    0.0000 C   0  0  0  0  0  0  0  0  0  0  0  0
   -7.3754   -0.7500    0.0000 C   0  0  0  0  0  0  0  0  0  0  0  0
   -7.0734   -2.2193    0.0000 C   0  0  0  0  0  0  0  0  0  0  0  0
   -6.4819   -3.5977    0.0000 C   0  0  0  0  0  0  0  0  0  0  0  0
   -5.6250   -4.8289    0.0000 C   0  0  0  0  0  0  0  0  0  0  0  0
   -4.5378   -5.8623    0.0000 C   0  0  0  0  0  0  0  0  0  0  0  0
   -3.2648   -6.6558    0.0000 C   0  0  0  0  0  0  0  0  0  0  0  0
   -1.8582   -7.1767    0.0000 C   0  0  0  0  0  0  0  0  0  0  0  0
   -0.3755   -7.4039    0.0000 C   0  0  0  0  0  0  0  0  0  0  0  0
    1.1226   -7.3279    0.0000 C   0  0  0  0  0  0  0  0  0  0  0  0
    2.5747   -6.9519    0.0000 C   0  0  0  0  0  0  0  0  0  0  0  0
    3.9214   -6.2913    0.0000 C   0  0  0  0  0  0  0  0  0  0  0  0
    5.1076   -5.3732    0.0000 C   0  0  0  0  0  0  0  0  0  0  0  0
    6.0846   -4.2350    0.0000 C   0  0  0  0  0  0  0  0  0  0  0  0
    7.3158   -5.0919    0.0000 C   0  0  0  0  0  0  0  0  0  0  0  0
    8.5469   -5.9488    0.0000 N   0  0  0  0  0  0  0  0  0  0  0  0
    6.8126   -2.9235    0.0000 C   0  0  0  0  0  0  0  0  0  0  0  0
    7.2616   -1.4923    0.0000 C   0  0  0  0  0  0  0  0  0  0  0  0
  1  2  1  0
  2  3  1  0
  3  4  1  0
  4  5  1  0
  5  6  1  0
  6  7  1  0
  7  8  1  0
  8  9  1  0
  9 10  1  0
 10 11  1  0
 11 12  1  0
 12 13  1  0
 13 14  1  0
 14 15  1  0
 15 16  1  0
 16 17  1  0
 17 18  1  0
 18 19  1  0
 19 20  1  0
 20 21  1  0
 21 22  1  0
 22 23  1  0
 23 24  1  0
 24 25  1  0
 25 26  1  0
 26 27  1  0
 27 28  1  0
 28 29  1  0
 29 30  1  0
 30 31  1  0
 31 32  3  0
 30 33  1  0
 33 34  1  0
 34  2  1  0
M  END
>  <Title>  (541) 
idAASWgen8

$$$$

     RDKit          2D

 22 23  0  0  0  0  0  0  0  0999 V2000
    7.2760    2.5981    0.0000 C   0  0  0  0  0  0  0  0  0  0  0  0
    5.7760    2.5981    0.0000 C   0  0  0  0  0  0  0  0  0  0  0  0
    5.0260    1.2990    0.0000 C   0  0  0  0  0  0  0  0  0  0  0  0
    3.5260    1.2990    0.0000 C   0  0  0  0  0  0  0  0  0  0  0  0
    2.7760    2.5981    0.0000 O   0  0  0  0  0  0  0  0  0  0  0  0
    2.7760   -0.0000    0.0000 N   0  0  0  0  0  0  0  0  0  0  0  0
    1.2760   -0.0000    0.0000 C   0  0  0  0  0  0  0  0  0  0  0  0
    0.3943    1.2135    0.0000 N   0  0  0  0  0  0  0  0  0  0  0  0
   -1.0323    0.7500    0.0000 N   0  0  0  0  0  0  0  0  0  0  0  0
   -1.0323   -0.7500    0.0000 C   0  0  0  0  0  0  0  0  0  0  0  0
    0.3943   -1.2135    0.0000 N   0  0  0  0  0  0  0  0  0  0  0  0
    0.8578   -2.6401    0.0000 C   0  0  0  0  0  0  0  0  0  0  0  0
    2.3250   -2.9520    0.0000 O   0  0  0  0  0  0  0  0  0  0  0  0
   -0.1459   -3.7548    0.0000 C   0  0  0  0  0  0  0  0  0  0  0  0
    0.1660   -5.2220    0.0000 C   0  0  0  0  0  0  0  0  0  0  0  0
   -1.1330   -5.9720    0.0000 C   0  0  0  0  0  0  0  0  0  0  0  0
   -2.2478   -4.9684    0.0000 C   0  0  0  0  0  0  0  0  0  0  0  0
   -3.7150   -5.2802    0.0000 C   0  0  0  0  0  0  0  0  0  0  0  0
   -4.1785   -6.7068    0.0000 O   0  0  0  0  0  0  0  0  0  0  0  0
   -4.7187   -4.1655    0.0000 O   0  0  0  0  0  0  0  0  0  0  0  0
   -1.6377   -3.5980    0.0000 C   0  0  0  0  0  0  0  0  0  0  0  0
   -2.3877   -2.2990    0.0000 O   0  0  0  0  0  0  0  0  0  0  0  0
  1  2  1  0
  2  3  2  3
  3  4  1  0
  4  5  2  0
  4  6  1  0
  6  7  1  0
  7  8  2  0
  8  9  1  0
  9 10  2  0
 10 11  1  0
 11 12  1  0
 12 13  2  0
 12 14  1  0
 14 15  1  0
 15 16  1  0
 16 17  1  0
 17 18  1  0
 18 19  2  0
 18 20  1  0
 17 21  1  0
 21 22  2  0
 11  7  1  0
 21 14  1  0
M  END
>  <Title>  (542) 
idAASXgen8

$$$$

     RDKit          2D

 16 17  0  0  0  0  0  0  0  0999 V2000
   -3.1476   -2.1380    0.0000 C   0  0  0  0  0  0  0  0  0  0  0  0
   -1.6852   -2.4718    0.0000 C   0  0  0  0  0  0  0  0  0  0  0  0
   -1.3515   -3.9342    0.0000 C   0  0  0  0  0  0  0  0  0  0  0  0
   -0.0000   -4.5850    0.0000 C   0  0  0  0  0  0  0  0  0  0  0  0
    1.3515   -3.9342    0.0000 C   0  0  0  0  0  0  0  0  0  0  0  0
    2.5242   -4.8694    0.0000 O   0  0  0  0  0  0  0  0  0  0  0  0
    1.6852   -2.4718    0.0000 C   0  0  0  0  0  0  0  0  0  0  0  0
    3.1476   -2.1380    0.0000 C   0  0  0  0  0  0  0  0  0  0  0  0
    3.5898   -0.7046    0.0000 O   0  0  0  0  0  0  0  0  0  0  0  0
    4.1679   -3.2376    0.0000 O   0  0  0  0  0  0  0  0  0  0  0  0
    0.7500   -1.2990    0.0000 C   0  0  0  0  0  0  0  0  0  0  0  0
    1.5000    0.0000    0.0000 C   0  0  0  0  0  0  0  0  0  0  0  0
    0.7500    1.2990    0.0000 C   0  0  0  0  0  0  0  0  0  0  0  0
   -0.7500    1.2990    0.0000 C   0  0  0  0  0  0  0  0  0  0  0  0
   -1.5000    0.0000    0.0000 C   0  0  0  0  0  0  0  0  0  0  0  0
   -0.7500   -1.2990    0.0000 C   0  0  0  0  0  0  0  0  0  0  0  0
  1  2  1  0
  2  3  2  0
  3  4  1  0
  4  5  1  0
  5  6  1  0
  5  7  2  0
  7  8  1  0
  8  9  2  0
  8 10  1  0
  7 11  1  0
 11 12  2  0
 12 13  1  0
 13 14  2  0
 14 15  1  0
 15 16  2  0
 16  2  1  0
 16 11  1  0
M  END
>  <Title>  (543) 
idAASYgen8

$$$$

     RDKit          2D

123123  0  0  0  0  0  0  0  0999 V2000
   30.6286    0.0000    0.0000 C   0  0  0  0  0  0  0  0  0  0  0  0
   29.1286    0.0000    0.0000 C   0  0  0  0  0  0  0  0  0  0  0  0
   29.0900   -1.4995    0.0000 C   0  0  0  0  0  0  0  0  0  0  0  0
   28.9742   -2.9950    0.0000 C   0  0  0  0  0  0  0  0  0  0  0  0
   28.7816   -4.4826    0.0000 C   0  0  0  0  0  0  0  0  0  0  0  0
   28.5127   -5.9583    0.0000 C   0  0  0  0  0  0  0  0  0  0  0  0
   28.1681   -7.4182    0.0000 C   0  0  0  0  0  0  0  0  0  0  0  0
   27.7489   -8.8584    0.0000 C   0  0  0  0  0  0  0  0  0  0  0  0
   27.2561  -10.2752    0.0000 C   0  0  0  0  0  0  0  0  0  0  0  0
   26.6910  -11.6647    0.0000 C   0  0  0  0  0  0  0  0  0  0  0  0
   26.0551  -13.0232    0.0000 C   0  0  0  0  0  0  0  0  0  0  0  0
   25.3502  -14.3472    0.0000 C   0  0  0  0  0  0  0  0  0  0  0  0
   24.5780  -15.6332    0.0000 C   0  0  0  0  0  0  0  0  0  0  0  0
   23.7406  -16.8777    0.0000 C   0  0  0  0  0  0  0  0  0  0  0  0
   22.8403  -18.0775    0.0000 C   0  0  0  0  0  0  0  0  0  0  0  0
   21.8794  -19.2293    0.0000 C   0  0  0  0  0  0  0  0  0  0  0  0
   20.8605  -20.3301    0.0000 C   0  0  0  0  0  0  0  0  0  0  0  0
   19.7863  -21.3770    0.0000 C   0  0  0  0  0  0  0  0  0  0  0  0
   18.6596  -22.3673    0.0000 C   0  0  0  0  0  0  0  0  0  0  0  0
   17.4834  -23.2982    0.0000 C   0  0  0  0  0  0  0  0  0  0  0  0
   16.2608  -24.1673    0.0000 C   0  0  0  0  0  0  0  0  0  0  0  0
   14.9952  -24.9724    0.0000 C   0  0  0  0  0  0  0  0  0  0  0  0
   13.6898  -25.7112    0.0000 C   0  0  0  0  0  0  0  0  0  0  0  0
   12.3480  -26.3818    0.0000 C   0  0  0  0  0  0  0  0  0  0  0  0
   10.9735  -26.9825    0.0000 C   0  0  0  0  0  0  0  0  0  0  0  0
    9.5700  -27.5116    0.0000 C   0  0  0  0  0  0  0  0  0  0  0  0
    8.1410  -27.9678    0.0000 C   0  0  0  0  0  0  0  0  0  0  0  0
    6.6905  -28.3498    0.0000 C   0  0  0  0  0  0  0  0  0  0  0  0
    5.2222  -28.6566    0.0000 C   0  0  0  0  0  0  0  0  0  0  0  0
    3.7401  -28.8875    0.0000 C   0  0  0  0  0  0  0  0  0  0  0  0
    2.2480  -29.0417    0.0000 C   0  0  0  0  0  0  0  0  0  0  0  0
    0.7500  -29.1189    0.0000 C   0  0  0  0  0  0  0  0  0  0  0  0
   -0.7500  -29.1189    0.0000 C   0  0  0  0  0  0  0  0  0  0  0  0
   -2.2480  -29.0417    0.0000 C   0  0  0  0  0  0  0  0  0  0  0  0
   -3.7401  -28.8875    0.0000 C   0  0  0  0  0  0  0  0  0  0  0  0
   -5.2222  -28.6566    0.0000 C   0  0  0  0  0  0  0  0  0  0  0  0
   -6.6905  -28.3498    0.0000 C   0  0  0  0  0  0  0  0  0  0  0  0
   -8.1410  -27.9678    0.0000 C   0  0  0  0  0  0  0  0  0  0  0  0
   -9.5700  -27.5116    0.0000 C   0  0  0  0  0  0  0  0  0  0  0  0
  -10.9735  -26.9825    0.0000 C   0  0  0  0  0  0  0  0  0  0  0  0
  -12.3480  -26.3818    0.0000 C   0  0  0  0  0  0  0  0  0  0  0  0
  -13.6898  -25.7112    0.0000 C   0  0  0  0  0  0  0  0  0  0  0  0
  -14.9952  -24.9724    0.0000 C   0  0  0  0  0  0  0  0  0  0  0  0
  -16.2608  -24.1673    0.0000 C   0  0  0  0  0  0  0  0  0  0  0  0
  -17.4834  -23.2982    0.0000 C   0  0  0  0  0  0  0  0  0  0  0  0
  -18.6596  -22.3673    0.0000 C   0  0  0  0  0  0  0  0  0  0  0  0
  -19.7863  -21.3770    0.0000 C   0  0  0  0  0  0  0  0  0  0  0  0
  -20.8605  -20.3301    0.0000 C   0  0  0  0  0  0  0  0  0  0  0  0
  -21.8794  -19.2293    0.0000 C   0  0  0  0  0  0  0  0  0  0  0  0
  -22.8403  -18.0775    0.0000 C   0  0  0  0  0  0  0  0  0  0  0  0
  -23.7406  -16.8777    0.0000 C   0  0  0  0  0  0  0  0  0  0  0  0
  -24.5780  -15.6332    0.0000 C   0  0  0  0  0  0  0  0  0  0  0  0
  -25.3502  -14.3472    0.0000 C   0  0  0  0  0  0  0  0  0  0  0  0
  -26.0551  -13.0232    0.0000 C   0  0  0  0  0  0  0  0  0  0  0  0
  -26.6910  -11.6647    0.0000 C   0  0  0  0  0  0  0  0  0  0  0  0
  -27.2561  -10.2752    0.0000 C   0  0  0  0  0  0  0  0  0  0  0  0
  -27.7489   -8.8584    0.0000 C   0  0  0  0  0  0  0  0  0  0  0  0
  -28.1681   -7.4182    0.0000 C   0  0  0  0  0  0  0  0  0  0  0  0
  -28.5127   -5.9583    0.0000 C   0  0  0  0  0  0  0  0  0  0  0  0
  -28.7816   -4.4826    0.0000 C   0  0  0  0  0  0  0  0  0  0  0  0
  -28.9742   -2.9950    0.0000 C   0  0  0  0  0  0  0  0  0  0  0  0
  -29.0900   -1.4995    0.0000 C   0  0  0  0  0  0  0  0  0  0  0  0
  -29.1286    0.0000    0.0000 C   0  0  0  0  0  0  0  0  0  0  0  0
  -29.0900    1.4995    0.0000 C   0  0  0  0  0  0  0  0  0  0  0  0
  -28.9742    2.9950    0.0000 C   0  0  0  0  0  0  0  0  0  0  0  0
  -28.7816    4.4826    0.0000 C   0  0  0  0  0  0  0  0  0  0  0  0
  -28.5127    5.9583    0.0000 C   0  0  0  0  0  0  0  0  0  0  0  0
  -28.1681    7.4182    0.0000 C   0  0  0  0  0  0  0  0  0  0  0  0
  -27.7489    8.8584    0.0000 C   0  0  0  0  0  0  0  0  0  0  0  0
  -27.2561   10.2752    0.0000 C   0  0  0  0  0  0  0  0  0  0  0  0
  -26.6910   11.6647    0.0000 C   0  0  0  0  0  0  0  0  0  0  0  0
  -26.0551   13.0232    0.0000 C   0  0  0  0  0  0  0  0  0  0  0  0
  -25.3502   14.3472    0.0000 C   0  0  0  0  0  0  0  0  0  0  0  0
  -24.5780   15.6332    0.0000 C   0  0  0  0  0  0  0  0  0  0  0  0
  -23.7406   16.8777    0.0000 C   0  0  0  0  0  0  0  0  0  0  0  0
  -22.8403   18.0775    0.0000 C   0  0  0  0  0  0  0  0  0  0  0  0
  -21.8794   19.2293    0.0000 C   0  0  0  0  0  0  0  0  0  0  0  0
  -20.8605   20.3301    0.0000 C   0  0  0  0  0  0  0  0  0  0  0  0
  -19.7863   21.3770    0.0000 C   0  0  0  0  0  0  0  0  0  0  0  0
  -18.6596   22.3673    0.0000 C   0  0  0  0  0  0  0  0  0  0  0  0
  -17.4834   23.2982    0.0000 C   0  0  0  0  0  0  0  0  0  0  0  0
  -16.2608   24.1673    0.0000 C   0  0  0  0  0  0  0  0  0  0  0  0
  -14.9952   24.9724    0.0000 C   0  0  0  0  0  0  0  0  0  0  0  0
  -13.6898   25.7112    0.0000 C   0  0  0  0  0  0  0  0  0  0  0  0
  -12.3480   26.3818    0.0000 C   0  0  0  0  0  0  0  0  0  0  0  0
  -10.9735   26.9825    0.0000 C   0  0  0  0  0  0  0  0  0  0  0  0
   -9.5700   27.5116    0.0000 C   0  0  0  0  0  0  0  0  0  0  0  0
   -8.1410   27.9678    0.0000 C   0  0  0  0  0  0  0  0  0  0  0  0
   -6.6905   28.3498    0.0000 C   0  0  0  0  0  0  0  0  0  0  0  0
   -5.2222   28.6566    0.0000 C   0  0  0  0  0  0  0  0  0  0  0  0
   -3.7401   28.8875    0.0000 C   0  0  0  0  0  0  0  0  0  0  0  0
   -2.2480   29.0417    0.0000 C   0  0  0  0  0  0  0  0  0  0  0  0
   -0.7500   29.1189    0.0000 C   0  0  0  0  0  0  0  0  0  0  0  0
    0.7500   29.1189    0.0000 C   0  0  0  0  0  0  0  0  0  0  0  0
    2.2480   29.0417    0.0000 C   0  0  0  0  0  0  0  0  0  0  0  0
    3.7401   28.8875    0.0000 C   0  0  0  0  0  0  0  0  0  0  0  0
    5.2222   28.6566    0.0000 C   0  0  0  0  0  0  0  0  0  0  0  0
    6.6905   28.3498    0.0000 C   0  0  0  0  0  0  0  0  0  0  0  0
    8.1410   27.9678    0.0000 C   0  0  0  0  0  0  0  0  0  0  0  0
    9.5700   27.5116    0.0000 C   0  0  0  0  0  0  0  0  0  0  0  0
   10.9735   26.9825    0.0000 C   0  0  0  0  0  0  0  0  0  0  0  0
   12.3480   26.3818    0.0000 C   0  0  0  0  0  0  0  0  0  0  0  0
   13.6898   25.7112    0.0000 C   0  0  0  0  0  0  0  0  0  0  0  0
   14.9952   24.9724    0.0000 C   0  0  0  0  0  0  0  0  0  0  0  0
   16.2608   24.1673    0.0000 C   0  0  0  0  0  0  0  0  0  0  0  0
   17.4834   23.2982    0.0000 C   0  0  0  0  0  0  0  0  0  0  0  0
   18.6596   22.3673    0.0000 C   0  0  0  0  0  0  0  0  0  0  0  0
   19.7863   21.3770    0.0000 C   0  0  0  0  0  0  0  0  0  0  0  0
   20.8605   20.3301    0.0000 C   0  0  0  0  0  0  0  0  0  0  0  0
   21.8794   19.2293    0.0000 C   0  0  0  0  0  0  0  0  0  0  0  0
   22.8403   18.0775    0.0000 C   0  0  0  0  0  0  0  0  0  0  0  0
   23.7406   16.8777    0.0000 C   0  0  0  0  0  0  0  0  0  0  0  0
   24.5780   15.6332    0.0000 C   0  0  0  0  0  0  0  0  0  0  0  0
   25.3502   14.3472    0.0000 C   0  0  0  0  0  0  0  0  0  0  0  0
   26.0551   13.0232    0.0000 C   0  0  0  0  0  0  0  0  0  0  0  0
   26.6910   11.6647    0.0000 C   0  0  0  0  0  0  0  0  0  0  0  0
   27.2561   10.2752    0.0000 C   0  0  0  0  0  0  0  0  0  0  0  0
   27.7489    8.8584    0.0000 C   0  0  0  0  0  0  0  0  0  0  0  0
   28.1681    7.4182    0.0000 C   0  0  0  0  0  0  0  0  0  0  0  0
   28.5127    5.9583    0.0000 C   0  0  0  0  0  0  0  0  0  0  0  0
   28.7816    4.4826    0.0000 C   0  0  0  0  0  0  0  0  0  0  0  0
   28.9742    2.9950    0.0000 C   0  0  0  0  0  0  0  0  0  0  0  0
   29.0900    1.4995    0.0000 C   0  0  0  0  0  0  0  0  0  0  0  0
  1  2  1  0
  2  3  1  0
  3  4  2  0
  4  5  1  0
  5  6  1  0
  6  7  1  0
  7  8  1  0
  8  9  1  0
  9 10  1  0
 10 11  1  0
 11 12  1  0
 12 13  1  0
 13 14  1  0
 14 15  1  0
 15 16  1  0
 16 17  1  0
 17 18  1  0
 18 19  1  0
 19 20  1  0
 20 21  1  0
 21 22  1  0
 22 23  1  0
 23 24  1  0
 24 25  1  0
 25 26  1  0
 26 27  1  0
 27 28  1  0
 28 29  1  0
 29 30  1  0
 30 31  1  0
 31 32  1  0
 32 33  1  0
 33 34  1  0
 34 35  1  0
 35 36  1  0
 36 37  1  0
 37 38  1  0
 38 39  1  0
 39 40  1  0
 40 41  1  0
 41 42  1  0
 42 43  1  0
 43 44  1  0
 44 45  1  0
 45 46  1  0
 46 47  1  0
 47 48  1  0
 48 49  1  0
 49 50  1  0
 50 51  1  0
 51 52  1  0
 52 53  1  0
 53 54  1  0
 54 55  1  0
 55 56  1  0
 56 57  1  0
 57 58  1  0
 58 59  1  0
 59 60  1  0
 60 61  1  0
 61 62  1  0
 62 63  1  0
 63 64  1  0
 64 65  1  0
 65 66  1  0
 66 67  1  0
 67 68  1  0
 68 69  1  0
 69 70  1  0
 70 71  1  0
 71 72  1  0
 72 73  1  0
 73 74  1  0
 74 75  1  0
 75 76  1  0
 76 77  1  0
 77 78  1  0
 78 79  1  0
 79 80  1  0
 80 81  1  0
 81 82  1  0
 82 83  1  0
 83 84  1  0
 84 85  1  0
 85 86  1  0
 86 87  1  0
 87 88  1  0
 88 89  1  0
 89 90  1  0
 90 91  1  0
 91 92  1  0
 92 93  1  0
 93 94  1  0
 94 95  1  0
 95 96  1  0
 96 97  1  0
 97 98  1  0
 98 99  1  0
 99100  1  0
100101  1  0
101102  1  0
102103  1  0
103104  1  0
104105  1  0
105106  1  0
106107  1  0
107108  1  0
108109  1  0
109110  1  0
110111  1  0
111112  1  0
112113  1  0
113114  1  0
114115  1  0
115116  1  0
116117  1  0
117118  1  0
118119  1  0
119120  1  0
120121  1  0
121122  1  0
122123  1  0
123  2  1  0
M  END
>  <Title>  (544) 
idAASZgen8

$$$$

     RDKit          2D

  8  8  0  0  0  0  0  0  0  0999 V2000
    5.0260   -1.2990    0.0000 C   0  0  0  0  0  0  0  0  0  0  0  0
    3.5260   -1.2990    0.0000 N   0  0  0  0  0  0  0  0  0  0  0  0
    2.7760    0.0000    0.0000 C   0  0  0  0  0  0  0  0  0  0  0  0
    1.2760    0.0000    0.0000 C   0  0  0  0  0  0  0  0  0  0  0  0
    0.3943    1.2135    0.0000 C   0  0  0  0  0  0  0  0  0  0  0  0
   -1.0323    0.7500    0.0000 C   0  0  0  0  0  0  0  0  0  0  0  0
   -1.0323   -0.7500    0.0000 C   0  0  0  0  0  0  0  0  0  0  0  0
    0.3943   -1.2135    0.0000 C   0  0  0  0  0  0  0  0  0  0  0  0
  1  2  1  0
  2  3  1  0
  3  4  1  0
  4  5  2  0
  5  6  1  0
  6  7  1  0
  7  8  2  0
  8  4  1  0
M  END
>  <Title>  (545) 
idAATAgen8

$$$$

     RDKit          2D

101101  0  0  0  0  0  0  0  0999 V2000
   25.1385    0.0000    0.0000 C   0  0  0  0  0  0  0  0  0  0  0  0
   23.6385    0.0000    0.0000 C   0  0  0  0  0  0  0  0  0  0  0  0
   23.5909    1.4992    0.0000 C   0  0  0  0  0  0  0  0  0  0  0  0
   23.4483    2.9925    0.0000 C   0  0  0  0  0  0  0  0  0  0  0  0
   23.2113    4.4736    0.0000 C   0  0  0  0  0  0  0  0  0  0  0  0
   22.8808    5.9368    0.0000 C   0  0  0  0  0  0  0  0  0  0  0  0
   22.4582    7.3760    0.0000 C   0  0  0  0  0  0  0  0  0  0  0  0
   21.9452    8.7855    0.0000 C   0  0  0  0  0  0  0  0  0  0  0  0
   21.3438   10.1597    0.0000 C   0  0  0  0  0  0  0  0  0  0  0  0
   20.6565   11.4929    0.0000 C   0  0  0  0  0  0  0  0  0  0  0  0
   19.8860   12.7799    0.0000 C   0  0  0  0  0  0  0  0  0  0  0  0
   19.0354   14.0154    0.0000 C   0  0  0  0  0  0  0  0  0  0  0  0
   18.1081   15.1945    0.0000 C   0  0  0  0  0  0  0  0  0  0  0  0
   17.1080   16.3124    0.0000 C   0  0  0  0  0  0  0  0  0  0  0  0
   16.0389   17.3646    0.0000 C   0  0  0  0  0  0  0  0  0  0  0  0
   14.9053   18.3469    0.0000 C   0  0  0  0  0  0  0  0  0  0  0  0
   13.7117   19.2553    0.0000 C   0  0  0  0  0  0  0  0  0  0  0  0
   12.4628   20.0862    0.0000 C   0  0  0  0  0  0  0  0  0  0  0  0
   11.1638   20.8362    0.0000 C   0  0  0  0  0  0  0  0  0  0  0  0
    9.8198   21.5023    0.0000 C   0  0  0  0  0  0  0  0  0  0  0  0
    8.4362   22.0818    0.0000 C   0  0  0  0  0  0  0  0  0  0  0  0
    7.0187   22.5724    0.0000 C   0  0  0  0  0  0  0  0  0  0  0  0
    5.5730   22.9721    0.0000 C   0  0  0  0  0  0  0  0  0  0  0  0
    4.1048   23.2794    0.0000 C   0  0  0  0  0  0  0  0  0  0  0  0
    2.6200   23.4928    0.0000 C   0  0  0  0  0  0  0  0  0  0  0  0
    1.1248   23.6117    0.0000 C   0  0  0  0  0  0  0  0  0  0  0  0
   -0.3750   23.6355    0.0000 C   0  0  0  0  0  0  0  0  0  0  0  0
   -1.8733   23.5641    0.0000 C   0  0  0  0  0  0  0  0  0  0  0  0
   -3.3641   23.3979    0.0000 C   0  0  0  0  0  0  0  0  0  0  0  0
   -4.8413   23.1374    0.0000 C   0  0  0  0  0  0  0  0  0  0  0  0
   -6.2990   22.7838    0.0000 C   0  0  0  0  0  0  0  0  0  0  0  0
   -7.7314   22.3384    0.0000 C   0  0  0  0  0  0  0  0  0  0  0  0
   -9.1326   21.8031    0.0000 C   0  0  0  0  0  0  0  0  0  0  0  0
   -9.7121   23.1866    0.0000 C   0  0  0  0  0  0  0  0  0  0  0  0
  -10.4971   21.1799    0.0000 C   0  0  0  0  0  0  0  0  0  0  0  0
  -11.8192   20.4715    0.0000 C   0  0  0  0  0  0  0  0  0  0  0  0
  -13.0938   19.6807    0.0000 C   0  0  0  0  0  0  0  0  0  0  0  0
  -14.3157   18.8106    0.0000 C   0  0  0  0  0  0  0  0  0  0  0  0
  -15.4799   17.8648    0.0000 C   0  0  0  0  0  0  0  0  0  0  0  0
  -16.5818   16.8470    0.0000 C   0  0  0  0  0  0  0  0  0  0  0  0
  -17.6169   15.7614    0.0000 C   0  0  0  0  0  0  0  0  0  0  0  0
  -18.5811   14.6123    0.0000 C   0  0  0  0  0  0  0  0  0  0  0  0
  -19.4705   13.4044    0.0000 C   0  0  0  0  0  0  0  0  0  0  0  0
  -20.2814   12.1426    0.0000 C   0  0  0  0  0  0  0  0  0  0  0  0
  -21.0107   10.8318    0.0000 C   0  0  0  0  0  0  0  0  0  0  0  0
  -21.6554    9.4774    0.0000 C   0  0  0  0  0  0  0  0  0  0  0  0
  -22.2129    8.0848    0.0000 C   0  0  0  0  0  0  0  0  0  0  0  0
  -22.6810    6.6597    0.0000 C   0  0  0  0  0  0  0  0  0  0  0  0
  -23.0577    5.2078    0.0000 C   0  0  0  0  0  0  0  0  0  0  0  0
  -23.3416    3.7349    0.0000 C   0  0  0  0  0  0  0  0  0  0  0  0
  -23.5314    2.2470    0.0000 C   0  0  0  0  0  0  0  0  0  0  0  0
  -23.6266    0.7500    0.0000 C   0  0  0  0  0  0  0  0  0  0  0  0
  -23.6266   -0.7500    0.0000 C   0  0  0  0  0  0  0  0  0  0  0  0
  -23.5314   -2.2470    0.0000 C   0  0  0  0  0  0  0  0  0  0  0  0
  -23.3416   -3.7349    0.0000 C   0  0  0  0  0  0  0  0  0  0  0  0
  -23.0577   -5.2078    0.0000 C   0  0  0  0  0  0  0  0  0  0  0  0
  -22.6810   -6.6597    0.0000 C   0  0  0  0  0  0  0  0  0  0  0  0
  -22.2129   -8.0848    0.0000 C   0  0  0  0  0  0  0  0  0  0  0  0
  -21.6554   -9.4774    0.0000 C   0  0  0  0  0  0  0  0  0  0  0  0
  -21.0107  -10.8318    0.0000 C   0  0  0  0  0  0  0  0  0  0  0  0
  -20.2814  -12.1426    0.0000 C   0  0  0  0  0  0  0  0  0  0  0  0
  -19.4705  -13.4044    0.0000 C   0  0  0  0  0  0  0  0  0  0  0  0
  -18.5811  -14.6123    0.0000 C   0  0  0  0  0  0  0  0  0  0  0  0
  -17.6169  -15.7614    0.0000 C   0  0  0  0  0  0  0  0  0  0  0  0
  -16.5818  -16.8470    0.0000 C   0  0  0  0  0  0  0  0  0  0  0  0
  -15.4799  -17.8648    0.0000 C   0  0  0  0  0  0  0  0  0  0  0  0
  -14.3157  -18.8106    0.0000 C   0  0  0  0  0  0  0  0  0  0  0  0
  -13.0938  -19.6807    0.0000 C   0  0  0  0  0  0  0  0  0  0  0  0
  -11.8192  -20.4715    0.0000 C   0  0  0  0  0  0  0  0  0  0  0  0
  -10.4971  -21.1799    0.0000 C   0  0  0  0  0  0  0  0  0  0  0  0
   -9.1326  -21.8031    0.0000 C   0  0  0  0  0  0  0  0  0  0  0  0
   -7.7314  -22.3384    0.0000 C   0  0  0  0  0  0  0  0  0  0  0  0
   -6.2990  -22.7838    0.0000 C   0  0  0  0  0  0  0  0  0  0  0  0
   -4.8413  -23.1374    0.0000 C   0  0  0  0  0  0  0  0  0  0  0  0
   -3.3641  -23.3979    0.0000 C   0  0  0  0  0  0  0  0  0  0  0  0
   -1.8733  -23.5641    0.0000 C   0  0  0  0  0  0  0  0  0  0  0  0
   -0.3750  -23.6355    0.0000 C   0  0  0  0  0  0  0  0  0  0  0  0
    1.1248  -23.6117    0.0000 C   0  0  0  0  0  0  0  0  0  0  0  0
    2.6200  -23.4928    0.0000 C   0  0  0  0  0  0  0  0  0  0  0  0
    4.1048  -23.2794    0.0000 C   0  0  0  0  0  0  0  0  0  0  0  0
    5.5730  -22.9721    0.0000 C   0  0  0  0  0  0  0  0  0  0  0  0
    7.0187  -22.5724    0.0000 C   0  0  0  0  0  0  0  0  0  0  0  0
    8.4362  -22.0818    0.0000 C   0  0  0  0  0  0  0  0  0  0  0  0
    9.8198  -21.5023    0.0000 C   0  0  0  0  0  0  0  0  0  0  0  0
   11.1638  -20.8362    0.0000 C   0  0  0  0  0  0  0  0  0  0  0  0
   12.4628  -20.0862    0.0000 C   0  0  0  0  0  0  0  0  0  0  0  0
   13.7117  -19.2553    0.0000 C   0  0  0  0  0  0  0  0  0  0  0  0
   14.9053  -18.3469    0.0000 C   0  0  0  0  0  0  0  0  0  0  0  0
   16.0389  -17.3646    0.0000 C   0  0  0  0  0  0  0  0  0  0  0  0
   17.1080  -16.3124    0.0000 C   0  0  0  0  0  0  0  0  0  0  0  0
   18.1081  -15.1945    0.0000 C   0  0  0  0  0  0  0  0  0  0  0  0
   19.0354  -14.0154    0.0000 C   0  0  0  0  0  0  0  0  0  0  0  0
   19.8860  -12.7799    0.0000 C   0  0  0  0  0  0  0  0  0  0  0  0
   20.6565  -11.4929    0.0000 C   0  0  0  0  0  0  0  0  0  0  0  0
   21.3438  -10.1597    0.0000 C   0  0  0  0  0  0  0  0  0  0  0  0
   21.9452   -8.7855    0.0000 C   0  0  0  0  0  0  0  0  0  0  0  0
   22.4582   -7.3760    0.0000 C   0  0  0  0  0  0  0  0  0  0  0  0
   22.8808   -5.9368    0.0000 C   0  0  0  0  0  0  0  0  0  0  0  0
   23.2113   -4.4736    0.0000 C   0  0  0  0  0  0  0  0  0  0  0  0
   23.4483   -2.9925    0.0000 C   0  0  0  0  0  0  0  0  0  0  0  0
   23.5909   -1.4992    0.0000 C   0  0  0  0  0  0  0  0  0  0  0  0
  1  2  1  0
  2  3  1  0
  3  4  1  0
  4  5  1  0
  5  6  1  0
  6  7  2  0
  7  8  1  0
  8  9  2  0
  9 10  1  0
 10 11  1  0
 11 12  1  0
 12 13  1  0
 13 14  1  0
 14 15  1  0
 15 16  1  0
 16 17  1  0
 17 18  1  0
 18 19  1  0
 19 20  1  0
 20 21  1  0
 21 22  1  0
 22 23  1  0
 23 24  1  0
 24 25  1  0
 25 26  1  0
 26 27  1  0
 27 28  1  0
 28 29  1  0
 29 30  1  0
 30 31  1  0
 31 32  1  0
 32 33  1  0
 33 34  1  0
 33 35  1  0
 35 36  1  0
 36 37  1  0
 37 38  1  0
 38 39  1  0
 39 40  1  0
 40 41  1  0
 41 42  1  0
 42 43  1  0
 43 44  1  0
 44 45  1  0
 45 46  1  0
 46 47  1  0
 47 48  1  0
 48 49  1  0
 49 50  1  0
 50 51  1  0
 51 52  1  0
 52 53  1  0
 53 54  1  0
 54 55  1  0
 55 56  1  0
 56 57  1  0
 57 58  1  0
 58 59  1  0
 59 60  1  0
 60 61  1  0
 61 62  1  0
 62 63  1  0
 63 64  1  0
 64 65  1  0
 65 66  1  0
 66 67  1  0
 67 68  1  0
 68 69  1  0
 69 70  1  0
 70 71  1  0
 71 72  1  0
 72 73  1  0
 73 74  1  0
 74 75  1  0
 75 76  1  0
 76 77  1  0
 77 78  1  0
 78 79  1  0
 79 80  1  0
 80 81  1  0
 81 82  1  0
 82 83  1  0
 83 84  1  0
 84 85  1  0
 85 86  1  0
 86 87  1  0
 87 88  1  0
 88 89  1  0
 89 90  1  0
 90 91  1  0
 91 92  1  0
 92 93  1  0
 93 94  1  0
 94 95  1  0
 95 96  1  0
 96 97  1  0
 97 98  1  0
 98 99  1  0
 99100  1  0
100101  1  0
101  2  1  0
M  END
>  <Title>  (546) 
idAATBgen8

$$$$

     RDKit          2D

 51 58  0  0  0  0  0  0  0  0999 V2000
    4.8312   -6.8802    0.0000 C   0  0  0  0  0  0  0  0  0  0  0  0
    3.7705   -5.8195    0.0000 C   0  0  0  0  0  0  0  0  0  0  0  0
    5.1563   -5.2455    0.0000 O   0  0  0  0  0  0  0  0  0  0  0  0
    3.7705   -4.3195    0.0000 C   0  0  0  0  0  0  0  0  0  0  0  0
    3.1965   -2.9337    0.0000 C   0  0  0  0  0  0  0  0  0  0  0  0
    2.1358   -1.8731    0.0000 C   0  0  0  0  0  0  0  0  0  0  0  0
    2.9692   -0.6259    0.0000 C   0  0  0  0  0  0  0  0  0  0  0  0
    2.3057    0.7195    0.0000 O   0  0  0  0  0  0  0  0  0  0  0  0
    4.4660   -0.7240    0.0000 N   0  0  0  0  0  0  0  0  0  0  0  0
    5.2993    0.5232    0.0000 C   0  0  0  0  0  0  0  0  0  0  0  0
    6.7961    0.4251    0.0000 N   0  0  0  0  0  0  0  0  0  0  0  0
    7.6295    1.6723    0.0000 N   0  0  0  0  0  0  0  0  0  0  0  0
    6.9660    3.0176    0.0000 N   0  0  0  0  0  0  0  0  0  0  0  0
    5.4692    3.1158    0.0000 N   0  0  0  0  0  0  0  0  0  0  0  0
    4.6359    1.8686    0.0000 N   0  0  0  0  0  0  0  0  0  0  0  0
    0.7500   -1.2990    0.0000 C   0  0  0  0  0  0  0  0  0  0  0  0
    1.5000    0.0000    0.0000 C   0  0  0  0  0  0  0  0  0  0  0  0
    0.7500    1.2990    0.0000 C   0  0  0  0  0  0  0  0  0  0  0  0
   -0.7500    1.2990    0.0000 C   0  0  0  0  0  0  0  0  0  0  0  0
   -1.5000    0.0000    0.0000 C   0  0  0  0  0  0  0  0  0  0  0  0
   -0.7500   -1.2990    0.0000 C   0  0  0  0  0  0  0  0  0  0  0  0
   -2.1358   -1.8731    0.0000 C   0  0  0  0  0  0  0  0  0  0  0  0
   -2.5240   -0.4242    0.0000 C   0  0  0  0  0  0  0  0  0  0  0  0
   -3.9729   -0.0359    0.0000 C   0  0  0  0  0  0  0  0  0  0  0  0
   -5.0336   -1.0966    0.0000 C   0  0  0  0  0  0  0  0  0  0  0  0
   -4.6454   -2.5455    0.0000 C   0  0  0  0  0  0  0  0  0  0  0  0
   -3.1965   -2.9337    0.0000 C   0  0  0  0  0  0  0  0  0  0  0  0
   -3.7705   -4.3195    0.0000 C   0  0  0  0  0  0  0  0  0  0  0  0
   -5.0695   -3.5695    0.0000 C   0  0  0  0  0  0  0  0  0  0  0  0
   -6.3686   -4.3195    0.0000 C   0  0  0  0  0  0  0  0  0  0  0  0
   -6.3686   -5.8195    0.0000 C   0  0  0  0  0  0  0  0  0  0  0  0
   -5.0695   -6.5695    0.0000 C   0  0  0  0  0  0  0  0  0  0  0  0
   -3.7705   -5.8195    0.0000 C   0  0  0  0  0  0  0  0  0  0  0  0
   -3.1965   -7.2054    0.0000 C   0  0  0  0  0  0  0  0  0  0  0  0
   -4.6454   -7.5936    0.0000 C   0  0  0  0  0  0  0  0  0  0  0  0
   -5.0336   -9.0425    0.0000 C   0  0  0  0  0  0  0  0  0  0  0  0
   -3.9729  -10.1031    0.0000 C   0  0  0  0  0  0  0  0  0  0  0  0
   -2.5240   -9.7149    0.0000 C   0  0  0  0  0  0  0  0  0  0  0  0
   -2.1358   -8.2660    0.0000 C   0  0  0  0  0  0  0  0  0  0  0  0
   -0.7500   -8.8400    0.0000 C   0  0  0  0  0  0  0  0  0  0  0  0
   -1.5000  -10.1391    0.0000 C   0  0  0  0  0  0  0  0  0  0  0  0
   -0.7500  -11.4381    0.0000 C   0  0  0  0  0  0  0  0  0  0  0  0
    0.7500  -11.4381    0.0000 C   0  0  0  0  0  0  0  0  0  0  0  0
    1.5000  -10.1391    0.0000 C   0  0  0  0  0  0  0  0  0  0  0  0
    0.7500   -8.8400    0.0000 C   0  0  0  0  0  0  0  0  0  0  0  0
    2.1358   -8.2660    0.0000 C   0  0  0  0  0  0  0  0  0  0  0  0
    2.5240   -9.7149    0.0000 C   0  0  0  0  0  0  0  0  0  0  0  0
    3.9729  -10.1031    0.0000 C   0  0  0  0  0  0  0  0  0  0  0  0
    5.0336   -9.0425    0.0000 C   0  0  0  0  0  0  0  0  0  0  0  0
    4.6454   -7.5936    0.0000 C   0  0  0  0  0  0  0  0  0  0  0  0
    3.1965   -7.2054    0.0000 C   0  0  0  0  0  0  0  0  0  0  0  0
  1  2  1  0
  2  3  1  0
  2  4  1  0
  4  5  1  0
  5  6  1  0
  6  7  1  0
  7  8  2  0
  7  9  1  0
  9 10  1  0
 10 11  2  0
 11 12  1  0
 12 13  2  0
 13 14  1  0
 14 15  2  0
  6 16  1  0
 16 17  2  0
 17 18  1  0
 18 19  2  0
 19 20  1  0
 20 21  2  0
 21 22  1  0
 22 23  2  0
 23 24  1  0
 24 25  2  0
 25 26  1  0
 26 27  2  0
 27 28  1  0
 28 29  2  0
 29 30  1  0
 30 31  2  0
 31 32  1  0
 32 33  2  0
 33 34  1  0
 34 35  2  0
 35 36  1  0
 36 37  2  0
 37 38  1  0
 38 39  2  0
 39 40  1  0
 40 41  2  0
 41 42  1  0
 42 43  2  0
 43 44  1  0
 44 45  2  0
 45 46  1  0
 46 47  2  0
 47 48  1  0
 48 49  2  0
 49 50  1  0
 50 51  2  0
 51  2  1  0
 15 10  1  0
 21 16  1  0
 27 22  1  0
 33 28  1  0
 39 34  1  0
 45 40  1  0
 51 46  1  0
M  END
>  <Title>  (547) 
idAATCgen8

$$$$

     RDKit          2D

 22 23  0  0  0  0  0  0  0  0999 V2000
    4.2558    4.6904    0.0000 C   0  0  0  0  0  0  0  0  0  0  0  0
    2.7886    4.3786    0.0000 C   0  0  0  0  0  0  0  0  0  0  0  0
    1.7849    5.4933    0.0000 O   0  0  0  0  0  0  0  0  0  0  0  0
    2.3250    2.9520    0.0000 C   0  0  0  0  0  0  0  0  0  0  0  0
    0.8578    2.6401    0.0000 C   0  0  0  0  0  0  0  0  0  0  0  0
    0.3943    1.2135    0.0000 C   0  0  0  0  0  0  0  0  0  0  0  0
    1.2760    0.0000    0.0000 C   0  0  0  0  0  0  0  0  0  0  0  0
    0.3943   -1.2135    0.0000 C   0  0  0  0  0  0  0  0  0  0  0  0
   -1.0323   -0.7500    0.0000 C   0  0  0  0  0  0  0  0  0  0  0  0
   -1.0323    0.7500    0.0000 C   0  0  0  0  0  0  0  0  0  0  0  0
    3.3287    1.8373    0.0000 N   0  0  0  0  0  0  0  0  0  0  0  0
    4.7960    2.1491    0.0000 C   0  0  0  0  0  0  0  0  0  0  0  0
    5.2595    3.5757    0.0000 O   0  0  0  0  0  0  0  0  0  0  0  0
    5.7997    1.0344    0.0000 C   0  0  0  0  0  0  0  0  0  0  0  0
    7.2914    1.1912    0.0000 C   0  0  0  0  0  0  0  0  0  0  0  0
    7.9015   -0.1791    0.0000 C   0  0  0  0  0  0  0  0  0  0  0  0
    6.7868   -1.1828    0.0000 C   0  0  0  0  0  0  0  0  0  0  0  0
    6.9436   -2.6746    0.0000 C   0  0  0  0  0  0  0  0  0  0  0  0
    8.3139   -3.2847    0.0000 O   0  0  0  0  0  0  0  0  0  0  0  0
    5.7301   -3.5563    0.0000 O   0  0  0  0  0  0  0  0  0  0  0  0
    5.4878   -0.4328    0.0000 C   0  0  0  0  0  0  0  0  0  0  0  0
    4.1175   -1.0429    0.0000 O   0  0  0  0  0  0  0  0  0  0  0  0
  1  2  1  0
  2  3  2  0
  2  4  1  0
  4  5  1  0
  5  6  1  0
  6  7  2  0
  7  8  1  0
  8  9  2  0
  9 10  1  0
  4 11  1  0
 11 12  1  0
 12 13  2  0
 12 14  1  0
 14 15  1  0
 15 16  1  0
 16 17  1  0
 17 18  1  0
 18 19  2  0
 18 20  1  0
 17 21  1  0
 21 22  2  0
 10  6  1  0
 21 14  1  0
M  END
>  <Title>  (548) 
idAATDgen8

$$$$

     RDKit          2D

  7  7  0  0  0  0  0  0  0  0999 V2000
    3.0000    0.0000    0.0000 O   0  0  0  0  0  0  0  0  0  0  0  0
    1.5000    0.0000    0.0000 C   0  0  0  0  0  0  0  0  0  0  0  0
    0.7500   -1.2990    0.0000 C   0  0  0  0  0  0  0  0  0  0  0  0
   -0.7500   -1.2990    0.0000 C   0  0  0  0  0  0  0  0  0  0  0  0
   -1.5000    0.0000    0.0000 C   0  0  0  0  0  0  0  0  0  0  0  0
   -0.7500    1.2990    0.0000 N   0  0  0  0  0  0  0  0  0  0  0  0
    0.7500    1.2990    0.0000 C   0  0  0  0  0  0  0  0  0  0  0  0
  1  2  1  0
  2  3  2  0
  3  4  1  0
  4  5  2  0
  5  6  1  0
  6  7  2  0
  7  2  1  0
M  END
>  <Title>  (549) 
idAATEgen8

$$$$

     RDKit          2D

 63 72  0  0  0  0  0  0  0  0999 V2000
    4.3867  -13.8311    0.0000 C   0  0  0  0  0  0  0  0  0  0  0  0
    3.5346  -12.5966    0.0000 C   0  0  0  0  0  0  0  0  0  0  0  0
    4.6574  -11.6019    0.0000 C   0  0  0  0  0  0  0  0  0  0  0  0
    5.5095  -10.3674    0.0000 C   0  0  0  0  0  0  0  0  0  0  0  0
    6.0414   -8.9649    0.0000 C   0  0  0  0  0  0  0  0  0  0  0  0
    6.2222   -7.4758    0.0000 C   0  0  0  0  0  0  0  0  0  0  0  0
    6.0414   -5.9868    0.0000 C   0  0  0  0  0  0  0  0  0  0  0  0
    5.5095   -4.5843    0.0000 C   0  0  0  0  0  0  0  0  0  0  0  0
    6.8376   -3.8872    0.0000 O   0  0  0  0  0  0  0  0  0  0  0  0
    4.6574   -3.3498    0.0000 N   0  0  0  0  0  0  0  0  0  0  0  0
    3.5346   -2.3551    0.0000 C   0  0  0  0  0  0  0  0  0  0  0  0
    4.6080   -1.3073    0.0000 N   0  0  0  0  0  0  0  0  0  0  0  0
    3.9432    0.0373    0.0000 N   0  0  0  0  0  0  0  0  0  0  0  0
    2.4589   -0.1794    0.0000 N   0  0  0  0  0  0  0  0  0  0  0  0
    2.2064   -1.6580    0.0000 N   0  0  0  0  0  0  0  0  0  0  0  0
    0.7500   -1.2990    0.0000 C   0  0  0  0  0  0  0  0  0  0  0  0
    1.5000    0.0000    0.0000 C   0  0  0  0  0  0  0  0  0  0  0  0
    0.7500    1.2990    0.0000 C   0  0  0  0  0  0  0  0  0  0  0  0
   -0.7500    1.2990    0.0000 C   0  0  0  0  0  0  0  0  0  0  0  0
   -1.5000    0.0000    0.0000 C   0  0  0  0  0  0  0  0  0  0  0  0
   -0.7500   -1.2990    0.0000 C   0  0  0  0  0  0  0  0  0  0  0  0
   -2.2064   -1.6580    0.0000 C   0  0  0  0  0  0  0  0  0  0  0  0
   -2.7658   -0.4845    0.0000 C   0  0  0  0  0  0  0  0  0  0  0  0
   -3.4420   -0.0570    0.0000 C   0  0  0  0  0  0  0  0  0  0  0  0
   -4.1503   -0.4287    0.0000 C   0  0  0  0  0  0  0  0  0  0  0  0
   -4.1826   -1.2281    0.0000 C   0  0  0  0  0  0  0  0  0  0  0  0
   -3.5346   -2.3551    0.0000 C   0  0  0  0  0  0  0  0  0  0  0  0
   -4.6574   -3.3498    0.0000 C   0  0  0  0  0  0  0  0  0  0  0  0
   -5.3004   -1.9946    0.0000 C   0  0  0  0  0  0  0  0  0  0  0  0
   -6.7955   -1.8739    0.0000 C   0  0  0  0  0  0  0  0  0  0  0  0
   -7.6476   -3.1084    0.0000 C   0  0  0  0  0  0  0  0  0  0  0  0
   -7.0046   -4.4636    0.0000 C   0  0  0  0  0  0  0  0  0  0  0  0
   -5.5095   -4.5843    0.0000 C   0  0  0  0  0  0  0  0  0  0  0  0
   -6.0414   -5.9868    0.0000 C   0  0  0  0  0  0  0  0  0  0  0  0
   -7.3249   -5.7806    0.0000 C   0  0  0  0  0  0  0  0  0  0  0  0
   -8.0609   -6.0941    0.0000 C   0  0  0  0  0  0  0  0  0  0  0  0
   -8.1573   -6.8883    0.0000 C   0  0  0  0  0  0  0  0  0  0  0  0
   -7.5178   -7.3689    0.0000 C   0  0  0  0  0  0  0  0  0  0  0  0
   -6.2222   -7.4758    0.0000 C   0  0  0  0  0  0  0  0  0  0  0  0
   -6.0414   -8.9649    0.0000 C   0  0  0  0  0  0  0  0  0  0  0  0
   -7.5219   -8.7243    0.0000 C   0  0  0  0  0  0  0  0  0  0  0  0
   -8.4706   -9.8862    0.0000 C   0  0  0  0  0  0  0  0  0  0  0  0
   -7.9387  -11.2887    0.0000 C   0  0  0  0  0  0  0  0  0  0  0  0
   -6.4581  -11.5293    0.0000 C   0  0  0  0  0  0  0  0  0  0  0  0
   -5.5095  -10.3674    0.0000 C   0  0  0  0  0  0  0  0  0  0  0  0
   -4.6574  -11.6019    0.0000 C   0  0  0  0  0  0  0  0  0  0  0  0
   -5.5562  -12.5411    0.0000 C   0  0  0  0  0  0  0  0  0  0  0  0
   -5.7162  -13.3249    0.0000 C   0  0  0  0  0  0  0  0  0  0  0  0
   -5.1174  -13.8554    0.0000 C   0  0  0  0  0  0  0  0  0  0  0  0
   -4.3586  -13.6021    0.0000 C   0  0  0  0  0  0  0  0  0  0  0  0
   -3.5346  -12.5966    0.0000 C   0  0  0  0  0  0  0  0  0  0  0  0
   -2.2064  -13.2937    0.0000 C   0  0  0  0  0  0  0  0  0  0  0  0
   -3.2455  -14.3755    0.0000 C   0  0  0  0  0  0  0  0  0  0  0  0
   -2.8282  -15.8163    0.0000 C   0  0  0  0  0  0  0  0  0  0  0  0
   -1.3718  -16.1752    0.0000 C   0  0  0  0  0  0  0  0  0  0  0  0
   -0.3327  -15.0934    0.0000 C   0  0  0  0  0  0  0  0  0  0  0  0
   -0.7500  -13.6526    0.0000 C   0  0  0  0  0  0  0  0  0  0  0  0
    0.7500  -13.6526    0.0000 C   0  0  0  0  0  0  0  0  0  0  0  0
    1.0123  -14.9259    0.0000 C   0  0  0  0  0  0  0  0  0  0  0  0
    1.5665  -15.5029    0.0000 C   0  0  0  0  0  0  0  0  0  0  0  0
    2.3433  -15.3114    0.0000 C   0  0  0  0  0  0  0  0  0  0  0  0
    2.5658  -14.5430    0.0000 C   0  0  0  0  0  0  0  0  0  0  0  0
    2.2064  -13.2937    0.0000 C   0  0  0  0  0  0  0  0  0  0  0  0
  1  2  1  0
  2  3  1  0
  3  4  1  0
  4  5  1  0
  5  6  1  0
  6  7  1  0
  7  8  1  0
  8  9  2  0
  8 10  1  0
 10 11  1  0
 11 12  2  0
 12 13  1  0
 13 14  2  0
 14 15  1  0
 15 16  1  0
 16 17  2  0
 17 18  1  0
 18 19  2  0
 19 20  1  0
 20 21  2  0
 21 22  1  0
 22 23  2  0
 23 24  1  0
 24 25  2  0
 25 26  1  0
 26 27  2  0
 27 28  1  0
 28 29  2  0
 29 30  1  0
 30 31  2  0
 31 32  1  0
 32 33  2  0
 33 34  1  0
 34 35  2  0
 35 36  1  0
 36 37  2  0
 37 38  1  0
 38 39  2  0
 39 40  1  0
 40 41  2  0
 41 42  1  0
 42 43  2  0
 43 44  1  0
 44 45  2  0
 45 46  1  0
 46 47  2  0
 47 48  1  0
 48 49  2  0
 49 50  1  0
 50 51  2  0
 51 52  1  0
 52 53  2  0
 53 54  1  0
 54 55  2  0
 55 56  1  0
 56 57  2  0
 57 58  1  0
 58 59  2  0
 59 60  1  0
 60 61  2  0
 61 62  1  0
 62 63  2  0
 63  2  1  0
 15 11  1  0
 21 16  1  0
 27 22  1  0
 33 28  1  0
 39 34  1  0
 45 40  1  0
 51 46  1  0
 57 52  1  0
 63 58  1  0
M  END
>  <Title>  (550) 
idAATFgen8

$$$$

     RDKit          2D

 58 66  0  0  0  0  0  0  0  0999 V2000
   10.2451  -11.1221    0.0000 C   0  0  0  0  0  0  0  0  0  0  0  0
    9.0724  -10.1869    0.0000 C   0  0  0  0  0  0  0  0  0  0  0  0
    7.6761  -10.7349    0.0000 C   0  0  0  0  0  0  0  0  0  0  0  0
    6.5033   -9.7997    0.0000 C   0  0  0  0  0  0  0  0  0  0  0  0
    6.7269   -8.3164    0.0000 O   0  0  0  0  0  0  0  0  0  0  0  0
    5.1070  -10.3477    0.0000 N   0  0  0  0  0  0  0  0  0  0  0  0
    3.9343   -9.4124    0.0000 C   0  0  0  0  0  0  0  0  0  0  0  0
    4.6843   -8.1134    0.0000 N   0  0  0  0  0  0  0  0  0  0  0  0
    5.0181   -6.6510    0.0000 N   0  0  0  0  0  0  0  0  0  0  0  0
    4.9060   -5.1552    0.0000 C   0  0  0  0  0  0  0  0  0  0  0  0
    4.3580   -3.7589    0.0000 C   0  0  0  0  0  0  0  0  0  0  0  0
    3.4227   -2.5862    0.0000 C   0  0  0  0  0  0  0  0  0  0  0  0
    4.6093   -1.6686    0.0000 C   0  0  0  0  0  0  0  0  0  0  0  0
    4.1033   -0.2565    0.0000 C   0  0  0  0  0  0  0  0  0  0  0  0
    2.6040   -0.3014    0.0000 C   0  0  0  0  0  0  0  0  0  0  0  0
    2.1834   -1.7412    0.0000 C   0  0  0  0  0  0  0  0  0  0  0  0
    0.7500   -1.2990    0.0000 C   0  0  0  0  0  0  0  0  0  0  0  0
    1.5000    0.0000    0.0000 C   0  0  0  0  0  0  0  0  0  0  0  0
    0.7500    1.2990    0.0000 C   0  0  0  0  0  0  0  0  0  0  0  0
   -0.7500    1.2990    0.0000 C   0  0  0  0  0  0  0  0  0  0  0  0
   -1.5000    0.0000    0.0000 C   0  0  0  0  0  0  0  0  0  0  0  0
   -0.7500   -1.2990    0.0000 C   0  0  0  0  0  0  0  0  0  0  0  0
   -2.1834   -1.7412    0.0000 C   0  0  0  0  0  0  0  0  0  0  0  0
   -2.2955   -0.2454    0.0000 C   0  0  0  0  0  0  0  0  0  0  0  0
   -3.6469    0.4055    0.0000 C   0  0  0  0  0  0  0  0  0  0  0  0
   -4.8863   -0.4395    0.0000 C   0  0  0  0  0  0  0  0  0  0  0  0
   -4.7742   -1.9353    0.0000 C   0  0  0  0  0  0  0  0  0  0  0  0
   -3.4227   -2.5862    0.0000 C   0  0  0  0  0  0  0  0  0  0  0  0
   -4.3580   -3.7589    0.0000 C   0  0  0  0  0  0  0  0  0  0  0  0
   -5.2932   -2.5862    0.0000 C   0  0  0  0  0  0  0  0  0  0  0  0
   -6.7764   -2.8097    0.0000 C   0  0  0  0  0  0  0  0  0  0  0  0
   -7.3244   -4.2060    0.0000 C   0  0  0  0  0  0  0  0  0  0  0  0
   -6.3892   -5.3788    0.0000 C   0  0  0  0  0  0  0  0  0  0  0  0
   -4.9060   -5.1552    0.0000 C   0  0  0  0  0  0  0  0  0  0  0  0
   -5.0181   -6.6510    0.0000 C   0  0  0  0  0  0  0  0  0  0  0  0
   -6.4514   -6.2089    0.0000 C   0  0  0  0  0  0  0  0  0  0  0  0
   -7.5510   -7.2291    0.0000 C   0  0  0  0  0  0  0  0  0  0  0  0
   -7.2172   -8.6915    0.0000 C   0  0  0  0  0  0  0  0  0  0  0  0
   -5.7839   -9.1337    0.0000 C   0  0  0  0  0  0  0  0  0  0  0  0
   -4.6843   -8.1134    0.0000 C   0  0  0  0  0  0  0  0  0  0  0  0
   -3.9343   -9.4124    0.0000 C   0  0  0  0  0  0  0  0  0  0  0  0
   -5.3676   -9.8546    0.0000 C   0  0  0  0  0  0  0  0  0  0  0  0
   -5.7014  -11.3170    0.0000 C   0  0  0  0  0  0  0  0  0  0  0  0
   -4.6018  -12.3372    0.0000 C   0  0  0  0  0  0  0  0  0  0  0  0
   -3.1685  -11.8951    0.0000 C   0  0  0  0  0  0  0  0  0  0  0  0
   -2.8347  -10.4327    0.0000 C   0  0  0  0  0  0  0  0  0  0  0  0
   -1.4832  -11.0835    0.0000 C   0  0  0  0  0  0  0  0  0  0  0  0
   -2.4185  -12.2563    0.0000 C   0  0  0  0  0  0  0  0  0  0  0  0
   -1.8705  -13.6526    0.0000 C   0  0  0  0  0  0  0  0  0  0  0  0
   -0.3872  -13.8762    0.0000 C   0  0  0  0  0  0  0  0  0  0  0  0
    0.5480  -12.7034    0.0000 C   0  0  0  0  0  0  0  0  0  0  0  0
   -0.0000  -11.3071    0.0000 C   0  0  0  0  0  0  0  0  0  0  0  0
    1.4832  -11.0835    0.0000 C   0  0  0  0  0  0  0  0  0  0  0  0
    1.3712  -12.5793    0.0000 C   0  0  0  0  0  0  0  0  0  0  0  0
    2.6105  -13.4243    0.0000 C   0  0  0  0  0  0  0  0  0  0  0  0
    3.9620  -12.7735    0.0000 C   0  0  0  0  0  0  0  0  0  0  0  0
    4.0741  -11.2777    0.0000 C   0  0  0  0  0  0  0  0  0  0  0  0
    2.8347  -10.4327    0.0000 C   0  0  0  0  0  0  0  0  0  0  0  0
  1  2  1  0
  2  3  2  3
  3  4  1  0
  4  5  2  0
  4  6  1  0
  6  7  1  0
  7  8  2  0
  8  9  1  0
  9 10  2  0
 10 11  1  0
 11 12  2  0
 12 13  1  0
 13 14  2  0
 14 15  1  0
 15 16  2  0
 16 17  1  0
 17 18  2  0
 18 19  1  0
 19 20  2  0
 20 21  1  0
 21 22  2  0
 22 23  1  0
 23 24  2  0
 24 25  1  0
 25 26  2  0
 26 27  1  0
 27 28  2  0
 28 29  1  0
 29 30  2  0
 30 31  1  0
 31 32  2  0
 32 33  1  0
 33 34  2  0
 34 35  1  0
 35 36  2  0
 36 37  1  0
 37 38  2  0
 38 39  1  0
 39 40  2  0
 40 41  1  0
 41 42  2  0
 42 43  1  0
 43 44  2  0
 44 45  1  0
 45 46  2  0
 46 47  1  0
 47 48  2  0
 48 49  1  0
 49 50  2  0
 50 51  1  0
 51 52  2  0
 52 53  1  0
 53 54  2  0
 54 55  1  0
 55 56  2  0
 56 57  1  0
 57 58  2  0
 58  7  1  0
 16 12  1  0
 22 17  1  0
 28 23  1  0
 34 29  1  0
 40 35  1  0
 46 41  1  0
 52 47  1  0
 58 53  1  0
M  END
>  <Title>  (551) 
idAATGgen8

$$$$

     RDKit          2D

 27 30  0  0  0  0  0  0  0  0999 V2000
   -1.8981   -7.6920    0.0000 C   0  0  0  0  0  0  0  0  0  0  0  0
   -1.3240   -6.3062    0.0000 C   0  0  0  0  0  0  0  0  0  0  0  0
   -0.7500   -4.9204    0.0000 C   0  0  0  0  0  0  0  0  0  0  0  0
    0.7500   -4.9204    0.0000 C   0  0  0  0  0  0  0  0  0  0  0  0
    1.8107   -3.8597    0.0000 C   0  0  0  0  0  0  0  0  0  0  0  0
    1.8107   -2.3597    0.0000 C   0  0  0  0  0  0  0  0  0  0  0  0
    3.1965   -1.7857    0.0000 N   0  0  0  0  0  0  0  0  0  0  0  0
    4.3865   -2.6988    0.0000 C   0  0  0  0  0  0  0  0  0  0  0  0
    4.1907   -4.1860    0.0000 O   0  0  0  0  0  0  0  0  0  0  0  0
    5.7723   -2.1248    0.0000 C   0  0  0  0  0  0  0  0  0  0  0  0
    6.9624   -3.0379    0.0000 C   0  0  0  0  0  0  0  0  0  0  0  0
    8.3482   -2.4639    0.0000 C   0  0  0  0  0  0  0  0  0  0  0  0
    8.5440   -0.9767    0.0000 C   0  0  0  0  0  0  0  0  0  0  0  0
    7.3539   -0.0636    0.0000 C   0  0  0  0  0  0  0  0  0  0  0  0
    5.9681   -0.6376    0.0000 N   0  0  0  0  0  0  0  0  0  0  0  0
    0.7500   -1.2990    0.0000 C   0  0  0  0  0  0  0  0  0  0  0  0
    1.5000    0.0000    0.0000 C   0  0  0  0  0  0  0  0  0  0  0  0
    0.7500    1.2990    0.0000 C   0  0  0  0  0  0  0  0  0  0  0  0
   -0.7500    1.2990    0.0000 C   0  0  0  0  0  0  0  0  0  0  0  0
   -1.5000    0.0000    0.0000 C   0  0  0  0  0  0  0  0  0  0  0  0
   -0.7500   -1.2990    0.0000 C   0  0  0  0  0  0  0  0  0  0  0  0
   -1.8107   -2.3597    0.0000 C   0  0  0  0  0  0  0  0  0  0  0  0
   -3.1097   -1.6097    0.0000 C   0  0  0  0  0  0  0  0  0  0  0  0
   -4.4087   -2.3597    0.0000 C   0  0  0  0  0  0  0  0  0  0  0  0
   -4.4087   -3.8597    0.0000 C   0  0  0  0  0  0  0  0  0  0  0  0
   -3.1097   -4.6097    0.0000 C   0  0  0  0  0  0  0  0  0  0  0  0
   -1.8107   -3.8597    0.0000 C   0  0  0  0  0  0  0  0  0  0  0  0
  1  2  3  0
  2  3  1  0
  3  4  2  0
  4  5  1  0
  5  6  2  0
  6  7  1  0
  7  8  1  0
  8  9  2  0
  8 10  1  0
 10 11  2  0
 11 12  1  0
 12 13  2  0
 13 14  1  0
 14 15  2  0
  6 16  1  0
 16 17  2  0
 17 18  1  0
 18 19  2  0
 19 20  1  0
 20 21  2  0
 21 22  1  0
 22 23  2  0
 23 24  1  0
 24 25  2  0
 25 26  1  0
 26 27  2  0
 27  3  1  0
 15 10  1  0
 21 16  1  0
 27 22  1  0
M  END
>  <Title>  (552) 
idAATHgen8

$$$$

     RDKit          2D

  9  9  0  0  0  0  0  0  0  0999 V2000
    3.0000    0.0000    0.0000 C   0  0  0  0  0  0  0  0  0  0  0  0
    1.5000    0.0000    0.0000 C   0  0  0  0  0  0  0  0  0  0  0  0
    0.7500   -1.2990    0.0000 C   0  0  0  0  0  0  0  0  0  0  0  0
   -0.7500   -1.2990    0.0000 C   0  0  0  0  0  0  0  0  0  0  0  0
   -1.5000   -2.5981    0.0000 O   0  0  0  0  0  0  0  0  0  0  0  0
   -1.5000    0.0000    0.0000 C   0  0  0  0  0  0  0  0  0  0  0  0
   -3.0000    0.0000    0.0000 O   0  0  0  0  0  0  0  0  0  0  0  0
   -0.7500    1.2990    0.0000 C   0  0  0  0  0  0  0  0  0  0  0  0
    0.7500    1.2990    0.0000 C   0  0  0  0  0  0  0  0  0  0  0  0
  1  2  1  0
  2  3  2  0
  3  4  1  0
  4  5  1  0
  4  6  2  0
  6  7  1  0
  6  8  1  0
  8  9  1  0
  9  2  1  0
M  END
>  <Title>  (553) 
idAATIgen8

$$$$

     RDKit          2D

  9  9  0  0  0  0  0  0  0  0999 V2000
    5.2500   -1.2990    0.0000 C   0  0  0  0  0  0  0  0  0  0  0  0
    3.7500   -1.2990    0.0000 O   0  0  0  0  0  0  0  0  0  0  0  0
    3.0000    0.0000    0.0000 C   0  0  0  0  0  0  0  0  0  0  0  0
    1.5000    0.0000    0.0000 C   0  0  0  0  0  0  0  0  0  0  0  0
    0.7500   -1.2990    0.0000 C   0  0  0  0  0  0  0  0  0  0  0  0
   -0.7500   -1.2990    0.0000 C   0  0  0  0  0  0  0  0  0  0  0  0
   -1.5000    0.0000    0.0000 C   0  0  0  0  0  0  0  0  0  0  0  0
   -0.7500    1.2990    0.0000 C   0  0  0  0  0  0  0  0  0  0  0  0
    0.7500    1.2990    0.0000 C   0  0  0  0  0  0  0  0  0  0  0  0
  1  2  1  0
  2  3  1  0
  3  4  1  0
  4  5  2  0
  5  6  1  0
  6  7  1  0
  7  8  1  0
  8  9  2  0
  9  4  1  0
M  END
>  <Title>  (554) 
idAATJgen8

$$$$

     RDKit          2D

  7  6  0  0  0  0  0  0  0  0999 V2000
    0.0000    0.0000    0.0000 C   0  0  0  0  0  0  0  0  0  0  0  0
    1.2990    0.7500    0.0000 C   0  0  0  0  0  0  0  0  0  0  0  0
    2.5981    1.5000    0.0000 C   0  0  0  0  0  0  0  0  0  0  0  0
    3.8971    2.2500    0.0000 C   0  0  0  0  0  0  0  0  0  0  0  0
    3.8971    3.7500    0.0000 O   0  0  0  0  0  0  0  0  0  0  0  0
    5.1962    1.5000    0.0000 N   0  0  0  0  0  0  0  0  0  0  0  0
    6.4952    2.2500    0.0000 C   0  0  0  0  0  0  0  0  0  0  0  0
  1  2  1  0
  2  3  3  0
  3  4  1  0
  4  5  2  0
  4  6  1  0
  6  7  1  0
M  END
>  <Title>  (555) 
idAATKgen8

$$$$

     RDKit          2D

  6  6  0  0  0  0  0  0  0  0999 V2000
    2.7760    0.0000    0.0000 O   0  0  0  0  0  0  0  0  0  0  0  0
    1.2760    0.0000    0.0000 C   0  0  0  0  0  0  0  0  0  0  0  0
    0.3943    1.2135    0.0000 C   0  0  0  0  0  0  0  0  0  0  0  0
   -1.0323    0.7500    0.0000 C   0  0  0  0  0  0  0  0  0  0  0  0
   -1.0323   -0.7500    0.0000 C   0  0  0  0  0  0  0  0  0  0  0  0
    0.3943   -1.2135    0.0000 C   0  0  0  0  0  0  0  0  0  0  0  0
  1  2  1  0
  2  3  2  0
  3  4  1  0
  4  5  2  0
  5  6  1  0
  6  2  1  0
M  END
>  <Title>  (556) 
idAATLgen8

$$$$

     RDKit          2D

 16 16  0  0  0  0  0  0  0  0999 V2000
    1.2760    5.1962    0.0000 C   0  0  0  0  0  0  0  0  0  0  0  0
    2.0260    3.8971    0.0000 C   0  0  0  0  0  0  0  0  0  0  0  0
    2.7760    2.5981    0.0000 C   0  0  0  0  0  0  0  0  0  0  0  0
    3.5260    1.2990    0.0000 C   0  0  0  0  0  0  0  0  0  0  0  0
    5.0260    1.2990    0.0000 C   0  0  0  0  0  0  0  0  0  0  0  0
    2.7760    0.0000    0.0000 C   0  0  0  0  0  0  0  0  0  0  0  0
    3.5260   -1.2990    0.0000 O   0  0  0  0  0  0  0  0  0  0  0  0
    1.2760    0.0000    0.0000 N   0  0  0  0  0  0  0  0  0  0  0  0
    0.3943    1.2135    0.0000 C   0  0  0  0  0  0  0  0  0  0  0  0
   -1.0323    0.7500    0.0000 C   0  0  0  0  0  0  0  0  0  0  0  0
   -1.0323   -0.7500    0.0000 C   0  0  0  0  0  0  0  0  0  0  0  0
   -2.2458   -1.6317    0.0000 C   0  0  0  0  0  0  0  0  0  0  0  0
   -2.0890   -3.1235    0.0000 O   0  0  0  0  0  0  0  0  0  0  0  0
   -3.6161   -1.0216    0.0000 O   0  0  0  0  0  0  0  0  0  0  0  0
    0.3943   -1.2135    0.0000 C   0  0  0  0  0  0  0  0  0  0  0  0
    0.8578   -2.6401    0.0000 O   0  0  0  0  0  0  0  0  0  0  0  0
  1  2  1  0
  2  3  3  0
  3  4  1  0
  4  5  1  0
  4  6  1  0
  6  7  2  0
  6  8  1  0
  8  9  1  0
  9 10  1  0
 10 11  1  0
 11 12  1  0
 12 13  2  0
 12 14  1  0
 11 15  1  0
 15 16  2  0
 15  8  1  0
M  END
>  <Title>  (557) 
idAATMgen8

$$$$

     RDKit          2D

113113  0  0  0  0  0  0  0  0999 V2000
   28.2415    0.0000    0.0000 C   0  0  0  0  0  0  0  0  0  0  0  0
   26.7415    0.0000    0.0000 C   0  0  0  0  0  0  0  0  0  0  0  0
   26.6995   -1.4994    0.0000 C   0  0  0  0  0  0  0  0  0  0  0  0
   26.5734   -2.9941    0.0000 C   0  0  0  0  0  0  0  0  0  0  0  0
   26.3637   -4.4794    0.0000 C   0  0  0  0  0  0  0  0  0  0  0  0
   26.0711   -5.9506    0.0000 C   0  0  0  0  0  0  0  0  0  0  0  0
   25.6964   -7.4030    0.0000 C   0  0  0  0  0  0  0  0  0  0  0  0
   25.2409   -8.8322    0.0000 C   0  0  0  0  0  0  0  0  0  0  0  0
   24.7060  -10.2335    0.0000 C   0  0  0  0  0  0  0  0  0  0  0  0
   24.0933  -11.6027    0.0000 C   0  0  0  0  0  0  0  0  0  0  0  0
   23.4048  -12.9354    0.0000 C   0  0  0  0  0  0  0  0  0  0  0  0
   22.6427  -14.2274    0.0000 C   0  0  0  0  0  0  0  0  0  0  0  0
   21.8094  -15.4746    0.0000 C   0  0  0  0  0  0  0  0  0  0  0  0
   20.9074  -16.6731    0.0000 C   0  0  0  0  0  0  0  0  0  0  0  0
   19.9396  -17.8191    0.0000 C   0  0  0  0  0  0  0  0  0  0  0  0
   18.9091  -18.9091    0.0000 C   0  0  0  0  0  0  0  0  0  0  0  0
   17.8191  -19.9396    0.0000 C   0  0  0  0  0  0  0  0  0  0  0  0
   16.6731  -20.9074    0.0000 C   0  0  0  0  0  0  0  0  0  0  0  0
   15.4746  -21.8094    0.0000 C   0  0  0  0  0  0  0  0  0  0  0  0
   14.2274  -22.6427    0.0000 C   0  0  0  0  0  0  0  0  0  0  0  0
   12.9354  -23.4048    0.0000 C   0  0  0  0  0  0  0  0  0  0  0  0
   11.6027  -24.0933    0.0000 C   0  0  0  0  0  0  0  0  0  0  0  0
   10.2335  -24.7060    0.0000 C   0  0  0  0  0  0  0  0  0  0  0  0
    8.8322  -25.2409    0.0000 C   0  0  0  0  0  0  0  0  0  0  0  0
    7.4030  -25.6964    0.0000 C   0  0  0  0  0  0  0  0  0  0  0  0
    5.9506  -26.0711    0.0000 C   0  0  0  0  0  0  0  0  0  0  0  0
    4.4794  -26.3637    0.0000 C   0  0  0  0  0  0  0  0  0  0  0  0
    2.9941  -26.5734    0.0000 C   0  0  0  0  0  0  0  0  0  0  0  0
    1.4994  -26.6995    0.0000 C   0  0  0  0  0  0  0  0  0  0  0  0
   -0.0000  -26.7415    0.0000 C   0  0  0  0  0  0  0  0  0  0  0  0
   -1.4994  -26.6995    0.0000 C   0  0  0  0  0  0  0  0  0  0  0  0
   -2.9941  -26.5734    0.0000 C   0  0  0  0  0  0  0  0  0  0  0  0
   -4.4794  -26.3637    0.0000 C   0  0  0  0  0  0  0  0  0  0  0  0
   -5.9506  -26.0711    0.0000 C   0  0  0  0  0  0  0  0  0  0  0  0
   -7.4030  -25.6964    0.0000 C   0  0  0  0  0  0  0  0  0  0  0  0
   -8.8322  -25.2409    0.0000 C   0  0  0  0  0  0  0  0  0  0  0  0
  -10.2335  -24.7060    0.0000 C   0  0  0  0  0  0  0  0  0  0  0  0
  -11.6027  -24.0933    0.0000 C   0  0  0  0  0  0  0  0  0  0  0  0
  -12.9354  -23.4048    0.0000 C   0  0  0  0  0  0  0  0  0  0  0  0
  -14.2274  -22.6427    0.0000 C   0  0  0  0  0  0  0  0  0  0  0  0
  -15.4746  -21.8094    0.0000 C   0  0  0  0  0  0  0  0  0  0  0  0
  -16.6731  -20.9074    0.0000 C   0  0  0  0  0  0  0  0  0  0  0  0
  -17.8191  -19.9396    0.0000 C   0  0  0  0  0  0  0  0  0  0  0  0
  -18.9091  -18.9091    0.0000 C   0  0  0  0  0  0  0  0  0  0  0  0
  -19.9396  -17.8191    0.0000 C   0  0  0  0  0  0  0  0  0  0  0  0
  -20.9074  -16.6731    0.0000 C   0  0  0  0  0  0  0  0  0  0  0  0
  -21.8094  -15.4746    0.0000 C   0  0  0  0  0  0  0  0  0  0  0  0
  -22.6427  -14.2274    0.0000 C   0  0  0  0  0  0  0  0  0  0  0  0
  -23.4048  -12.9354    0.0000 C   0  0  0  0  0  0  0  0  0  0  0  0
  -24.0933  -11.6027    0.0000 C   0  0  0  0  0  0  0  0  0  0  0  0
  -24.7060  -10.2335    0.0000 C   0  0  0  0  0  0  0  0  0  0  0  0
  -25.2409   -8.8322    0.0000 C   0  0  0  0  0  0  0  0  0  0  0  0
  -25.6964   -7.4030    0.0000 C   0  0  0  0  0  0  0  0  0  0  0  0
  -26.0711   -5.9506    0.0000 C   0  0  0  0  0  0  0  0  0  0  0  0
  -26.3637   -4.4794    0.0000 C   0  0  0  0  0  0  0  0  0  0  0  0
  -26.5734   -2.9941    0.0000 C   0  0  0  0  0  0  0  0  0  0  0  0
  -26.6995   -1.4994    0.0000 C   0  0  0  0  0  0  0  0  0  0  0  0
  -26.7415    0.0000    0.0000 C   0  0  0  0  0  0  0  0  0  0  0  0
  -26.6995    1.4994    0.0000 C   0  0  0  0  0  0  0  0  0  0  0  0
  -26.5734    2.9941    0.0000 C   0  0  0  0  0  0  0  0  0  0  0  0
  -26.3637    4.4794    0.0000 C   0  0  0  0  0  0  0  0  0  0  0  0
  -26.0711    5.9506    0.0000 C   0  0  0  0  0  0  0  0  0  0  0  0
  -25.6964    7.4030    0.0000 C   0  0  0  0  0  0  0  0  0  0  0  0
  -25.2409    8.8322    0.0000 C   0  0  0  0  0  0  0  0  0  0  0  0
  -24.7060   10.2335    0.0000 C   0  0  0  0  0  0  0  0  0  0  0  0
  -24.0933   11.6027    0.0000 C   0  0  0  0  0  0  0  0  0  0  0  0
  -23.4048   12.9354    0.0000 C   0  0  0  0  0  0  0  0  0  0  0  0
  -22.6427   14.2274    0.0000 C   0  0  0  0  0  0  0  0  0  0  0  0
  -21.8094   15.4746    0.0000 C   0  0  0  0  0  0  0  0  0  0  0  0
  -20.9074   16.6731    0.0000 C   0  0  0  0  0  0  0  0  0  0  0  0
  -19.9396   17.8191    0.0000 C   0  0  0  0  0  0  0  0  0  0  0  0
  -18.9091   18.9091    0.0000 C   0  0  0  0  0  0  0  0  0  0  0  0
  -17.8191   19.9396    0.0000 C   0  0  0  0  0  0  0  0  0  0  0  0
  -16.6731   20.9074    0.0000 C   0  0  0  0  0  0  0  0  0  0  0  0
  -15.4746   21.8094    0.0000 C   0  0  0  0  0  0  0  0  0  0  0  0
  -14.2274   22.6427    0.0000 C   0  0  0  0  0  0  0  0  0  0  0  0
  -12.9354   23.4048    0.0000 C   0  0  0  0  0  0  0  0  0  0  0  0
  -11.6027   24.0933    0.0000 C   0  0  0  0  0  0  0  0  0  0  0  0
  -10.2335   24.7060    0.0000 C   0  0  0  0  0  0  0  0  0  0  0  0
   -8.8322   25.2409    0.0000 C   0  0  0  0  0  0  0  0  0  0  0  0
   -7.4030   25.6964    0.0000 C   0  0  0  0  0  0  0  0  0  0  0  0
   -5.9506   26.0711    0.0000 C   0  0  0  0  0  0  0  0  0  0  0  0
   -4.4794   26.3637    0.0000 C   0  0  0  0  0  0  0  0  0  0  0  0
   -2.9941   26.5734    0.0000 C   0  0  0  0  0  0  0  0  0  0  0  0
   -1.4994   26.6995    0.0000 C   0  0  0  0  0  0  0  0  0  0  0  0
    0.0000   26.7415    0.0000 C   0  0  0  0  0  0  0  0  0  0  0  0
    1.4994   26.6995    0.0000 C   0  0  0  0  0  0  0  0  0  0  0  0
    2.9941   26.5734    0.0000 C   0  0  0  0  0  0  0  0  0  0  0  0
    4.4794   26.3637    0.0000 C   0  0  0  0  0  0  0  0  0  0  0  0
    5.9506   26.0711    0.0000 C   0  0  0  0  0  0  0  0  0  0  0  0
    7.4030   25.6964    0.0000 C   0  0  0  0  0  0  0  0  0  0  0  0
    8.8322   25.2409    0.0000 C   0  0  0  0  0  0  0  0  0  0  0  0
   10.2335   24.7060    0.0000 C   0  0  0  0  0  0  0  0  0  0  0  0
   11.6027   24.0933    0.0000 C   0  0  0  0  0  0  0  0  0  0  0  0
   12.9354   23.4048    0.0000 C   0  0  0  0  0  0  0  0  0  0  0  0
   14.2274   22.6427    0.0000 C   0  0  0  0  0  0  0  0  0  0  0  0
   15.4746   21.8094    0.0000 C   0  0  0  0  0  0  0  0  0  0  0  0
   16.6731   20.9074    0.0000 C   0  0  0  0  0  0  0  0  0  0  0  0
   17.8191   19.9396    0.0000 C   0  0  0  0  0  0  0  0  0  0  0  0
   18.9091   18.9091    0.0000 C   0  0  0  0  0  0  0  0  0  0  0  0
   19.9396   17.8191    0.0000 C   0  0  0  0  0  0  0  0  0  0  0  0
   20.9074   16.6731    0.0000 C   0  0  0  0  0  0  0  0  0  0  0  0
   21.8094   15.4746    0.0000 C   0  0  0  0  0  0  0  0  0  0  0  0
   22.6427   14.2274    0.0000 C   0  0  0  0  0  0  0  0  0  0  0  0
   23.4048   12.9354    0.0000 C   0  0  0  0  0  0  0  0  0  0  0  0
   24.0933   11.6027    0.0000 C   0  0  0  0  0  0  0  0  0  0  0  0
   24.7060   10.2335    0.0000 C   0  0  0  0  0  0  0  0  0  0  0  0
   25.2409    8.8322    0.0000 C   0  0  0  0  0  0  0  0  0  0  0  0
   25.6964    7.4030    0.0000 C   0  0  0  0  0  0  0  0  0  0  0  0
   26.0711    5.9506    0.0000 C   0  0  0  0  0  0  0  0  0  0  0  0
   26.3637    4.4794    0.0000 C   0  0  0  0  0  0  0  0  0  0  0  0
   26.5734    2.9941    0.0000 C   0  0  0  0  0  0  0  0  0  0  0  0
   26.6995    1.4994    0.0000 C   0  0  0  0  0  0  0  0  0  0  0  0
  1  2  1  0
  2  3  1  0
  3  4  2  0
  4  5  1  0
  5  6  2  0
  6  7  1  0
  7  8  2  0
  8  9  1  0
  9 10  2  0
 10 11  1  0
 11 12  1  0
 12 13  1  0
 13 14  1  0
 14 15  1  0
 15 16  1  0
 16 17  1  0
 17 18  1  0
 18 19  1  0
 19 20  1  0
 20 21  1  0
 21 22  1  0
 22 23  1  0
 23 24  1  0
 24 25  1  0
 25 26  1  0
 26 27  1  0
 27 28  1  0
 28 29  1  0
 29 30  1  0
 30 31  1  0
 31 32  1  0
 32 33  1  0
 33 34  1  0
 34 35  1  0
 35 36  1  0
 36 37  1  0
 37 38  1  0
 38 39  1  0
 39 40  1  0
 40 41  1  0
 41 42  1  0
 42 43  1  0
 43 44  1  0
 44 45  1  0
 45 46  1  0
 46 47  1  0
 47 48  1  0
 48 49  1  0
 49 50  1  0
 50 51  1  0
 51 52  1  0
 52 53  1  0
 53 54  1  0
 54 55  1  0
 55 56  1  0
 56 57  1  0
 57 58  1  0
 58 59  1  0
 59 60  1  0
 60 61  1  0
 61 62  1  0
 62 63  1  0
 63 64  1  0
 64 65  1  0
 65 66  1  0
 66 67  1  0
 67 68  1  0
 68 69  1  0
 69 70  1  0
 70 71  1  0
 71 72  1  0
 72 73  1  0
 73 74  1  0
 74 75  1  0
 75 76  1  0
 76 77  1  0
 77 78  1  0
 78 79  1  0
 79 80  1  0
 80 81  1  0
 81 82  1  0
 82 83  1  0
 83 84  1  0
 84 85  1  0
 85 86  1  0
 86 87  1  0
 87 88  1  0
 88 89  1  0
 89 90  1  0
 90 91  1  0
 91 92  1  0
 92 93  1  0
 93 94  1  0
 94 95  1  0
 95 96  1  0
 96 97  1  0
 97 98  1  0
 98 99  1  0
 99100  1  0
100101  1  0
101102  1  0
102103  1  0
103104  1  0
104105  1  0
105106  1  0
106107  1  0
107108  1  0
108109  1  0
109110  1  0
110111  1  0
111112  1  0
112113  1  0
113  2  1  0
M  END
>  <Title>  (558) 
idAATNgen8

$$$$

     RDKit          2D

 86 86  0  0  0  0  0  0  0  0999 V2000
   21.7969    0.0000    0.0000 C   0  0  0  0  0  0  0  0  0  0  0  0
   20.2969    0.0000    0.0000 C   0  0  0  0  0  0  0  0  0  0  0  0
   20.2414    1.4990    0.0000 C   0  0  0  0  0  0  0  0  0  0  0  0
   20.0755    2.9898    0.0000 C   0  0  0  0  0  0  0  0  0  0  0  0
   19.7998    4.4642    0.0000 C   0  0  0  0  0  0  0  0  0  0  0  0
   19.4161    5.9143    0.0000 C   0  0  0  0  0  0  0  0  0  0  0  0
   18.9263    7.3321    0.0000 C   0  0  0  0  0  0  0  0  0  0  0  0
   18.3331    8.7098    0.0000 C   0  0  0  0  0  0  0  0  0  0  0  0
   17.6398   10.0400    0.0000 C   0  0  0  0  0  0  0  0  0  0  0  0
   16.8501   11.3153    0.0000 C   0  0  0  0  0  0  0  0  0  0  0  0
   15.9685   12.5288    0.0000 C   0  0  0  0  0  0  0  0  0  0  0  0
   14.9996   13.6739    0.0000 C   0  0  0  0  0  0  0  0  0  0  0  0
   13.9488   14.7443    0.0000 C   0  0  0  0  0  0  0  0  0  0  0  0
   12.8218   15.7342    0.0000 C   0  0  0  0  0  0  0  0  0  0  0  0
   11.6247   16.6382    0.0000 C   0  0  0  0  0  0  0  0  0  0  0  0
   10.3642   17.4513    0.0000 C   0  0  0  0  0  0  0  0  0  0  0  0
    9.0471   18.1690    0.0000 C   0  0  0  0  0  0  0  0  0  0  0  0
    7.6806   18.7876    0.0000 C   0  0  0  0  0  0  0  0  0  0  0  0
    6.2721   19.3035    0.0000 C   0  0  0  0  0  0  0  0  0  0  0  0
    4.8293   19.7140    0.0000 C   0  0  0  0  0  0  0  0  0  0  0  0
    3.3602   20.0168    0.0000 C   0  0  0  0  0  0  0  0  0  0  0  0
    1.8728   20.2103    0.0000 C   0  0  0  0  0  0  0  0  0  0  0  0
    0.3751   20.2934    0.0000 C   0  0  0  0  0  0  0  0  0  0  0  0
   -1.1247   20.2657    0.0000 C   0  0  0  0  0  0  0  0  0  0  0  0
   -2.6183   20.1273    0.0000 C   0  0  0  0  0  0  0  0  0  0  0  0
   -4.0976   19.8790    0.0000 C   0  0  0  0  0  0  0  0  0  0  0  0
   -5.5545   19.5221    0.0000 C   0  0  0  0  0  0  0  0  0  0  0  0
   -6.9811   19.0585    0.0000 C   0  0  0  0  0  0  0  0  0  0  0  0
   -8.3695   18.4909    0.0000 C   0  0  0  0  0  0  0  0  0  0  0  0
   -9.7123   17.8223    0.0000 C   0  0  0  0  0  0  0  0  0  0  0  0
  -11.0020   17.0564    0.0000 C   0  0  0  0  0  0  0  0  0  0  0  0
  -12.2316   16.1973    0.0000 C   0  0  0  0  0  0  0  0  0  0  0  0
  -13.3944   15.2497    0.0000 C   0  0  0  0  0  0  0  0  0  0  0  0
  -14.4841   14.2188    0.0000 C   0  0  0  0  0  0  0  0  0  0  0  0
  -15.4946   13.1103    0.0000 C   0  0  0  0  0  0  0  0  0  0  0  0
  -16.4205   11.9302    0.0000 C   0  0  0  0  0  0  0  0  0  0  0  0
  -17.2568   10.6849    0.0000 C   0  0  0  0  0  0  0  0  0  0  0  0
  -17.9987    9.3813    0.0000 C   0  0  0  0  0  0  0  0  0  0  0  0
  -18.6424    8.0264    0.0000 C   0  0  0  0  0  0  0  0  0  0  0  0
  -19.1843    6.6277    0.0000 C   0  0  0  0  0  0  0  0  0  0  0  0
  -19.6214    5.1928    0.0000 C   0  0  0  0  0  0  0  0  0  0  0  0
  -19.9513    3.7295    0.0000 C   0  0  0  0  0  0  0  0  0  0  0  0
  -20.1722    2.2459    0.0000 C   0  0  0  0  0  0  0  0  0  0  0  0
  -20.2830    0.7500    0.0000 C   0  0  0  0  0  0  0  0  0  0  0  0
  -20.2830   -0.7500    0.0000 C   0  0  0  0  0  0  0  0  0  0  0  0
  -20.1722   -2.2459    0.0000 C   0  0  0  0  0  0  0  0  0  0  0  0
  -19.9513   -3.7295    0.0000 C   0  0  0  0  0  0  0  0  0  0  0  0
  -19.6214   -5.1928    0.0000 C   0  0  0  0  0  0  0  0  0  0  0  0
  -19.1843   -6.6277    0.0000 C   0  0  0  0  0  0  0  0  0  0  0  0
  -18.6424   -8.0264    0.0000 C   0  0  0  0  0  0  0  0  0  0  0  0
  -17.9987   -9.3813    0.0000 C   0  0  0  0  0  0  0  0  0  0  0  0
  -17.2568  -10.6849    0.0000 C   0  0  0  0  0  0  0  0  0  0  0  0
  -16.4205  -11.9302    0.0000 C   0  0  0  0  0  0  0  0  0  0  0  0
  -15.4946  -13.1103    0.0000 C   0  0  0  0  0  0  0  0  0  0  0  0
  -14.4841  -14.2188    0.0000 C   0  0  0  0  0  0  0  0  0  0  0  0
  -13.3944  -15.2497    0.0000 C   0  0  0  0  0  0  0  0  0  0  0  0
  -12.2316  -16.1973    0.0000 C   0  0  0  0  0  0  0  0  0  0  0  0
  -11.0020  -17.0564    0.0000 C   0  0  0  0  0  0  0  0  0  0  0  0
   -9.7123  -17.8223    0.0000 C   0  0  0  0  0  0  0  0  0  0  0  0
   -8.3695  -18.4909    0.0000 C   0  0  0  0  0  0  0  0  0  0  0  0
   -6.9811  -19.0585    0.0000 C   0  0  0  0  0  0  0  0  0  0  0  0
   -5.5545  -19.5221    0.0000 C   0  0  0  0  0  0  0  0  0  0  0  0
   -4.0976  -19.8790    0.0000 C   0  0  0  0  0  0  0  0  0  0  0  0
   -2.6183  -20.1273    0.0000 C   0  0  0  0  0  0  0  0  0  0  0  0
   -1.1247  -20.2657    0.0000 C   0  0  0  0  0  0  0  0  0  0  0  0
    0.3751  -20.2934    0.0000 C   0  0  0  0  0  0  0  0  0  0  0  0
    1.8728  -20.2103    0.0000 C   0  0  0  0  0  0  0  0  0  0  0  0
    3.3602  -20.0168    0.0000 C   0  0  0  0  0  0  0  0  0  0  0  0
    4.8293  -19.7140    0.0000 C   0  0  0  0  0  0  0  0  0  0  0  0
    6.2721  -19.3035    0.0000 C   0  0  0  0  0  0  0  0  0  0  0  0
    7.6806  -18.7876    0.0000 C   0  0  0  0  0  0  0  0  0  0  0  0
    9.0471  -18.1690    0.0000 C   0  0  0  0  0  0  0  0  0  0  0  0
   10.3642  -17.4513    0.0000 C   0  0  0  0  0  0  0  0  0  0  0  0
   11.6247  -16.6382    0.0000 C   0  0  0  0  0  0  0  0  0  0  0  0
   12.8218  -15.7342    0.0000 C   0  0  0  0  0  0  0  0  0  0  0  0
   13.9488  -14.7443    0.0000 C   0  0  0  0  0  0  0  0  0  0  0  0
   14.9996  -13.6739    0.0000 C   0  0  0  0  0  0  0  0  0  0  0  0
   15.9685  -12.5288    0.0000 C   0  0  0  0  0  0  0  0  0  0  0  0
   16.8501  -11.3153    0.0000 C   0  0  0  0  0  0  0  0  0  0  0  0
   17.6398  -10.0400    0.0000 C   0  0  0  0  0  0  0  0  0  0  0  0
   18.3331   -8.7098    0.0000 C   0  0  0  0  0  0  0  0  0  0  0  0
   18.9263   -7.3321    0.0000 C   0  0  0  0  0  0  0  0  0  0  0  0
   19.4161   -5.9143    0.0000 C   0  0  0  0  0  0  0  0  0  0  0  0
   19.7998   -4.4642    0.0000 C   0  0  0  0  0  0  0  0  0  0  0  0
   20.0755   -2.9898    0.0000 C   0  0  0  0  0  0  0  0  0  0  0  0
   20.2414   -1.4990    0.0000 C   0  0  0  0  0  0  0  0  0  0  0  0
  1  2  1  0
  2  3  1  0
  3  4  1  0
  4  5  1  0
  5  6  1  0
  6  7  1  0
  7  8  1  0
  8  9  1  0
  9 10  1  0
 10 11  1  0
 11 12  1  0
 12 13  1  0
 13 14  1  0
 14 15  1  0
 15 16  1  0
 16 17  1  0
 17 18  1  0
 18 19  1  0
 19 20  1  0
 20 21  1  0
 21 22  1  0
 22 23  1  0
 23 24  1  0
 24 25  1  0
 25 26  1  0
 26 27  1  0
 27 28  1  0
 28 29  1  0
 29 30  1  0
 30 31  1  0
 31 32  1  0
 32 33  1  0
 33 34  1  0
 34 35  1  0
 35 36  1  0
 36 37  1  0
 37 38  1  0
 38 39  1  0
 39 40  1  0
 40 41  1  0
 41 42  1  0
 42 43  1  0
 43 44  1  0
 44 45  1  0
 45 46  1  0
 46 47  1  0
 47 48  1  0
 48 49  1  0
 49 50  1  0
 50 51  1  0
 51 52  1  0
 52 53  1  0
 53 54  1  0
 54 55  1  0
 55 56  1  0
 56 57  1  0
 57 58  1  0
 58 59  1  0
 59 60  1  0
 60 61  1  0
 61 62  1  0
 62 63  1  0
 63 64  1  0
 64 65  1  0
 65 66  1  0
 66 67  1  0
 67 68  1  0
 68 69  1  0
 69 70  1  0
 70 71  1  0
 71 72  1  0
 72 73  1  0
 73 74  1  0
 74 75  1  0
 75 76  1  0
 76 77  1  0
 77 78  1  0
 78 79  1  0
 79 80  1  0
 80 81  1  0
 81 82  1  0
 82 83  1  0
 83 84  1  0
 84 85  1  0
 85 86  1  0
 86  2  1  0
M  END
>  <Title>  (559) 
idAATOgen8

$$$$

     RDKit          2D

 11 11  0  0  0  0  0  0  0  0999 V2000
    4.9320   -1.5439    0.0000 C   0  0  0  0  0  0  0  0  0  0  0  0
    3.8173   -0.5402    0.0000 C   0  0  0  0  0  0  0  0  0  0  0  0
    2.3907   -1.0037    0.0000 C   0  0  0  0  0  0  0  0  0  0  0  0
    1.2760    0.0000    0.0000 C   0  0  0  0  0  0  0  0  0  0  0  0
    2.3907    1.0037    0.0000 C   0  0  0  0  0  0  0  0  0  0  0  0
    0.3943    1.2135    0.0000 C   0  0  0  0  0  0  0  0  0  0  0  0
   -1.0323    0.7500    0.0000 C   0  0  0  0  0  0  0  0  0  0  0  0
   -1.0323   -0.7500    0.0000 C   0  0  0  0  0  0  0  0  0  0  0  0
    0.3943   -1.2135    0.0000 C   0  0  0  0  0  0  0  0  0  0  0  0
    0.8578   -2.6401    0.0000 C   0  0  0  0  0  0  0  0  0  0  0  0
    1.3213   -4.0667    0.0000 N   0  0  0  0  0  0  0  0  0  0  0  0
  1  2  1  0
  2  3  1  0
  3  4  1  0
  4  5  1  0
  4  6  1  0
  6  7  1  0
  7  8  1  0
  8  9  1  0
  9 10  1  0
 10 11  3  0
  9  4  1  0
M  END
>  <Title>  (560) 
idAATPgen8

$$$$

     RDKit          2D

  7  7  0  0  0  0  0  0  0  0999 V2000
    3.0000    0.0000    0.0000 C   0  0  0  0  0  0  0  0  0  0  0  0
    1.5000    0.0000    0.0000 C   0  0  0  0  0  0  0  0  0  0  0  0
    0.7500   -1.2990    0.0000 C   0  0  0  0  0  0  0  0  0  0  0  0
   -0.7500   -1.2990    0.0000 C   0  0  0  0  0  0  0  0  0  0  0  0
   -1.5000    0.0000    0.0000 C   0  0  0  0  0  0  0  0  0  0  0  0
   -0.7500    1.2990    0.0000 C   0  0  0  0  0  0  0  0  0  0  0  0
    0.7500    1.2990    0.0000 C   0  0  0  0  0  0  0  0  0  0  0  0
  1  2  1  0
  2  3  1  0
  3  4  2  0
  4  5  1  0
  5  6  1  0
  6  7  1  0
  7  2  1  0
M  END
>  <Title>  (561) 
idAATQgen8

$$$$

     RDKit          2D

 10  9  0  0  0  0  0  0  0  0999 V2000
    0.0000    0.0000    0.0000 C   0  0  0  0  0  0  0  0  0  0  0  0
    1.2990    0.7500    0.0000 C   0  0  0  0  0  0  0  0  0  0  0  0
    2.5981    1.5000    0.0000 C   0  0  0  0  0  0  0  0  0  0  0  0
    3.8971    2.2500    0.0000 C   0  0  0  0  0  0  0  0  0  0  0  0
    5.1962    1.5000    0.0000 C   0  0  0  0  0  0  0  0  0  0  0  0
    6.4952    2.2500    0.0000 C   0  0  0  0  0  0  0  0  0  0  0  0
    5.1962   -0.0000    0.0000 C   0  0  0  0  0  0  0  0  0  0  0  0
    3.8971   -0.7500    0.0000 O   0  0  0  0  0  0  0  0  0  0  0  0
    6.4952   -0.7500    0.0000 C   0  0  0  0  0  0  0  0  0  0  0  0
    6.4952   -2.2500    0.0000 C   0  0  0  0  0  0  0  0  0  0  0  0
  1  2  1  0
  2  3  3  0
  3  4  1  0
  4  5  2  3
  5  6  1  0
  5  7  1  0
  7  8  2  0
  7  9  1  0
  9 10  1  0
M  END
>  <Title>  (562) 
idAATRgen8

$$$$

     RDKit          2D

 11 11  0  0  0  0  0  0  0  0999 V2000
    3.2286   -0.0000    0.0000 C   0  0  0  0  0  0  0  0  0  0  0  0
    1.7286    0.0000    0.0000 C   0  0  0  0  0  0  0  0  0  0  0  0
    1.0777    1.3515    0.0000 C   0  0  0  0  0  0  0  0  0  0  0  0
   -0.3846    1.6852    0.0000 C   0  0  0  0  0  0  0  0  0  0  0  0
   -1.5574    0.7500    0.0000 C   0  0  0  0  0  0  0  0  0  0  0  0
   -1.5574   -0.7500    0.0000 C   0  0  0  0  0  0  0  0  0  0  0  0
   -2.9088   -1.4008    0.0000 C   0  0  0  0  0  0  0  0  0  0  0  0
   -4.1482   -0.5558    0.0000 N   0  0  0  0  0  0  0  0  0  0  0  0
   -3.0209   -2.8966    0.0000 O   0  0  0  0  0  0  0  0  0  0  0  0
   -0.3846   -1.6852    0.0000 C   0  0  0  0  0  0  0  0  0  0  0  0
    1.0777   -1.3515    0.0000 C   0  0  0  0  0  0  0  0  0  0  0  0
  1  2  1  0
  2  3  2  0
  3  4  1  0
  4  5  1  0
  5  6  1  0
  6  7  1  0
  7  8  1  0
  7  9  2  0
  6 10  1  0
 10 11  1  0
 11  2  1  0
M  END
>  <Title>  (563) 
idAATSgen8

$$$$

     RDKit          2D

 67 77  0  0  0  0  0  0  0  0999 V2000
    5.6570   -3.0089    0.0000 C   0  0  0  0  0  0  0  0  0  0  0  0
    4.3580   -3.7589    0.0000 C   0  0  0  0  0  0  0  0  0  0  0  0
    3.4227   -2.5862    0.0000 C   0  0  0  0  0  0  0  0  0  0  0  0
    2.1834   -1.7412    0.0000 C   0  0  0  0  0  0  0  0  0  0  0  0
    2.8342   -0.3897    0.0000 C   0  0  0  0  0  0  0  0  0  0  0  0
    1.9892    0.8496    0.0000 O   0  0  0  0  0  0  0  0  0  0  0  0
    4.3300   -0.2776    0.0000 N   0  0  0  0  0  0  0  0  0  0  0  0
    4.9808    1.0738    0.0000 C   0  0  0  0  0  0  0  0  0  0  0  0
    6.4766    1.1859    0.0000 N   0  0  0  0  0  0  0  0  0  0  0  0
    7.1274    2.5374    0.0000 N   0  0  0  0  0  0  0  0  0  0  0  0
    6.2825    3.7767    0.0000 N   0  0  0  0  0  0  0  0  0  0  0  0
    4.7867    3.6646    0.0000 N   0  0  0  0  0  0  0  0  0  0  0  0
    4.1358    2.3132    0.0000 N   0  0  0  0  0  0  0  0  0  0  0  0
    0.7500   -1.2990    0.0000 C   0  0  0  0  0  0  0  0  0  0  0  0
    1.5000    0.0000    0.0000 C   0  0  0  0  0  0  0  0  0  0  0  0
    0.7500    1.2990    0.0000 C   0  0  0  0  0  0  0  0  0  0  0  0
   -0.7500    1.2990    0.0000 C   0  0  0  0  0  0  0  0  0  0  0  0
   -1.5000    0.0000    0.0000 C   0  0  0  0  0  0  0  0  0  0  0  0
   -0.7500   -1.2990    0.0000 C   0  0  0  0  0  0  0  0  0  0  0  0
   -2.1834   -1.7412    0.0000 C   0  0  0  0  0  0  0  0  0  0  0  0
   -2.2955   -0.2454    0.0000 C   0  0  0  0  0  0  0  0  0  0  0  0
   -3.6469    0.4055    0.0000 C   0  0  0  0  0  0  0  0  0  0  0  0
   -4.8863   -0.4395    0.0000 C   0  0  0  0  0  0  0  0  0  0  0  0
   -4.7742   -1.9353    0.0000 C   0  0  0  0  0  0  0  0  0  0  0  0
   -3.4227   -2.5862    0.0000 C   0  0  0  0  0  0  0  0  0  0  0  0
   -4.3580   -3.7589    0.0000 C   0  0  0  0  0  0  0  0  0  0  0  0
   -5.2932   -2.5862    0.0000 C   0  0  0  0  0  0  0  0  0  0  0  0
   -6.7764   -2.8097    0.0000 C   0  0  0  0  0  0  0  0  0  0  0  0
   -7.3244   -4.2060    0.0000 C   0  0  0  0  0  0  0  0  0  0  0  0
   -6.3892   -5.3788    0.0000 C   0  0  0  0  0  0  0  0  0  0  0  0
   -4.9060   -5.1552    0.0000 C   0  0  0  0  0  0  0  0  0  0  0  0
   -5.0181   -6.6510    0.0000 C   0  0  0  0  0  0  0  0  0  0  0  0
   -6.4514   -6.2089    0.0000 C   0  0  0  0  0  0  0  0  0  0  0  0
   -7.5510   -7.2291    0.0000 C   0  0  0  0  0  0  0  0  0  0  0  0
   -7.2172   -8.6915    0.0000 C   0  0  0  0  0  0  0  0  0  0  0  0
   -5.7839   -9.1337    0.0000 C   0  0  0  0  0  0  0  0  0  0  0  0
   -4.6843   -8.1134    0.0000 C   0  0  0  0  0  0  0  0  0  0  0  0
   -3.9343   -9.4124    0.0000 C   0  0  0  0  0  0  0  0  0  0  0  0
   -5.3676   -9.8546    0.0000 C   0  0  0  0  0  0  0  0  0  0  0  0
   -5.7014  -11.3170    0.0000 C   0  0  0  0  0  0  0  0  0  0  0  0
   -4.6018  -12.3372    0.0000 C   0  0  0  0  0  0  0  0  0  0  0  0
   -3.1685  -11.8951    0.0000 C   0  0  0  0  0  0  0  0  0  0  0  0
   -2.8347  -10.4327    0.0000 C   0  0  0  0  0  0  0  0  0  0  0  0
   -1.4832  -11.0835    0.0000 C   0  0  0  0  0  0  0  0  0  0  0  0
   -2.4185  -12.2563    0.0000 C   0  0  0  0  0  0  0  0  0  0  0  0
   -1.8705  -13.6526    0.0000 C   0  0  0  0  0  0  0  0  0  0  0  0
   -0.3872  -13.8762    0.0000 C   0  0  0  0  0  0  0  0  0  0  0  0
    0.5480  -12.7034    0.0000 C   0  0  0  0  0  0  0  0  0  0  0  0
   -0.0000  -11.3071    0.0000 C   0  0  0  0  0  0  0  0  0  0  0  0
    1.4832  -11.0835    0.0000 C   0  0  0  0  0  0  0  0  0  0  0  0
    1.3712  -12.5793    0.0000 C   0  0  0  0  0  0  0  0  0  0  0  0
    2.6105  -13.4243    0.0000 C   0  0  0  0  0  0  0  0  0  0  0  0
    3.9620  -12.7735    0.0000 C   0  0  0  0  0  0  0  0  0  0  0  0
    4.0741  -11.2777    0.0000 C   0  0  0  0  0  0  0  0  0  0  0  0
    2.8347  -10.4327    0.0000 C   0  0  0  0  0  0  0  0  0  0  0  0
    3.9343   -9.4124    0.0000 C   0  0  0  0  0  0  0  0  0  0  0  0
    4.6843  -10.7115    0.0000 C   0  0  0  0  0  0  0  0  0  0  0  0
    6.1843  -10.7115    0.0000 C   0  0  0  0  0  0  0  0  0  0  0  0
    6.9343   -9.4124    0.0000 C   0  0  0  0  0  0  0  0  0  0  0  0
    6.1843   -8.1134    0.0000 C   0  0  0  0  0  0  0  0  0  0  0  0
    4.6843   -8.1134    0.0000 C   0  0  0  0  0  0  0  0  0  0  0  0
    5.0181   -6.6510    0.0000 C   0  0  0  0  0  0  0  0  0  0  0  0
    6.3695   -7.3018    0.0000 C   0  0  0  0  0  0  0  0  0  0  0  0
    7.6089   -6.4569    0.0000 C   0  0  0  0  0  0  0  0  0  0  0  0
    7.4968   -4.9611    0.0000 C   0  0  0  0  0  0  0  0  0  0  0  0
    6.1453   -4.3102    0.0000 C   0  0  0  0  0  0  0  0  0  0  0  0
    4.9060   -5.1552    0.0000 C   0  0  0  0  0  0  0  0  0  0  0  0
  1  2  1  0
  2  3  2  0
  3  4  1  0
  4  5  1  0
  5  6  2  0
  5  7  1  0
  7  8  1  0
  8  9  2  0
  9 10  1  0
 10 11  2  0
 11 12  1  0
 12 13  2  0
  4 14  1  0
 14 15  2  0
 15 16  1  0
 16 17  2  0
 17 18  1  0
 18 19  2  0
 19 20  1  0
 20 21  2  0
 21 22  1  0
 22 23  2  0
 23 24  1  0
 24 25  2  0
 25 26  1  0
 26 27  2  0
 27 28  1  0
 28 29  2  0
 29 30  1  0
 30 31  2  0
 31 32  1  0
 32 33  2  0
 33 34  1  0
 34 35  2  0
 35 36  1  0
 36 37  2  0
 37 38  1  0
 38 39  2  0
 39 40  1  0
 40 41  2  0
 41 42  1  0
 42 43  2  0
 43 44  1  0
 44 45  2  0
 45 46  1  0
 46 47  2  0
 47 48  1  0
 48 49  2  0
 49 50  1  0
 50 51  2  0
 51 52  1  0
 52 53  2  0
 53 54  1  0
 54 55  2  0
 55 56  1  0
 56 57  2  0
 57 58  1  0
 58 59  2  0
 59 60  1  0
 60 61  2  0
 61 62  1  0
 62 63  2  0
 63 64  1  0
 64 65  2  0
 65 66  1  0
 66 67  2  0
 67  2  1  0
 13  8  1  0
 19 14  1  0
 25 20  1  0
 31 26  1  0
 37 32  1  0
 43 38  1  0
 49 44  1  0
 55 50  1  0
 61 56  1  0
 67 62  1  0
M  END
>  <Title>  (564) 
idAATTgen8

$$$$

     RDKit          2D

 43 48  0  0  0  0  0  0  0  0999 V2000
    4.6115   -9.3925    0.0000 C   0  0  0  0  0  0  0  0  0  0  0  0
    3.1443   -9.0806    0.0000 C   0  0  0  0  0  0  0  0  0  0  0  0
    2.1406  -10.1953    0.0000 C   0  0  0  0  0  0  0  0  0  0  0  0
    2.6041  -11.6219    0.0000 C   0  0  0  0  0  0  0  0  0  0  0  0
    1.6004  -12.7366    0.0000 C   0  0  0  0  0  0  0  0  0  0  0  0
    2.0639  -14.1632    0.0000 C   0  0  0  0  0  0  0  0  0  0  0  0
    3.5312  -14.4751    0.0000 C   0  0  0  0  0  0  0  0  0  0  0  0
    4.5348  -13.3604    0.0000 C   0  0  0  0  0  0  0  0  0  0  0  0
    4.0713  -11.9338    0.0000 C   0  0  0  0  0  0  0  0  0  0  0  0
    2.6807   -7.6540    0.0000 N   0  0  0  0  0  0  0  0  0  0  0  0
    1.2135   -7.3421    0.0000 C   0  0  0  0  0  0  0  0  0  0  0  0
    0.2098   -8.4569    0.0000 O   0  0  0  0  0  0  0  0  0  0  0  0
    0.7500   -5.9156    0.0000 C   0  0  0  0  0  0  0  0  0  0  0  0
    1.9635   -5.0339    0.0000 C   0  0  0  0  0  0  0  0  0  0  0  0
    2.4271   -3.6073    0.0000 C   0  0  0  0  0  0  0  0  0  0  0  0
    1.9635   -2.1807    0.0000 C   0  0  0  0  0  0  0  0  0  0  0  0
    3.1771   -1.2990    0.0000 C   0  0  0  0  0  0  0  0  0  0  0  0
    3.0203    0.1927    0.0000 O   0  0  0  0  0  0  0  0  0  0  0  0
    4.5474   -1.9091    0.0000 N   0  0  0  0  0  0  0  0  0  0  0  0
    5.7609   -1.0275    0.0000 C   0  0  0  0  0  0  0  0  0  0  0  0
    7.1312   -1.6376    0.0000 N   0  0  0  0  0  0  0  0  0  0  0  0
    8.3447   -0.7559    0.0000 N   0  0  0  0  0  0  0  0  0  0  0  0
    8.1879    0.7359    0.0000 N   0  0  0  0  0  0  0  0  0  0  0  0
    6.8176    1.3460    0.0000 N   0  0  0  0  0  0  0  0  0  0  0  0
    5.6041    0.4643    0.0000 N   0  0  0  0  0  0  0  0  0  0  0  0
    0.7500   -1.2990    0.0000 C   0  0  0  0  0  0  0  0  0  0  0  0
    1.5000    0.0000    0.0000 C   0  0  0  0  0  0  0  0  0  0  0  0
    0.7500    1.2990    0.0000 C   0  0  0  0  0  0  0  0  0  0  0  0
   -0.7500    1.2990    0.0000 C   0  0  0  0  0  0  0  0  0  0  0  0
   -1.5000    0.0000    0.0000 C   0  0  0  0  0  0  0  0  0  0  0  0
   -0.7500   -1.2990    0.0000 C   0  0  0  0  0  0  0  0  0  0  0  0
   -1.9635   -2.1807    0.0000 C   0  0  0  0  0  0  0  0  0  0  0  0
   -2.9672   -1.0660    0.0000 C   0  0  0  0  0  0  0  0  0  0  0  0
   -4.4344   -1.3779    0.0000 C   0  0  0  0  0  0  0  0  0  0  0  0
   -4.8980   -2.8045    0.0000 C   0  0  0  0  0  0  0  0  0  0  0  0
   -3.8943   -3.9192    0.0000 C   0  0  0  0  0  0  0  0  0  0  0  0
   -2.4271   -3.6073    0.0000 C   0  0  0  0  0  0  0  0  0  0  0  0
   -1.9635   -5.0339    0.0000 C   0  0  0  0  0  0  0  0  0  0  0  0
   -3.3338   -5.6440    0.0000 C   0  0  0  0  0  0  0  0  0  0  0  0
   -3.4906   -7.1358    0.0000 C   0  0  0  0  0  0  0  0  0  0  0  0
   -2.2771   -8.0175    0.0000 C   0  0  0  0  0  0  0  0  0  0  0  0
   -0.9068   -7.4073    0.0000 C   0  0  0  0  0  0  0  0  0  0  0  0
   -0.7500   -5.9156    0.0000 C   0  0  0  0  0  0  0  0  0  0  0  0
  1  2  1  0
  2  3  1  0
  3  4  1  0
  4  5  2  0
  5  6  1  0
  6  7  2  0
  7  8  1  0
  8  9  2  0
  2 10  1  0
 10 11  1  0
 11 12  2  0
 11 13  1  0
 13 14  1  0
 14 15  1  0
 15 16  1  0
 16 17  1  0
 17 18  2  0
 17 19  1  0
 19 20  1  0
 20 21  2  0
 21 22  1  0
 22 23  2  0
 23 24  1  0
 24 25  2  0
 16 26  1  0
 26 27  2  0
 27 28  1  0
 28 29  2  0
 29 30  1  0
 30 31  2  0
 31 32  1  0
 32 33  2  0
 33 34  1  0
 34 35  2  0
 35 36  1  0
 36 37  2  0
 37 38  1  0
 38 39  2  0
 39 40  1  0
 40 41  2  0
 41 42  1  0
 42 43  2  0
  9  4  1  0
 43 13  1  0
 25 20  1  0
 31 26  1  0
 37 32  1  0
 43 38  1  0
M  END
>  <Title>  (565) 
idAATUgen8

$$$$

     RDKit          2D

 18 18  0  0  0  0  0  0  0  0999 V2000
   19.5000    0.0000    0.0000 C   0  0  0  0  0  0  0  0  0  0  0  0
   18.0000    0.0000    0.0000 C   0  0  0  0  0  0  0  0  0  0  0  0
   16.5000    0.0000    0.0000 C   0  0  0  0  0  0  0  0  0  0  0  0
   15.0000    0.0000    0.0000 C   0  0  0  0  0  0  0  0  0  0  0  0
   13.5000    0.0000    0.0000 C   0  0  0  0  0  0  0  0  0  0  0  0
   12.0000    0.0000    0.0000 C   0  0  0  0  0  0  0  0  0  0  0  0
   10.5000    0.0000    0.0000 C   0  0  0  0  0  0  0  0  0  0  0  0
    9.0000    0.0000    0.0000 C   0  0  0  0  0  0  0  0  0  0  0  0
    7.5000    0.0000    0.0000 C   0  0  0  0  0  0  0  0  0  0  0  0
    6.0000    0.0000    0.0000 C   0  0  0  0  0  0  0  0  0  0  0  0
    4.5000    0.0000    0.0000 C   0  0  0  0  0  0  0  0  0  0  0  0
    3.0000    0.0000    0.0000 C   0  0  0  0  0  0  0  0  0  0  0  0
    1.5000    0.0000    0.0000 C   0  0  0  0  0  0  0  0  0  0  0  0
    0.7500   -1.2990    0.0000 C   0  0  0  0  0  0  0  0  0  0  0  0
   -0.7500   -1.2990    0.0000 C   0  0  0  0  0  0  0  0  0  0  0  0
   -1.5000    0.0000    0.0000 C   0  0  0  0  0  0  0  0  0  0  0  0
   -0.7500    1.2990    0.0000 C   0  0  0  0  0  0  0  0  0  0  0  0
    0.7500    1.2990    0.0000 C   0  0  0  0  0  0  0  0  0  0  0  0
  1  2  3  0
  2  3  1  0
  3  4  3  0
  4  5  1  0
  5  6  3  0
  6  7  1  0
  7  8  3  0
  8  9  1  0
  9 10  3  0
 10 11  1  0
 11 12  3  0
 12 13  1  0
 13 14  1  0
 14 15  2  0
 15 16  1  0
 16 17  2  0
 17 18  1  0
 18 13  1  0
M  END
>  <Title>  (566) 
idAATVgen8

$$$$

     RDKit          2D

  8  8  0  0  0  0  0  0  0  0999 V2000
    3.0000    0.0000    0.0000 C   0  0  0  0  0  0  0  0  0  0  0  0
    1.5000    0.0000    0.0000 C   0  0  0  0  0  0  0  0  0  0  0  0
    0.7500   -1.2990    0.0000 C   0  0  0  0  0  0  0  0  0  0  0  0
   -0.7500   -1.2990    0.0000 C   0  0  0  0  0  0  0  0  0  0  0  0
   -1.5000    0.0000    0.0000 C   0  0  0  0  0  0  0  0  0  0  0  0
   -3.0000    0.0000    0.0000 F   0  0  0  0  0  0  0  0  0  0  0  0
   -0.7500    1.2990    0.0000 C   0  0  0  0  0  0  0  0  0  0  0  0
    0.7500    1.2990    0.0000 C   0  0  0  0  0  0  0  0  0  0  0  0
  1  2  1  0
  2  3  2  0
  3  4  1  0
  4  5  2  0
  5  6  1  0
  5  7  1  0
  7  8  2  0
  8  2  1  0
M  END
>  <Title>  (567) 
idAATWgen8

$$$$

     RDKit          2D

 82 82  0  0  0  0  0  0  0  0999 V2000
   20.6035    0.0000    0.0000 C   0  0  0  0  0  0  0  0  0  0  0  0
   19.1035    0.0000    0.0000 C   0  0  0  0  0  0  0  0  0  0  0  0
   19.0446   -1.4988    0.0000 C   0  0  0  0  0  0  0  0  0  0  0  0
   18.8683   -2.9884    0.0000 C   0  0  0  0  0  0  0  0  0  0  0  0
   18.5757   -4.4596    0.0000 C   0  0  0  0  0  0  0  0  0  0  0  0
   18.1685   -5.9033    0.0000 C   0  0  0  0  0  0  0  0  0  0  0  0
   17.6493   -7.3106    0.0000 C   0  0  0  0  0  0  0  0  0  0  0  0
   17.0213   -8.6728    0.0000 C   0  0  0  0  0  0  0  0  0  0  0  0
   16.2884   -9.9816    0.0000 C   0  0  0  0  0  0  0  0  0  0  0  0
   15.4551  -11.2288    0.0000 C   0  0  0  0  0  0  0  0  0  0  0  0
   14.5264  -12.4067    0.0000 C   0  0  0  0  0  0  0  0  0  0  0  0
   13.5082  -13.5082    0.0000 C   0  0  0  0  0  0  0  0  0  0  0  0
   12.4067  -14.5264    0.0000 C   0  0  0  0  0  0  0  0  0  0  0  0
   11.2288  -15.4551    0.0000 C   0  0  0  0  0  0  0  0  0  0  0  0
    9.9816  -16.2884    0.0000 C   0  0  0  0  0  0  0  0  0  0  0  0
    8.6728  -17.0213    0.0000 C   0  0  0  0  0  0  0  0  0  0  0  0
    7.3106  -17.6493    0.0000 C   0  0  0  0  0  0  0  0  0  0  0  0
    5.9033  -18.1685    0.0000 C   0  0  0  0  0  0  0  0  0  0  0  0
    4.4596  -18.5757    0.0000 C   0  0  0  0  0  0  0  0  0  0  0  0
    2.9884  -18.8683    0.0000 C   0  0  0  0  0  0  0  0  0  0  0  0
    1.4988  -19.0446    0.0000 C   0  0  0  0  0  0  0  0  0  0  0  0
   -0.0000  -19.1035    0.0000 C   0  0  0  0  0  0  0  0  0  0  0  0
   -1.4988  -19.0446    0.0000 C   0  0  0  0  0  0  0  0  0  0  0  0
   -2.9884  -18.8683    0.0000 C   0  0  0  0  0  0  0  0  0  0  0  0
   -4.4596  -18.5757    0.0000 C   0  0  0  0  0  0  0  0  0  0  0  0
   -5.9033  -18.1685    0.0000 C   0  0  0  0  0  0  0  0  0  0  0  0
   -7.3106  -17.6493    0.0000 C   0  0  0  0  0  0  0  0  0  0  0  0
   -8.6728  -17.0213    0.0000 C   0  0  0  0  0  0  0  0  0  0  0  0
   -9.9816  -16.2884    0.0000 C   0  0  0  0  0  0  0  0  0  0  0  0
  -11.2288  -15.4551    0.0000 C   0  0  0  0  0  0  0  0  0  0  0  0
  -12.4067  -14.5264    0.0000 C   0  0  0  0  0  0  0  0  0  0  0  0
  -13.5082  -13.5082    0.0000 C   0  0  0  0  0  0  0  0  0  0  0  0
  -14.5264  -12.4067    0.0000 C   0  0  0  0  0  0  0  0  0  0  0  0
  -15.4551  -11.2288    0.0000 C   0  0  0  0  0  0  0  0  0  0  0  0
  -16.2884   -9.9816    0.0000 C   0  0  0  0  0  0  0  0  0  0  0  0
  -17.0213   -8.6728    0.0000 C   0  0  0  0  0  0  0  0  0  0  0  0
  -17.6493   -7.3106    0.0000 C   0  0  0  0  0  0  0  0  0  0  0  0
  -18.1685   -5.9033    0.0000 C   0  0  0  0  0  0  0  0  0  0  0  0
  -18.5757   -4.4596    0.0000 C   0  0  0  0  0  0  0  0  0  0  0  0
  -18.8683   -2.9884    0.0000 C   0  0  0  0  0  0  0  0  0  0  0  0
  -19.0446   -1.4988    0.0000 C   0  0  0  0  0  0  0  0  0  0  0  0
  -19.1035    0.0000    0.0000 C   0  0  0  0  0  0  0  0  0  0  0  0
  -19.0446    1.4988    0.0000 C   0  0  0  0  0  0  0  0  0  0  0  0
  -18.8683    2.9884    0.0000 C   0  0  0  0  0  0  0  0  0  0  0  0
  -18.5757    4.4596    0.0000 C   0  0  0  0  0  0  0  0  0  0  0  0
  -18.1685    5.9033    0.0000 C   0  0  0  0  0  0  0  0  0  0  0  0
  -17.6493    7.3106    0.0000 C   0  0  0  0  0  0  0  0  0  0  0  0
  -17.0213    8.6728    0.0000 C   0  0  0  0  0  0  0  0  0  0  0  0
  -16.2884    9.9816    0.0000 C   0  0  0  0  0  0  0  0  0  0  0  0
  -15.4551   11.2288    0.0000 C   0  0  0  0  0  0  0  0  0  0  0  0
  -14.5264   12.4067    0.0000 C   0  0  0  0  0  0  0  0  0  0  0  0
  -13.5082   13.5082    0.0000 C   0  0  0  0  0  0  0  0  0  0  0  0
  -12.4067   14.5264    0.0000 C   0  0  0  0  0  0  0  0  0  0  0  0
  -11.2288   15.4551    0.0000 C   0  0  0  0  0  0  0  0  0  0  0  0
   -9.9816   16.2884    0.0000 C   0  0  0  0  0  0  0  0  0  0  0  0
   -8.6728   17.0213    0.0000 C   0  0  0  0  0  0  0  0  0  0  0  0
   -7.3106   17.6493    0.0000 C   0  0  0  0  0  0  0  0  0  0  0  0
   -5.9033   18.1685    0.0000 C   0  0  0  0  0  0  0  0  0  0  0  0
   -4.4596   18.5757    0.0000 C   0  0  0  0  0  0  0  0  0  0  0  0
   -2.9884   18.8683    0.0000 C   0  0  0  0  0  0  0  0  0  0  0  0
   -1.4988   19.0446    0.0000 C   0  0  0  0  0  0  0  0  0  0  0  0
    0.0000   19.1035    0.0000 C   0  0  0  0  0  0  0  0  0  0  0  0
    1.4988   19.0446    0.0000 C   0  0  0  0  0  0  0  0  0  0  0  0
    2.9884   18.8683    0.0000 C   0  0  0  0  0  0  0  0  0  0  0  0
    4.4596   18.5757    0.0000 C   0  0  0  0  0  0  0  0  0  0  0  0
    5.9033   18.1685    0.0000 C   0  0  0  0  0  0  0  0  0  0  0  0
    7.3106   17.6493    0.0000 C   0  0  0  0  0  0  0  0  0  0  0  0
    8.6728   17.0213    0.0000 C   0  0  0  0  0  0  0  0  0  0  0  0
    9.9816   16.2884    0.0000 C   0  0  0  0  0  0  0  0  0  0  0  0
   11.2288   15.4551    0.0000 C   0  0  0  0  0  0  0  0  0  0  0  0
   12.4067   14.5264    0.0000 C   0  0  0  0  0  0  0  0  0  0  0  0
   13.5082   13.5082    0.0000 C   0  0  0  0  0  0  0  0  0  0  0  0
   14.5264   12.4067    0.0000 C   0  0  0  0  0  0  0  0  0  0  0  0
   15.4551   11.2288    0.0000 C   0  0  0  0  0  0  0  0  0  0  0  0
   16.2884    9.9816    0.0000 C   0  0  0  0  0  0  0  0  0  0  0  0
   17.0213    8.6728    0.0000 C   0  0  0  0  0  0  0  0  0  0  0  0
   17.6493    7.3106    0.0000 C   0  0  0  0  0  0  0  0  0  0  0  0
   18.1685    5.9033    0.0000 C   0  0  0  0  0  0  0  0  0  0  0  0
   18.5757    4.4596    0.0000 C   0  0  0  0  0  0  0  0  0  0  0  0
   20.0342    4.8098    0.0000 C   0  0  0  0  0  0  0  0  0  0  0  0
   18.8683    2.9884    0.0000 C   0  0  0  0  0  0  0  0  0  0  0  0
   19.0446    1.4988    0.0000 C   0  0  0  0  0  0  0  0  0  0  0  0
  1  2  1  0
  2  3  1  0
  3  4  1  0
  4  5  1  0
  5  6  1  0
  6  7  1  0
  7  8  1  0
  8  9  1  0
  9 10  1  0
 10 11  1  0
 11 12  1  0
 12 13  1  0
 13 14  1  0
 14 15  1  0
 15 16  1  0
 16 17  1  0
 17 18  1  0
 18 19  1  0
 19 20  1  0
 20 21  1  0
 21 22  1  0
 22 23  1  0
 23 24  1  0
 24 25  1  0
 25 26  1  0
 26 27  1  0
 27 28  1  0
 28 29  1  0
 29 30  1  0
 30 31  1  0
 31 32  1  0
 32 33  1  0
 33 34  1  0
 34 35  1  0
 35 36  1  0
 36 37  1  0
 37 38  1  0
 38 39  1  0
 39 40  1  0
 40 41  1  0
 41 42  1  0
 42 43  1  0
 43 44  1  0
 44 45  1  0
 45 46  1  0
 46 47  1  0
 47 48  1  0
 48 49  1  0
 49 50  1  0
 50 51  1  0
 51 52  1  0
 52 53  1  0
 53 54  1  0
 54 55  1  0
 55 56  1  0
 56 57  1  0
 57 58  1  0
 58 59  1  0
 59 60  1  0
 60 61  1  0
 61 62  1  0
 62 63  1  0
 63 64  1  0
 64 65  1  0
 65 66  1  0
 66 67  1  0
 67 68  1  0
 68 69  1  0
 69 70  1  0
 70 71  1  0
 71 72  1  0
 72 73  1  0
 73 74  1  0
 74 75  1  0
 75 76  1  0
 76 77  1  0
 77 78  1  0
 78 79  1  0
 79 80  1  0
 79 81  1  0
 81 82  1  0
 82  2  1  0
M  END
>  <Title>  (568) 
idAATXgen8

$$$$

     RDKit          2D

 13 13  0  0  0  0  0  0  0  0999 V2000
   13.2760   -0.0000    0.0000 C   0  0  0  0  0  0  0  0  0  0  0  0
   11.7760   -0.0000    0.0000 C   0  0  0  0  0  0  0  0  0  0  0  0
   10.2760   -0.0000    0.0000 C   0  0  0  0  0  0  0  0  0  0  0  0
    8.7760   -0.0000    0.0000 C   0  0  0  0  0  0  0  0  0  0  0  0
    7.2760   -0.0000    0.0000 C   0  0  0  0  0  0  0  0  0  0  0  0
    5.7760   -0.0000    0.0000 C   0  0  0  0  0  0  0  0  0  0  0  0
    4.2760   -0.0000    0.0000 C   0  0  0  0  0  0  0  0  0  0  0  0
    2.7760    0.0000    0.0000 C   0  0  0  0  0  0  0  0  0  0  0  0
    1.2760    0.0000    0.0000 C   0  0  0  0  0  0  0  0  0  0  0  0
    0.3943    1.2135    0.0000 C   0  0  0  0  0  0  0  0  0  0  0  0
   -1.0323    0.7500    0.0000 C   0  0  0  0  0  0  0  0  0  0  0  0
   -1.0323   -0.7500    0.0000 C   0  0  0  0  0  0  0  0  0  0  0  0
    0.3943   -1.2135    0.0000 C   0  0  0  0  0  0  0  0  0  0  0  0
  1  2  3  0
  2  3  1  0
  3  4  3  0
  4  5  1  0
  5  6  3  0
  6  7  1  0
  7  8  3  0
  8  9  1  0
  9 10  2  0
 10 11  1  0
 11 12  1  0
 12 13  2  0
 13  9  1  0
M  END
>  <Title>  (569) 
idAATYgen8

$$$$

     RDKit          2D

 10 10  0  0  0  0  0  0  0  0999 V2000
    5.2500   -1.2990    0.0000 C   0  0  0  0  0  0  0  0  0  0  0  0
    3.7500   -1.2990    0.0000 C   0  0  0  0  0  0  0  0  0  0  0  0
    3.0000    0.0000    0.0000 C   0  0  0  0  0  0  0  0  0  0  0  0
    1.5000    0.0000    0.0000 C   0  0  0  0  0  0  0  0  0  0  0  0
    0.7500   -1.2990    0.0000 C   0  0  0  0  0  0  0  0  0  0  0  0
   -0.7500   -1.2990    0.0000 C   0  0  0  0  0  0  0  0  0  0  0  0
   -1.5000    0.0000    0.0000 C   0  0  0  0  0  0  0  0  0  0  0  0
   -3.0000    0.0000    0.0000 O   0  0  0  0  0  0  0  0  0  0  0  0
   -0.7500    1.2990    0.0000 C   0  0  0  0  0  0  0  0  0  0  0  0
    0.7500    1.2990    0.0000 C   0  0  0  0  0  0  0  0  0  0  0  0
  1  2  1  0
  2  3  1  0
  3  4  1  0
  4  5  2  0
  5  6  1  0
  6  7  1  0
  7  8  1  0
  7  9  1  0
  9 10  1  0
 10  4  1  0
M  END
>  <Title>  (570) 
idAATZgen8

$$$$

     RDKit          2D

 14 15  0  0  0  0  0  0  0  0999 V2000
    3.3107   -8.3323    0.0000 C   0  0  0  0  0  0  0  0  0  0  0  0
    2.5607   -7.0333    0.0000 C   0  0  0  0  0  0  0  0  0  0  0  0
    1.1118   -6.6450    0.0000 C   0  0  0  0  0  0  0  0  0  0  0  0
    1.5000   -5.1962    0.0000 C   0  0  0  0  0  0  0  0  0  0  0  0
    0.7500   -3.8971    0.0000 C   0  0  0  0  0  0  0  0  0  0  0  0
   -0.7500   -3.8971    0.0000 O   0  0  0  0  0  0  0  0  0  0  0  0
    1.5000   -2.5981    0.0000 N   0  0  0  0  0  0  0  0  0  0  0  0
    0.7500   -1.2990    0.0000 C   0  0  0  0  0  0  0  0  0  0  0  0
    1.5000    0.0000    0.0000 N   0  0  0  0  0  0  0  0  0  0  0  0
    0.7500    1.2990    0.0000 N   0  0  0  0  0  0  0  0  0  0  0  0
   -0.7500    1.2990    0.0000 N   0  0  0  0  0  0  0  0  0  0  0  0
   -1.5000    0.0000    0.0000 N   0  0  0  0  0  0  0  0  0  0  0  0
   -0.7500   -1.2990    0.0000 N   0  0  0  0  0  0  0  0  0  0  0  0
    2.9489   -5.5844    0.0000 C   0  0  0  0  0  0  0  0  0  0  0  0
  1  2  1  0
  2  3  2  0
  3  4  1  0
  4  5  1  0
  5  6  2  0
  5  7  1  0
  7  8  1  0
  8  9  2  0
  9 10  1  0
 10 11  2  0
 11 12  1  0
 12 13  2  0
  4 14  2  0
 14  2  1  0
 13  8  1  0
M  END
>  <Title>  (571) 
idAAUAgen8

$$$$

     RDKit          2D

 13 13  0  0  0  0  0  0  0  0999 V2000
    8.2500   -1.2990    0.0000 C   0  0  0  0  0  0  0  0  0  0  0  0
    6.7500   -1.2990    0.0000 C   0  0  0  0  0  0  0  0  0  0  0  0
    5.2500   -1.2990    0.0000 C   0  0  0  0  0  0  0  0  0  0  0  0
    3.7500   -1.2990    0.0000 C   0  0  0  0  0  0  0  0  0  0  0  0
    3.0000   -2.5981    0.0000 O   0  0  0  0  0  0  0  0  0  0  0  0
    3.0000    0.0000    0.0000 N   0  0  0  0  0  0  0  0  0  0  0  0
    1.5000    0.0000    0.0000 C   0  0  0  0  0  0  0  0  0  0  0  0
    0.7500   -1.2990    0.0000 C   0  0  0  0  0  0  0  0  0  0  0  0
   -0.7500   -1.2990    0.0000 C   0  0  0  0  0  0  0  0  0  0  0  0
   -1.5000    0.0000    0.0000 C   0  0  0  0  0  0  0  0  0  0  0  0
   -3.0000    0.0000    0.0000 O   0  0  0  0  0  0  0  0  0  0  0  0
   -0.7500    1.2990    0.0000 C   0  0  0  0  0  0  0  0  0  0  0  0
    0.7500    1.2990    0.0000 C   0  0  0  0  0  0  0  0  0  0  0  0
  1  2  1  0
  2  3  3  0
  3  4  1  0
  4  5  2  0
  4  6  1  0
  6  7  1  0
  7  8  2  0
  8  9  1  0
  9 10  2  0
 10 11  1  0
 10 12  1  0
 12 13  1  0
 13  7  1  0
M  END
>  <Title>  (572) 
idAAUBgen8

$$$$

     RDKit          2D

  7  7  0  0  0  0  0  0  0  0999 V2000
    4.2760   -0.0000    0.0000 N   0  0  0  0  0  0  0  0  0  0  0  0
    2.7760    0.0000    0.0000 C   0  0  0  0  0  0  0  0  0  0  0  0
    1.2760    0.0000    0.0000 C   0  0  0  0  0  0  0  0  0  0  0  0
    0.3943    1.2135    0.0000 C   0  0  0  0  0  0  0  0  0  0  0  0
   -1.0323    0.7500    0.0000 C   0  0  0  0  0  0  0  0  0  0  0  0
   -1.0323   -0.7500    0.0000 C   0  0  0  0  0  0  0  0  0  0  0  0
    0.3943   -1.2135    0.0000 C   0  0  0  0  0  0  0  0  0  0  0  0
  1  2  3  0
  2  3  1  0
  3  4  2  0
  4  5  1  0
  5  6  1  0
  6  7  1  0
  7  3  1  0
M  END
>  <Title>  (573) 
idAAUCgen8

$$$$

     RDKit          2D

  8  7  0  0  0  0  0  0  0  0999 V2000
    0.0000    0.0000    0.0000 C   0  0  0  0  0  0  0  0  0  0  0  0
    1.2990    0.7500    0.0000 C   0  0  0  0  0  0  0  0  0  0  0  0
    2.5981   -0.0000    0.0000 C   0  0  0  0  0  0  0  0  0  0  0  0
    2.5981   -1.5000    0.0000 O   0  0  0  0  0  0  0  0  0  0  0  0
    3.8971    0.7500    0.0000 C   0  0  0  0  0  0  0  0  0  0  0  0
    4.6471   -0.5490    0.0000 C   0  0  0  0  0  0  0  0  0  0  0  0
    3.1471    2.0490    0.0000 C   0  0  0  0  0  0  0  0  0  0  0  0
    5.1962    1.5000    0.0000 C   0  0  0  0  0  0  0  0  0  0  0  0
  1  2  1  0
  2  3  1  0
  3  4  2  0
  3  5  1  0
  5  6  1  0
  5  7  1  0
  5  8  1  0
M  END
>  <Title>  (574) 
idAAUDgen8

$$$$

     RDKit          2D

  9  9  0  0  0  0  0  0  0  0999 V2000
    3.0000    0.0000    0.0000 C   0  0  0  0  0  0  0  0  0  0  0  0
    1.5000    0.0000    0.0000 C   0  0  0  0  0  0  0  0  0  0  0  0
    0.7500   -1.2990    0.0000 C   0  0  0  0  0  0  0  0  0  0  0  0
   -0.7500   -1.2990    0.0000 C   0  0  0  0  0  0  0  0  0  0  0  0
   -1.5000   -2.5981    0.0000 O   0  0  0  0  0  0  0  0  0  0  0  0
   -1.5000    0.0000    0.0000 C   0  0  0  0  0  0  0  0  0  0  0  0
   -3.0000    0.0000    0.0000 C   0  0  0  0  0  0  0  0  0  0  0  0
   -0.7500    1.2990    0.0000 C   0  0  0  0  0  0  0  0  0  0  0  0
    0.7500    1.2990    0.0000 C   0  0  0  0  0  0  0  0  0  0  0  0
  1  2  1  0
  2  3  2  0
  3  4  1  0
  4  5  1  0
  4  6  2  0
  6  7  1  0
  6  8  1  0
  8  9  1  0
  9  2  1  0
M  END
>  <Title>  (575) 
idAAUEgen8

$$$$

     RDKit          2D

 16 15  0  0  0  0  0  0  0  0999 V2000
    0.0000    0.0000    0.0000 C   0  0  0  0  0  0  0  0  0  0  0  0
   -0.0000   -1.5000    0.0000 C   0  0  0  0  0  0  0  0  0  0  0  0
   -0.0000   -3.0000    0.0000 C   0  0  0  0  0  0  0  0  0  0  0  0
   -0.0000   -4.5000    0.0000 C   0  0  0  0  0  0  0  0  0  0  0  0
   -0.0000   -6.0000    0.0000 C   0  0  0  0  0  0  0  0  0  0  0  0
   -0.0000   -7.5000    0.0000 C   0  0  0  0  0  0  0  0  0  0  0  0
   -0.0000   -9.0000    0.0000 C   0  0  0  0  0  0  0  0  0  0  0  0
   -0.0000  -10.5000    0.0000 C   0  0  0  0  0  0  0  0  0  0  0  0
   -0.0000  -12.0000    0.0000 C   0  0  0  0  0  0  0  0  0  0  0  0
   -0.0000  -13.5000    0.0000 C   0  0  0  0  0  0  0  0  0  0  0  0
   -0.0000  -15.0000    0.0000 C   0  0  0  0  0  0  0  0  0  0  0  0
   -0.0000  -16.5000    0.0000 C   0  0  0  0  0  0  0  0  0  0  0  0
   -0.0000  -18.0000    0.0000 C   0  0  0  0  0  0  0  0  0  0  0  0
   -0.0000  -19.5000    0.0000 C   0  0  0  0  0  0  0  0  0  0  0  0
   -0.0000  -21.0000    0.0000 C   0  0  0  0  0  0  0  0  0  0  0  0
   -0.0000  -22.5000    0.0000 N   0  0  0  0  0  0  0  0  0  0  0  0
  1  2  3  0
  2  3  1  0
  3  4  3  0
  4  5  1  0
  5  6  3  0
  6  7  1  0
  7  8  3  0
  8  9  1  0
  9 10  3  0
 10 11  1  0
 11 12  3  0
 12 13  1  0
 13 14  3  0
 14 15  1  0
 15 16  3  0
M  END
>  <Title>  (576) 
idAAUFgen8

$$$$

     RDKit          2D

 13 12  0  0  0  0  0  0  0  0999 V2000
    0.0000    0.0000    0.0000 C   0  0  0  0  0  0  0  0  0  0  0  0
    1.2990    0.7500    0.0000 C   0  0  0  0  0  0  0  0  0  0  0  0
    2.5981    1.5000    0.0000 C   0  0  0  0  0  0  0  0  0  0  0  0
    3.8971    2.2500    0.0000 C   0  0  0  0  0  0  0  0  0  0  0  0
    3.8971    3.7500    0.0000 O   0  0  0  0  0  0  0  0  0  0  0  0
    5.1962    1.5000    0.0000 N   0  0  0  0  0  0  0  0  0  0  0  0
    6.4952    2.2500    0.0000 C   0  0  0  0  0  0  0  0  0  0  0  0
    7.7942    1.5000    0.0000 C   0  0  0  0  0  0  0  0  0  0  0  0
    9.0933    2.2500    0.0000 C   0  0  0  0  0  0  0  0  0  0  0  0
   10.3923    1.5000    0.0000 C   0  0  0  0  0  0  0  0  0  0  0  0
   11.6913    2.2500    0.0000 C   0  0  0  0  0  0  0  0  0  0  0  0
   12.9904    1.5000    0.0000 C   0  0  0  0  0  0  0  0  0  0  0  0
   11.6913    3.7500    0.0000 C   0  0  0  0  0  0  0  0  0  0  0  0
  1  2  1  0
  2  3  3  0
  3  4  1  0
  4  5  2  0
  4  6  1  0
  6  7  1  0
  7  8  1  0
  8  9  1  0
  9 10  1  0
 10 11  1  0
 11 12  1  0
 11 13  1  0
M  END
>  <Title>  (577) 
idAAUGgen8

$$$$

     RDKit          2D

  8  8  0  0  0  0  0  0  0  0999 V2000
    3.0000    0.0000    0.0000 C   0  0  0  0  0  0  0  0  0  0  0  0
    1.5000    0.0000    0.0000 C   0  0  0  0  0  0  0  0  0  0  0  0
    0.7500   -1.2990    0.0000 C   0  0  0  0  0  0  0  0  0  0  0  0
   -0.7500   -1.2990    0.0000 C   0  0  0  0  0  0  0  0  0  0  0  0
   -1.5000    0.0000    0.0000 C   0  0  0  0  0  0  0  0  0  0  0  0
   -3.0000    0.0000    0.0000 O   0  0  0  0  0  0  0  0  0  0  0  0
   -0.7500    1.2990    0.0000 C   0  0  0  0  0  0  0  0  0  0  0  0
    0.7500    1.2990    0.0000 C   0  0  0  0  0  0  0  0  0  0  0  0
  1  2  1  0
  2  3  2  0
  3  4  1  0
  4  5  2  0
  5  6  1  0
  5  7  1  0
  7  8  2  0
  8  2  1  0
M  END
>  <Title>  (578) 
idAAUHgen8

$$$$

     RDKit          2D

 45 51  0  0  0  0  0  0  0  0999 V2000
    4.8484  -10.5656    0.0000 C   0  0  0  0  0  0  0  0  0  0  0  0
    4.4855   -9.1102    0.0000 C   0  0  0  0  0  0  0  0  0  0  0  0
    3.0436   -8.6967    0.0000 C   0  0  0  0  0  0  0  0  0  0  0  0
    2.6807   -7.2413    0.0000 C   0  0  0  0  0  0  0  0  0  0  0  0
    4.1661   -7.4500    0.0000 C   0  0  0  0  0  0  0  0  0  0  0  0
    3.4307   -5.9422    0.0000 C   0  0  0  0  0  0  0  0  0  0  0  0
    4.8573   -6.4058    0.0000 O   0  0  0  0  0  0  0  0  0  0  0  0
    3.5875   -4.4504    0.0000 O   0  0  0  0  0  0  0  0  0  0  0  0
    3.1240   -3.0239    0.0000 C   0  0  0  0  0  0  0  0  0  0  0  0
    4.5912   -2.7120    0.0000 C   0  0  0  0  0  0  0  0  0  0  0  0
    5.0548   -1.2854    0.0000 C   0  0  0  0  0  0  0  0  0  0  0  0
    4.0511   -0.1707    0.0000 C   0  0  0  0  0  0  0  0  0  0  0  0
    4.5146    1.2559    0.0000 Cl  0  0  0  0  0  0  0  0  0  0  0  0
    2.5838   -0.4826    0.0000 C   0  0  0  0  0  0  0  0  0  0  0  0
    2.1203   -1.9091    0.0000 C   0  0  0  0  0  0  0  0  0  0  0  0
    0.7500   -1.2990    0.0000 C   0  0  0  0  0  0  0  0  0  0  0  0
    1.5000    0.0000    0.0000 C   0  0  0  0  0  0  0  0  0  0  0  0
    0.7500    1.2990    0.0000 C   0  0  0  0  0  0  0  0  0  0  0  0
   -0.7500    1.2990    0.0000 C   0  0  0  0  0  0  0  0  0  0  0  0
   -1.5000    0.0000    0.0000 C   0  0  0  0  0  0  0  0  0  0  0  0
   -0.7500   -1.2990    0.0000 C   0  0  0  0  0  0  0  0  0  0  0  0
   -2.1203   -1.9091    0.0000 C   0  0  0  0  0  0  0  0  0  0  0  0
   -2.5838   -0.4826    0.0000 C   0  0  0  0  0  0  0  0  0  0  0  0
   -4.0511   -0.1707    0.0000 C   0  0  0  0  0  0  0  0  0  0  0  0
   -5.0548   -1.2854    0.0000 C   0  0  0  0  0  0  0  0  0  0  0  0
   -4.5912   -2.7120    0.0000 C   0  0  0  0  0  0  0  0  0  0  0  0
   -3.1240   -3.0239    0.0000 C   0  0  0  0  0  0  0  0  0  0  0  0
   -3.5875   -4.4504    0.0000 C   0  0  0  0  0  0  0  0  0  0  0  0
   -4.9579   -3.8403    0.0000 C   0  0  0  0  0  0  0  0  0  0  0  0
   -6.1714   -4.7220    0.0000 C   0  0  0  0  0  0  0  0  0  0  0  0
   -6.0146   -6.2138    0.0000 C   0  0  0  0  0  0  0  0  0  0  0  0
   -4.6443   -6.8239    0.0000 C   0  0  0  0  0  0  0  0  0  0  0  0
   -3.4307   -5.9422    0.0000 C   0  0  0  0  0  0  0  0  0  0  0  0
   -2.6807   -7.2413    0.0000 C   0  0  0  0  0  0  0  0  0  0  0  0
   -4.0511   -7.8514    0.0000 C   0  0  0  0  0  0  0  0  0  0  0  0
   -4.2079   -9.3432    0.0000 C   0  0  0  0  0  0  0  0  0  0  0  0
   -2.9943  -10.2248    0.0000 C   0  0  0  0  0  0  0  0  0  0  0  0
   -1.6240   -9.6147    0.0000 C   0  0  0  0  0  0  0  0  0  0  0  0
   -1.4672   -8.1229    0.0000 C   0  0  0  0  0  0  0  0  0  0  0  0
   -0.0000   -8.4348    0.0000 C   0  0  0  0  0  0  0  0  0  0  0  0
   -0.4635   -9.8614    0.0000 C   0  0  0  0  0  0  0  0  0  0  0  0
    0.5402  -10.9761    0.0000 C   0  0  0  0  0  0  0  0  0  0  0  0
    2.0074  -10.6642    0.0000 C   0  0  0  0  0  0  0  0  0  0  0  0
    2.4709   -9.2377    0.0000 C   0  0  0  0  0  0  0  0  0  0  0  0
    1.4672   -8.1229    0.0000 C   0  0  0  0  0  0  0  0  0  0  0  0
  1  2  1  0
  2  3  1  0
  3  4  1  0
  4  5  1  0
  4  6  1  0
  6  7  2  0
  6  8  1  0
  8  9  1  0
  9 10  2  0
 10 11  1  0
 11 12  2  0
 12 13  1  0
 12 14  1  0
 14 15  2  0
 15 16  1  0
 16 17  2  0
 17 18  1  0
 18 19  2  0
 19 20  1  0
 20 21  2  0
 21 22  1  0
 22 23  2  0
 23 24  1  0
 24 25  2  0
 25 26  1  0
 26 27  2  0
 27 28  1  0
 28 29  2  0
 29 30  1  0
 30 31  2  0
 31 32  1  0
 32 33  2  0
 33 34  1  0
 34 35  2  0
 35 36  1  0
 36 37  2  0
 37 38  1  0
 38 39  2  0
 39 40  1  0
 40 41  2  0
 41 42  1  0
 42 43  2  0
 43 44  1  0
 44 45  2  0
 45  4  1  0
 15  9  1  0
 21 16  1  0
 27 22  1  0
 33 28  1  0
 39 34  1  0
 45 40  1  0
M  END
>  <Title>  (579) 
idAAUIgen8

$$$$

     RDKit          2D

 11 11  0  0  0  0  0  0  0  0999 V2000
   10.2760   -0.0000    0.0000 C   0  0  0  0  0  0  0  0  0  0  0  0
    8.7760   -0.0000    0.0000 C   0  0  0  0  0  0  0  0  0  0  0  0
    7.2760   -0.0000    0.0000 C   0  0  0  0  0  0  0  0  0  0  0  0
    5.7760   -0.0000    0.0000 C   0  0  0  0  0  0  0  0  0  0  0  0
    4.2760   -0.0000    0.0000 C   0  0  0  0  0  0  0  0  0  0  0  0
    2.7760    0.0000    0.0000 C   0  0  0  0  0  0  0  0  0  0  0  0
    1.2760    0.0000    0.0000 C   0  0  0  0  0  0  0  0  0  0  0  0
    0.3943    1.2135    0.0000 C   0  0  0  0  0  0  0  0  0  0  0  0
   -1.0323    0.7500    0.0000 C   0  0  0  0  0  0  0  0  0  0  0  0
   -1.0323   -0.7500    0.0000 C   0  0  0  0  0  0  0  0  0  0  0  0
    0.3943   -1.2135    0.0000 C   0  0  0  0  0  0  0  0  0  0  0  0
  1  2  3  0
  2  3  1  0
  3  4  3  0
  4  5  1  0
  5  6  3  0
  6  7  1  0
  7  8  2  0
  8  9  1  0
  9 10  1  0
 10 11  2  0
 11  7  1  0
M  END
>  <Title>  (580) 
idAAUJgen8

$$$$

     RDKit          2D

  6  5  0  0  0  0  0  0  0  0999 V2000
    0.0000    0.0000    0.0000 C   0  0  0  0  0  0  0  0  0  0  0  0
    1.2990    0.7500    0.0000 C   0  0  0  0  0  0  0  0  0  0  0  0
    2.5981    1.5000    0.0000 C   0  0  0  0  0  0  0  0  0  0  0  0
    3.8971    2.2500    0.0000 C   0  0  0  0  0  0  0  0  0  0  0  0
    3.8971    3.7500    0.0000 O   0  0  0  0  0  0  0  0  0  0  0  0
    5.1962    1.5000    0.0000 O   0  0  0  0  0  0  0  0  0  0  0  0
  1  2  1  0
  2  3  3  0
  3  4  1  0
  4  5  2  0
  4  6  1  0
M  END
>  <Title>  (581) 
idAAUKgen8

$$$$

     RDKit          2D

  7  7  0  0  0  0  0  0  0  0999 V2000
    3.5260   -1.2990    0.0000 C   0  0  0  0  0  0  0  0  0  0  0  0
    2.7760    0.0000    0.0000 O   0  0  0  0  0  0  0  0  0  0  0  0
    1.2760    0.0000    0.0000 C   0  0  0  0  0  0  0  0  0  0  0  0
    0.3943    1.2135    0.0000 C   0  0  0  0  0  0  0  0  0  0  0  0
   -1.0323    0.7500    0.0000 C   0  0  0  0  0  0  0  0  0  0  0  0
   -1.0323   -0.7500    0.0000 C   0  0  0  0  0  0  0  0  0  0  0  0
    0.3943   -1.2135    0.0000 C   0  0  0  0  0  0  0  0  0  0  0  0
  1  2  1  0
  2  3  1  0
  3  4  2  0
  4  5  1  0
  5  6  1  0
  6  7  2  0
  7  3  1  0
M  END
>  <Title>  (582) 
idAAULgen8

$$$$

     RDKit          2D

 53 60  0  0  0  0  0  0  0  0999 V2000
    2.1535   -8.4451    0.0000 C   0  0  0  0  0  0  0  0  0  0  0  0
    1.4564   -7.1169    0.0000 C   0  0  0  0  0  0  0  0  0  0  0  0
    2.5792   -6.1222    0.0000 C   0  0  0  0  0  0  0  0  0  0  0  0
    3.1111   -4.7197    0.0000 C   0  0  0  0  0  0  0  0  0  0  0  0
    2.9303   -3.2306    0.0000 C   0  0  0  0  0  0  0  0  0  0  0  0
    2.0782   -1.9961    0.0000 C   0  0  0  0  0  0  0  0  0  0  0  0
    3.0729   -0.8734    0.0000 C   0  0  0  0  0  0  0  0  0  0  0  0
    2.5979    0.5494    0.0000 O   0  0  0  0  0  0  0  0  0  0  0  0
    4.5426   -1.1734    0.0000 N   0  0  0  0  0  0  0  0  0  0  0  0
    5.5372   -0.0506    0.0000 C   0  0  0  0  0  0  0  0  0  0  0  0
    5.2136    1.4140    0.0000 N   0  0  0  0  0  0  0  0  0  0  0  0
    6.5065    2.1745    0.0000 N   0  0  0  0  0  0  0  0  0  0  0  0
    7.6293    1.1798    0.0000 N   0  0  0  0  0  0  0  0  0  0  0  0
    7.0302   -0.1954    0.0000 N   0  0  0  0  0  0  0  0  0  0  0  0
    7.7907   -1.4884    0.0000 N   0  0  0  0  0  0  0  0  0  0  0  0
    9.2837   -1.6331    0.0000 C   0  0  0  0  0  0  0  0  0  0  0  0
    9.6073   -3.0978    0.0000 C   0  0  0  0  0  0  0  0  0  0  0  0
    8.3144   -3.8582    0.0000 N   0  0  0  0  0  0  0  0  0  0  0  0
    8.1696   -5.3512    0.0000 C   0  0  0  0  0  0  0  0  0  0  0  0
    9.3902   -6.2231    0.0000 O   0  0  0  0  0  0  0  0  0  0  0  0
    6.8043   -5.9723    0.0000 N   0  0  0  0  0  0  0  0  0  0  0  0
    6.6595   -7.4653    0.0000 C   0  0  0  0  0  0  0  0  0  0  0  0
    5.2941   -8.0865    0.0000 N   0  0  0  0  0  0  0  0  0  0  0  0
    5.1494   -9.5795    0.0000 N   0  0  0  0  0  0  0  0  0  0  0  0
    6.3700  -10.4513    0.0000 N   0  0  0  0  0  0  0  0  0  0  0  0
    7.7353   -9.8302    0.0000 N   0  0  0  0  0  0  0  0  0  0  0  0
    7.8801   -8.3372    0.0000 N   0  0  0  0  0  0  0  0  0  0  0  0
    7.1916   -2.8635    0.0000 C   0  0  0  0  0  0  0  0  0  0  0  0
    5.7270   -3.1872    0.0000 O   0  0  0  0  0  0  0  0  0  0  0  0
    0.7500   -1.2990    0.0000 C   0  0  0  0  0  0  0  0  0  0  0  0
    1.5000    0.0000    0.0000 C   0  0  0  0  0  0  0  0  0  0  0  0
    0.7500    1.2990    0.0000 C   0  0  0  0  0  0  0  0  0  0  0  0
   -0.7500    1.2990    0.0000 C   0  0  0  0  0  0  0  0  0  0  0  0
   -1.5000    0.0000    0.0000 C   0  0  0  0  0  0  0  0  0  0  0  0
   -0.7500   -1.2990    0.0000 C   0  0  0  0  0  0  0  0  0  0  0  0
   -2.0782   -1.9961    0.0000 C   0  0  0  0  0  0  0  0  0  0  0  0
   -2.7212   -0.6409    0.0000 C   0  0  0  0  0  0  0  0  0  0  0  0
   -4.2164   -0.5202    0.0000 C   0  0  0  0  0  0  0  0  0  0  0  0
   -5.0685   -1.7547    0.0000 C   0  0  0  0  0  0  0  0  0  0  0  0
   -4.4254   -3.1099    0.0000 C   0  0  0  0  0  0  0  0  0  0  0  0
   -2.9303   -3.2306    0.0000 C   0  0  0  0  0  0  0  0  0  0  0  0
   -3.1111   -4.7197    0.0000 C   0  0  0  0  0  0  0  0  0  0  0  0
   -4.5917   -4.4790    0.0000 C   0  0  0  0  0  0  0  0  0  0  0  0
   -5.5403   -5.6410    0.0000 C   0  0  0  0  0  0  0  0  0  0  0  0
   -5.0084   -7.0435    0.0000 C   0  0  0  0  0  0  0  0  0  0  0  0
   -3.5278   -7.2841    0.0000 C   0  0  0  0  0  0  0  0  0  0  0  0
   -2.5792   -6.1222    0.0000 C   0  0  0  0  0  0  0  0  0  0  0  0
   -1.4564   -7.1169    0.0000 C   0  0  0  0  0  0  0  0  0  0  0  0
   -2.4955   -8.1987    0.0000 C   0  0  0  0  0  0  0  0  0  0  0  0
   -2.0782   -9.6395    0.0000 C   0  0  0  0  0  0  0  0  0  0  0  0
   -0.6218   -9.9984    0.0000 C   0  0  0  0  0  0  0  0  0  0  0  0
    0.4173   -8.9166    0.0000 C   0  0  0  0  0  0  0  0  0  0  0  0
   -0.0000   -7.4758    0.0000 C   0  0  0  0  0  0  0  0  0  0  0  0
  1  2  1  0
  2  3  1  0
  3  4  2  0
  4  5  1  0
  5  6  1  0
  6  7  1  0
  7  8  2  0
  7  9  1  0
  9 10  1  0
 10 11  2  0
 11 12  1  0
 12 13  2  0
 13 14  1  0
 14 15  1  0
 15 16  1  0
 16 17  1  0
 17 18  1  0
 18 19  1  0
 19 20  2  0
 19 21  1  0
 21 22  1  0
 22 23  2  0
 23 24  1  0
 24 25  2  0
 25 26  1  0
 26 27  2  0
 18 28  1  0
 28 29  2  0
  6 30  1  0
 30 31  2  0
 31 32  1  0
 32 33  2  0
 33 34  1  0
 34 35  2  0
 35 36  1  0
 36 37  2  0
 37 38  1  0
 38 39  2  0
 39 40  1  0
 40 41  2  0
 41 42  1  0
 42 43  2  0
 43 44  1  0
 44 45  2  0
 45 46  1  0
 46 47  2  0
 47 48  1  0
 48 49  2  0
 49 50  1  0
 50 51  2  0
 51 52  1  0
 52 53  2  0
 53  2  1  0
 14 10  1  0
 28 15  1  0
 35 30  1  0
 41 36  1  0
 47 42  1  0
 53 48  1  0
 27 22  1  0
M  END
>  <Title>  (583) 
idAAUMgen8

$$$$

     RDKit          2D

105106  0  0  0  0  0  0  0  0999 V2000
   25.6159   -0.0000    0.0000 C   0  0  0  0  0  0  0  0  0  0  0  0
   24.1159    0.0000    0.0000 C   0  0  0  0  0  0  0  0  0  0  0  0
   24.0692    1.4993    0.0000 C   0  0  0  0  0  0  0  0  0  0  0  0
   23.9294    2.9927    0.0000 C   0  0  0  0  0  0  0  0  0  0  0  0
   23.6971    4.4746    0.0000 C   0  0  0  0  0  0  0  0  0  0  0  0
   23.3731    5.9392    0.0000 C   0  0  0  0  0  0  0  0  0  0  0  0
   22.9586    7.3808    0.0000 C   0  0  0  0  0  0  0  0  0  0  0  0
   22.4553    8.7939    0.0000 C   0  0  0  0  0  0  0  0  0  0  0  0
   21.8652   10.1729    0.0000 C   0  0  0  0  0  0  0  0  0  0  0  0
   21.1904   11.5126    0.0000 C   0  0  0  0  0  0  0  0  0  0  0  0
   20.4337   12.8077    0.0000 C   0  0  0  0  0  0  0  0  0  0  0  0
   19.5979   14.0533    0.0000 C   0  0  0  0  0  0  0  0  0  0  0  0
   18.6863   15.2445    0.0000 C   0  0  0  0  0  0  0  0  0  0  0  0
   17.7025   16.3767    0.0000 C   0  0  0  0  0  0  0  0  0  0  0  0
   16.6501   17.4456    0.0000 C   0  0  0  0  0  0  0  0  0  0  0  0
   15.5333   18.4470    0.0000 C   0  0  0  0  0  0  0  0  0  0  0  0
   14.3564   19.3770    0.0000 C   0  0  0  0  0  0  0  0  0  0  0  0
   13.1240   20.2321    0.0000 C   0  0  0  0  0  0  0  0  0  0  0  0
   11.8407   21.0088    0.0000 C   0  0  0  0  0  0  0  0  0  0  0  0
   10.5117   21.7043    0.0000 C   0  0  0  0  0  0  0  0  0  0  0  0
    9.1420   22.3159    0.0000 C   0  0  0  0  0  0  0  0  0  0  0  0
    7.7370   22.8411    0.0000 C   0  0  0  0  0  0  0  0  0  0  0  0
    6.3020   23.2779    0.0000 C   0  0  0  0  0  0  0  0  0  0  0  0
    4.8426   23.6246    0.0000 C   0  0  0  0  0  0  0  0  0  0  0  0
    3.3645   23.8800    0.0000 C   0  0  0  0  0  0  0  0  0  0  0  0
    1.8734   24.0430    0.0000 C   0  0  0  0  0  0  0  0  0  0  0  0
    0.3750   24.1129    0.0000 C   0  0  0  0  0  0  0  0  0  0  0  0
   -1.1248   24.0896    0.0000 C   0  0  0  0  0  0  0  0  0  0  0  0
   -2.6202   23.9731    0.0000 C   0  0  0  0  0  0  0  0  0  0  0  0
   -4.1056   23.7638    0.0000 C   0  0  0  0  0  0  0  0  0  0  0  0
   -5.5750   23.4626    0.0000 C   0  0  0  0  0  0  0  0  0  0  0  0
   -7.0229   23.0706    0.0000 C   0  0  0  0  0  0  0  0  0  0  0  0
   -8.4436   22.5894    0.0000 C   0  0  0  0  0  0  0  0  0  0  0  0
   -9.8316   22.0208    0.0000 C   0  0  0  0  0  0  0  0  0  0  0  0
  -11.1816   21.3669    0.0000 C   0  0  0  0  0  0  0  0  0  0  0  0
  -12.4884   20.6304    0.0000 C   0  0  0  0  0  0  0  0  0  0  0  0
  -13.7468   19.8141    0.0000 C   0  0  0  0  0  0  0  0  0  0  0  0
  -14.9521   18.9212    0.0000 C   0  0  0  0  0  0  0  0  0  0  0  0
  -16.0995   17.9550    0.0000 C   0  0  0  0  0  0  0  0  0  0  0  0
  -17.1846   16.9194    0.0000 C   0  0  0  0  0  0  0  0  0  0  0  0
  -18.2032   15.8183    0.0000 C   0  0  0  0  0  0  0  0  0  0  0  0
  -19.1514   14.6560    0.0000 C   0  0  0  0  0  0  0  0  0  0  0  0
  -20.0255   13.4370    0.0000 C   0  0  0  0  0  0  0  0  0  0  0  0
  -20.8222   12.1660    0.0000 C   0  0  0  0  0  0  0  0  0  0  0  0
  -21.5382   10.8480    0.0000 C   0  0  0  0  0  0  0  0  0  0  0  0
  -22.1710    9.4880    0.0000 C   0  0  0  0  0  0  0  0  0  0  0  0
  -22.7180    8.0913    0.0000 C   0  0  0  0  0  0  0  0  0  0  0  0
  -23.1771    6.6633    0.0000 C   0  0  0  0  0  0  0  0  0  0  0  0
  -23.5465    5.2095    0.0000 C   0  0  0  0  0  0  0  0  0  0  0  0
  -23.8248    3.7355    0.0000 C   0  0  0  0  0  0  0  0  0  0  0  0
  -24.0109    2.2471    0.0000 C   0  0  0  0  0  0  0  0  0  0  0  0
  -24.1042    0.7500    0.0000 C   0  0  0  0  0  0  0  0  0  0  0  0
  -24.1042   -0.7500    0.0000 C   0  0  0  0  0  0  0  0  0  0  0  0
  -24.0109   -2.2471    0.0000 C   0  0  0  0  0  0  0  0  0  0  0  0
  -23.8248   -3.7355    0.0000 C   0  0  0  0  0  0  0  0  0  0  0  0
  -23.5465   -5.2095    0.0000 C   0  0  0  0  0  0  0  0  0  0  0  0
  -23.1771   -6.6633    0.0000 C   0  0  0  0  0  0  0  0  0  0  0  0
  -22.7180   -8.0913    0.0000 C   0  0  0  0  0  0  0  0  0  0  0  0
  -22.1710   -9.4880    0.0000 C   0  0  0  0  0  0  0  0  0  0  0  0
  -21.5382  -10.8480    0.0000 C   0  0  0  0  0  0  0  0  0  0  0  0
  -20.8222  -12.1660    0.0000 C   0  0  0  0  0  0  0  0  0  0  0  0
  -20.0255  -13.4370    0.0000 C   0  0  0  0  0  0  0  0  0  0  0  0
  -19.1514  -14.6560    0.0000 C   0  0  0  0  0  0  0  0  0  0  0  0
  -18.2032  -15.8183    0.0000 C   0  0  0  0  0  0  0  0  0  0  0  0
  -17.1846  -16.9194    0.0000 C   0  0  0  0  0  0  0  0  0  0  0  0
  -16.0995  -17.9550    0.0000 C   0  0  0  0  0  0  0  0  0  0  0  0
  -14.9521  -18.9212    0.0000 C   0  0  0  0  0  0  0  0  0  0  0  0
  -13.7468  -19.8141    0.0000 C   0  0  0  0  0  0  0  0  0  0  0  0
  -12.4884  -20.6304    0.0000 C   0  0  0  0  0  0  0  0  0  0  0  0
  -11.1816  -21.3669    0.0000 C   0  0  0  0  0  0  0  0  0  0  0  0
   -9.8316  -22.0208    0.0000 C   0  0  0  0  0  0  0  0  0  0  0  0
   -8.4436  -22.5894    0.0000 C   0  0  0  0  0  0  0  0  0  0  0  0
   -7.0229  -23.0706    0.0000 C   0  0  0  0  0  0  0  0  0  0  0  0
   -5.5750  -23.4626    0.0000 C   0  0  0  0  0  0  0  0  0  0  0  0
   -4.1056  -23.7638    0.0000 C   0  0  0  0  0  0  0  0  0  0  0  0
   -2.6202  -23.9731    0.0000 C   0  0  0  0  0  0  0  0  0  0  0  0
   -1.1248  -24.0896    0.0000 C   0  0  0  0  0  0  0  0  0  0  0  0
    0.3750  -24.1129    0.0000 C   0  0  0  0  0  0  0  0  0  0  0  0
    1.8734  -24.0430    0.0000 C   0  0  0  0  0  0  0  0  0  0  0  0
    3.3645  -23.8800    0.0000 C   0  0  0  0  0  0  0  0  0  0  0  0
    4.8426  -23.6246    0.0000 C   0  0  0  0  0  0  0  0  0  0  0  0
    6.3020  -23.2779    0.0000 C   0  0  0  0  0  0  0  0  0  0  0  0
    7.7370  -22.8411    0.0000 C   0  0  0  0  0  0  0  0  0  0  0  0
    9.1420  -22.3159    0.0000 C   0  0  0  0  0  0  0  0  0  0  0  0
   10.5117  -21.7043    0.0000 C   0  0  0  0  0  0  0  0  0  0  0  0
   11.8407  -21.0088    0.0000 C   0  0  0  0  0  0  0  0  0  0  0  0
   13.1240  -20.2321    0.0000 C   0  0  0  0  0  0  0  0  0  0  0  0
   14.3564  -19.3770    0.0000 C   0  0  0  0  0  0  0  0  0  0  0  0
   15.5333  -18.4470    0.0000 C   0  0  0  0  0  0  0  0  0  0  0  0
   16.6501  -17.4456    0.0000 C   0  0  0  0  0  0  0  0  0  0  0  0
   17.7025  -16.3767    0.0000 C   0  0  0  0  0  0  0  0  0  0  0  0
   18.6863  -15.2445    0.0000 C   0  0  0  0  0  0  0  0  0  0  0  0
   19.5979  -14.0533    0.0000 C   0  0  0  0  0  0  0  0  0  0  0  0
   20.4337  -12.8077    0.0000 C   0  0  0  0  0  0  0  0  0  0  0  0
   21.1904  -11.5126    0.0000 C   0  0  0  0  0  0  0  0  0  0  0  0
   21.8652  -10.1729    0.0000 C   0  0  0  0  0  0  0  0  0  0  0  0
   23.2442  -10.7631    0.0000 C   0  0  0  0  0  0  0  0  0  0  0  0
   23.8020  -12.1555    0.0000 O   0  0  0  0  0  0  0  0  0  0  0  0
   23.8344   -9.3840    0.0000 N   0  0  0  0  0  0  0  0  0  0  0  0
   22.4553   -8.7939    0.0000 C   0  0  0  0  0  0  0  0  0  0  0  0
   22.9586   -7.3808    0.0000 N   0  0  0  0  0  0  0  0  0  0  0  0
   23.3731   -5.9392    0.0000 N   0  0  0  0  0  0  0  0  0  0  0  0
   23.6971   -4.4746    0.0000 N   0  0  0  0  0  0  0  0  0  0  0  0
   23.9294   -2.9927    0.0000 N   0  0  0  0  0  0  0  0  0  0  0  0
   24.0692   -1.4993    0.0000 N   0  0  0  0  0  0  0  0  0  0  0  0
  1  2  1  0
  2  3  1  0
  3  4  1  0
  4  5  1  0
  5  6  1  0
  6  7  1  0
  7  8  1  0
  8  9  1  0
  9 10  1  0
 10 11  1  0
 11 12  1  0
 12 13  1  0
 13 14  1  0
 14 15  1  0
 15 16  1  0
 16 17  1  0
 17 18  1  0
 18 19  1  0
 19 20  1  0
 20 21  1  0
 21 22  1  0
 22 23  1  0
 23 24  1  0
 24 25  1  0
 25 26  1  0
 26 27  1  0
 27 28  1  0
 28 29  1  0
 29 30  1  0
 30 31  1  0
 31 32  1  0
 32 33  1  0
 33 34  1  0
 34 35  1  0
 35 36  1  0
 36 37  1  0
 37 38  1  0
 38 39  1  0
 39 40  1  0
 40 41  1  0
 41 42  1  0
 42 43  1  0
 43 44  1  0
 44 45  1  0
 45 46  1  0
 46 47  1  0
 47 48  1  0
 48 49  1  0
 49 50  1  0
 50 51  1  0
 51 52  1  0
 52 53  1  0
 53 54  1  0
 54 55  1  0
 55 56  1  0
 56 57  1  0
 57 58  1  0
 58 59  1  0
 59 60  1  0
 60 61  1  0
 61 62  1  0
 62 63  1  0
 63 64  1  0
 64 65  1  0
 65 66  1  0
 66 67  1  0
 67 68  1  0
 68 69  1  0
 69 70  1  0
 70 71  1  0
 71 72  1  0
 72 73  1  0
 73 74  1  0
 74 75  1  0
 75 76  1  0
 76 77  1  0
 77 78  1  0
 78 79  1  0
 79 80  1  0
 80 81  1  0
 81 82  1  0
 82 83  1  0
 83 84  2  0
 84 85  1  0
 85 86  2  0
 86 87  1  0
 87 88  2  0
 88 89  1  0
 89 90  2  0
 90 91  1  0
 91 92  2  0
 92 93  1  0
 93 94  2  0
 94 95  1  0
 95 96  2  0
 96 97  1  0
 97 98  2  0
 97 99  1  0
 99100  1  0
100101  2  0
101102  1  0
102103  2  0
103104  1  0
104105  2  0
105  2  1  0
100 96  1  0
M  END
>  <Title>  (584) 
idAAUNgen8

$$$$

     RDKit          2D

123123  0  0  0  0  0  0  0  0999 V2000
   30.6286    0.0000    0.0000 C   0  0  0  0  0  0  0  0  0  0  0  0
   29.1286    0.0000    0.0000 C   0  0  0  0  0  0  0  0  0  0  0  0
   29.0900   -1.4995    0.0000 C   0  0  0  0  0  0  0  0  0  0  0  0
   28.9742   -2.9950    0.0000 C   0  0  0  0  0  0  0  0  0  0  0  0
   28.7816   -4.4826    0.0000 C   0  0  0  0  0  0  0  0  0  0  0  0
   28.5127   -5.9583    0.0000 C   0  0  0  0  0  0  0  0  0  0  0  0
   28.1681   -7.4182    0.0000 C   0  0  0  0  0  0  0  0  0  0  0  0
   27.7489   -8.8584    0.0000 C   0  0  0  0  0  0  0  0  0  0  0  0
   27.2561  -10.2752    0.0000 C   0  0  0  0  0  0  0  0  0  0  0  0
   26.6910  -11.6647    0.0000 C   0  0  0  0  0  0  0  0  0  0  0  0
   26.0551  -13.0232    0.0000 C   0  0  0  0  0  0  0  0  0  0  0  0
   25.3502  -14.3472    0.0000 C   0  0  0  0  0  0  0  0  0  0  0  0
   24.5780  -15.6332    0.0000 C   0  0  0  0  0  0  0  0  0  0  0  0
   23.7406  -16.8777    0.0000 C   0  0  0  0  0  0  0  0  0  0  0  0
   22.8403  -18.0775    0.0000 C   0  0  0  0  0  0  0  0  0  0  0  0
   21.8794  -19.2293    0.0000 C   0  0  0  0  0  0  0  0  0  0  0  0
   20.8605  -20.3301    0.0000 C   0  0  0  0  0  0  0  0  0  0  0  0
   19.7863  -21.3770    0.0000 C   0  0  0  0  0  0  0  0  0  0  0  0
   18.6596  -22.3673    0.0000 C   0  0  0  0  0  0  0  0  0  0  0  0
   17.4834  -23.2982    0.0000 C   0  0  0  0  0  0  0  0  0  0  0  0
   16.2608  -24.1673    0.0000 C   0  0  0  0  0  0  0  0  0  0  0  0
   14.9952  -24.9724    0.0000 C   0  0  0  0  0  0  0  0  0  0  0  0
   13.6898  -25.7112    0.0000 C   0  0  0  0  0  0  0  0  0  0  0  0
   12.3480  -26.3818    0.0000 C   0  0  0  0  0  0  0  0  0  0  0  0
   10.9735  -26.9825    0.0000 C   0  0  0  0  0  0  0  0  0  0  0  0
    9.5700  -27.5116    0.0000 C   0  0  0  0  0  0  0  0  0  0  0  0
    8.1410  -27.9678    0.0000 C   0  0  0  0  0  0  0  0  0  0  0  0
    6.6905  -28.3498    0.0000 C   0  0  0  0  0  0  0  0  0  0  0  0
    5.2222  -28.6566    0.0000 C   0  0  0  0  0  0  0  0  0  0  0  0
    3.7401  -28.8875    0.0000 C   0  0  0  0  0  0  0  0  0  0  0  0
    2.2480  -29.0417    0.0000 C   0  0  0  0  0  0  0  0  0  0  0  0
    0.7500  -29.1189    0.0000 C   0  0  0  0  0  0  0  0  0  0  0  0
   -0.7500  -29.1189    0.0000 C   0  0  0  0  0  0  0  0  0  0  0  0
   -2.2480  -29.0417    0.0000 C   0  0  0  0  0  0  0  0  0  0  0  0
   -3.7401  -28.8875    0.0000 C   0  0  0  0  0  0  0  0  0  0  0  0
   -5.2222  -28.6566    0.0000 C   0  0  0  0  0  0  0  0  0  0  0  0
   -6.6905  -28.3498    0.0000 C   0  0  0  0  0  0  0  0  0  0  0  0
   -8.1410  -27.9678    0.0000 C   0  0  0  0  0  0  0  0  0  0  0  0
   -9.5700  -27.5116    0.0000 C   0  0  0  0  0  0  0  0  0  0  0  0
  -10.9735  -26.9825    0.0000 C   0  0  0  0  0  0  0  0  0  0  0  0
  -12.3480  -26.3818    0.0000 C   0  0  0  0  0  0  0  0  0  0  0  0
  -13.6898  -25.7112    0.0000 C   0  0  0  0  0  0  0  0  0  0  0  0
  -14.9952  -24.9724    0.0000 C   0  0  0  0  0  0  0  0  0  0  0  0
  -16.2608  -24.1673    0.0000 C   0  0  0  0  0  0  0  0  0  0  0  0
  -17.4834  -23.2982    0.0000 C   0  0  0  0  0  0  0  0  0  0  0  0
  -18.6596  -22.3673    0.0000 C   0  0  0  0  0  0  0  0  0  0  0  0
  -19.7863  -21.3770    0.0000 C   0  0  0  0  0  0  0  0  0  0  0  0
  -20.8605  -20.3301    0.0000 C   0  0  0  0  0  0  0  0  0  0  0  0
  -21.8794  -19.2293    0.0000 C   0  0  0  0  0  0  0  0  0  0  0  0
  -22.8403  -18.0775    0.0000 C   0  0  0  0  0  0  0  0  0  0  0  0
  -23.7406  -16.8777    0.0000 C   0  0  0  0  0  0  0  0  0  0  0  0
  -24.5780  -15.6332    0.0000 C   0  0  0  0  0  0  0  0  0  0  0  0
  -25.3502  -14.3472    0.0000 C   0  0  0  0  0  0  0  0  0  0  0  0
  -26.0551  -13.0232    0.0000 C   0  0  0  0  0  0  0  0  0  0  0  0
  -26.6910  -11.6647    0.0000 C   0  0  0  0  0  0  0  0  0  0  0  0
  -27.2561  -10.2752    0.0000 C   0  0  0  0  0  0  0  0  0  0  0  0
  -27.7489   -8.8584    0.0000 C   0  0  0  0  0  0  0  0  0  0  0  0
  -28.1681   -7.4182    0.0000 C   0  0  0  0  0  0  0  0  0  0  0  0
  -28.5127   -5.9583    0.0000 C   0  0  0  0  0  0  0  0  0  0  0  0
  -28.7816   -4.4826    0.0000 C   0  0  0  0  0  0  0  0  0  0  0  0
  -28.9742   -2.9950    0.0000 C   0  0  0  0  0  0  0  0  0  0  0  0
  -29.0900   -1.4995    0.0000 C   0  0  0  0  0  0  0  0  0  0  0  0
  -29.1286    0.0000    0.0000 C   0  0  0  0  0  0  0  0  0  0  0  0
  -29.0900    1.4995    0.0000 C   0  0  0  0  0  0  0  0  0  0  0  0
  -28.9742    2.9950    0.0000 C   0  0  0  0  0  0  0  0  0  0  0  0
  -28.7816    4.4826    0.0000 C   0  0  0  0  0  0  0  0  0  0  0  0
  -28.5127    5.9583    0.0000 C   0  0  0  0  0  0  0  0  0  0  0  0
  -28.1681    7.4182    0.0000 C   0  0  0  0  0  0  0  0  0  0  0  0
  -27.7489    8.8584    0.0000 C   0  0  0  0  0  0  0  0  0  0  0  0
  -27.2561   10.2752    0.0000 C   0  0  0  0  0  0  0  0  0  0  0  0
  -26.6910   11.6647    0.0000 C   0  0  0  0  0  0  0  0  0  0  0  0
  -26.0551   13.0232    0.0000 C   0  0  0  0  0  0  0  0  0  0  0  0
  -25.3502   14.3472    0.0000 C   0  0  0  0  0  0  0  0  0  0  0  0
  -24.5780   15.6332    0.0000 C   0  0  0  0  0  0  0  0  0  0  0  0
  -23.7406   16.8777    0.0000 C   0  0  0  0  0  0  0  0  0  0  0  0
  -22.8403   18.0775    0.0000 C   0  0  0  0  0  0  0  0  0  0  0  0
  -21.8794   19.2293    0.0000 C   0  0  0  0  0  0  0  0  0  0  0  0
  -20.8605   20.3301    0.0000 C   0  0  0  0  0  0  0  0  0  0  0  0
  -19.7863   21.3770    0.0000 C   0  0  0  0  0  0  0  0  0  0  0  0
  -18.6596   22.3673    0.0000 C   0  0  0  0  0  0  0  0  0  0  0  0
  -17.4834   23.2982    0.0000 C   0  0  0  0  0  0  0  0  0  0  0  0
  -16.2608   24.1673    0.0000 C   0  0  0  0  0  0  0  0  0  0  0  0
  -14.9952   24.9724    0.0000 C   0  0  0  0  0  0  0  0  0  0  0  0
  -13.6898   25.7112    0.0000 C   0  0  0  0  0  0  0  0  0  0  0  0
  -12.3480   26.3818    0.0000 C   0  0  0  0  0  0  0  0  0  0  0  0
  -10.9735   26.9825    0.0000 C   0  0  0  0  0  0  0  0  0  0  0  0
   -9.5700   27.5116    0.0000 C   0  0  0  0  0  0  0  0  0  0  0  0
   -8.1410   27.9678    0.0000 C   0  0  0  0  0  0  0  0  0  0  0  0
   -6.6905   28.3498    0.0000 C   0  0  0  0  0  0  0  0  0  0  0  0
   -5.2222   28.6566    0.0000 C   0  0  0  0  0  0  0  0  0  0  0  0
   -3.7401   28.8875    0.0000 C   0  0  0  0  0  0  0  0  0  0  0  0
   -2.2480   29.0417    0.0000 C   0  0  0  0  0  0  0  0  0  0  0  0
   -0.7500   29.1189    0.0000 C   0  0  0  0  0  0  0  0  0  0  0  0
    0.7500   29.1189    0.0000 C   0  0  0  0  0  0  0  0  0  0  0  0
    2.2480   29.0417    0.0000 C   0  0  0  0  0  0  0  0  0  0  0  0
    3.7401   28.8875    0.0000 C   0  0  0  0  0  0  0  0  0  0  0  0
    5.2222   28.6566    0.0000 C   0  0  0  0  0  0  0  0  0  0  0  0
    6.6905   28.3498    0.0000 C   0  0  0  0  0  0  0  0  0  0  0  0
    8.1410   27.9678    0.0000 C   0  0  0  0  0  0  0  0  0  0  0  0
    9.5700   27.5116    0.0000 C   0  0  0  0  0  0  0  0  0  0  0  0
   10.9735   26.9825    0.0000 C   0  0  0  0  0  0  0  0  0  0  0  0
   12.3480   26.3818    0.0000 C   0  0  0  0  0  0  0  0  0  0  0  0
   13.6898   25.7112    0.0000 C   0  0  0  0  0  0  0  0  0  0  0  0
   14.9952   24.9724    0.0000 C   0  0  0  0  0  0  0  0  0  0  0  0
   16.2608   24.1673    0.0000 C   0  0  0  0  0  0  0  0  0  0  0  0
   17.4834   23.2982    0.0000 C   0  0  0  0  0  0  0  0  0  0  0  0
   18.6596   22.3673    0.0000 C   0  0  0  0  0  0  0  0  0  0  0  0
   19.7863   21.3770    0.0000 C   0  0  0  0  0  0  0  0  0  0  0  0
   20.8605   20.3301    0.0000 C   0  0  0  0  0  0  0  0  0  0  0  0
   21.8794   19.2293    0.0000 C   0  0  0  0  0  0  0  0  0  0  0  0
   22.8403   18.0775    0.0000 C   0  0  0  0  0  0  0  0  0  0  0  0
   23.7406   16.8777    0.0000 C   0  0  0  0  0  0  0  0  0  0  0  0
   24.5780   15.6332    0.0000 C   0  0  0  0  0  0  0  0  0  0  0  0
   25.3502   14.3472    0.0000 C   0  0  0  0  0  0  0  0  0  0  0  0
   26.0551   13.0232    0.0000 C   0  0  0  0  0  0  0  0  0  0  0  0
   26.6910   11.6647    0.0000 C   0  0  0  0  0  0  0  0  0  0  0  0
   27.2561   10.2752    0.0000 C   0  0  0  0  0  0  0  0  0  0  0  0
   27.7489    8.8584    0.0000 C   0  0  0  0  0  0  0  0  0  0  0  0
   28.1681    7.4182    0.0000 C   0  0  0  0  0  0  0  0  0  0  0  0
   28.5127    5.9583    0.0000 C   0  0  0  0  0  0  0  0  0  0  0  0
   28.7816    4.4826    0.0000 C   0  0  0  0  0  0  0  0  0  0  0  0
   28.9742    2.9950    0.0000 C   0  0  0  0  0  0  0  0  0  0  0  0
   29.0900    1.4995    0.0000 C   0  0  0  0  0  0  0  0  0  0  0  0
  1  2  1  0
  2  3  2  0
  3  4  1  0
  4  5  1  0
  5  6  1  0
  6  7  1  0
  7  8  1  0
  8  9  2  0
  9 10  1  0
 10 11  1  0
 11 12  1  0
 12 13  1  0
 13 14  1  0
 14 15  1  0
 15 16  1  0
 16 17  1  0
 17 18  1  0
 18 19  1  0
 19 20  1  0
 20 21  1  0
 21 22  1  0
 22 23  1  0
 23 24  1  0
 24 25  1  0
 25 26  1  0
 26 27  1  0
 27 28  1  0
 28 29  1  0
 29 30  1  0
 30 31  1  0
 31 32  1  0
 32 33  1  0
 33 34  1  0
 34 35  1  0
 35 36  1  0
 36 37  1  0
 37 38  1  0
 38 39  1  0
 39 40  1  0
 40 41  1  0
 41 42  1  0
 42 43  1  0
 43 44  1  0
 44 45  1  0
 45 46  1  0
 46 47  1  0
 47 48  1  0
 48 49  1  0
 49 50  1  0
 50 51  1  0
 51 52  1  0
 52 53  1  0
 53 54  1  0
 54 55  1  0
 55 56  1  0
 56 57  1  0
 57 58  1  0
 58 59  1  0
 59 60  1  0
 60 61  1  0
 61 62  1  0
 62 63  1  0
 63 64  1  0
 64 65  1  0
 65 66  1  0
 66 67  1  0
 67 68  1  0
 68 69  1  0
 69 70  1  0
 70 71  1  0
 71 72  1  0
 72 73  1  0
 73 74  1  0
 74 75  1  0
 75 76  1  0
 76 77  1  0
 77 78  1  0
 78 79  1  0
 79 80  1  0
 80 81  1  0
 81 82  1  0
 82 83  1  0
 83 84  1  0
 84 85  1  0
 85 86  1  0
 86 87  1  0
 87 88  1  0
 88 89  1  0
 89 90  1  0
 90 91  1  0
 91 92  1  0
 92 93  1  0
 93 94  1  0
 94 95  1  0
 95 96  1  0
 96 97  1  0
 97 98  1  0
 98 99  1  0
 99100  1  0
100101  1  0
101102  1  0
102103  1  0
103104  1  0
104105  1  0
105106  1  0
106107  1  0
107108  1  0
108109  1  0
109110  1  0
110111  1  0
111112  1  0
112113  1  0
113114  1  0
114115  1  0
115116  1  0
116117  1  0
117118  1  0
118119  1  0
119120  1  0
120121  1  0
121122  1  0
122123  1  0
123  2  1  0
M  END
>  <Title>  (585) 
idAAUOgen8

$$$$

     RDKit          2D

 62 71  0  0  0  0  0  0  0  0999 V2000
    6.2168   -5.0497    0.0000 C   0  0  0  0  0  0  0  0  0  0  0  0
    4.7353   -5.2844    0.0000 C   0  0  0  0  0  0  0  0  0  0  0  0
    4.2718   -3.8578    0.0000 C   0  0  0  0  0  0  0  0  0  0  0  0
    3.3901   -2.6442    0.0000 C   0  0  0  0  0  0  0  0  0  0  0  0
    2.1766   -1.7626    0.0000 C   0  0  0  0  0  0  0  0  0  0  0  0
    2.8576   -0.4261    0.0000 C   0  0  0  0  0  0  0  0  0  0  0  0
    2.0406    0.8320    0.0000 O   0  0  0  0  0  0  0  0  0  0  0  0
    4.3555   -0.3475    0.0000 N   0  0  0  0  0  0  0  0  0  0  0  0
    5.0365    0.9890    0.0000 C   0  0  0  0  0  0  0  0  0  0  0  0
    6.5344    1.0675    0.0000 N   0  0  0  0  0  0  0  0  0  0  0  0
    7.2154    2.4040    0.0000 N   0  0  0  0  0  0  0  0  0  0  0  0
    6.3985    3.6620    0.0000 N   0  0  0  0  0  0  0  0  0  0  0  0
    4.9005    3.5835    0.0000 N   0  0  0  0  0  0  0  0  0  0  0  0
    4.2195    2.2470    0.0000 N   0  0  0  0  0  0  0  0  0  0  0  0
    0.7500   -1.2990    0.0000 C   0  0  0  0  0  0  0  0  0  0  0  0
    1.5000    0.0000    0.0000 C   0  0  0  0  0  0  0  0  0  0  0  0
    0.7500    1.2990    0.0000 C   0  0  0  0  0  0  0  0  0  0  0  0
   -0.7500    1.2990    0.0000 C   0  0  0  0  0  0  0  0  0  0  0  0
   -1.5000    0.0000    0.0000 C   0  0  0  0  0  0  0  0  0  0  0  0
   -0.7500   -1.2990    0.0000 C   0  0  0  0  0  0  0  0  0  0  0  0
   -2.1766   -1.7626    0.0000 C   0  0  0  0  0  0  0  0  0  0  0  0
   -2.3334   -0.2708    0.0000 C   0  0  0  0  0  0  0  0  0  0  0  0
   -3.7037    0.3393    0.0000 C   0  0  0  0  0  0  0  0  0  0  0  0
   -4.9172   -0.5424    0.0000 C   0  0  0  0  0  0  0  0  0  0  0  0
   -4.7604   -2.0341    0.0000 C   0  0  0  0  0  0  0  0  0  0  0  0
   -3.3901   -2.6442    0.0000 C   0  0  0  0  0  0  0  0  0  0  0  0
   -4.2718   -3.8578    0.0000 C   0  0  0  0  0  0  0  0  0  0  0  0
   -5.2755   -2.7430    0.0000 C   0  0  0  0  0  0  0  0  0  0  0  0
   -6.7427   -3.0549    0.0000 C   0  0  0  0  0  0  0  0  0  0  0  0
   -7.2062   -4.4815    0.0000 C   0  0  0  0  0  0  0  0  0  0  0  0
   -6.2025   -5.5962    0.0000 C   0  0  0  0  0  0  0  0  0  0  0  0
   -4.7353   -5.2844    0.0000 C   0  0  0  0  0  0  0  0  0  0  0  0
   -4.7353   -6.7844    0.0000 C   0  0  0  0  0  0  0  0  0  0  0  0
   -6.2025   -6.4725    0.0000 C   0  0  0  0  0  0  0  0  0  0  0  0
   -7.2062   -7.5872    0.0000 C   0  0  0  0  0  0  0  0  0  0  0  0
   -6.7427   -9.0138    0.0000 C   0  0  0  0  0  0  0  0  0  0  0  0
   -5.2755   -9.3257    0.0000 C   0  0  0  0  0  0  0  0  0  0  0  0
   -4.2718   -8.2109    0.0000 C   0  0  0  0  0  0  0  0  0  0  0  0
   -3.3901   -9.4245    0.0000 C   0  0  0  0  0  0  0  0  0  0  0  0
   -4.7604  -10.0346    0.0000 C   0  0  0  0  0  0  0  0  0  0  0  0
   -4.9172  -11.5263    0.0000 C   0  0  0  0  0  0  0  0  0  0  0  0
   -3.7037  -12.4080    0.0000 C   0  0  0  0  0  0  0  0  0  0  0  0
   -2.3334  -11.7979    0.0000 C   0  0  0  0  0  0  0  0  0  0  0  0
   -2.1766  -10.3061    0.0000 C   0  0  0  0  0  0  0  0  0  0  0  0
   -0.7500  -10.7697    0.0000 C   0  0  0  0  0  0  0  0  0  0  0  0
   -1.5000  -12.0687    0.0000 C   0  0  0  0  0  0  0  0  0  0  0  0
   -0.7500  -13.3677    0.0000 C   0  0  0  0  0  0  0  0  0  0  0  0
    0.7500  -13.3677    0.0000 C   0  0  0  0  0  0  0  0  0  0  0  0
    1.5000  -12.0687    0.0000 C   0  0  0  0  0  0  0  0  0  0  0  0
    0.7500  -10.7697    0.0000 C   0  0  0  0  0  0  0  0  0  0  0  0
    2.1766  -10.3061    0.0000 C   0  0  0  0  0  0  0  0  0  0  0  0
    2.3334  -11.7979    0.0000 C   0  0  0  0  0  0  0  0  0  0  0  0
    3.7037  -12.4080    0.0000 C   0  0  0  0  0  0  0  0  0  0  0  0
    4.9172  -11.5263    0.0000 C   0  0  0  0  0  0  0  0  0  0  0  0
    4.7604  -10.0346    0.0000 C   0  0  0  0  0  0  0  0  0  0  0  0
    3.3901   -9.4245    0.0000 C   0  0  0  0  0  0  0  0  0  0  0  0
    4.2718   -8.2109    0.0000 C   0  0  0  0  0  0  0  0  0  0  0  0
    5.2755   -9.3257    0.0000 C   0  0  0  0  0  0  0  0  0  0  0  0
    6.7427   -9.0138    0.0000 C   0  0  0  0  0  0  0  0  0  0  0  0
    7.2062   -7.5872    0.0000 C   0  0  0  0  0  0  0  0  0  0  0  0
    6.2025   -6.4725    0.0000 C   0  0  0  0  0  0  0  0  0  0  0  0
    4.7353   -6.7844    0.0000 C   0  0  0  0  0  0  0  0  0  0  0  0
  1  2  1  0
  2  3  1  0
  3  4  1  0
  4  5  1  0
  5  6  1  0
  6  7  2  0
  6  8  1  0
  8  9  1  0
  9 10  2  0
 10 11  1  0
 11 12  2  0
 12 13  1  0
 13 14  2  0
  5 15  1  0
 15 16  2  0
 16 17  1  0
 17 18  2  0
 18 19  1  0
 19 20  2  0
 20 21  1  0
 21 22  2  0
 22 23  1  0
 23 24  2  0
 24 25  1  0
 25 26  2  0
 26 27  1  0
 27 28  2  0
 28 29  1  0
 29 30  2  0
 30 31  1  0
 31 32  2  0
 32 33  1  0
 33 34  2  0
 34 35  1  0
 35 36  2  0
 36 37  1  0
 37 38  2  0
 38 39  1  0
 39 40  2  0
 40 41  1  0
 41 42  2  0
 42 43  1  0
 43 44  2  0
 44 45  1  0
 45 46  2  0
 46 47  1  0
 47 48  2  0
 48 49  1  0
 49 50  2  0
 50 51  1  0
 51 52  2  0
 52 53  1  0
 53 54  2  0
 54 55  1  0
 55 56  2  0
 56 57  1  0
 57 58  2  0
 58 59  1  0
 59 60  2  0
 60 61  1  0
 61 62  2  0
 62  2  1  0
 14  9  1  0
 20 15  1  0
 26 21  1  0
 32 27  1  0
 38 33  1  0
 44 39  1  0
 50 45  1  0
 56 51  1  0
 62 57  1  0
M  END
>  <Title>  (586) 
idAAUPgen8

$$$$

     RDKit          2D

  8  7  0  0  0  0  0  0  0  0999 V2000
    0.0000    0.0000    0.0000 C   0  0  0  0  0  0  0  0  0  0  0  0
    1.2990    0.7500    0.0000 C   0  0  0  0  0  0  0  0  0  0  0  0
    2.5981    1.5000    0.0000 C   0  0  0  0  0  0  0  0  0  0  0  0
    3.8971    2.2500    0.0000 C   0  0  0  0  0  0  0  0  0  0  0  0
    3.8971    3.7500    0.0000 O   0  0  0  0  0  0  0  0  0  0  0  0
    5.1962    1.5000    0.0000 C   0  0  0  0  0  0  0  0  0  0  0  0
    6.4952    2.2500    0.0000 C   0  0  0  0  0  0  0  0  0  0  0  0
    7.7942    1.5000    0.0000 C   0  0  0  0  0  0  0  0  0  0  0  0
  1  2  1  0
  2  3  3  0
  3  4  1  0
  4  5  2  0
  4  6  1  0
  6  7  2  3
  7  8  1  0
M  END
>  <Title>  (587) 
idAAUQgen8

$$$$

     RDKit          2D

 24 24  0  0  0  0  0  0  0  0999 V2000
    7.0080   -0.0000    0.0000 C   0  0  0  0  0  0  0  0  0  0  0  0
    5.5080    0.0000    0.0000 C   0  0  0  0  0  0  0  0  0  0  0  0
    5.3037    1.4860    0.0000 C   0  0  0  0  0  0  0  0  0  0  0  0
    4.7061    2.8618    0.0000 C   0  0  0  0  0  0  0  0  0  0  0  0
    3.7595    4.0254    0.0000 C   0  0  0  0  0  0  0  0  0  0  0  0
    2.5340    4.8904    0.0000 C   0  0  0  0  0  0  0  0  0  0  0  0
    1.1206    5.3928    0.0000 C   0  0  0  0  0  0  0  0  0  0  0  0
   -0.3759    5.4951    0.0000 C   0  0  0  0  0  0  0  0  0  0  0  0
   -1.8445    5.1899    0.0000 C   0  0  0  0  0  0  0  0  0  0  0  0
   -3.1763    4.4998    0.0000 C   0  0  0  0  0  0  0  0  0  0  0  0
   -4.2726    3.4760    0.0000 C   0  0  0  0  0  0  0  0  0  0  0  0
   -5.0520    2.1944    0.0000 C   0  0  0  0  0  0  0  0  0  0  0  0
   -5.4567    0.7500    0.0000 C   0  0  0  0  0  0  0  0  0  0  0  0
   -5.4567   -0.7500    0.0000 C   0  0  0  0  0  0  0  0  0  0  0  0
   -5.0520   -2.1944    0.0000 C   0  0  0  0  0  0  0  0  0  0  0  0
   -4.2726   -3.4760    0.0000 C   0  0  0  0  0  0  0  0  0  0  0  0
   -3.1763   -4.4998    0.0000 C   0  0  0  0  0  0  0  0  0  0  0  0
   -1.8445   -5.1899    0.0000 C   0  0  0  0  0  0  0  0  0  0  0  0
   -0.3759   -5.4951    0.0000 C   0  0  0  0  0  0  0  0  0  0  0  0
    1.1206   -5.3928    0.0000 C   0  0  0  0  0  0  0  0  0  0  0  0
    2.5340   -4.8904    0.0000 C   0  0  0  0  0  0  0  0  0  0  0  0
    3.7595   -4.0254    0.0000 C   0  0  0  0  0  0  0  0  0  0  0  0
    4.7061   -2.8618    0.0000 C   0  0  0  0  0  0  0  0  0  0  0  0
    5.3037   -1.4860    0.0000 C   0  0  0  0  0  0  0  0  0  0  0  0
  1  2  1  0
  2  3  1  0
  3  4  2  0
  4  5  1  0
  5  6  1  0
  6  7  1  0
  7  8  1  0
  8  9  1  0
  9 10  1  0
 10 11  2  0
 11 12  1  0
 12 13  1  0
 13 14  1  0
 14 15  1  0
 15 16  1  0
 16 17  2  0
 17 18  1  0
 18 19  2  0
 19 20  1  0
 20 21  2  0
 21 22  1  0
 22 23  2  0
 23 24  1  0
 24  2  1  0
M  END
>  <Title>  (588) 
idAAURgen8

$$$$

     RDKit          2D

  8  8  0  0  0  0  0  0  0  0999 V2000
    3.5260    1.2990    0.0000 O   0  0  0  0  0  0  0  0  0  0  0  0
    2.7760    0.0000    0.0000 C   0  0  0  0  0  0  0  0  0  0  0  0
    3.5260   -1.2990    0.0000 O   0  0  0  0  0  0  0  0  0  0  0  0
    1.2760    0.0000    0.0000 C   0  0  0  0  0  0  0  0  0  0  0  0
    0.3943    1.2135    0.0000 C   0  0  0  0  0  0  0  0  0  0  0  0
   -1.0323    0.7500    0.0000 C   0  0  0  0  0  0  0  0  0  0  0  0
   -1.0323   -0.7500    0.0000 C   0  0  0  0  0  0  0  0  0  0  0  0
    0.3943   -1.2135    0.0000 C   0  0  0  0  0  0  0  0  0  0  0  0
  1  2  2  0
  2  3  1  0
  2  4  1  0
  4  5  2  0
  5  6  1  0
  6  7  2  0
  7  8  1  0
  8  4  1  0
M  END
>  <Title>  (589) 
idAAUSgen8

$$$$

     RDKit          2D

  9  9  0  0  0  0  0  0  0  0999 V2000
    5.0260   -1.2990    0.0000 C   0  0  0  0  0  0  0  0  0  0  0  0
    3.5260   -1.2990    0.0000 C   0  0  0  0  0  0  0  0  0  0  0  0
    2.7760    0.0000    0.0000 C   0  0  0  0  0  0  0  0  0  0  0  0
    3.5260    1.2990    0.0000 O   0  0  0  0  0  0  0  0  0  0  0  0
    1.2760    0.0000    0.0000 C   0  0  0  0  0  0  0  0  0  0  0  0
    0.3943    1.2135    0.0000 C   0  0  0  0  0  0  0  0  0  0  0  0
   -1.0323    0.7500    0.0000 C   0  0  0  0  0  0  0  0  0  0  0  0
   -1.0323   -0.7500    0.0000 C   0  0  0  0  0  0  0  0  0  0  0  0
    0.3943   -1.2135    0.0000 C   0  0  0  0  0  0  0  0  0  0  0  0
  1  2  1  0
  2  3  1  0
  3  4  2  0
  3  5  1  0
  5  6  2  0
  6  7  1  0
  7  8  2  0
  8  9  1  0
  9  5  1  0
M  END
>  <Title>  (590) 
idAAUTgen8

$$$$

     RDKit          2D

  9  9  0  0  0  0  0  0  0  0999 V2000
    4.0607    0.0000    0.0000 C   0  0  0  0  0  0  0  0  0  0  0  0
    2.5607    0.0000    0.0000 C   0  0  0  0  0  0  0  0  0  0  0  0
    1.0607    0.0000    0.0000 C   0  0  0  0  0  0  0  0  0  0  0  0
   -0.0000   -1.0607    0.0000 C   0  0  0  0  0  0  0  0  0  0  0  0
   -1.0607    0.0000    0.0000 C   0  0  0  0  0  0  0  0  0  0  0  0
   -2.5607    0.0000    0.0000 C   0  0  0  0  0  0  0  0  0  0  0  0
   -3.3107    1.2990    0.0000 C   0  0  0  0  0  0  0  0  0  0  0  0
   -4.8107    1.2990    0.0000 C   0  0  0  0  0  0  0  0  0  0  0  0
    0.0000    1.0607    0.0000 C   0  0  0  0  0  0  0  0  0  0  0  0
  1  2  3  0
  2  3  1  0
  3  4  1  0
  4  5  1  0
  5  6  1  0
  6  7  1  0
  7  8  1  0
  5  9  1  0
  9  3  1  0
M  END
>  <Title>  (591) 
idAAUUgen8

$$$$

     RDKit          2D

  9  9  0  0  0  0  0  0  0  0999 V2000
    3.7500   -1.2990    0.0000 C   0  0  0  0  0  0  0  0  0  0  0  0
    3.0000    0.0000    0.0000 O   0  0  0  0  0  0  0  0  0  0  0  0
    1.5000    0.0000    0.0000 C   0  0  0  0  0  0  0  0  0  0  0  0
    0.7500   -1.2990    0.0000 C   0  0  0  0  0  0  0  0  0  0  0  0
   -0.7500   -1.2990    0.0000 C   0  0  0  0  0  0  0  0  0  0  0  0
   -1.5000    0.0000    0.0000 C   0  0  0  0  0  0  0  0  0  0  0  0
   -3.0000    0.0000    0.0000 O   0  0  0  0  0  0  0  0  0  0  0  0
   -0.7500    1.2990    0.0000 C   0  0  0  0  0  0  0  0  0  0  0  0
    0.7500    1.2990    0.0000 C   0  0  0  0  0  0  0  0  0  0  0  0
  1  2  1  0
  2  3  1  0
  3  4  2  0
  4  5  1  0
  5  6  1  0
  6  7  1  0
  6  8  2  0
  8  9  1  0
  9  3  1  0
M  END
>  <Title>  (592) 
idAAUVgen8

$$$$

     RDKit          2D

 15 16  0  0  0  0  0  0  0  0999 V2000
    1.8478   -9.0619    0.0000 C   0  0  0  0  0  0  0  0  0  0  0  0
    2.0046   -7.5702    0.0000 C   0  0  0  0  0  0  0  0  0  0  0  0
    3.3037   -6.8202    0.0000 C   0  0  0  0  0  0  0  0  0  0  0  0
    2.9918   -5.3529    0.0000 C   0  0  0  0  0  0  0  0  0  0  0  0
    1.5000   -5.1962    0.0000 C   0  0  0  0  0  0  0  0  0  0  0  0
    0.7500   -3.8971    0.0000 N   0  0  0  0  0  0  0  0  0  0  0  0
    1.5000   -2.5981    0.0000 C   0  0  0  0  0  0  0  0  0  0  0  0
    3.0000   -2.5981    0.0000 O   0  0  0  0  0  0  0  0  0  0  0  0
    0.7500   -1.2990    0.0000 C   0  0  0  0  0  0  0  0  0  0  0  0
    1.5000    0.0000    0.0000 N   0  0  0  0  0  0  0  0  0  0  0  0
    0.7500    1.2990    0.0000 N   0  0  0  0  0  0  0  0  0  0  0  0
   -0.7500    1.2990    0.0000 N   0  0  0  0  0  0  0  0  0  0  0  0
   -1.5000    0.0000    0.0000 N   0  0  0  0  0  0  0  0  0  0  0  0
   -0.7500   -1.2990    0.0000 N   0  0  0  0  0  0  0  0  0  0  0  0
    0.8899   -6.5665    0.0000 C   0  0  0  0  0  0  0  0  0  0  0  0
  1  2  1  0
  2  3  2  0
  3  4  1  0
  4  5  1  0
  5  6  1  0
  6  7  1  0
  7  8  2  0
  7  9  1  0
  9 10  2  0
 10 11  1  0
 11 12  2  0
 12 13  1  0
 13 14  2  0
  5 15  1  0
 15  2  1  0
 14  9  1  0
M  END
>  <Title>  (593) 
idAAUWgen8

$$$$

     RDKit          2D

 20 20  0  0  0  0  0  0  0  0999 V2000
    7.2760    2.5981    0.0000 C   0  0  0  0  0  0  0  0  0  0  0  0
    6.5260    1.2990    0.0000 C   0  0  0  0  0  0  0  0  0  0  0  0
    5.7760    0.0000    0.0000 C   0  0  0  0  0  0  0  0  0  0  0  0
    5.0260   -1.2990    0.0000 C   0  0  0  0  0  0  0  0  0  0  0  0
    5.7760   -2.5981    0.0000 C   0  0  0  0  0  0  0  0  0  0  0  0
    7.2760   -2.5981    0.0000 C   0  0  0  0  0  0  0  0  0  0  0  0
    8.0260   -3.8971    0.0000 C   0  0  0  0  0  0  0  0  0  0  0  0
    9.5260   -3.8971    0.0000 C   0  0  0  0  0  0  0  0  0  0  0  0
    3.5260   -1.2990    0.0000 N   0  0  0  0  0  0  0  0  0  0  0  0
    2.7760    0.0000    0.0000 C   0  0  0  0  0  0  0  0  0  0  0  0
    3.5260    1.2990    0.0000 O   0  0  0  0  0  0  0  0  0  0  0  0
    1.2760    0.0000    0.0000 C   0  0  0  0  0  0  0  0  0  0  0  0
    0.3943    1.2135    0.0000 C   0  0  0  0  0  0  0  0  0  0  0  0
   -1.0323    0.7500    0.0000 C   0  0  0  0  0  0  0  0  0  0  0  0
   -1.0323   -0.7500    0.0000 C   0  0  0  0  0  0  0  0  0  0  0  0
   -2.2458   -1.6317    0.0000 C   0  0  0  0  0  0  0  0  0  0  0  0
   -2.0890   -3.1235    0.0000 O   0  0  0  0  0  0  0  0  0  0  0  0
   -3.6161   -1.0216    0.0000 O   0  0  0  0  0  0  0  0  0  0  0  0
    0.3943   -1.2135    0.0000 C   0  0  0  0  0  0  0  0  0  0  0  0
    0.8578   -2.6401    0.0000 O   0  0  0  0  0  0  0  0  0  0  0  0
  1  2  1  0
  2  3  3  0
  3  4  1  0
  4  5  1  0
  5  6  1  0
  6  7  2  3
  7  8  1  0
  4  9  1  0
  9 10  1  0
 10 11  2  0
 10 12  1  0
 12 13  1  0
 13 14  1  0
 14 15  1  0
 15 16  1  0
 16 17  2  0
 16 18  1  0
 15 19  1  0
 19 20  2  0
 19 12  1  0
M  END
>  <Title>  (594) 
idAAUXgen8

$$$$

     RDKit          2D

 10 10  0  0  0  0  0  0  0  0999 V2000
    3.0000    0.0000    0.0000 C   0  0  0  0  0  0  0  0  0  0  0  0
    1.5000    0.0000    0.0000 C   0  0  0  0  0  0  0  0  0  0  0  0
    0.7500   -1.2990    0.0000 C   0  0  0  0  0  0  0  0  0  0  0  0
   -0.7500   -1.2990    0.0000 C   0  0  0  0  0  0  0  0  0  0  0  0
   -1.5000   -2.5981    0.0000 O   0  0  0  0  0  0  0  0  0  0  0  0
   -1.5000    0.0000    0.0000 C   0  0  0  0  0  0  0  0  0  0  0  0
   -3.0000    0.0000    0.0000 O   0  0  0  0  0  0  0  0  0  0  0  0
   -0.7500    1.2990    0.0000 C   0  0  0  0  0  0  0  0  0  0  0  0
    0.7500    1.2990    0.0000 C   0  0  0  0  0  0  0  0  0  0  0  0
    1.5000    2.5981    0.0000 O   0  0  0  0  0  0  0  0  0  0  0  0
  1  2  1  0
  2  3  2  0
  3  4  1  0
  4  5  1  0
  4  6  1  0
  6  7  1  0
  6  8  1  0
  8  9  1  0
  9 10  1  0
  9  2  1  0
M  END
>  <Title>  (595) 
idAAUYgen8

$$$$

     RDKit          2D

 10 10  0  0  0  0  0  0  0  0999 V2000
    5.7760   -2.5981    0.0000 C   0  0  0  0  0  0  0  0  0  0  0  0
    5.0260   -1.2990    0.0000 C   0  0  0  0  0  0  0  0  0  0  0  0
    3.5260   -1.2990    0.0000 C   0  0  0  0  0  0  0  0  0  0  0  0
    2.7760   -2.5981    0.0000 O   0  0  0  0  0  0  0  0  0  0  0  0
    2.7760    0.0000    0.0000 N   0  0  0  0  0  0  0  0  0  0  0  0
    1.2760    0.0000    0.0000 C   0  0  0  0  0  0  0  0  0  0  0  0
    0.3943    1.2135    0.0000 N   0  0  0  0  0  0  0  0  0  0  0  0
   -1.0323    0.7500    0.0000 N   0  0  0  0  0  0  0  0  0  0  0  0
   -1.0323   -0.7500    0.0000 C   0  0  0  0  0  0  0  0  0  0  0  0
    0.3943   -1.2135    0.0000 N   0  0  0  0  0  0  0  0  0  0  0  0
  1  2  1  0
  2  3  1  0
  3  4  2  0
  3  5  1  0
  5  6  1  0
  6  7  2  0
  7  8  1  0
  8  9  2  0
  9 10  1  0
 10  6  1  0
M  END
>  <Title>  (596) 
idAAUZgen8

$$$$

     RDKit          2D

 10 10  0  0  0  0  0  0  0  0999 V2000
    3.0000    0.0000    0.0000 C   0  0  0  0  0  0  0  0  0  0  0  0
    1.5000    0.0000    0.0000 C   0  0  0  0  0  0  0  0  0  0  0  0
    0.7500   -1.2990    0.0000 C   0  0  0  0  0  0  0  0  0  0  0  0
   -0.7500   -1.2990    0.0000 C   0  0  0  0  0  0  0  0  0  0  0  0
   -1.5000    0.0000    0.0000 C   0  0  0  0  0  0  0  0  0  0  0  0
   -3.0000    0.0000    0.0000 C   0  0  0  0  0  0  0  0  0  0  0  0
   -4.5000    0.0000    0.0000 N   0  0  0  0  0  0  0  0  0  0  0  0
   -0.7500    1.2990    0.0000 C   0  0  0  0  0  0  0  0  0  0  0  0
   -1.5000    2.5981    0.0000 O   0  0  0  0  0  0  0  0  0  0  0  0
    0.7500    1.2990    0.0000 C   0  0  0  0  0  0  0  0  0  0  0  0
  1  2  1  0
  2  3  2  0
  3  4  1  0
  4  5  2  0
  5  6  1  0
  6  7  3  0
  5  8  1  0
  8  9  1  0
  8 10  2  0
 10  2  1  0
M  END
>  <Title>  (597) 
idAAVAgen8

$$$$

     RDKit          2D

 13 13  0  0  0  0  0  0  0  0999 V2000
   13.2760   -0.0000    0.0000 C   0  0  0  0  0  0  0  0  0  0  0  0
   11.7760   -0.0000    0.0000 C   0  0  0  0  0  0  0  0  0  0  0  0
   10.2760   -0.0000    0.0000 C   0  0  0  0  0  0  0  0  0  0  0  0
    8.7760   -0.0000    0.0000 C   0  0  0  0  0  0  0  0  0  0  0  0
    7.2760   -0.0000    0.0000 C   0  0  0  0  0  0  0  0  0  0  0  0
    5.7760   -0.0000    0.0000 C   0  0  0  0  0  0  0  0  0  0  0  0
    4.2760   -0.0000    0.0000 C   0  0  0  0  0  0  0  0  0  0  0  0
    2.7760    0.0000    0.0000 C   0  0  0  0  0  0  0  0  0  0  0  0
    1.2760    0.0000    0.0000 C   0  0  0  0  0  0  0  0  0  0  0  0
    0.3943    1.2135    0.0000 C   0  0  0  0  0  0  0  0  0  0  0  0
   -1.0323    0.7500    0.0000 C   0  0  0  0  0  0  0  0  0  0  0  0
   -1.0323   -0.7500    0.0000 C   0  0  0  0  0  0  0  0  0  0  0  0
    0.3943   -1.2135    0.0000 C   0  0  0  0  0  0  0  0  0  0  0  0
  1  2  3  0
  2  3  1  0
  3  4  3  0
  4  5  1  0
  5  6  3  0
  6  7  1  0
  7  8  3  0
  8  9  1  0
  9 10  1  0
 10 11  1  0
 11 12  2  0
 12 13  1  0
 13  9  1  0
M  END
>  <Title>  (598) 
idAAVBgen8

$$$$

     RDKit          2D

 28 31  0  0  0  0  0  0  0  0999 V2000
   -3.1771   -5.9156    0.0000 C   0  0  0  0  0  0  0  0  0  0  0  0
   -1.9635   -5.0339    0.0000 C   0  0  0  0  0  0  0  0  0  0  0  0
   -0.7500   -5.9156    0.0000 C   0  0  0  0  0  0  0  0  0  0  0  0
    0.7500   -5.9156    0.0000 C   0  0  0  0  0  0  0  0  0  0  0  0
    1.9635   -5.0339    0.0000 C   0  0  0  0  0  0  0  0  0  0  0  0
    2.4271   -3.6073    0.0000 C   0  0  0  0  0  0  0  0  0  0  0  0
    1.9635   -2.1807    0.0000 C   0  0  0  0  0  0  0  0  0  0  0  0
    3.1771   -1.2990    0.0000 C   0  0  0  0  0  0  0  0  0  0  0  0
    3.0203    0.1927    0.0000 O   0  0  0  0  0  0  0  0  0  0  0  0
    4.5474   -1.9091    0.0000 N   0  0  0  0  0  0  0  0  0  0  0  0
    5.7609   -1.0275    0.0000 C   0  0  0  0  0  0  0  0  0  0  0  0
    7.1312   -1.6376    0.0000 N   0  0  0  0  0  0  0  0  0  0  0  0
    8.3447   -0.7559    0.0000 N   0  0  0  0  0  0  0  0  0  0  0  0
    8.1879    0.7359    0.0000 N   0  0  0  0  0  0  0  0  0  0  0  0
    6.8176    1.3460    0.0000 N   0  0  0  0  0  0  0  0  0  0  0  0
    5.6041    0.4643    0.0000 N   0  0  0  0  0  0  0  0  0  0  0  0
    0.7500   -1.2990    0.0000 C   0  0  0  0  0  0  0  0  0  0  0  0
    1.5000    0.0000    0.0000 C   0  0  0  0  0  0  0  0  0  0  0  0
    0.7500    1.2990    0.0000 C   0  0  0  0  0  0  0  0  0  0  0  0
   -0.7500    1.2990    0.0000 C   0  0  0  0  0  0  0  0  0  0  0  0
   -1.5000    0.0000    0.0000 C   0  0  0  0  0  0  0  0  0  0  0  0
   -0.7500   -1.2990    0.0000 C   0  0  0  0  0  0  0  0  0  0  0  0
   -1.9635   -2.1807    0.0000 C   0  0  0  0  0  0  0  0  0  0  0  0
   -2.9672   -1.0660    0.0000 C   0  0  0  0  0  0  0  0  0  0  0  0
   -4.4344   -1.3779    0.0000 C   0  0  0  0  0  0  0  0  0  0  0  0
   -4.8980   -2.8045    0.0000 C   0  0  0  0  0  0  0  0  0  0  0  0
   -3.8943   -3.9192    0.0000 C   0  0  0  0  0  0  0  0  0  0  0  0
   -2.4271   -3.6073    0.0000 C   0  0  0  0  0  0  0  0  0  0  0  0
  1  2  1  0
  2  3  2  0
  3  4  1  0
  4  5  1  0
  5  6  1  0
  6  7  1  0
  7  8  1  0
  8  9  2  0
  8 10  1  0
 10 11  1  0
 11 12  2  0
 12 13  1  0
 13 14  2  0
 14 15  1  0
 15 16  2  0
  7 17  1  0
 17 18  2  0
 18 19  1  0
 19 20  2  0
 20 21  1  0
 21 22  2  0
 22 23  1  0
 23 24  2  0
 24 25  1  0
 25 26  2  0
 26 27  1  0
 27 28  2  0
 28  2  1  0
 16 11  1  0
 22 17  1  0
 28 23  1  0
M  END
>  <Title>  (599) 
idAAVCgen8

$$$$

     RDKit          2D

  7  6  0  0  0  0  0  0  0  0999 V2000
    0.0000    0.0000    0.0000 C   0  0  0  0  0  0  0  0  0  0  0  0
    1.2990    0.7500    0.0000 C   0  0  0  0  0  0  0  0  0  0  0  0
    2.5981   -0.0000    0.0000 C   0  0  0  0  0  0  0  0  0  0  0  0
    3.8971    0.7500    0.0000 C   0  0  0  0  0  0  0  0  0  0  0  0
    3.8971    2.2500    0.0000 O   0  0  0  0  0  0  0  0  0  0  0  0
    5.1962   -0.0000    0.0000 O   0  0  0  0  0  0  0  0  0  0  0  0
    6.4952    0.7500    0.0000 C   0  0  0  0  0  0  0  0  0  0  0  0
  1  2  1  0
  2  3  2  3
  3  4  1  0
  4  5  2  0
  4  6  1  0
  6  7  1  0
M  END
>  <Title>  (600) 
idAAVDgen8

$$$$

     RDKit          2D

 58 66  0  0  0  0  0  0  0  0999 V2000
    5.6083   -8.8919    0.0000 C   0  0  0  0  0  0  0  0  0  0  0  0
    4.2718   -8.2109    0.0000 C   0  0  0  0  0  0  0  0  0  0  0  0
    4.7353   -6.7844    0.0000 C   0  0  0  0  0  0  0  0  0  0  0  0
    4.7353   -5.2844    0.0000 C   0  0  0  0  0  0  0  0  0  0  0  0
    4.2718   -3.8578    0.0000 C   0  0  0  0  0  0  0  0  0  0  0  0
    3.3901   -2.6442    0.0000 C   0  0  0  0  0  0  0  0  0  0  0  0
    2.1766   -1.7626    0.0000 C   0  0  0  0  0  0  0  0  0  0  0  0
    2.8576   -0.4261    0.0000 C   0  0  0  0  0  0  0  0  0  0  0  0
    2.0406    0.8320    0.0000 O   0  0  0  0  0  0  0  0  0  0  0  0
    4.3555   -0.3475    0.0000 N   0  0  0  0  0  0  0  0  0  0  0  0
    5.0365    0.9890    0.0000 C   0  0  0  0  0  0  0  0  0  0  0  0
    6.5344    1.0675    0.0000 N   0  0  0  0  0  0  0  0  0  0  0  0
    7.2154    2.4040    0.0000 N   0  0  0  0  0  0  0  0  0  0  0  0
    6.3985    3.6620    0.0000 N   0  0  0  0  0  0  0  0  0  0  0  0
    4.9005    3.5835    0.0000 N   0  0  0  0  0  0  0  0  0  0  0  0
    4.2195    2.2470    0.0000 N   0  0  0  0  0  0  0  0  0  0  0  0
    0.7500   -1.2990    0.0000 C   0  0  0  0  0  0  0  0  0  0  0  0
    1.5000    0.0000    0.0000 C   0  0  0  0  0  0  0  0  0  0  0  0
    0.7500    1.2990    0.0000 C   0  0  0  0  0  0  0  0  0  0  0  0
   -0.7500    1.2990    0.0000 C   0  0  0  0  0  0  0  0  0  0  0  0
   -1.5000    0.0000    0.0000 C   0  0  0  0  0  0  0  0  0  0  0  0
   -0.7500   -1.2990    0.0000 C   0  0  0  0  0  0  0  0  0  0  0  0
   -2.1766   -1.7626    0.0000 C   0  0  0  0  0  0  0  0  0  0  0  0
   -2.3334   -0.2708    0.0000 C   0  0  0  0  0  0  0  0  0  0  0  0
   -3.7037    0.3393    0.0000 C   0  0  0  0  0  0  0  0  0  0  0  0
   -4.9172   -0.5424    0.0000 C   0  0  0  0  0  0  0  0  0  0  0  0
   -4.7604   -2.0341    0.0000 C   0  0  0  0  0  0  0  0  0  0  0  0
   -3.3901   -2.6442    0.0000 C   0  0  0  0  0  0  0  0  0  0  0  0
   -4.2718   -3.8578    0.0000 C   0  0  0  0  0  0  0  0  0  0  0  0
   -5.2755   -2.7430    0.0000 C   0  0  0  0  0  0  0  0  0  0  0  0
   -6.7427   -3.0549    0.0000 C   0  0  0  0  0  0  0  0  0  0  0  0
   -7.2062   -4.4815    0.0000 C   0  0  0  0  0  0  0  0  0  0  0  0
   -6.2025   -5.5962    0.0000 C   0  0  0  0  0  0  0  0  0  0  0  0
   -4.7353   -5.2844    0.0000 C   0  0  0  0  0  0  0  0  0  0  0  0
   -4.7353   -6.7844    0.0000 C   0  0  0  0  0  0  0  0  0  0  0  0
   -6.2025   -6.4725    0.0000 C   0  0  0  0  0  0  0  0  0  0  0  0
   -7.2062   -7.5872    0.0000 C   0  0  0  0  0  0  0  0  0  0  0  0
   -6.7427   -9.0138    0.0000 C   0  0  0  0  0  0  0  0  0  0  0  0
   -5.2755   -9.3257    0.0000 C   0  0  0  0  0  0  0  0  0  0  0  0
   -4.2718   -8.2109    0.0000 C   0  0  0  0  0  0  0  0  0  0  0  0
   -3.3901   -9.4245    0.0000 C   0  0  0  0  0  0  0  0  0  0  0  0
   -4.7604  -10.0346    0.0000 C   0  0  0  0  0  0  0  0  0  0  0  0
   -4.9172  -11.5263    0.0000 C   0  0  0  0  0  0  0  0  0  0  0  0
   -3.7037  -12.4080    0.0000 C   0  0  0  0  0  0  0  0  0  0  0  0
   -2.3334  -11.7979    0.0000 C   0  0  0  0  0  0  0  0  0  0  0  0
   -2.1766  -10.3061    0.0000 C   0  0  0  0  0  0  0  0  0  0  0  0
   -0.7500  -10.7697    0.0000 C   0  0  0  0  0  0  0  0  0  0  0  0
   -1.5000  -12.0687    0.0000 C   0  0  0  0  0  0  0  0  0  0  0  0
   -0.7500  -13.3677    0.0000 C   0  0  0  0  0  0  0  0  0  0  0  0
    0.7500  -13.3677    0.0000 C   0  0  0  0  0  0  0  0  0  0  0  0
    1.5000  -12.0687    0.0000 C   0  0  0  0  0  0  0  0  0  0  0  0
    0.7500  -10.7697    0.0000 C   0  0  0  0  0  0  0  0  0  0  0  0
    2.1766  -10.3061    0.0000 C   0  0  0  0  0  0  0  0  0  0  0  0
    2.3334  -11.7979    0.0000 C   0  0  0  0  0  0  0  0  0  0  0  0
    3.7037  -12.4080    0.0000 C   0  0  0  0  0  0  0  0  0  0  0  0
    4.9172  -11.5263    0.0000 C   0  0  0  0  0  0  0  0  0  0  0  0
    4.7604  -10.0346    0.0000 C   0  0  0  0  0  0  0  0  0  0  0  0
    3.3901   -9.4245    0.0000 C   0  0  0  0  0  0  0  0  0  0  0  0
  1  2  1  0
  2  3  1  0
  3  4  1  0
  4  5  1  0
  5  6  1  0
  6  7  1  0
  7  8  1  0
  8  9  2  0
  8 10  1  0
 10 11  1  0
 11 12  2  0
 12 13  1  0
 13 14  2  0
 14 15  1  0
 15 16  2  0
  7 17  1  0
 17 18  2  0
 18 19  1  0
 19 20  2  0
 20 21  1  0
 21 22  2  0
 22 23  1  0
 23 24  2  0
 24 25  1  0
 25 26  2  0
 26 27  1  0
 27 28  2  0
 28 29  1  0
 29 30  2  0
 30 31  1  0
 31 32  2  0
 32 33  1  0
 33 34  2  0
 34 35  1  0
 35 36  2  0
 36 37  1  0
 37 38  2  0
 38 39  1  0
 39 40  2  0
 40 41  1  0
 41 42  2  0
 42 43  1  0
 43 44  2  0
 44 45  1  0
 45 46  2  0
 46 47  1  0
 47 48  2  0
 48 49  1  0
 49 50  2  0
 50 51  1  0
 51 52  2  0
 52 53  1  0
 53 54  2  0
 54 55  1  0
 55 56  2  0
 56 57  1  0
 57 58  2  0
 58  2  1  0
 16 11  1  0
 22 17  1  0
 28 23  1  0
 34 29  1  0
 40 35  1  0
 46 41  1  0
 52 47  1  0
 58 53  1  0
M  END
>  <Title>  (601) 
idAAVEgen8

$$$$

     RDKit          2D

 35 39  0  0  0  0  0  0  0  0999 V2000
    3.9795   -9.6146    0.0000 C   0  0  0  0  0  0  0  0  0  0  0  0
    3.7190   -8.1374    0.0000 C   0  0  0  0  0  0  0  0  0  0  0  0
    2.3095   -7.6243    0.0000 C   0  0  0  0  0  0  0  0  0  0  0  0
    2.0490   -6.1471    0.0000 C   0  0  0  0  0  0  0  0  0  0  0  0
    3.5262   -6.4076    0.0000 O   0  0  0  0  0  0  0  0  0  0  0  0
    2.7990   -4.8481    0.0000 C   0  0  0  0  0  0  0  0  0  0  0  0
    2.7990   -3.3481    0.0000 C   0  0  0  0  0  0  0  0  0  0  0  0
    4.2479   -2.9598    0.0000 O   0  0  0  0  0  0  0  0  0  0  0  0
    5.3086   -4.0205    0.0000 C   0  0  0  0  0  0  0  0  0  0  0  0
    2.0490   -2.0490    0.0000 C   0  0  0  0  0  0  0  0  0  0  0  0
    3.1097   -0.9884    0.0000 O   0  0  0  0  0  0  0  0  0  0  0  0
    0.7500   -1.2990    0.0000 C   0  0  0  0  0  0  0  0  0  0  0  0
    1.5000    0.0000    0.0000 C   0  0  0  0  0  0  0  0  0  0  0  0
    0.7500    1.2990    0.0000 C   0  0  0  0  0  0  0  0  0  0  0  0
   -0.7500    1.2990    0.0000 C   0  0  0  0  0  0  0  0  0  0  0  0
   -1.5000    0.0000    0.0000 C   0  0  0  0  0  0  0  0  0  0  0  0
   -0.7500   -1.2990    0.0000 C   0  0  0  0  0  0  0  0  0  0  0  0
   -2.0490   -2.0490    0.0000 C   0  0  0  0  0  0  0  0  0  0  0  0
   -2.7990   -0.7500    0.0000 C   0  0  0  0  0  0  0  0  0  0  0  0
   -4.2990   -0.7500    0.0000 C   0  0  0  0  0  0  0  0  0  0  0  0
   -5.0490   -2.0490    0.0000 C   0  0  0  0  0  0  0  0  0  0  0  0
   -4.2990   -3.3481    0.0000 C   0  0  0  0  0  0  0  0  0  0  0  0
   -2.7990   -3.3481    0.0000 C   0  0  0  0  0  0  0  0  0  0  0  0
   -2.7990   -4.8481    0.0000 C   0  0  0  0  0  0  0  0  0  0  0  0
   -4.2990   -4.8481    0.0000 C   0  0  0  0  0  0  0  0  0  0  0  0
   -5.0490   -6.1471    0.0000 C   0  0  0  0  0  0  0  0  0  0  0  0
   -4.2990   -7.4462    0.0000 C   0  0  0  0  0  0  0  0  0  0  0  0
   -2.7990   -7.4462    0.0000 C   0  0  0  0  0  0  0  0  0  0  0  0
   -2.0490   -6.1471    0.0000 C   0  0  0  0  0  0  0  0  0  0  0  0
   -0.7500   -6.8971    0.0000 C   0  0  0  0  0  0  0  0  0  0  0  0
   -1.5000   -8.1962    0.0000 C   0  0  0  0  0  0  0  0  0  0  0  0
   -0.7500   -9.4952    0.0000 C   0  0  0  0  0  0  0  0  0  0  0  0
    0.7500   -9.4952    0.0000 C   0  0  0  0  0  0  0  0  0  0  0  0
    1.5000   -8.1962    0.0000 C   0  0  0  0  0  0  0  0  0  0  0  0
    0.7500   -6.8971    0.0000 C   0  0  0  0  0  0  0  0  0  0  0  0
  1  2  1  0
  2  3  1  0
  3  4  1  0
  4  5  1  0
  4  6  1  0
  6  7  1  0
  7  8  1  0
  8  9  1  0
  7 10  1  0
 10 11  2  0
 10 12  1  0
 12 13  2  0
 13 14  1  0
 14 15  2  0
 15 16  1  0
 16 17  2  0
 17 18  1  0
 18 19  2  0
 19 20  1  0
 20 21  2  0
 21 22  1  0
 22 23  2  0
 23 24  1  0
 24 25  2  0
 25 26  1  0
 26 27  2  0
 27 28  1  0
 28 29  2  0
 29 30  1  0
 30 31  2  0
 31 32  1  0
 32 33  2  0
 33 34  1  0
 34 35  2  0
 35  4  1  0
 17 12  1  0
 23 18  1  0
 29 24  1  0
 35 30  1  0
M  END
>  <Title>  (602) 
idAAVFgen8

$$$$

     RDKit          2D

 16 17  0  0  0  0  0  0  0  0999 V2000
    3.0000    0.0000    0.0000 C   0  0  0  0  0  0  0  0  0  0  0  0
    1.5000    0.0000    0.0000 C   0  0  0  0  0  0  0  0  0  0  0  0
    0.7500   -1.2990    0.0000 C   0  0  0  0  0  0  0  0  0  0  0  0
   -0.7500   -1.2990    0.0000 C   0  0  0  0  0  0  0  0  0  0  0  0
   -1.5000    0.0000    0.0000 C   0  0  0  0  0  0  0  0  0  0  0  0
   -3.0000    0.0000    0.0000 N   0  0  0  0  0  0  0  0  0  0  0  0
   -3.7500    1.2990    0.0000 C   0  0  0  0  0  0  0  0  0  0  0  0
   -3.0000    2.5981    0.0000 O   0  0  0  0  0  0  0  0  0  0  0  0
   -5.2500    1.2990    0.0000 C   0  0  0  0  0  0  0  0  0  0  0  0
   -6.0000    2.5981    0.0000 C   0  0  0  0  0  0  0  0  0  0  0  0
   -7.5000    2.5981    0.0000 C   0  0  0  0  0  0  0  0  0  0  0  0
   -8.2500    1.2990    0.0000 C   0  0  0  0  0  0  0  0  0  0  0  0
   -7.5000    0.0000    0.0000 C   0  0  0  0  0  0  0  0  0  0  0  0
   -6.0000    0.0000    0.0000 C   0  0  0  0  0  0  0  0  0  0  0  0
   -0.7500    1.2990    0.0000 C   0  0  0  0  0  0  0  0  0  0  0  0
    0.7500    1.2990    0.0000 C   0  0  0  0  0  0  0  0  0  0  0  0
  1  2  1  0
  2  3  2  0
  3  4  1  0
  4  5  2  0
  5  6  1  0
  6  7  1  0
  7  8  2  0
  7  9  1  0
  9 10  2  0
 10 11  1  0
 11 12  2  0
 12 13  1  0
 13 14  2  0
  5 15  1  0
 15 16  2  0
 16  2  1  0
 14  9  1  0
M  END
>  <Title>  (603) 
idAAVGgen8

$$$$

     RDKit          2D

 47 47  0  0  0  0  0  0  0  0999 V2000
   12.4902    0.0000    0.0000 C   0  0  0  0  0  0  0  0  0  0  0  0
   10.9902    0.0000    0.0000 C   0  0  0  0  0  0  0  0  0  0  0  0
   10.8879   -1.4965    0.0000 C   0  0  0  0  0  0  0  0  0  0  0  0
   10.5827   -2.9651    0.0000 C   0  0  0  0  0  0  0  0  0  0  0  0
   10.0804   -4.3785    0.0000 C   0  0  0  0  0  0  0  0  0  0  0  0
    9.3903   -5.7103    0.0000 C   0  0  0  0  0  0  0  0  0  0  0  0
    8.5252   -6.9358    0.0000 C   0  0  0  0  0  0  0  0  0  0  0  0
    7.5014   -8.0321    0.0000 C   0  0  0  0  0  0  0  0  0  0  0  0
    6.3379   -8.9787    0.0000 C   0  0  0  0  0  0  0  0  0  0  0  0
    5.0562   -9.7581    0.0000 C   0  0  0  0  0  0  0  0  0  0  0  0
    3.6804  -10.3557    0.0000 C   0  0  0  0  0  0  0  0  0  0  0  0
    2.2360  -10.7604    0.0000 C   0  0  0  0  0  0  0  0  0  0  0  0
    0.7500  -10.9646    0.0000 C   0  0  0  0  0  0  0  0  0  0  0  0
   -0.7500  -10.9646    0.0000 C   0  0  0  0  0  0  0  0  0  0  0  0
   -2.2360  -10.7604    0.0000 C   0  0  0  0  0  0  0  0  0  0  0  0
   -3.6804  -10.3557    0.0000 C   0  0  0  0  0  0  0  0  0  0  0  0
   -5.0562   -9.7581    0.0000 C   0  0  0  0  0  0  0  0  0  0  0  0
   -6.3379   -8.9787    0.0000 C   0  0  0  0  0  0  0  0  0  0  0  0
   -7.5014   -8.0321    0.0000 C   0  0  0  0  0  0  0  0  0  0  0  0
   -8.5252   -6.9358    0.0000 C   0  0  0  0  0  0  0  0  0  0  0  0
   -9.3903   -5.7103    0.0000 C   0  0  0  0  0  0  0  0  0  0  0  0
  -10.0804   -4.3785    0.0000 C   0  0  0  0  0  0  0  0  0  0  0  0
  -10.5827   -2.9651    0.0000 C   0  0  0  0  0  0  0  0  0  0  0  0
  -10.8879   -1.4965    0.0000 C   0  0  0  0  0  0  0  0  0  0  0  0
  -10.9902    0.0000    0.0000 C   0  0  0  0  0  0  0  0  0  0  0  0
  -10.8879    1.4965    0.0000 C   0  0  0  0  0  0  0  0  0  0  0  0
  -10.5827    2.9651    0.0000 C   0  0  0  0  0  0  0  0  0  0  0  0
  -10.0804    4.3785    0.0000 C   0  0  0  0  0  0  0  0  0  0  0  0
   -9.3903    5.7103    0.0000 C   0  0  0  0  0  0  0  0  0  0  0  0
   -8.5252    6.9358    0.0000 C   0  0  0  0  0  0  0  0  0  0  0  0
   -7.5014    8.0321    0.0000 C   0  0  0  0  0  0  0  0  0  0  0  0
   -6.3379    8.9787    0.0000 C   0  0  0  0  0  0  0  0  0  0  0  0
   -5.0562    9.7581    0.0000 C   0  0  0  0  0  0  0  0  0  0  0  0
   -3.6804   10.3557    0.0000 C   0  0  0  0  0  0  0  0  0  0  0  0
   -2.2360   10.7604    0.0000 C   0  0  0  0  0  0  0  0  0  0  0  0
   -0.7500   10.9646    0.0000 C   0  0  0  0  0  0  0  0  0  0  0  0
    0.7500   10.9646    0.0000 C   0  0  0  0  0  0  0  0  0  0  0  0
    2.2360   10.7604    0.0000 C   0  0  0  0  0  0  0  0  0  0  0  0
    3.6804   10.3557    0.0000 C   0  0  0  0  0  0  0  0  0  0  0  0
    5.0562    9.7581    0.0000 C   0  0  0  0  0  0  0  0  0  0  0  0
    6.3379    8.9787    0.0000 C   0  0  0  0  0  0  0  0  0  0  0  0
    7.5014    8.0321    0.0000 C   0  0  0  0  0  0  0  0  0  0  0  0
    8.5252    6.9358    0.0000 C   0  0  0  0  0  0  0  0  0  0  0  0
    9.3903    5.7103    0.0000 C   0  0  0  0  0  0  0  0  0  0  0  0
   10.0804    4.3785    0.0000 C   0  0  0  0  0  0  0  0  0  0  0  0
   10.5827    2.9651    0.0000 C   0  0  0  0  0  0  0  0  0  0  0  0
   10.8879    1.4965    0.0000 C   0  0  0  0  0  0  0  0  0  0  0  0
  1  2  1  0
  2  3  1  0
  3  4  1  0
  4  5  2  0
  5  6  1  0
  6  7  2  0
  7  8  1  0
  8  9  2  0
  9 10  1  0
 10 11  2  0
 11 12  1  0
 12 13  2  0
 13 14  1  0
 14 15  2  0
 15 16  1  0
 16 17  2  0
 17 18  1  0
 18 19  2  0
 19 20  1  0
 20 21  1  0
 21 22  1  0
 22 23  1  0
 23 24  1  0
 24 25  1  0
 25 26  1  0
 26 27  1  0
 27 28  1  0
 28 29  1  0
 29 30  1  0
 30 31  1  0
 31 32  1  0
 32 33  1  0
 33 34  1  0
 34 35  1  0
 35 36  1  0
 36 37  1  0
 37 38  1  0
 38 39  1  0
 39 40  1  0
 40 41  1  0
 41 42  1  0
 42 43  1  0
 43 44  1  0
 44 45  1  0
 45 46  1  0
 46 47  1  0
 47  2  1  0
M  END
>  <Title>  (604) 
idAAVHgen8

$$$$

     RDKit          2D

 13 13  0  0  0  0  0  0  0  0999 V2000
    5.0260    1.2990    0.0000 C   0  0  0  0  0  0  0  0  0  0  0  0
    3.5260    1.2990    0.0000 C   0  0  0  0  0  0  0  0  0  0  0  0
    2.7760    0.0000    0.0000 C   0  0  0  0  0  0  0  0  0  0  0  0
    1.2760    0.0000    0.0000 C   0  0  0  0  0  0  0  0  0  0  0  0
    0.3943    1.2135    0.0000 C   0  0  0  0  0  0  0  0  0  0  0  0
   -1.0323    0.7500    0.0000 C   0  0  0  0  0  0  0  0  0  0  0  0
   -2.2458    1.6317    0.0000 C   0  0  0  0  0  0  0  0  0  0  0  0
   -3.6161    1.0216    0.0000 O   0  0  0  0  0  0  0  0  0  0  0  0
   -2.0890    3.1235    0.0000 O   0  0  0  0  0  0  0  0  0  0  0  0
   -1.0323   -0.7500    0.0000 C   0  0  0  0  0  0  0  0  0  0  0  0
   -2.2458   -1.6317    0.0000 O   0  0  0  0  0  0  0  0  0  0  0  0
    0.3943   -1.2135    0.0000 C   0  0  0  0  0  0  0  0  0  0  0  0
    0.8578   -2.6401    0.0000 C   0  0  0  0  0  0  0  0  0  0  0  0
  1  2  1  0
  2  3  1  0
  3  4  1  0
  4  5  2  0
  5  6  1  0
  6  7  1  0
  7  8  2  0
  7  9  1  0
  6 10  1  0
 10 11  2  0
 10 12  1  0
 12 13  1  0
 12  4  1  0
M  END
>  <Title>  (605) 
idAAVIgen8

$$$$

     RDKit          2D

 28 30  0  0  0  0  0  0  0  0999 V2000
    1.8478   -9.0619    0.0000 C   0  0  0  0  0  0  0  0  0  0  0  0
    2.0046   -7.5702    0.0000 C   0  0  0  0  0  0  0  0  0  0  0  0
    3.3037   -6.8202    0.0000 C   0  0  0  0  0  0  0  0  0  0  0  0
    2.9918   -5.3529    0.0000 C   0  0  0  0  0  0  0  0  0  0  0  0
    1.5000   -5.1962    0.0000 C   0  0  0  0  0  0  0  0  0  0  0  0
    0.7500   -3.8971    0.0000 C   0  0  0  0  0  0  0  0  0  0  0  0
   -0.7500   -3.8971    0.0000 O   0  0  0  0  0  0  0  0  0  0  0  0
    1.5000   -2.5981    0.0000 N   0  0  0  0  0  0  0  0  0  0  0  0
    0.7500   -1.2990    0.0000 C   0  0  0  0  0  0  0  0  0  0  0  0
    1.5000    0.0000    0.0000 N   0  0  0  0  0  0  0  0  0  0  0  0
    0.7500    1.2990    0.0000 N   0  0  0  0  0  0  0  0  0  0  0  0
   -0.7500    1.2990    0.0000 N   0  0  0  0  0  0  0  0  0  0  0  0
   -1.5000    0.0000    0.0000 N   0  0  0  0  0  0  0  0  0  0  0  0
   -0.7500   -1.2990    0.0000 N   0  0  0  0  0  0  0  0  0  0  0  0
    0.8899   -6.5665    0.0000 C   0  0  0  0  0  0  0  0  0  0  0  0
   -0.5773   -6.8783    0.0000 C   0  0  0  0  0  0  0  0  0  0  0  0
   -1.0409   -8.3049    0.0000 C   0  0  0  0  0  0  0  0  0  0  0  0
   -2.5081   -8.6168    0.0000 C   0  0  0  0  0  0  0  0  0  0  0  0
   -2.9716  -10.0434    0.0000 C   0  0  0  0  0  0  0  0  0  0  0  0
   -4.4388  -10.3552    0.0000 C   0  0  0  0  0  0  0  0  0  0  0  0
   -5.4425   -9.2405    0.0000 O   0  0  0  0  0  0  0  0  0  0  0  0
   -6.9097   -9.5524    0.0000 C   0  0  0  0  0  0  0  0  0  0  0  0
   -7.3733  -10.9790    0.0000 C   0  0  0  0  0  0  0  0  0  0  0  0
   -8.8405  -11.2908    0.0000 O   0  0  0  0  0  0  0  0  0  0  0  0
   -6.3696  -12.0937    0.0000 C   0  0  0  0  0  0  0  0  0  0  0  0
   -6.8331  -13.5203    0.0000 O   0  0  0  0  0  0  0  0  0  0  0  0
   -4.9023  -11.7818    0.0000 C   0  0  0  0  0  0  0  0  0  0  0  0
   -3.8986  -12.8965    0.0000 O   0  0  0  0  0  0  0  0  0  0  0  0
  1  2  1  0
  2  3  1  0
  3  4  1  0
  4  5  1  0
  5  6  1  0
  6  7  2  0
  6  8  1  0
  8  9  1  0
  9 10  2  0
 10 11  1  0
 11 12  2  0
 12 13  1  0
 13 14  2  0
  5 15  1  0
 15 16  2  3
 16 17  1  0
 17 18  2  3
 18 19  1  0
 19 20  2  3
 20 21  1  0
 21 22  1  0
 22 23  1  0
 23 24  1  0
 23 25  1  0
 25 26  1  0
 25 27  1  0
 27 28  1  0
 15  2  1  0
 27 20  1  0
 14  9  1  0
M  END
>  <Title>  (606) 
idAAVJgen8

$$$$

     RDKit          2D

 12 12  0  0  0  0  0  0  0  0999 V2000
    8.2500   -1.2990    0.0000 C   0  0  0  0  0  0  0  0  0  0  0  0
    6.7500   -1.2990    0.0000 C   0  0  0  0  0  0  0  0  0  0  0  0
    5.2500   -1.2990    0.0000 C   0  0  0  0  0  0  0  0  0  0  0  0
    3.7500   -1.2990    0.0000 C   0  0  0  0  0  0  0  0  0  0  0  0
    3.0000   -2.5981    0.0000 O   0  0  0  0  0  0  0  0  0  0  0  0
    3.0000    0.0000    0.0000 O   0  0  0  0  0  0  0  0  0  0  0  0
    1.5000    0.0000    0.0000 C   0  0  0  0  0  0  0  0  0  0  0  0
    0.7500   -1.2990    0.0000 C   0  0  0  0  0  0  0  0  0  0  0  0
   -0.7500   -1.2990    0.0000 C   0  0  0  0  0  0  0  0  0  0  0  0
   -1.5000    0.0000    0.0000 C   0  0  0  0  0  0  0  0  0  0  0  0
   -0.7500    1.2990    0.0000 C   0  0  0  0  0  0  0  0  0  0  0  0
    0.7500    1.2990    0.0000 C   0  0  0  0  0  0  0  0  0  0  0  0
  1  2  1  0
  2  3  3  0
  3  4  1  0
  4  5  2  0
  4  6  1  0
  6  7  1  0
  7  8  2  0
  8  9  1  0
  9 10  1  0
 10 11  1  0
 11 12  1  0
 12  7  1  0
M  END
>  <Title>  (607) 
idAAVKgen8

$$$$

     RDKit          2D

 12 12  0  0  0  0  0  0  0  0999 V2000
    7.5000   -2.5981    0.0000 C   0  0  0  0  0  0  0  0  0  0  0  0
    6.0000   -2.5981    0.0000 C   0  0  0  0  0  0  0  0  0  0  0  0
    5.2500   -1.2990    0.0000 C   0  0  0  0  0  0  0  0  0  0  0  0
    3.7500   -1.2990    0.0000 C   0  0  0  0  0  0  0  0  0  0  0  0
    3.0000   -2.5981    0.0000 O   0  0  0  0  0  0  0  0  0  0  0  0
    3.0000    0.0000    0.0000 N   0  0  0  0  0  0  0  0  0  0  0  0
    1.5000    0.0000    0.0000 C   0  0  0  0  0  0  0  0  0  0  0  0
    0.7500   -1.2990    0.0000 N   0  0  0  0  0  0  0  0  0  0  0  0
   -0.7500   -1.2990    0.0000 N   0  0  0  0  0  0  0  0  0  0  0  0
   -1.5000    0.0000    0.0000 N   0  0  0  0  0  0  0  0  0  0  0  0
   -0.7500    1.2990    0.0000 N   0  0  0  0  0  0  0  0  0  0  0  0
    0.7500    1.2990    0.0000 N   0  0  0  0  0  0  0  0  0  0  0  0
  1  2  1  0
  2  3  2  3
  3  4  1  0
  4  5  2  0
  4  6  1  0
  6  7  1  0
  7  8  2  0
  8  9  1  0
  9 10  2  0
 10 11  1  0
 11 12  2  0
 12  7  1  0
M  END
>  <Title>  (608) 
idAAVLgen8

$$$$

     RDKit          2D

 14 14  0  0  0  0  0  0  0  0999 V2000
    8.4786   -1.2990    0.0000 C   0  0  0  0  0  0  0  0  0  0  0  0
    6.9786   -1.2990    0.0000 C   0  0  0  0  0  0  0  0  0  0  0  0
    5.4786   -1.2990    0.0000 C   0  0  0  0  0  0  0  0  0  0  0  0
    3.9786   -1.2990    0.0000 C   0  0  0  0  0  0  0  0  0  0  0  0
    3.2286   -2.5981    0.0000 O   0  0  0  0  0  0  0  0  0  0  0  0
    3.2286   -0.0000    0.0000 N   0  0  0  0  0  0  0  0  0  0  0  0
    1.7286    0.0000    0.0000 C   0  0  0  0  0  0  0  0  0  0  0  0
    1.0777    1.3515    0.0000 C   0  0  0  0  0  0  0  0  0  0  0  0
   -0.3846    1.6852    0.0000 C   0  0  0  0  0  0  0  0  0  0  0  0
   -1.5574    0.7500    0.0000 C   0  0  0  0  0  0  0  0  0  0  0  0
   -2.9088    1.4008    0.0000 O   0  0  0  0  0  0  0  0  0  0  0  0
   -1.5574   -0.7500    0.0000 C   0  0  0  0  0  0  0  0  0  0  0  0
   -0.3846   -1.6852    0.0000 C   0  0  0  0  0  0  0  0  0  0  0  0
    1.0777   -1.3515    0.0000 C   0  0  0  0  0  0  0  0  0  0  0  0
  1  2  1  0
  2  3  3  0
  3  4  1  0
  4  5  2  0
  4  6  1  0
  6  7  1  0
  7  8  2  0
  8  9  1  0
  9 10  2  0
 10 11  1  0
 10 12  1  0
 12 13  2  0
 13 14  1  0
 14  7  1  0
M  END
>  <Title>  (609) 
idAAVMgen8

$$$$

     RDKit          2D

119119  0  0  0  0  0  0  0  0999 V2000
   29.6738    0.0000    0.0000 C   0  0  0  0  0  0  0  0  0  0  0  0
   28.1738    0.0000    0.0000 C   0  0  0  0  0  0  0  0  0  0  0  0
   28.1338   -1.4995    0.0000 C   0  0  0  0  0  0  0  0  0  0  0  0
   28.0141   -2.9947    0.0000 C   0  0  0  0  0  0  0  0  0  0  0  0
   27.8151   -4.4814    0.0000 C   0  0  0  0  0  0  0  0  0  0  0  0
   27.5371   -5.9554    0.0000 C   0  0  0  0  0  0  0  0  0  0  0  0
   27.1811   -7.4126    0.0000 C   0  0  0  0  0  0  0  0  0  0  0  0
   26.7481   -8.8487    0.0000 C   0  0  0  0  0  0  0  0  0  0  0  0
   26.2392  -10.2598    0.0000 C   0  0  0  0  0  0  0  0  0  0  0  0
   25.6560  -11.6417    0.0000 C   0  0  0  0  0  0  0  0  0  0  0  0
   25.0000  -12.9907    0.0000 C   0  0  0  0  0  0  0  0  0  0  0  0
   24.2732  -14.3029    0.0000 C   0  0  0  0  0  0  0  0  0  0  0  0
   23.4776  -15.5745    0.0000 C   0  0  0  0  0  0  0  0  0  0  0  0
   22.6154  -16.8019    0.0000 C   0  0  0  0  0  0  0  0  0  0  0  0
   21.6891  -17.9817    0.0000 C   0  0  0  0  0  0  0  0  0  0  0  0
   20.7013  -19.1106    0.0000 C   0  0  0  0  0  0  0  0  0  0  0  0
   19.6549  -20.1853    0.0000 C   0  0  0  0  0  0  0  0  0  0  0  0
   18.5527  -21.2027    0.0000 C   0  0  0  0  0  0  0  0  0  0  0  0
   17.3980  -22.1601    0.0000 C   0  0  0  0  0  0  0  0  0  0  0  0
   16.1939  -23.0547    0.0000 C   0  0  0  0  0  0  0  0  0  0  0  0
   14.9439  -23.8839    0.0000 C   0  0  0  0  0  0  0  0  0  0  0  0
   13.6516  -24.6454    0.0000 C   0  0  0  0  0  0  0  0  0  0  0  0
   12.3206  -25.3370    0.0000 C   0  0  0  0  0  0  0  0  0  0  0  0
   10.9546  -25.9568    0.0000 C   0  0  0  0  0  0  0  0  0  0  0  0
    9.5576  -26.5031    0.0000 C   0  0  0  0  0  0  0  0  0  0  0  0
    8.1335  -26.9742    0.0000 C   0  0  0  0  0  0  0  0  0  0  0  0
    6.6864  -27.3688    0.0000 C   0  0  0  0  0  0  0  0  0  0  0  0
    5.2203  -27.6859    0.0000 C   0  0  0  0  0  0  0  0  0  0  0  0
    3.7394  -27.9245    0.0000 C   0  0  0  0  0  0  0  0  0  0  0  0
    2.2479  -28.0839    0.0000 C   0  0  0  0  0  0  0  0  0  0  0  0
    0.7500  -28.1638    0.0000 C   0  0  0  0  0  0  0  0  0  0  0  0
   -0.7500  -28.1638    0.0000 C   0  0  0  0  0  0  0  0  0  0  0  0
   -2.2479  -28.0839    0.0000 C   0  0  0  0  0  0  0  0  0  0  0  0
   -3.7394  -27.9245    0.0000 C   0  0  0  0  0  0  0  0  0  0  0  0
   -5.2203  -27.6859    0.0000 C   0  0  0  0  0  0  0  0  0  0  0  0
   -6.6864  -27.3688    0.0000 C   0  0  0  0  0  0  0  0  0  0  0  0
   -8.1335  -26.9742    0.0000 C   0  0  0  0  0  0  0  0  0  0  0  0
   -9.5576  -26.5031    0.0000 C   0  0  0  0  0  0  0  0  0  0  0  0
  -10.9546  -25.9568    0.0000 C   0  0  0  0  0  0  0  0  0  0  0  0
  -12.3206  -25.3370    0.0000 C   0  0  0  0  0  0  0  0  0  0  0  0
  -13.6516  -24.6454    0.0000 C   0  0  0  0  0  0  0  0  0  0  0  0
  -14.9439  -23.8839    0.0000 C   0  0  0  0  0  0  0  0  0  0  0  0
  -16.1939  -23.0547    0.0000 C   0  0  0  0  0  0  0  0  0  0  0  0
  -17.3980  -22.1601    0.0000 C   0  0  0  0  0  0  0  0  0  0  0  0
  -18.5527  -21.2027    0.0000 C   0  0  0  0  0  0  0  0  0  0  0  0
  -19.6549  -20.1853    0.0000 C   0  0  0  0  0  0  0  0  0  0  0  0
  -20.7013  -19.1106    0.0000 C   0  0  0  0  0  0  0  0  0  0  0  0
  -21.6891  -17.9817    0.0000 C   0  0  0  0  0  0  0  0  0  0  0  0
  -22.6154  -16.8019    0.0000 C   0  0  0  0  0  0  0  0  0  0  0  0
  -23.4776  -15.5745    0.0000 C   0  0  0  0  0  0  0  0  0  0  0  0
  -24.2732  -14.3029    0.0000 C   0  0  0  0  0  0  0  0  0  0  0  0
  -25.0000  -12.9907    0.0000 C   0  0  0  0  0  0  0  0  0  0  0  0
  -25.6560  -11.6417    0.0000 C   0  0  0  0  0  0  0  0  0  0  0  0
  -26.2392  -10.2598    0.0000 C   0  0  0  0  0  0  0  0  0  0  0  0
  -26.7481   -8.8487    0.0000 C   0  0  0  0  0  0  0  0  0  0  0  0
  -27.1811   -7.4126    0.0000 C   0  0  0  0  0  0  0  0  0  0  0  0
  -27.5371   -5.9554    0.0000 C   0  0  0  0  0  0  0  0  0  0  0  0
  -27.8151   -4.4814    0.0000 C   0  0  0  0  0  0  0  0  0  0  0  0
  -28.0141   -2.9947    0.0000 C   0  0  0  0  0  0  0  0  0  0  0  0
  -28.1338   -1.4995    0.0000 C   0  0  0  0  0  0  0  0  0  0  0  0
  -28.1738    0.0000    0.0000 C   0  0  0  0  0  0  0  0  0  0  0  0
  -28.1338    1.4995    0.0000 C   0  0  0  0  0  0  0  0  0  0  0  0
  -28.0141    2.9947    0.0000 C   0  0  0  0  0  0  0  0  0  0  0  0
  -27.8151    4.4814    0.0000 C   0  0  0  0  0  0  0  0  0  0  0  0
  -27.5371    5.9554    0.0000 C   0  0  0  0  0  0  0  0  0  0  0  0
  -27.1811    7.4126    0.0000 C   0  0  0  0  0  0  0  0  0  0  0  0
  -26.7481    8.8487    0.0000 C   0  0  0  0  0  0  0  0  0  0  0  0
  -26.2392   10.2598    0.0000 C   0  0  0  0  0  0  0  0  0  0  0  0
  -25.6560   11.6417    0.0000 C   0  0  0  0  0  0  0  0  0  0  0  0
  -25.0000   12.9907    0.0000 C   0  0  0  0  0  0  0  0  0  0  0  0
  -24.2732   14.3029    0.0000 C   0  0  0  0  0  0  0  0  0  0  0  0
  -23.4776   15.5745    0.0000 C   0  0  0  0  0  0  0  0  0  0  0  0
  -22.6154   16.8019    0.0000 C   0  0  0  0  0  0  0  0  0  0  0  0
  -21.6891   17.9817    0.0000 C   0  0  0  0  0  0  0  0  0  0  0  0
  -20.7013   19.1106    0.0000 C   0  0  0  0  0  0  0  0  0  0  0  0
  -19.6549   20.1853    0.0000 C   0  0  0  0  0  0  0  0  0  0  0  0
  -18.5527   21.2027    0.0000 C   0  0  0  0  0  0  0  0  0  0  0  0
  -17.3980   22.1601    0.0000 C   0  0  0  0  0  0  0  0  0  0  0  0
  -16.1939   23.0547    0.0000 C   0  0  0  0  0  0  0  0  0  0  0  0
  -14.9439   23.8839    0.0000 C   0  0  0  0  0  0  0  0  0  0  0  0
  -13.6516   24.6454    0.0000 C   0  0  0  0  0  0  0  0  0  0  0  0
  -12.3206   25.3370    0.0000 C   0  0  0  0  0  0  0  0  0  0  0  0
  -10.9546   25.9568    0.0000 C   0  0  0  0  0  0  0  0  0  0  0  0
   -9.5576   26.5031    0.0000 C   0  0  0  0  0  0  0  0  0  0  0  0
   -8.1335   26.9742    0.0000 C   0  0  0  0  0  0  0  0  0  0  0  0
   -6.6864   27.3688    0.0000 C   0  0  0  0  0  0  0  0  0  0  0  0
   -5.2203   27.6859    0.0000 C   0  0  0  0  0  0  0  0  0  0  0  0
   -3.7394   27.9245    0.0000 C   0  0  0  0  0  0  0  0  0  0  0  0
   -2.2479   28.0839    0.0000 C   0  0  0  0  0  0  0  0  0  0  0  0
   -0.7500   28.1638    0.0000 C   0  0  0  0  0  0  0  0  0  0  0  0
    0.7500   28.1638    0.0000 C   0  0  0  0  0  0  0  0  0  0  0  0
    2.2479   28.0839    0.0000 C   0  0  0  0  0  0  0  0  0  0  0  0
    3.7394   27.9245    0.0000 C   0  0  0  0  0  0  0  0  0  0  0  0
    5.2203   27.6859    0.0000 C   0  0  0  0  0  0  0  0  0  0  0  0
    6.6864   27.3688    0.0000 C   0  0  0  0  0  0  0  0  0  0  0  0
    8.1335   26.9742    0.0000 C   0  0  0  0  0  0  0  0  0  0  0  0
    9.5576   26.5031    0.0000 C   0  0  0  0  0  0  0  0  0  0  0  0
   10.9546   25.9568    0.0000 C   0  0  0  0  0  0  0  0  0  0  0  0
   12.3206   25.3370    0.0000 C   0  0  0  0  0  0  0  0  0  0  0  0
   13.6516   24.6454    0.0000 C   0  0  0  0  0  0  0  0  0  0  0  0
   14.9439   23.8839    0.0000 C   0  0  0  0  0  0  0  0  0  0  0  0
   16.1939   23.0547    0.0000 C   0  0  0  0  0  0  0  0  0  0  0  0
   17.3980   22.1601    0.0000 C   0  0  0  0  0  0  0  0  0  0  0  0
   18.5527   21.2027    0.0000 C   0  0  0  0  0  0  0  0  0  0  0  0
   19.6549   20.1853    0.0000 C   0  0  0  0  0  0  0  0  0  0  0  0
   20.7013   19.1106    0.0000 C   0  0  0  0  0  0  0  0  0  0  0  0
   21.6891   17.9817    0.0000 C   0  0  0  0  0  0  0  0  0  0  0  0
   22.6154   16.8019    0.0000 C   0  0  0  0  0  0  0  0  0  0  0  0
   23.4776   15.5745    0.0000 C   0  0  0  0  0  0  0  0  0  0  0  0
   24.2732   14.3029    0.0000 C   0  0  0  0  0  0  0  0  0  0  0  0
   25.0000   12.9907    0.0000 C   0  0  0  0  0  0  0  0  0  0  0  0
   25.6560   11.6417    0.0000 C   0  0  0  0  0  0  0  0  0  0  0  0
   26.2392   10.2598    0.0000 C   0  0  0  0  0  0  0  0  0  0  0  0
   26.7481    8.8487    0.0000 C   0  0  0  0  0  0  0  0  0  0  0  0
   27.1811    7.4126    0.0000 C   0  0  0  0  0  0  0  0  0  0  0  0
   27.5371    5.9554    0.0000 C   0  0  0  0  0  0  0  0  0  0  0  0
   27.8151    4.4814    0.0000 C   0  0  0  0  0  0  0  0  0  0  0  0
   28.0141    2.9947    0.0000 C   0  0  0  0  0  0  0  0  0  0  0  0
   28.1338    1.4995    0.0000 C   0  0  0  0  0  0  0  0  0  0  0  0
  1  2  1  0
  2  3  1  0
  3  4  2  0
  4  5  1  0
  5  6  2  0
  6  7  1  0
  7  8  2  0
  8  9  1  0
  9 10  2  0
 10 11  1  0
 11 12  2  0
 12 13  1  0
 13 14  2  0
 14 15  1  0
 15 16  1  0
 16 17  1  0
 17 18  1  0
 18 19  1  0
 19 20  1  0
 20 21  1  0
 21 22  1  0
 22 23  1  0
 23 24  1  0
 24 25  1  0
 25 26  1  0
 26 27  1  0
 27 28  1  0
 28 29  1  0
 29 30  1  0
 30 31  1  0
 31 32  1  0
 32 33  1  0
 33 34  1  0
 34 35  1  0
 35 36  1  0
 36 37  1  0
 37 38  1  0
 38 39  1  0
 39 40  1  0
 40 41  1  0
 41 42  1  0
 42 43  1  0
 43 44  1  0
 44 45  1  0
 45 46  1  0
 46 47  1  0
 47 48  1  0
 48 49  1  0
 49 50  1  0
 50 51  1  0
 51 52  1  0
 52 53  1  0
 53 54  1  0
 54 55  1  0
 55 56  1  0
 56 57  1  0
 57 58  1  0
 58 59  1  0
 59 60  1  0
 60 61  1  0
 61 62  1  0
 62 63  1  0
 63 64  1  0
 64 65  1  0
 65 66  1  0
 66 67  1  0
 67 68  1  0
 68 69  1  0
 69 70  1  0
 70 71  1  0
 71 72  1  0
 72 73  1  0
 73 74  1  0
 74 75  1  0
 75 76  1  0
 76 77  1  0
 77 78  1  0
 78 79  1  0
 79 80  1  0
 80 81  1  0
 81 82  1  0
 82 83  1  0
 83 84  1  0
 84 85  1  0
 85 86  1  0
 86 87  1  0
 87 88  1  0
 88 89  1  0
 89 90  1  0
 90 91  1  0
 91 92  1  0
 92 93  1  0
 93 94  1  0
 94 95  1  0
 95 96  1  0
 96 97  1  0
 97 98  1  0
 98 99  1  0
 99100  1  0
100101  1  0
101102  1  0
102103  1  0
103104  1  0
104105  1  0
105106  1  0
106107  1  0
107108  1  0
108109  1  0
109110  1  0
110111  1  0
111112  1  0
112113  1  0
113114  1  0
114115  1  0
115116  1  0
116117  1  0
117118  1  0
118119  1  0
119  2  1  0
M  END
>  <Title>  (610) 
idAAVNgen8

$$$$

     RDKit          2D

  9  9  0  0  0  0  0  0  0  0999 V2000
    3.0000    0.0000    0.0000 C   0  0  0  0  0  0  0  0  0  0  0  0
    1.5000    0.0000    0.0000 C   0  0  0  0  0  0  0  0  0  0  0  0
    0.7500   -1.2990    0.0000 C   0  0  0  0  0  0  0  0  0  0  0  0
   -0.7500   -1.2990    0.0000 C   0  0  0  0  0  0  0  0  0  0  0  0
   -1.5000    0.0000    0.0000 C   0  0  0  0  0  0  0  0  0  0  0  0
   -0.7500    1.2990    0.0000 C   0  0  0  0  0  0  0  0  0  0  0  0
   -1.5000    2.5981    0.0000 C   0  0  0  0  0  0  0  0  0  0  0  0
   -2.2500    3.8971    0.0000 N   0  0  0  0  0  0  0  0  0  0  0  0
    0.7500    1.2990    0.0000 C   0  0  0  0  0  0  0  0  0  0  0  0
  1  2  1  0
  2  3  2  0
  3  4  1  0
  4  5  1  0
  5  6  1  0
  6  7  1  0
  7  8  3  0
  6  9  1  0
  9  2  1  0
M  END
>  <Title>  (611) 
idAAVOgen8

$$$$

     RDKit          2D

 12 12  0  0  0  0  0  0  0  0999 V2000
    5.4786   -1.2990    0.0000 C   0  0  0  0  0  0  0  0  0  0  0  0
    3.9786   -1.2990    0.0000 C   0  0  0  0  0  0  0  0  0  0  0  0
    3.2286   -0.0000    0.0000 C   0  0  0  0  0  0  0  0  0  0  0  0
    1.7286    0.0000    0.0000 C   0  0  0  0  0  0  0  0  0  0  0  0
    1.0777    1.3515    0.0000 C   0  0  0  0  0  0  0  0  0  0  0  0
   -0.3846    1.6852    0.0000 C   0  0  0  0  0  0  0  0  0  0  0  0
   -1.5574    0.7500    0.0000 C   0  0  0  0  0  0  0  0  0  0  0  0
   -2.9088    1.4008    0.0000 O   0  0  0  0  0  0  0  0  0  0  0  0
   -1.5574   -0.7500    0.0000 C   0  0  0  0  0  0  0  0  0  0  0  0
   -2.9088   -1.4008    0.0000 O   0  0  0  0  0  0  0  0  0  0  0  0
   -0.3846   -1.6852    0.0000 C   0  0  0  0  0  0  0  0  0  0  0  0
    1.0777   -1.3515    0.0000 C   0  0  0  0  0  0  0  0  0  0  0  0
  1  2  1  0
  2  3  1  0
  3  4  1  0
  4  5  2  0
  5  6  1  0
  6  7  1  0
  7  8  1  0
  7  9  1  0
  9 10  1  0
  9 11  1  0
 11 12  2  0
 12  4  1  0
M  END
>  <Title>  (612) 
idAAVPgen8

$$$$

     RDKit          2D

  9  9  0  0  0  0  0  0  0  0999 V2000
    3.7500   -1.2990    0.0000 C   0  0  0  0  0  0  0  0  0  0  0  0
    3.0000    0.0000    0.0000 C   0  0  0  0  0  0  0  0  0  0  0  0
    1.5000    0.0000    0.0000 C   0  0  0  0  0  0  0  0  0  0  0  0
    0.7500   -1.2990    0.0000 C   0  0  0  0  0  0  0  0  0  0  0  0
   -0.7500   -1.2990    0.0000 C   0  0  0  0  0  0  0  0  0  0  0  0
   -1.5000    0.0000    0.0000 C   0  0  0  0  0  0  0  0  0  0  0  0
   -3.0000    0.0000    0.0000 O   0  0  0  0  0  0  0  0  0  0  0  0
   -0.7500    1.2990    0.0000 C   0  0  0  0  0  0  0  0  0  0  0  0
    0.7500    1.2990    0.0000 C   0  0  0  0  0  0  0  0  0  0  0  0
  1  2  2  0
  2  3  1  0
  3  4  2  0
  4  5  1  0
  5  6  1  0
  6  7  1  0
  6  8  1  0
  8  9  1  0
  9  3  1  0
M  END
>  <Title>  (613) 
idAAVQgen8

$$$$

     RDKit          2D

  8  7  0  0  0  0  0  0  0  0999 V2000
    0.0000    0.0000    0.0000 C   0  0  0  0  0  0  0  0  0  0  0  0
    1.2990    0.7500    0.0000 C   0  0  0  0  0  0  0  0  0  0  0  0
    2.5981    1.5000    0.0000 C   0  0  0  0  0  0  0  0  0  0  0  0
    3.8971    2.2500    0.0000 C   0  0  0  0  0  0  0  0  0  0  0  0
    5.1962    1.5000    0.0000 C   0  0  0  0  0  0  0  0  0  0  0  0
    6.4952    0.7500    0.0000 C   0  0  0  0  0  0  0  0  0  0  0  0
    7.7942   -0.0000    0.0000 C   0  0  0  0  0  0  0  0  0  0  0  0
    9.0933    0.7500    0.0000 C   0  0  0  0  0  0  0  0  0  0  0  0
  1  2  1  0
  2  3  3  0
  3  4  1  0
  4  5  1  0
  5  6  3  0
  6  7  1  0
  7  8  1  0
M  END
>  <Title>  (614) 
idAAVRgen8

$$$$

     RDKit          2D

 18 19  0  0  0  0  0  0  0  0999 V2000
    3.0000    0.0000    0.0000 C   0  0  0  0  0  0  0  0  0  0  0  0
    1.5000    0.0000    0.0000 C   0  0  0  0  0  0  0  0  0  0  0  0
    0.7500   -1.2990    0.0000 C   0  0  0  0  0  0  0  0  0  0  0  0
   -0.7500   -1.2990    0.0000 C   0  0  0  0  0  0  0  0  0  0  0  0
   -1.5000    0.0000    0.0000 C   0  0  0  0  0  0  0  0  0  0  0  0
   -3.0000    0.0000    0.0000 C   0  0  0  0  0  0  0  0  0  0  0  0
   -0.7500    1.2990    0.0000 C   0  0  0  0  0  0  0  0  0  0  0  0
   -1.5000    2.5981    0.0000 N   0  0  0  0  0  0  0  0  0  0  0  0
   -0.7500    3.8971    0.0000 N   0  0  0  0  0  0  0  0  0  0  0  0
   -1.5000    5.1962    0.0000 N   0  0  0  0  0  0  0  0  0  0  0  0
   -0.7500    6.4952    0.0000 N   0  0  0  0  0  0  0  0  0  0  0  0
   -1.5000    7.7942    0.0000 C   0  0  0  0  0  0  0  0  0  0  0  0
   -0.7500    9.0933    0.0000 C   0  0  0  0  0  0  0  0  0  0  0  0
   -1.3601   10.4636    0.0000 C   0  0  0  0  0  0  0  0  0  0  0  0
   -0.2454   11.4673    0.0000 C   0  0  0  0  0  0  0  0  0  0  0  0
    1.0537   10.7173    0.0000 C   0  0  0  0  0  0  0  0  0  0  0  0
    0.7418    9.2501    0.0000 C   0  0  0  0  0  0  0  0  0  0  0  0
    0.7500    1.2990    0.0000 N   0  0  0  0  0  0  0  0  0  0  0  0
  1  2  1  0
  2  3  1  0
  3  4  1  0
  4  5  1  0
  5  6  1  0
  5  7  1  0
  7  8  2  3
  8  9  1  0
  9 10  2  3
 10 11  1  0
 11 12  1  0
 12 13  1  0
 13 14  2  0
 14 15  1  0
 15 16  2  0
 16 17  1  0
  7 18  1  0
 18  2  1  0
 17 13  1  0
M  END
>  <Title>  (615) 
idAAVSgen8

$$$$

     RDKit          2D

 12 12  0  0  0  0  0  0  0  0999 V2000
    6.0000   -2.5981    0.0000 C   0  0  0  0  0  0  0  0  0  0  0  0
    5.2500   -1.2990    0.0000 C   0  0  0  0  0  0  0  0  0  0  0  0
    3.7500   -1.2990    0.0000 C   0  0  0  0  0  0  0  0  0  0  0  0
    3.0000   -2.5981    0.0000 C   0  0  0  0  0  0  0  0  0  0  0  0
    3.7500   -3.8971    0.0000 O   0  0  0  0  0  0  0  0  0  0  0  0
    3.0000    0.0000    0.0000 N   0  0  0  0  0  0  0  0  0  0  0  0
    1.5000    0.0000    0.0000 C   0  0  0  0  0  0  0  0  0  0  0  0
    0.7500   -1.2990    0.0000 C   0  0  0  0  0  0  0  0  0  0  0  0
   -0.7500   -1.2990    0.0000 C   0  0  0  0  0  0  0  0  0  0  0  0
   -1.5000    0.0000    0.0000 C   0  0  0  0  0  0  0  0  0  0  0  0
   -0.7500    1.2990    0.0000 C   0  0  0  0  0  0  0  0  0  0  0  0
    0.7500    1.2990    0.0000 C   0  0  0  0  0  0  0  0  0  0  0  0
  1  2  1  0
  2  3  1  0
  3  4  1  0
  4  5  1  0
  3  6  1  0
  6  7  1  0
  7  8  2  0
  8  9  1  0
  9 10  2  0
 10 11  1  0
 11 12  2  0
 12  7  1  0
M  END
>  <Title>  (616) 
idAAVTgen8

$$$$

     RDKit          2D

  6  5  0  0  0  0  0  0  0  0999 V2000
    0.0000    0.0000    0.0000 C   0  0  0  0  0  0  0  0  0  0  0  0
    1.2990    0.7500    0.0000 C   0  0  0  0  0  0  0  0  0  0  0  0
    2.5981   -0.0000    0.0000 C   0  0  0  0  0  0  0  0  0  0  0  0
    3.8971    0.7500    0.0000 C   0  0  0  0  0  0  0  0  0  0  0  0
    5.1962   -0.0000    0.0000 C   0  0  0  0  0  0  0  0  0  0  0  0
    6.4952    0.7500    0.0000 C   0  0  0  0  0  0  0  0  0  0  0  0
  1  2  1  0
  2  3  2  3
  3  4  1  0
  4  5  1  0
  5  6  1  0
M  END
>  <Title>  (617) 
idAAVUgen8

$$$$

     RDKit          2D

  8  8  0  0  0  0  0  0  0  0999 V2000
    5.0260   -1.2990    0.0000 C   0  0  0  0  0  0  0  0  0  0  0  0
    3.5260   -1.2990    0.0000 C   0  0  0  0  0  0  0  0  0  0  0  0
    2.7760    0.0000    0.0000 C   0  0  0  0  0  0  0  0  0  0  0  0
    1.2760    0.0000    0.0000 C   0  0  0  0  0  0  0  0  0  0  0  0
    0.3943    1.2135    0.0000 C   0  0  0  0  0  0  0  0  0  0  0  0
   -1.0323    0.7500    0.0000 C   0  0  0  0  0  0  0  0  0  0  0  0
   -1.0323   -0.7500    0.0000 C   0  0  0  0  0  0  0  0  0  0  0  0
    0.3943   -1.2135    0.0000 C   0  0  0  0  0  0  0  0  0  0  0  0
  1  2  1  0
  2  3  1  0
  3  4  1  0
  4  5  1  0
  5  6  1  0
  6  7  2  0
  7  8  1  0
  8  4  1  0
M  END
>  <Title>  (618) 
idAAVVgen8

$$$$

     RDKit          2D

 11 11  0  0  0  0  0  0  0  0999 V2000
    6.0000   -2.5981    0.0000 C   0  0  0  0  0  0  0  0  0  0  0  0
    5.2500   -1.2990    0.0000 C   0  0  0  0  0  0  0  0  0  0  0  0
    3.7500   -1.2990    0.0000 C   0  0  0  0  0  0  0  0  0  0  0  0
    3.0000   -2.5981    0.0000 O   0  0  0  0  0  0  0  0  0  0  0  0
    3.0000    0.0000    0.0000 N   0  0  0  0  0  0  0  0  0  0  0  0
    1.5000    0.0000    0.0000 C   0  0  0  0  0  0  0  0  0  0  0  0
    0.7500   -1.2990    0.0000 N   0  0  0  0  0  0  0  0  0  0  0  0
   -0.7500   -1.2990    0.0000 N   0  0  0  0  0  0  0  0  0  0  0  0
   -1.5000    0.0000    0.0000 N   0  0  0  0  0  0  0  0  0  0  0  0
   -0.7500    1.2990    0.0000 N   0  0  0  0  0  0  0  0  0  0  0  0
    0.7500    1.2990    0.0000 N   0  0  0  0  0  0  0  0  0  0  0  0
  1  2  1  0
  2  3  1  0
  3  4  2  0
  3  5  1  0
  5  6  1  0
  6  7  2  0
  7  8  1  0
  8  9  2  0
  9 10  1  0
 10 11  2  0
 11  6  1  0
M  END
>  <Title>  (619) 
idAAVWgen8

$$$$

     RDKit          2D

 57 59  0  0  0  0  0  0  0  0999 V2000
   -2.5602   -0.0533    0.0000 C   0  0  0  0  0  0  0  0  0  0  0  0
   -2.2340   -1.5174    0.0000 C   0  0  0  0  0  0  0  0  0  0  0  0
   -3.6704   -1.9496    0.0000 C   0  0  0  0  0  0  0  0  0  0  0  0
   -5.0286   -2.5863    0.0000 C   0  0  0  0  0  0  0  0  0  0  0  0
   -6.2796   -3.4139    0.0000 C   0  0  0  0  0  0  0  0  0  0  0  0
   -7.3967   -4.4149    0.0000 C   0  0  0  0  0  0  0  0  0  0  0  0
   -8.3563   -5.5679    0.0000 C   0  0  0  0  0  0  0  0  0  0  0  0
   -9.1377   -6.8483    0.0000 C   0  0  0  0  0  0  0  0  0  0  0  0
   -9.7243   -8.2288    0.0000 C   0  0  0  0  0  0  0  0  0  0  0  0
  -10.1037   -9.6800    0.0000 C   0  0  0  0  0  0  0  0  0  0  0  0
  -10.2678  -11.1710    0.0000 C   0  0  0  0  0  0  0  0  0  0  0  0
  -10.2130  -12.6700    0.0000 C   0  0  0  0  0  0  0  0  0  0  0  0
   -9.9405  -14.1451    0.0000 C   0  0  0  0  0  0  0  0  0  0  0  0
   -9.4562  -15.5647    0.0000 C   0  0  0  0  0  0  0  0  0  0  0  0
   -8.7704  -16.8987    0.0000 C   0  0  0  0  0  0  0  0  0  0  0  0
   -7.8976  -18.1187    0.0000 C   0  0  0  0  0  0  0  0  0  0  0  0
   -6.8565  -19.1985    0.0000 C   0  0  0  0  0  0  0  0  0  0  0  0
   -5.6692  -20.1153    0.0000 C   0  0  0  0  0  0  0  0  0  0  0  0
   -4.3611  -20.8494    0.0000 C   0  0  0  0  0  0  0  0  0  0  0  0
   -2.9601  -21.3853    0.0000 C   0  0  0  0  0  0  0  0  0  0  0  0
   -1.4960  -21.7114    0.0000 C   0  0  0  0  0  0  0  0  0  0  0  0
   -0.0000  -21.8209    0.0000 C   0  0  0  0  0  0  0  0  0  0  0  0
    1.4960  -21.7114    0.0000 C   0  0  0  0  0  0  0  0  0  0  0  0
    2.9601  -21.3853    0.0000 C   0  0  0  0  0  0  0  0  0  0  0  0
    4.3611  -20.8494    0.0000 C   0  0  0  0  0  0  0  0  0  0  0  0
    5.6692  -20.1153    0.0000 C   0  0  0  0  0  0  0  0  0  0  0  0
    6.8565  -19.1985    0.0000 C   0  0  0  0  0  0  0  0  0  0  0  0
    7.8976  -18.1187    0.0000 C   0  0  0  0  0  0  0  0  0  0  0  0
    8.7704  -16.8987    0.0000 C   0  0  0  0  0  0  0  0  0  0  0  0
    9.4562  -15.5647    0.0000 C   0  0  0  0  0  0  0  0  0  0  0  0
    9.9405  -14.1451    0.0000 C   0  0  0  0  0  0  0  0  0  0  0  0
   10.2130  -12.6700    0.0000 C   0  0  0  0  0  0  0  0  0  0  0  0
   10.2678  -11.1710    0.0000 C   0  0  0  0  0  0  0  0  0  0  0  0
   10.1037   -9.6800    0.0000 C   0  0  0  0  0  0  0  0  0  0  0  0
    9.7243   -8.2288    0.0000 C   0  0  0  0  0  0  0  0  0  0  0  0
    9.1377   -6.8483    0.0000 C   0  0  0  0  0  0  0  0  0  0  0  0
    8.3563   -5.5679    0.0000 C   0  0  0  0  0  0  0  0  0  0  0  0
    7.3967   -4.4149    0.0000 C   0  0  0  0  0  0  0  0  0  0  0  0
    6.2796   -3.4139    0.0000 C   0  0  0  0  0  0  0  0  0  0  0  0
    5.0286   -2.5863    0.0000 C   0  0  0  0  0  0  0  0  0  0  0  0
    3.6704   -1.9496    0.0000 C   0  0  0  0  0  0  0  0  0  0  0  0
    2.2340   -1.5174    0.0000 C   0  0  0  0  0  0  0  0  0  0  0  0
    2.5602   -0.0533    0.0000 C   0  0  0  0  0  0  0  0  0  0  0  0
    1.7336    1.1984    0.0000 O   0  0  0  0  0  0  0  0  0  0  0  0
    3.9912    0.3963    0.0000 N   0  0  0  0  0  0  0  0  0  0  0  0
    4.3173    1.8604    0.0000 C   0  0  0  0  0  0  0  0  0  0  0  0
    5.7484    2.3100    0.0000 N   0  0  0  0  0  0  0  0  0  0  0  0
    6.0745    3.7741    0.0000 N   0  0  0  0  0  0  0  0  0  0  0  0
    4.9696    4.7886    0.0000 N   0  0  0  0  0  0  0  0  0  0  0  0
    3.5386    4.3390    0.0000 N   0  0  0  0  0  0  0  0  0  0  0  0
    3.2125    2.8749    0.0000 N   0  0  0  0  0  0  0  0  0  0  0  0
    0.7500   -1.2990    0.0000 C   0  0  0  0  0  0  0  0  0  0  0  0
    1.5000    0.0000    0.0000 C   0  0  0  0  0  0  0  0  0  0  0  0
    0.7500    1.2990    0.0000 C   0  0  0  0  0  0  0  0  0  0  0  0
   -0.7500    1.2990    0.0000 C   0  0  0  0  0  0  0  0  0  0  0  0
   -1.5000    0.0000    0.0000 C   0  0  0  0  0  0  0  0  0  0  0  0
   -0.7500   -1.2990    0.0000 C   0  0  0  0  0  0  0  0  0  0  0  0
  1  2  1  0
  2  3  1  0
  3  4  1  0
  4  5  1  0
  5  6  1  0
  6  7  1  0
  7  8  1  0
  8  9  1  0
  9 10  1  0
 10 11  1  0
 11 12  1  0
 12 13  1  0
 13 14  1  0
 14 15  1  0
 15 16  1  0
 16 17  1  0
 17 18  1  0
 18 19  1  0
 19 20  1  0
 20 21  1  0
 21 22  2  0
 22 23  1  0
 23 24  2  0
 24 25  1  0
 25 26  2  0
 26 27  1  0
 27 28  2  0
 28 29  1  0
 29 30  2  0
 30 31  1  0
 31 32  2  0
 32 33  1  0
 33 34  2  0
 34 35  1  0
 35 36  2  0
 36 37  1  0
 37 38  2  0
 38 39  1  0
 39 40  2  0
 40 41  1  0
 41 42  2  0
 42 43  1  0
 43 44  2  0
 43 45  1  0
 45 46  1  0
 46 47  2  0
 47 48  1  0
 48 49  2  0
 49 50  1  0
 50 51  2  0
 42 52  1  0
 52 53  2  0
 53 54  1  0
 54 55  2  0
 55 56  1  0
 56 57  2  0
 57  2  1  0
 51 46  1  0
 57 52  1  0
M  END
>  <Title>  (620) 
idAAVXgen8

$$$$

     RDKit          2D

 16 16  0  0  0  0  0  0  0  0999 V2000
    3.5260   -3.8971    0.0000 C   0  0  0  0  0  0  0  0  0  0  0  0
    4.2760   -2.5981    0.0000 C   0  0  0  0  0  0  0  0  0  0  0  0
    3.5260   -1.2990    0.0000 C   0  0  0  0  0  0  0  0  0  0  0  0
    4.8250   -0.5490    0.0000 C   0  0  0  0  0  0  0  0  0  0  0  0
    2.2269   -2.0490    0.0000 C   0  0  0  0  0  0  0  0  0  0  0  0
    2.7760    0.0000    0.0000 C   0  0  0  0  0  0  0  0  0  0  0  0
    3.5260    1.2990    0.0000 O   0  0  0  0  0  0  0  0  0  0  0  0
    1.2760    0.0000    0.0000 C   0  0  0  0  0  0  0  0  0  0  0  0
    0.3943    1.2135    0.0000 C   0  0  0  0  0  0  0  0  0  0  0  0
   -1.0323    0.7500    0.0000 C   0  0  0  0  0  0  0  0  0  0  0  0
   -1.0323   -0.7500    0.0000 C   0  0  0  0  0  0  0  0  0  0  0  0
   -2.2458   -1.6317    0.0000 C   0  0  0  0  0  0  0  0  0  0  0  0
   -2.0890   -3.1235    0.0000 O   0  0  0  0  0  0  0  0  0  0  0  0
   -3.6161   -1.0216    0.0000 O   0  0  0  0  0  0  0  0  0  0  0  0
    0.3943   -1.2135    0.0000 C   0  0  0  0  0  0  0  0  0  0  0  0
    0.8578   -2.6401    0.0000 O   0  0  0  0  0  0  0  0  0  0  0  0
  1  2  1  0
  2  3  1  0
  3  4  1  0
  3  5  1  0
  3  6  1  0
  6  7  2  0
  6  8  1  0
  8  9  1  0
  9 10  1  0
 10 11  1  0
 11 12  1  0
 12 13  2  0
 12 14  1  0
 11 15  1  0
 15 16  2  0
 15  8  1  0
M  END
>  <Title>  (621) 
idAAVYgen8

$$$$

     RDKit          2D

  9  9  0  0  0  0  0  0  0  0999 V2000
    3.0000    0.0000    0.0000 C   0  0  0  0  0  0  0  0  0  0  0  0
    1.5000    0.0000    0.0000 C   0  0  0  0  0  0  0  0  0  0  0  0
    0.7500   -1.2990    0.0000 C   0  0  0  0  0  0  0  0  0  0  0  0
   -0.7500   -1.2990    0.0000 C   0  0  0  0  0  0  0  0  0  0  0  0
   -1.5000   -2.5981    0.0000 O   0  0  0  0  0  0  0  0  0  0  0  0
   -1.5000    0.0000    0.0000 C   0  0  0  0  0  0  0  0  0  0  0  0
   -0.7500    1.2990    0.0000 C   0  0  0  0  0  0  0  0  0  0  0  0
    0.7500    1.2990    0.0000 C   0  0  0  0  0  0  0  0  0  0  0  0
    1.5000    2.5981    0.0000 N   0  0  0  0  0  0  0  0  0  0  0  0
  1  2  1  0
  2  3  2  0
  3  4  1  0
  4  5  1  0
  4  6  1  0
  6  7  1  0
  7  8  1  0
  8  9  2  0
  8  2  1  0
M  END
>  <Title>  (622) 
idAAVZgen8

$$$$

     RDKit          2D

  6  6  0  0  0  0  0  0  0  0999 V2000
    1.5000    0.0000    0.0000 C   0  0  0  0  0  0  0  0  0  0  0  0
    0.7500   -1.2990    0.0000 C   0  0  0  0  0  0  0  0  0  0  0  0
   -0.7500   -1.2990    0.0000 C   0  0  0  0  0  0  0  0  0  0  0  0
   -1.5000    0.0000    0.0000 C   0  0  0  0  0  0  0  0  0  0  0  0
   -0.7500    1.2990    0.0000 C   0  0  0  0  0  0  0  0  0  0  0  0
    0.7500    1.2990    0.0000 C   0  0  0  0  0  0  0  0  0  0  0  0
  1  2  2  0
  2  3  1  0
  3  4  2  0
  4  5  1  0
  5  6  2  0
  6  1  1  0
M  END
>  <Title>  (623) 
idAAWAgen8

$$$$

     RDKit          2D

 19 19  0  0  0  0  0  0  0  0999 V2000
    5.2500    3.8971    0.0000 C   0  0  0  0  0  0  0  0  0  0  0  0
    6.0000    2.5981    0.0000 C   0  0  0  0  0  0  0  0  0  0  0  0
    5.2500    1.2990    0.0000 C   0  0  0  0  0  0  0  0  0  0  0  0
    3.7500    1.2990    0.0000 O   0  0  0  0  0  0  0  0  0  0  0  0
    6.0000    0.0000    0.0000 C   0  0  0  0  0  0  0  0  0  0  0  0
    7.5000   -0.0000    0.0000 C   0  0  0  0  0  0  0  0  0  0  0  0
    9.0000   -0.0000    0.0000 N   0  0  0  0  0  0  0  0  0  0  0  0
    5.2500   -1.2990    0.0000 C   0  0  0  0  0  0  0  0  0  0  0  0
    6.0000   -2.5981    0.0000 C   0  0  0  0  0  0  0  0  0  0  0  0
    3.7500   -1.2990    0.0000 C   0  0  0  0  0  0  0  0  0  0  0  0
    3.0000   -2.5981    0.0000 O   0  0  0  0  0  0  0  0  0  0  0  0
    3.0000    0.0000    0.0000 N   0  0  0  0  0  0  0  0  0  0  0  0
    1.5000    0.0000    0.0000 C   0  0  0  0  0  0  0  0  0  0  0  0
    0.7500   -1.2990    0.0000 C   0  0  0  0  0  0  0  0  0  0  0  0
   -0.7500   -1.2990    0.0000 C   0  0  0  0  0  0  0  0  0  0  0  0
   -1.5000    0.0000    0.0000 C   0  0  0  0  0  0  0  0  0  0  0  0
   -3.0000    0.0000    0.0000 O   0  0  0  0  0  0  0  0  0  0  0  0
   -0.7500    1.2990    0.0000 C   0  0  0  0  0  0  0  0  0  0  0  0
    0.7500    1.2990    0.0000 C   0  0  0  0  0  0  0  0  0  0  0  0
  1  2  1  0
  2  3  1  0
  3  4  2  0
  3  5  1  0
  5  6  1  0
  6  7  3  0
  5  8  1  0
  8  9  1  0
  8 10  1  0
 10 11  2  0
 10 12  1  0
 12 13  1  0
 13 14  2  0
 14 15  1  0
 15 16  2  0
 16 17  1  0
 16 18  1  0
 18 19  2  0
 19 13  1  0
M  END
>  <Title>  (624) 
idAAWBgen8

$$$$

     RDKit          2D

  7  7  0  0  0  0  0  0  0  0999 V2000
    3.0000    0.0000    0.0000 O   0  0  0  0  0  0  0  0  0  0  0  0
    1.5000    0.0000    0.0000 C   0  0  0  0  0  0  0  0  0  0  0  0
    0.7500   -1.2990    0.0000 C   0  0  0  0  0  0  0  0  0  0  0  0
   -0.7500   -1.2990    0.0000 C   0  0  0  0  0  0  0  0  0  0  0  0
   -1.5000    0.0000    0.0000 C   0  0  0  0  0  0  0  0  0  0  0  0
   -0.7500    1.2990    0.0000 C   0  0  0  0  0  0  0  0  0  0  0  0
    0.7500    1.2990    0.0000 C   0  0  0  0  0  0  0  0  0  0  0  0
  1  2  1  0
  2  3  1  0
  3  4  2  0
  4  5  1  0
  5  6  2  0
  6  7  1  0
  7  2  1  0
M  END
>  <Title>  (625) 
idAAWCgen8

$$$$

     RDKit          2D

 34 34  0  0  0  0  0  0  0  0999 V2000
   10.6517   -0.0000    0.0000 C   0  0  0  0  0  0  0  0  0  0  0  0
    9.1517    0.0000    0.0000 C   0  0  0  0  0  0  0  0  0  0  0  0
    7.6517    0.0000    0.0000 C   0  0  0  0  0  0  0  0  0  0  0  0
    7.5047   -1.4928    0.0000 C   0  0  0  0  0  0  0  0  0  0  0  0
    7.0693   -2.9282    0.0000 C   0  0  0  0  0  0  0  0  0  0  0  0
    6.3622   -4.2511    0.0000 C   0  0  0  0  0  0  0  0  0  0  0  0
    5.4106   -5.4106    0.0000 C   0  0  0  0  0  0  0  0  0  0  0  0
    4.2511   -6.3622    0.0000 C   0  0  0  0  0  0  0  0  0  0  0  0
    2.9282   -7.0693    0.0000 C   0  0  0  0  0  0  0  0  0  0  0  0
    1.4928   -7.5047    0.0000 C   0  0  0  0  0  0  0  0  0  0  0  0
   -0.0000   -7.6517    0.0000 C   0  0  0  0  0  0  0  0  0  0  0  0
   -1.4928   -7.5047    0.0000 C   0  0  0  0  0  0  0  0  0  0  0  0
   -2.9282   -7.0693    0.0000 C   0  0  0  0  0  0  0  0  0  0  0  0
   -4.2511   -6.3622    0.0000 C   0  0  0  0  0  0  0  0  0  0  0  0
   -5.4106   -5.4106    0.0000 C   0  0  0  0  0  0  0  0  0  0  0  0
   -6.3622   -4.2511    0.0000 C   0  0  0  0  0  0  0  0  0  0  0  0
   -7.0693   -2.9282    0.0000 C   0  0  0  0  0  0  0  0  0  0  0  0
   -7.5047   -1.4928    0.0000 C   0  0  0  0  0  0  0  0  0  0  0  0
   -7.6517    0.0000    0.0000 C   0  0  0  0  0  0  0  0  0  0  0  0
   -7.5047    1.4928    0.0000 C   0  0  0  0  0  0  0  0  0  0  0  0
   -7.0693    2.9282    0.0000 C   0  0  0  0  0  0  0  0  0  0  0  0
   -6.3622    4.2511    0.0000 C   0  0  0  0  0  0  0  0  0  0  0  0
   -5.4106    5.4106    0.0000 C   0  0  0  0  0  0  0  0  0  0  0  0
   -4.2511    6.3622    0.0000 C   0  0  0  0  0  0  0  0  0  0  0  0
   -2.9282    7.0693    0.0000 C   0  0  0  0  0  0  0  0  0  0  0  0
   -1.4928    7.5047    0.0000 C   0  0  0  0  0  0  0  0  0  0  0  0
    0.0000    7.6517    0.0000 C   0  0  0  0  0  0  0  0  0  0  0  0
    1.4928    7.5047    0.0000 C   0  0  0  0  0  0  0  0  0  0  0  0
    2.9282    7.0693    0.0000 C   0  0  0  0  0  0  0  0  0  0  0  0
    4.2511    6.3622    0.0000 C   0  0  0  0  0  0  0  0  0  0  0  0
    5.4106    5.4106    0.0000 C   0  0  0  0  0  0  0  0  0  0  0  0
    6.3622    4.2511    0.0000 C   0  0  0  0  0  0  0  0  0  0  0  0
    7.0693    2.9282    0.0000 C   0  0  0  0  0  0  0  0  0  0  0  0
    7.5047    1.4928    0.0000 C   0  0  0  0  0  0  0  0  0  0  0  0
  1  2  3  0
  2  3  1  0
  3  4  1  0
  4  5  1  0
  5  6  2  0
  6  7  1  0
  7  8  2  0
  8  9  1  0
  9 10  2  0
 10 11  1  0
 11 12  2  0
 12 13  1  0
 13 14  2  0
 14 15  1  0
 15 16  2  0
 16 17  1  0
 17 18  1  0
 18 19  1  0
 19 20  1  0
 20 21  1  0
 21 22  1  0
 22 23  2  0
 23 24  1  0
 24 25  1  0
 25 26  1  0
 26 27  1  0
 27 28  1  0
 28 29  1  0
 29 30  1  0
 30 31  1  0
 31 32  1  0
 32 33  1  0
 33 34  1  0
 34  3  1  0
M  END
>  <Title>  (626) 
idAAWDgen8

$$$$

     RDKit          2D

 10 10  0  0  0  0  0  0  0  0999 V2000
    5.7760   -2.5981    0.0000 C   0  0  0  0  0  0  0  0  0  0  0  0
    5.0260   -1.2990    0.0000 C   0  0  0  0  0  0  0  0  0  0  0  0
    3.5260   -1.2990    0.0000 C   0  0  0  0  0  0  0  0  0  0  0  0
    2.7760   -2.5981    0.0000 O   0  0  0  0  0  0  0  0  0  0  0  0
    2.7760    0.0000    0.0000 N   0  0  0  0  0  0  0  0  0  0  0  0
    1.2760    0.0000    0.0000 C   0  0  0  0  0  0  0  0  0  0  0  0
    0.3943    1.2135    0.0000 C   0  0  0  0  0  0  0  0  0  0  0  0
   -1.0323    0.7500    0.0000 C   0  0  0  0  0  0  0  0  0  0  0  0
   -1.0323   -0.7500    0.0000 C   0  0  0  0  0  0  0  0  0  0  0  0
    0.3943   -1.2135    0.0000 C   0  0  0  0  0  0  0  0  0  0  0  0
  1  2  1  0
  2  3  1  0
  3  4  2  0
  3  5  1  0
  5  6  1  0
  6  7  2  0
  7  8  1  0
  8  9  1  0
  9 10  2  0
 10  6  1  0
M  END
>  <Title>  (627) 
idAAWEgen8

$$$$

     RDKit          2D

 77 77  0  0  0  0  0  0  0  0999 V2000
   19.6488    0.0000    0.0000 C   0  0  0  0  0  0  0  0  0  0  0  0
   18.1488    0.0000    0.0000 C   0  0  0  0  0  0  0  0  0  0  0  0
   18.0868   -1.4987    0.0000 C   0  0  0  0  0  0  0  0  0  0  0  0
   17.9013   -2.9872    0.0000 C   0  0  0  0  0  0  0  0  0  0  0  0
   17.5935   -4.4553    0.0000 C   0  0  0  0  0  0  0  0  0  0  0  0
   17.1655   -5.8929    0.0000 C   0  0  0  0  0  0  0  0  0  0  0  0
   16.6202   -7.2903    0.0000 C   0  0  0  0  0  0  0  0  0  0  0  0
   15.9614   -8.6379    0.0000 C   0  0  0  0  0  0  0  0  0  0  0  0
   15.1936   -9.9265    0.0000 C   0  0  0  0  0  0  0  0  0  0  0  0
   14.3220  -11.1472    0.0000 C   0  0  0  0  0  0  0  0  0  0  0  0
   13.3525  -12.2919    0.0000 C   0  0  0  0  0  0  0  0  0  0  0  0
   12.2919  -13.3525    0.0000 C   0  0  0  0  0  0  0  0  0  0  0  0
   11.1472  -14.3220    0.0000 C   0  0  0  0  0  0  0  0  0  0  0  0
    9.9265  -15.1936    0.0000 C   0  0  0  0  0  0  0  0  0  0  0  0
    8.6379  -15.9614    0.0000 C   0  0  0  0  0  0  0  0  0  0  0  0
    7.2903  -16.6202    0.0000 C   0  0  0  0  0  0  0  0  0  0  0  0
    5.8929  -17.1655    0.0000 C   0  0  0  0  0  0  0  0  0  0  0  0
    4.4553  -17.5935    0.0000 C   0  0  0  0  0  0  0  0  0  0  0  0
    2.9872  -17.9013    0.0000 C   0  0  0  0  0  0  0  0  0  0  0  0
    1.4987  -18.0868    0.0000 C   0  0  0  0  0  0  0  0  0  0  0  0
   -0.0000  -18.1488    0.0000 C   0  0  0  0  0  0  0  0  0  0  0  0
   -1.4987  -18.0868    0.0000 C   0  0  0  0  0  0  0  0  0  0  0  0
   -2.9872  -17.9013    0.0000 C   0  0  0  0  0  0  0  0  0  0  0  0
   -4.4553  -17.5935    0.0000 C   0  0  0  0  0  0  0  0  0  0  0  0
   -5.8929  -17.1655    0.0000 C   0  0  0  0  0  0  0  0  0  0  0  0
   -7.2903  -16.6202    0.0000 C   0  0  0  0  0  0  0  0  0  0  0  0
   -8.6379  -15.9614    0.0000 C   0  0  0  0  0  0  0  0  0  0  0  0
   -9.9265  -15.1936    0.0000 C   0  0  0  0  0  0  0  0  0  0  0  0
  -11.1472  -14.3220    0.0000 C   0  0  0  0  0  0  0  0  0  0  0  0
  -12.2919  -13.3525    0.0000 C   0  0  0  0  0  0  0  0  0  0  0  0
  -13.3525  -12.2919    0.0000 C   0  0  0  0  0  0  0  0  0  0  0  0
  -14.3220  -11.1472    0.0000 C   0  0  0  0  0  0  0  0  0  0  0  0
  -15.1936   -9.9265    0.0000 C   0  0  0  0  0  0  0  0  0  0  0  0
  -15.9614   -8.6379    0.0000 C   0  0  0  0  0  0  0  0  0  0  0  0
  -16.6202   -7.2903    0.0000 C   0  0  0  0  0  0  0  0  0  0  0  0
  -17.1655   -5.8929    0.0000 C   0  0  0  0  0  0  0  0  0  0  0  0
  -17.5935   -4.4553    0.0000 C   0  0  0  0  0  0  0  0  0  0  0  0
  -17.9013   -2.9872    0.0000 C   0  0  0  0  0  0  0  0  0  0  0  0
  -18.0868   -1.4987    0.0000 C   0  0  0  0  0  0  0  0  0  0  0  0
  -18.1488    0.0000    0.0000 C   0  0  0  0  0  0  0  0  0  0  0  0
  -18.0868    1.4987    0.0000 C   0  0  0  0  0  0  0  0  0  0  0  0
  -17.9013    2.9872    0.0000 C   0  0  0  0  0  0  0  0  0  0  0  0
  -17.5935    4.4553    0.0000 C   0  0  0  0  0  0  0  0  0  0  0  0
  -17.1655    5.8929    0.0000 C   0  0  0  0  0  0  0  0  0  0  0  0
  -16.6202    7.2903    0.0000 C   0  0  0  0  0  0  0  0  0  0  0  0
  -15.9614    8.6379    0.0000 C   0  0  0  0  0  0  0  0  0  0  0  0
  -15.1936    9.9265    0.0000 C   0  0  0  0  0  0  0  0  0  0  0  0
  -14.3220   11.1472    0.0000 C   0  0  0  0  0  0  0  0  0  0  0  0
  -13.3525   12.2919    0.0000 C   0  0  0  0  0  0  0  0  0  0  0  0
  -12.2919   13.3525    0.0000 C   0  0  0  0  0  0  0  0  0  0  0  0
  -11.1472   14.3220    0.0000 C   0  0  0  0  0  0  0  0  0  0  0  0
   -9.9265   15.1936    0.0000 C   0  0  0  0  0  0  0  0  0  0  0  0
   -8.6379   15.9614    0.0000 C   0  0  0  0  0  0  0  0  0  0  0  0
   -7.2903   16.6202    0.0000 C   0  0  0  0  0  0  0  0  0  0  0  0
   -5.8929   17.1655    0.0000 C   0  0  0  0  0  0  0  0  0  0  0  0
   -4.4553   17.5935    0.0000 C   0  0  0  0  0  0  0  0  0  0  0  0
   -2.9872   17.9013    0.0000 C   0  0  0  0  0  0  0  0  0  0  0  0
   -1.4987   18.0868    0.0000 C   0  0  0  0  0  0  0  0  0  0  0  0
    0.0000   18.1488    0.0000 C   0  0  0  0  0  0  0  0  0  0  0  0
    1.4987   18.0868    0.0000 C   0  0  0  0  0  0  0  0  0  0  0  0
    2.9872   17.9013    0.0000 C   0  0  0  0  0  0  0  0  0  0  0  0
    4.4553   17.5935    0.0000 C   0  0  0  0  0  0  0  0  0  0  0  0
    5.8929   17.1655    0.0000 C   0  0  0  0  0  0  0  0  0  0  0  0
    7.2903   16.6202    0.0000 C   0  0  0  0  0  0  0  0  0  0  0  0
    8.6379   15.9614    0.0000 C   0  0  0  0  0  0  0  0  0  0  0  0
    9.9265   15.1936    0.0000 C   0  0  0  0  0  0  0  0  0  0  0  0
   11.1472   14.3220    0.0000 C   0  0  0  0  0  0  0  0  0  0  0  0
   12.2919   13.3525    0.0000 C   0  0  0  0  0  0  0  0  0  0  0  0
   13.3525   12.2919    0.0000 C   0  0  0  0  0  0  0  0  0  0  0  0
   14.3220   11.1472    0.0000 C   0  0  0  0  0  0  0  0  0  0  0  0
   15.1936    9.9265    0.0000 C   0  0  0  0  0  0  0  0  0  0  0  0
   15.9614    8.6379    0.0000 C   0  0  0  0  0  0  0  0  0  0  0  0
   16.6202    7.2903    0.0000 C   0  0  0  0  0  0  0  0  0  0  0  0
   17.1655    5.8929    0.0000 C   0  0  0  0  0  0  0  0  0  0  0  0
   17.5935    4.4553    0.0000 C   0  0  0  0  0  0  0  0  0  0  0  0
   17.9013    2.9872    0.0000 C   0  0  0  0  0  0  0  0  0  0  0  0
   18.0868    1.4987    0.0000 C   0  0  0  0  0  0  0  0  0  0  0  0
  1  2  1  0
  2  3  1  0
  3  4  1  0
  4  5  1  0
  5  6  1  0
  6  7  1  0
  7  8  1  0
  8  9  1  0
  9 10  1  0
 10 11  1  0
 11 12  1  0
 12 13  1  0
 13 14  1  0
 14 15  1  0
 15 16  1  0
 16 17  1  0
 17 18  1  0
 18 19  1  0
 19 20  1  0
 20 21  1  0
 21 22  1  0
 22 23  1  0
 23 24  1  0
 24 25  1  0
 25 26  1  0
 26 27  1  0
 27 28  1  0
 28 29  1  0
 29 30  1  0
 30 31  1  0
 31 32  1  0
 32 33  1  0
 33 34  1  0
 34 35  1  0
 35 36  1  0
 36 37  1  0
 37 38  1  0
 38 39  1  0
 39 40  1  0
 40 41  1  0
 41 42  1  0
 42 43  1  0
 43 44  1  0
 44 45  1  0
 45 46  1  0
 46 47  1  0
 47 48  1  0
 48 49  1  0
 49 50  1  0
 50 51  1  0
 51 52  1  0
 52 53  1  0
 53 54  1  0
 54 55  1  0
 55 56  1  0
 56 57  1  0
 57 58  1  0
 58 59  1  0
 59 60  1  0
 60 61  1  0
 61 62  1  0
 62 63  1  0
 63 64  1  0
 64 65  1  0
 65 66  1  0
 66 67  1  0
 67 68  1  0
 68 69  1  0
 69 70  1  0
 70 71  1  0
 71 72  1  0
 72 73  1  0
 73 74  1  0
 74 75  1  0
 75 76  1  0
 76 77  1  0
 77  2  1  0
M  END
>  <Title>  (628) 
idAAWFgen8

$$$$

     RDKit          2D

  8  8  0  0  0  0  0  0  0  0999 V2000
    3.2286   -0.0000    0.0000 C   0  0  0  0  0  0  0  0  0  0  0  0
    1.7286    0.0000    0.0000 C   0  0  0  0  0  0  0  0  0  0  0  0
    1.0777    1.3515    0.0000 C   0  0  0  0  0  0  0  0  0  0  0  0
   -0.3846    1.6852    0.0000 C   0  0  0  0  0  0  0  0  0  0  0  0
   -1.5574    0.7500    0.0000 C   0  0  0  0  0  0  0  0  0  0  0  0
   -1.5574   -0.7500    0.0000 C   0  0  0  0  0  0  0  0  0  0  0  0
   -0.3846   -1.6852    0.0000 C   0  0  0  0  0  0  0  0  0  0  0  0
    1.0777   -1.3515    0.0000 C   0  0  0  0  0  0  0  0  0  0  0  0
  1  2  1  0
  2  3  2  0
  3  4  1  0
  4  5  1  0
  5  6  1  0
  6  7  1  0
  7  8  1  0
  8  2  1  0
M  END
>  <Title>  (629) 
idAAWGgen8

$$$$

     RDKit          2D

  8  8  0  0  0  0  0  0  0  0999 V2000
    3.0000    0.0000    0.0000 C   0  0  0  0  0  0  0  0  0  0  0  0
    1.5000    0.0000    0.0000 C   0  0  0  0  0  0  0  0  0  0  0  0
    0.7500   -1.2990    0.0000 C   0  0  0  0  0  0  0  0  0  0  0  0
   -0.7500   -1.2990    0.0000 C   0  0  0  0  0  0  0  0  0  0  0  0
   -1.5000    0.0000    0.0000 C   0  0  0  0  0  0  0  0  0  0  0  0
   -3.0000    0.0000    0.0000 O   0  0  0  0  0  0  0  0  0  0  0  0
   -0.7500    1.2990    0.0000 C   0  0  0  0  0  0  0  0  0  0  0  0
    0.7500    1.2990    0.0000 C   0  0  0  0  0  0  0  0  0  0  0  0
  1  2  1  0
  2  3  2  0
  3  4  1  0
  4  5  1  0
  5  6  1  0
  5  7  1  0
  7  8  1  0
  8  2  1  0
M  END
>  <Title>  (630) 
idAAWHgen8

$$$$

     RDKit          2D

  8  7  0  0  0  0  0  0  0  0999 V2000
    0.0000    0.0000    0.0000 C   0  0  0  0  0  0  0  0  0  0  0  0
    1.2990    0.7500    0.0000 C   0  0  0  0  0  0  0  0  0  0  0  0
    2.5981   -0.0000    0.0000 C   0  0  0  0  0  0  0  0  0  0  0  0
    3.8971    0.7500    0.0000 C   0  0  0  0  0  0  0  0  0  0  0  0
    5.1962   -0.0000    0.0000 C   0  0  0  0  0  0  0  0  0  0  0  0
    6.4952    0.7500    0.0000 C   0  0  0  0  0  0  0  0  0  0  0  0
    7.7942   -0.0000    0.0000 C   0  0  0  0  0  0  0  0  0  0  0  0
    9.0933    0.7500    0.0000 C   0  0  0  0  0  0  0  0  0  0  0  0
  1  2  1  0
  2  3  2  3
  3  4  1  0
  4  5  1  0
  5  6  1  0
  6  7  1  0
  7  8  1  0
M  END
>  <Title>  (631) 
idAAWIgen8

$$$$

     RDKit          2D

  7  6  0  0  0  0  0  0  0  0999 V2000
    0.0000    0.0000    0.0000 C   0  0  0  0  0  0  0  0  0  0  0  0
    1.2990    0.7500    0.0000 C   0  0  0  0  0  0  0  0  0  0  0  0
    2.5981    1.5000    0.0000 C   0  0  0  0  0  0  0  0  0  0  0  0
    3.8971    2.2500    0.0000 C   0  0  0  0  0  0  0  0  0  0  0  0
    4.6471    0.9510    0.0000 C   0  0  0  0  0  0  0  0  0  0  0  0
    3.1471    3.5490    0.0000 C   0  0  0  0  0  0  0  0  0  0  0  0
    5.1962    3.0000    0.0000 C   0  0  0  0  0  0  0  0  0  0  0  0
  1  2  1  0
  2  3  3  0
  3  4  1  0
  4  5  1  0
  4  6  1  0
  4  7  1  0
M  END
>  <Title>  (632) 
idAAWJgen8

$$$$

     RDKit          2D

  7  7  0  0  0  0  0  0  0  0999 V2000
    3.0000    0.0000    0.0000 O   0  0  0  0  0  0  0  0  0  0  0  0
    1.5000    0.0000    0.0000 C   0  0  0  0  0  0  0  0  0  0  0  0
    0.7500   -1.2990    0.0000 C   0  0  0  0  0  0  0  0  0  0  0  0
   -0.7500   -1.2990    0.0000 C   0  0  0  0  0  0  0  0  0  0  0  0
   -1.5000    0.0000    0.0000 C   0  0  0  0  0  0  0  0  0  0  0  0
   -0.7500    1.2990    0.0000 C   0  0  0  0  0  0  0  0  0  0  0  0
    0.7500    1.2990    0.0000 C   0  0  0  0  0  0  0  0  0  0  0  0
  1  2  1  0
  2  3  2  0
  3  4  1  0
  4  5  1  0
  5  6  1  0
  6  7  1  0
  7  2  1  0
M  END
>  <Title>  (633) 
idAAWKgen8

$$$$

     RDKit          2D

122122  0  0  0  0  0  0  0  0999 V2000
   29.6738    0.0000    0.0000 C   0  0  0  0  0  0  0  0  0  0  0  0
   28.1738    0.0000    0.0000 C   0  0  0  0  0  0  0  0  0  0  0  0
   28.1338   -1.4995    0.0000 C   0  0  0  0  0  0  0  0  0  0  0  0
   28.0141   -2.9947    0.0000 C   0  0  0  0  0  0  0  0  0  0  0  0
   27.8151   -4.4814    0.0000 C   0  0  0  0  0  0  0  0  0  0  0  0
   27.5371   -5.9554    0.0000 C   0  0  0  0  0  0  0  0  0  0  0  0
   27.1811   -7.4126    0.0000 C   0  0  0  0  0  0  0  0  0  0  0  0
   26.7481   -8.8487    0.0000 C   0  0  0  0  0  0  0  0  0  0  0  0
   26.2392  -10.2598    0.0000 C   0  0  0  0  0  0  0  0  0  0  0  0
   25.6560  -11.6417    0.0000 C   0  0  0  0  0  0  0  0  0  0  0  0
   25.0000  -12.9907    0.0000 C   0  0  0  0  0  0  0  0  0  0  0  0
   24.2732  -14.3029    0.0000 C   0  0  0  0  0  0  0  0  0  0  0  0
   23.4776  -15.5745    0.0000 C   0  0  0  0  0  0  0  0  0  0  0  0
   22.6154  -16.8019    0.0000 C   0  0  0  0  0  0  0  0  0  0  0  0
   21.6891  -17.9817    0.0000 C   0  0  0  0  0  0  0  0  0  0  0  0
   20.7013  -19.1106    0.0000 C   0  0  0  0  0  0  0  0  0  0  0  0
   19.6549  -20.1853    0.0000 C   0  0  0  0  0  0  0  0  0  0  0  0
   18.5527  -21.2027    0.0000 C   0  0  0  0  0  0  0  0  0  0  0  0
   17.3980  -22.1601    0.0000 C   0  0  0  0  0  0  0  0  0  0  0  0
   16.1939  -23.0547    0.0000 C   0  0  0  0  0  0  0  0  0  0  0  0
   14.9439  -23.8839    0.0000 C   0  0  0  0  0  0  0  0  0  0  0  0
   13.6516  -24.6454    0.0000 C   0  0  0  0  0  0  0  0  0  0  0  0
   12.3206  -25.3370    0.0000 C   0  0  0  0  0  0  0  0  0  0  0  0
   10.9546  -25.9568    0.0000 C   0  0  0  0  0  0  0  0  0  0  0  0
    9.5576  -26.5031    0.0000 C   0  0  0  0  0  0  0  0  0  0  0  0
    8.1335  -26.9742    0.0000 C   0  0  0  0  0  0  0  0  0  0  0  0
    6.6864  -27.3688    0.0000 C   0  0  0  0  0  0  0  0  0  0  0  0
    5.2203  -27.6859    0.0000 C   0  0  0  0  0  0  0  0  0  0  0  0
    3.7394  -27.9245    0.0000 C   0  0  0  0  0  0  0  0  0  0  0  0
    2.2479  -28.0839    0.0000 C   0  0  0  0  0  0  0  0  0  0  0  0
    0.7500  -28.1638    0.0000 C   0  0  0  0  0  0  0  0  0  0  0  0
   -0.7500  -28.1638    0.0000 C   0  0  0  0  0  0  0  0  0  0  0  0
   -2.2479  -28.0839    0.0000 C   0  0  0  0  0  0  0  0  0  0  0  0
   -3.7394  -27.9245    0.0000 C   0  0  0  0  0  0  0  0  0  0  0  0
   -5.2203  -27.6859    0.0000 C   0  0  0  0  0  0  0  0  0  0  0  0
   -6.6864  -27.3688    0.0000 C   0  0  0  0  0  0  0  0  0  0  0  0
   -8.1335  -26.9742    0.0000 C   0  0  0  0  0  0  0  0  0  0  0  0
   -9.5576  -26.5031    0.0000 C   0  0  0  0  0  0  0  0  0  0  0  0
  -10.9546  -25.9568    0.0000 C   0  0  0  0  0  0  0  0  0  0  0  0
  -12.3206  -25.3370    0.0000 C   0  0  0  0  0  0  0  0  0  0  0  0
  -13.6516  -24.6454    0.0000 C   0  0  0  0  0  0  0  0  0  0  0  0
  -14.9439  -23.8839    0.0000 C   0  0  0  0  0  0  0  0  0  0  0  0
  -16.1939  -23.0547    0.0000 C   0  0  0  0  0  0  0  0  0  0  0  0
  -17.3980  -22.1601    0.0000 C   0  0  0  0  0  0  0  0  0  0  0  0
  -18.5527  -21.2027    0.0000 C   0  0  0  0  0  0  0  0  0  0  0  0
  -19.6549  -20.1853    0.0000 C   0  0  0  0  0  0  0  0  0  0  0  0
  -20.7013  -19.1106    0.0000 C   0  0  0  0  0  0  0  0  0  0  0  0
  -21.6891  -17.9817    0.0000 C   0  0  0  0  0  0  0  0  0  0  0  0
  -22.6154  -16.8019    0.0000 C   0  0  0  0  0  0  0  0  0  0  0  0
  -23.4776  -15.5745    0.0000 C   0  0  0  0  0  0  0  0  0  0  0  0
  -24.2732  -14.3029    0.0000 C   0  0  0  0  0  0  0  0  0  0  0  0
  -25.0000  -12.9907    0.0000 C   0  0  0  0  0  0  0  0  0  0  0  0
  -25.6560  -11.6417    0.0000 C   0  0  0  0  0  0  0  0  0  0  0  0
  -26.2392  -10.2598    0.0000 C   0  0  0  0  0  0  0  0  0  0  0  0
  -26.7481   -8.8487    0.0000 C   0  0  0  0  0  0  0  0  0  0  0  0
  -27.1811   -7.4126    0.0000 C   0  0  0  0  0  0  0  0  0  0  0  0
  -27.5371   -5.9554    0.0000 C   0  0  0  0  0  0  0  0  0  0  0  0
  -27.8151   -4.4814    0.0000 C   0  0  0  0  0  0  0  0  0  0  0  0
  -28.0141   -2.9947    0.0000 C   0  0  0  0  0  0  0  0  0  0  0  0
  -28.1338   -1.4995    0.0000 C   0  0  0  0  0  0  0  0  0  0  0  0
  -28.1738    0.0000    0.0000 C   0  0  0  0  0  0  0  0  0  0  0  0
  -28.1338    1.4995    0.0000 C   0  0  0  0  0  0  0  0  0  0  0  0
  -28.0141    2.9947    0.0000 C   0  0  0  0  0  0  0  0  0  0  0  0
  -27.8151    4.4814    0.0000 C   0  0  0  0  0  0  0  0  0  0  0  0
  -27.5371    5.9554    0.0000 C   0  0  0  0  0  0  0  0  0  0  0  0
  -27.1811    7.4126    0.0000 C   0  0  0  0  0  0  0  0  0  0  0  0
  -26.7481    8.8487    0.0000 C   0  0  0  0  0  0  0  0  0  0  0  0
  -26.2392   10.2598    0.0000 C   0  0  0  0  0  0  0  0  0  0  0  0
  -25.6560   11.6417    0.0000 C   0  0  0  0  0  0  0  0  0  0  0  0
  -25.0000   12.9907    0.0000 C   0  0  0  0  0  0  0  0  0  0  0  0
  -24.2732   14.3029    0.0000 C   0  0  0  0  0  0  0  0  0  0  0  0
  -23.4776   15.5745    0.0000 C   0  0  0  0  0  0  0  0  0  0  0  0
  -22.6154   16.8019    0.0000 C   0  0  0  0  0  0  0  0  0  0  0  0
  -21.6891   17.9817    0.0000 C   0  0  0  0  0  0  0  0  0  0  0  0
  -20.7013   19.1106    0.0000 C   0  0  0  0  0  0  0  0  0  0  0  0
  -19.6549   20.1853    0.0000 C   0  0  0  0  0  0  0  0  0  0  0  0
  -18.5527   21.2027    0.0000 C   0  0  0  0  0  0  0  0  0  0  0  0
  -17.3980   22.1601    0.0000 C   0  0  0  0  0  0  0  0  0  0  0  0
  -16.1939   23.0547    0.0000 C   0  0  0  0  0  0  0  0  0  0  0  0
  -14.9439   23.8839    0.0000 C   0  0  0  0  0  0  0  0  0  0  0  0
  -13.6516   24.6454    0.0000 C   0  0  0  0  0  0  0  0  0  0  0  0
  -12.3206   25.3370    0.0000 C   0  0  0  0  0  0  0  0  0  0  0  0
  -10.9546   25.9568    0.0000 C   0  0  0  0  0  0  0  0  0  0  0  0
   -9.5576   26.5031    0.0000 C   0  0  0  0  0  0  0  0  0  0  0  0
   -8.1335   26.9742    0.0000 C   0  0  0  0  0  0  0  0  0  0  0  0
   -6.6864   27.3688    0.0000 C   0  0  0  0  0  0  0  0  0  0  0  0
   -5.2203   27.6859    0.0000 C   0  0  0  0  0  0  0  0  0  0  0  0
   -3.7394   27.9245    0.0000 C   0  0  0  0  0  0  0  0  0  0  0  0
   -2.2479   28.0839    0.0000 C   0  0  0  0  0  0  0  0  0  0  0  0
   -0.7500   28.1638    0.0000 C   0  0  0  0  0  0  0  0  0  0  0  0
    0.7500   28.1638    0.0000 C   0  0  0  0  0  0  0  0  0  0  0  0
    2.2479   28.0839    0.0000 C   0  0  0  0  0  0  0  0  0  0  0  0
    3.7394   27.9245    0.0000 C   0  0  0  0  0  0  0  0  0  0  0  0
    5.2203   27.6859    0.0000 C   0  0  0  0  0  0  0  0  0  0  0  0
    6.6864   27.3688    0.0000 C   0  0  0  0  0  0  0  0  0  0  0  0
    8.1335   26.9742    0.0000 C   0  0  0  0  0  0  0  0  0  0  0  0
    9.5576   26.5031    0.0000 C   0  0  0  0  0  0  0  0  0  0  0  0
   10.9546   25.9568    0.0000 C   0  0  0  0  0  0  0  0  0  0  0  0
   12.3206   25.3370    0.0000 C   0  0  0  0  0  0  0  0  0  0  0  0
   13.6516   24.6454    0.0000 C   0  0  0  0  0  0  0  0  0  0  0  0
   14.9439   23.8839    0.0000 C   0  0  0  0  0  0  0  0  0  0  0  0
   16.1939   23.0547    0.0000 C   0  0  0  0  0  0  0  0  0  0  0  0
   17.3980   22.1601    0.0000 C   0  0  0  0  0  0  0  0  0  0  0  0
   18.5527   21.2027    0.0000 C   0  0  0  0  0  0  0  0  0  0  0  0
   19.6549   20.1853    0.0000 C   0  0  0  0  0  0  0  0  0  0  0  0
   20.7013   19.1106    0.0000 C   0  0  0  0  0  0  0  0  0  0  0  0
   21.6891   17.9817    0.0000 C   0  0  0  0  0  0  0  0  0  0  0  0
   22.6154   16.8019    0.0000 C   0  0  0  0  0  0  0  0  0  0  0  0
   23.4776   15.5745    0.0000 C   0  0  0  0  0  0  0  0  0  0  0  0
   24.2732   14.3029    0.0000 C   0  0  0  0  0  0  0  0  0  0  0  0
   25.0000   12.9907    0.0000 C   0  0  0  0  0  0  0  0  0  0  0  0
   25.6560   11.6417    0.0000 C   0  0  0  0  0  0  0  0  0  0  0  0
   26.2392   10.2598    0.0000 C   0  0  0  0  0  0  0  0  0  0  0  0
   26.7481    8.8487    0.0000 C   0  0  0  0  0  0  0  0  0  0  0  0
   27.1811    7.4126    0.0000 C   0  0  0  0  0  0  0  0  0  0  0  0
   27.5371    5.9554    0.0000 C   0  0  0  0  0  0  0  0  0  0  0  0
   27.8151    4.4814    0.0000 C   0  0  0  0  0  0  0  0  0  0  0  0
   28.0141    2.9947    0.0000 C   0  0  0  0  0  0  0  0  0  0  0  0
   29.5056    3.1541    0.0000 C   0  0  0  0  0  0  0  0  0  0  0  0
   30.1133    4.5255    0.0000 C   0  0  0  0  0  0  0  0  0  0  0  0
   30.3895    1.9422    0.0000 C   0  0  0  0  0  0  0  0  0  0  0  0
   28.1338    1.4995    0.0000 C   0  0  0  0  0  0  0  0  0  0  0  0
  1  2  1  0
  2  3  1  0
  3  4  1  0
  4  5  1  0
  5  6  1  0
  6  7  1  0
  7  8  1  0
  8  9  1  0
  9 10  1  0
 10 11  1  0
 11 12  1  0
 12 13  1  0
 13 14  1  0
 14 15  1  0
 15 16  1  0
 16 17  1  0
 17 18  1  0
 18 19  1  0
 19 20  1  0
 20 21  1  0
 21 22  1  0
 22 23  1  0
 23 24  1  0
 24 25  1  0
 25 26  1  0
 26 27  1  0
 27 28  1  0
 28 29  1  0
 29 30  1  0
 30 31  1  0
 31 32  1  0
 32 33  1  0
 33 34  1  0
 34 35  1  0
 35 36  1  0
 36 37  1  0
 37 38  1  0
 38 39  1  0
 39 40  1  0
 40 41  1  0
 41 42  1  0
 42 43  1  0
 43 44  1  0
 44 45  1  0
 45 46  1  0
 46 47  1  0
 47 48  1  0
 48 49  1  0
 49 50  1  0
 50 51  1  0
 51 52  1  0
 52 53  1  0
 53 54  1  0
 54 55  1  0
 55 56  1  0
 56 57  1  0
 57 58  1  0
 58 59  1  0
 59 60  1  0
 60 61  1  0
 61 62  1  0
 62 63  1  0
 63 64  1  0
 64 65  1  0
 65 66  1  0
 66 67  1  0
 67 68  1  0
 68 69  1  0
 69 70  1  0
 70 71  1  0
 71 72  1  0
 72 73  1  0
 73 74  1  0
 74 75  1  0
 75 76  1  0
 76 77  1  0
 77 78  1  0
 78 79  1  0
 79 80  1  0
 80 81  1  0
 81 82  1  0
 82 83  1  0
 83 84  1  0
 84 85  1  0
 85 86  1  0
 86 87  1  0
 87 88  1  0
 88 89  1  0
 89 90  1  0
 90 91  1  0
 91 92  1  0
 92 93  1  0
 93 94  1  0
 94 95  1  0
 95 96  1  0
 96 97  1  0
 97 98  1  0
 98 99  1  0
 99100  1  0
100101  1  0
101102  1  0
102103  1  0
103104  1  0
104105  1  0
105106  1  0
106107  1  0
107108  1  0
108109  1  0
109110  1  0
110111  1  0
111112  1  0
112113  1  0
113114  1  0
114115  1  0
115116  1  0
116117  1  0
117118  1  0
118119  1  0
119120  1  0
119121  1  0
118122  1  0
122  2  1  0
M  END
>  <Title>  (634) 
idAAWLgen8

$$$$

     RDKit          2D

 13 13  0  0  0  0  0  0  0  0999 V2000
    8.2500   -1.2990    0.0000 C   0  0  0  0  0  0  0  0  0  0  0  0
    6.7500   -1.2990    0.0000 C   0  0  0  0  0  0  0  0  0  0  0  0
    5.2500   -1.2990    0.0000 C   0  0  0  0  0  0  0  0  0  0  0  0
    3.7500   -1.2990    0.0000 C   0  0  0  0  0  0  0  0  0  0  0  0
    3.0000   -2.5981    0.0000 O   0  0  0  0  0  0  0  0  0  0  0  0
    3.0000    0.0000    0.0000 N   0  0  0  0  0  0  0  0  0  0  0  0
    1.5000    0.0000    0.0000 C   0  0  0  0  0  0  0  0  0  0  0  0
    0.7500   -1.2990    0.0000 C   0  0  0  0  0  0  0  0  0  0  0  0
   -0.7500   -1.2990    0.0000 C   0  0  0  0  0  0  0  0  0  0  0  0
   -1.5000    0.0000    0.0000 C   0  0  0  0  0  0  0  0  0  0  0  0
   -3.0000    0.0000    0.0000 O   0  0  0  0  0  0  0  0  0  0  0  0
   -0.7500    1.2990    0.0000 C   0  0  0  0  0  0  0  0  0  0  0  0
    0.7500    1.2990    0.0000 C   0  0  0  0  0  0  0  0  0  0  0  0
  1  2  1  0
  2  3  3  0
  3  4  1  0
  4  5  2  0
  4  6  1  0
  6  7  1  0
  7  8  2  0
  8  9  1  0
  9 10  1  0
 10 11  1  0
 10 12  1  0
 12 13  2  0
 13  7  1  0
M  END
>  <Title>  (635) 
idAAWMgen8

$$$$

     RDKit          2D

 38 43  0  0  0  0  0  0  0  0999 V2000
    3.1097   -7.2078    0.0000 C   0  0  0  0  0  0  0  0  0  0  0  0
    2.0490   -6.1471    0.0000 C   0  0  0  0  0  0  0  0  0  0  0  0
    2.7990   -4.8481    0.0000 C   0  0  0  0  0  0  0  0  0  0  0  0
    2.7990   -3.3481    0.0000 C   0  0  0  0  0  0  0  0  0  0  0  0
    2.0490   -2.0490    0.0000 C   0  0  0  0  0  0  0  0  0  0  0  0
    3.1097   -0.9884    0.0000 C   0  0  0  0  0  0  0  0  0  0  0  0
    2.7215    0.4605    0.0000 O   0  0  0  0  0  0  0  0  0  0  0  0
    4.5586   -1.3766    0.0000 N   0  0  0  0  0  0  0  0  0  0  0  0
    5.6192   -0.3159    0.0000 C   0  0  0  0  0  0  0  0  0  0  0  0
    7.0681   -0.7042    0.0000 N   0  0  0  0  0  0  0  0  0  0  0  0
    8.1288    0.3565    0.0000 N   0  0  0  0  0  0  0  0  0  0  0  0
    7.7406    1.8054    0.0000 N   0  0  0  0  0  0  0  0  0  0  0  0
    6.2917    2.1936    0.0000 N   0  0  0  0  0  0  0  0  0  0  0  0
    5.2310    1.1329    0.0000 N   0  0  0  0  0  0  0  0  0  0  0  0
    0.7500   -1.2990    0.0000 C   0  0  0  0  0  0  0  0  0  0  0  0
    1.5000    0.0000    0.0000 C   0  0  0  0  0  0  0  0  0  0  0  0
    0.7500    1.2990    0.0000 C   0  0  0  0  0  0  0  0  0  0  0  0
   -0.7500    1.2990    0.0000 C   0  0  0  0  0  0  0  0  0  0  0  0
   -1.5000    0.0000    0.0000 C   0  0  0  0  0  0  0  0  0  0  0  0
   -0.7500   -1.2990    0.0000 C   0  0  0  0  0  0  0  0  0  0  0  0
   -2.0490   -2.0490    0.0000 C   0  0  0  0  0  0  0  0  0  0  0  0
   -2.7990   -0.7500    0.0000 C   0  0  0  0  0  0  0  0  0  0  0  0
   -4.2990   -0.7500    0.0000 C   0  0  0  0  0  0  0  0  0  0  0  0
   -5.0490   -2.0490    0.0000 C   0  0  0  0  0  0  0  0  0  0  0  0
   -4.2990   -3.3481    0.0000 C   0  0  0  0  0  0  0  0  0  0  0  0
   -2.7990   -3.3481    0.0000 C   0  0  0  0  0  0  0  0  0  0  0  0
   -2.7990   -4.8481    0.0000 C   0  0  0  0  0  0  0  0  0  0  0  0
   -4.2990   -4.8481    0.0000 C   0  0  0  0  0  0  0  0  0  0  0  0
   -5.0490   -6.1471    0.0000 C   0  0  0  0  0  0  0  0  0  0  0  0
   -4.2990   -7.4462    0.0000 C   0  0  0  0  0  0  0  0  0  0  0  0
   -2.7990   -7.4462    0.0000 C   0  0  0  0  0  0  0  0  0  0  0  0
   -2.0490   -6.1471    0.0000 C   0  0  0  0  0  0  0  0  0  0  0  0
   -0.7500   -6.8971    0.0000 C   0  0  0  0  0  0  0  0  0  0  0  0
   -1.5000   -8.1962    0.0000 C   0  0  0  0  0  0  0  0  0  0  0  0
   -0.7500   -9.4952    0.0000 C   0  0  0  0  0  0  0  0  0  0  0  0
    0.7500   -9.4952    0.0000 C   0  0  0  0  0  0  0  0  0  0  0  0
    1.5000   -8.1962    0.0000 C   0  0  0  0  0  0  0  0  0  0  0  0
    0.7500   -6.8971    0.0000 C   0  0  0  0  0  0  0  0  0  0  0  0
  1  2  1  0
  2  3  1  0
  3  4  1  0
  4  5  1  0
  5  6  1  0
  6  7  2  0
  6  8  1  0
  8  9  1  0
  9 10  2  0
 10 11  1  0
 11 12  2  0
 12 13  1  0
 13 14  2  0
  5 15  1  0
 15 16  2  0
 16 17  1  0
 17 18  2  0
 18 19  1  0
 19 20  2  0
 20 21  1  0
 21 22  2  0
 22 23  1  0
 23 24  2  0
 24 25  1  0
 25 26  2  0
 26 27  1  0
 27 28  2  0
 28 29  1  0
 29 30  2  0
 30 31  1  0
 31 32  2  0
 32 33  1  0
 33 34  2  0
 34 35  1  0
 35 36  2  0
 36 37  1  0
 37 38  2  0
 38  2  1  0
 14  9  1  0
 20 15  1  0
 26 21  1  0
 32 27  1  0
 38 33  1  0
M  END
>  <Title>  (636) 
idAAWNgen8

$$$$

     RDKit          2D

 21 23  0  0  0  0  0  0  0  0999 V2000
   -0.7500   -3.8971    0.0000 O   0  0  0  0  0  0  0  0  0  0  0  0
    0.7500   -3.8971    0.0000 C   0  0  0  0  0  0  0  0  0  0  0  0
    1.5000   -2.5981    0.0000 N   0  0  0  0  0  0  0  0  0  0  0  0
    0.7500   -1.2990    0.0000 C   0  0  0  0  0  0  0  0  0  0  0  0
    1.5000    0.0000    0.0000 N   0  0  0  0  0  0  0  0  0  0  0  0
    0.7500    1.2990    0.0000 N   0  0  0  0  0  0  0  0  0  0  0  0
   -0.7500    1.2990    0.0000 N   0  0  0  0  0  0  0  0  0  0  0  0
   -1.5000    0.0000    0.0000 N   0  0  0  0  0  0  0  0  0  0  0  0
   -0.7500   -1.2990    0.0000 N   0  0  0  0  0  0  0  0  0  0  0  0
    1.5000   -5.1962    0.0000 C   0  0  0  0  0  0  0  0  0  0  0  0
    1.1118   -6.6450    0.0000 C   0  0  0  0  0  0  0  0  0  0  0  0
    2.5607   -7.0333    0.0000 C   0  0  0  0  0  0  0  0  0  0  0  0
    3.3107   -8.3323    0.0000 O   0  0  0  0  0  0  0  0  0  0  0  0
    2.5607   -9.6313    0.0000 C   0  0  0  0  0  0  0  0  0  0  0  0
    1.0607   -9.6313    0.0000 C   0  0  0  0  0  0  0  0  0  0  0  0
    0.3107  -10.9304    0.0000 C   0  0  0  0  0  0  0  0  0  0  0  0
    1.0607  -12.2294    0.0000 C   0  0  0  0  0  0  0  0  0  0  0  0
    0.3107  -13.5285    0.0000 O   0  0  0  0  0  0  0  0  0  0  0  0
    2.5607  -12.2294    0.0000 C   0  0  0  0  0  0  0  0  0  0  0  0
    3.3107  -10.9304    0.0000 C   0  0  0  0  0  0  0  0  0  0  0  0
    2.9489   -5.5844    0.0000 C   0  0  0  0  0  0  0  0  0  0  0  0
  1  2  2  0
  2  3  1  0
  3  4  1  0
  4  5  2  0
  5  6  1  0
  6  7  2  0
  7  8  1  0
  8  9  2  0
  2 10  1  0
 10 11  1  0
 11 12  2  0
 12 13  1  0
 13 14  1  0
 14 15  2  0
 15 16  1  0
 16 17  2  0
 17 18  1  0
 17 19  1  0
 19 20  2  0
 12 21  1  0
  9  4  1  0
 21 10  1  0
 20 14  1  0
M  END
>  <Title>  (637) 
idAAWOgen8

$$$$

     RDKit          2D

 10 10  0  0  0  0  0  0  0  0999 V2000
    3.2286   -0.0000    0.0000 C   0  0  0  0  0  0  0  0  0  0  0  0
    1.7286    0.0000    0.0000 C   0  0  0  0  0  0  0  0  0  0  0  0
    1.0777    1.3515    0.0000 C   0  0  0  0  0  0  0  0  0  0  0  0
   -0.3846    1.6852    0.0000 C   0  0  0  0  0  0  0  0  0  0  0  0
   -1.5574    0.7500    0.0000 C   0  0  0  0  0  0  0  0  0  0  0  0
   -2.9088    1.4008    0.0000 O   0  0  0  0  0  0  0  0  0  0  0  0
   -1.5574   -0.7500    0.0000 C   0  0  0  0  0  0  0  0  0  0  0  0
   -2.9088   -1.4008    0.0000 O   0  0  0  0  0  0  0  0  0  0  0  0
   -0.3846   -1.6852    0.0000 C   0  0  0  0  0  0  0  0  0  0  0  0
    1.0777   -1.3515    0.0000 C   0  0  0  0  0  0  0  0  0  0  0  0
  1  2  1  0
  2  3  2  0
  3  4  1  0
  4  5  1  0
  5  6  1  0
  5  7  1  0
  7  8  1  0
  7  9  2  0
  9 10  1  0
 10  2  1  0
M  END
>  <Title>  (638) 
idAAWPgen8

$$$$

     RDKit          2D

 22 24  0  0  0  0  0  0  0  0999 V2000
   -3.1476   -2.1380    0.0000 C   0  0  0  0  0  0  0  0  0  0  0  0
   -1.6852   -2.4718    0.0000 C   0  0  0  0  0  0  0  0  0  0  0  0
   -1.3515   -3.9342    0.0000 C   0  0  0  0  0  0  0  0  0  0  0  0
   -0.0000   -4.5850    0.0000 C   0  0  0  0  0  0  0  0  0  0  0  0
   -0.0000   -6.0850    0.0000 O   0  0  0  0  0  0  0  0  0  0  0  0
    1.3515   -3.9342    0.0000 O   0  0  0  0  0  0  0  0  0  0  0  0
    1.6852   -2.4718    0.0000 C   0  0  0  0  0  0  0  0  0  0  0  0
    3.1476   -2.1380    0.0000 C   0  0  0  0  0  0  0  0  0  0  0  0
    3.5898   -0.7046    0.0000 O   0  0  0  0  0  0  0  0  0  0  0  0
    4.1679   -3.2376    0.0000 N   0  0  0  0  0  0  0  0  0  0  0  0
    5.6303   -2.9038    0.0000 C   0  0  0  0  0  0  0  0  0  0  0  0
    6.6505   -4.0034    0.0000 N   0  0  0  0  0  0  0  0  0  0  0  0
    8.1129   -3.6696    0.0000 N   0  0  0  0  0  0  0  0  0  0  0  0
    8.5551   -2.2362    0.0000 N   0  0  0  0  0  0  0  0  0  0  0  0
    7.5348   -1.1367    0.0000 N   0  0  0  0  0  0  0  0  0  0  0  0
    6.0724   -1.4704    0.0000 N   0  0  0  0  0  0  0  0  0  0  0  0
    0.7500   -1.2990    0.0000 C   0  0  0  0  0  0  0  0  0  0  0  0
    1.5000    0.0000    0.0000 C   0  0  0  0  0  0  0  0  0  0  0  0
    0.7500    1.2990    0.0000 C   0  0  0  0  0  0  0  0  0  0  0  0
   -0.7500    1.2990    0.0000 C   0  0  0  0  0  0  0  0  0  0  0  0
   -1.5000    0.0000    0.0000 C   0  0  0  0  0  0  0  0  0  0  0  0
   -0.7500   -1.2990    0.0000 C   0  0  0  0  0  0  0  0  0  0  0  0
  1  2  1  0
  2  3  2  0
  3  4  1  0
  4  5  1  0
  4  6  1  0
  6  7  1  0
  7  8  1  0
  8  9  2  0
  8 10  1  0
 10 11  1  0
 11 12  2  0
 12 13  1  0
 13 14  2  0
 14 15  1  0
 15 16  2  0
  7 17  1  0
 17 18  2  0
 18 19  1  0
 19 20  2  0
 20 21  1  0
 21 22  2  0
 22  2  1  0
 16 11  1  0
 22 17  1  0
M  END
>  <Title>  (639) 
idAAWQgen8

$$$$

     RDKit          2D

 14 14  0  0  0  0  0  0  0  0999 V2000
    7.2760   -2.5981    0.0000 C   0  0  0  0  0  0  0  0  0  0  0  0
    5.7760   -2.5981    0.0000 C   0  0  0  0  0  0  0  0  0  0  0  0
    5.0260   -3.8971    0.0000 C   0  0  0  0  0  0  0  0  0  0  0  0
    5.7760   -5.1962    0.0000 O   0  0  0  0  0  0  0  0  0  0  0  0
    5.0260   -1.2990    0.0000 C   0  0  0  0  0  0  0  0  0  0  0  0
    3.5260   -1.2990    0.0000 C   0  0  0  0  0  0  0  0  0  0  0  0
    2.7760   -2.5981    0.0000 O   0  0  0  0  0  0  0  0  0  0  0  0
    2.7760    0.0000    0.0000 N   0  0  0  0  0  0  0  0  0  0  0  0
    1.2760    0.0000    0.0000 C   0  0  0  0  0  0  0  0  0  0  0  0
    0.3943    1.2135    0.0000 C   0  0  0  0  0  0  0  0  0  0  0  0
   -1.0323    0.7500    0.0000 C   0  0  0  0  0  0  0  0  0  0  0  0
   -2.2458    1.6317    0.0000 O   0  0  0  0  0  0  0  0  0  0  0  0
   -1.0323   -0.7500    0.0000 C   0  0  0  0  0  0  0  0  0  0  0  0
    0.3943   -1.2135    0.0000 C   0  0  0  0  0  0  0  0  0  0  0  0
  1  2  1  0
  2  3  1  0
  3  4  1  0
  2  5  1  0
  5  6  1  0
  6  7  2  0
  6  8  1  0
  8  9  1  0
  9 10  2  0
 10 11  1  0
 11 12  1  0
 11 13  1  0
 13 14  2  0
 14  9  1  0
M  END
>  <Title>  (640) 
idAAWRgen8

$$$$

     RDKit          2D

 12 12  0  0  0  0  0  0  0  0999 V2000
    8.0260   -1.2990    0.0000 C   0  0  0  0  0  0  0  0  0  0  0  0
    6.5260   -1.2990    0.0000 C   0  0  0  0  0  0  0  0  0  0  0  0
    5.0260   -1.2990    0.0000 C   0  0  0  0  0  0  0  0  0  0  0  0
    3.5260   -1.2990    0.0000 C   0  0  0  0  0  0  0  0  0  0  0  0
    2.7760   -2.5981    0.0000 O   0  0  0  0  0  0  0  0  0  0  0  0
    2.7760    0.0000    0.0000 C   0  0  0  0  0  0  0  0  0  0  0  0
    3.5260    1.2990    0.0000 O   0  0  0  0  0  0  0  0  0  0  0  0
    1.2760    0.0000    0.0000 C   0  0  0  0  0  0  0  0  0  0  0  0
    0.3943    1.2135    0.0000 C   0  0  0  0  0  0  0  0  0  0  0  0
   -1.0323    0.7500    0.0000 C   0  0  0  0  0  0  0  0  0  0  0  0
   -1.0323   -0.7500    0.0000 C   0  0  0  0  0  0  0  0  0  0  0  0
    0.3943   -1.2135    0.0000 C   0  0  0  0  0  0  0  0  0  0  0  0
  1  2  1  0
  2  3  3  0
  3  4  1  0
  4  5  2  0
  4  6  1  0
  6  7  1  0
  6  8  1  0
  8  9  2  0
  9 10  1  0
 10 11  2  0
 11 12  1  0
 12  8  1  0
M  END
>  <Title>  (641) 
idAAWSgen8

$$$$

     RDKit          2D

 24 27  0  0  0  0  0  0  0  0999 V2000
    2.8691   -5.3854    0.0000 C   0  0  0  0  0  0  0  0  0  0  0  0
    1.4095   -5.0395    0.0000 C   0  0  0  0  0  0  0  0  0  0  0  0
    1.4968   -6.5369    0.0000 C   0  0  0  0  0  0  0  0  0  0  0  0
    2.1595   -3.7404    0.0000 C   0  0  0  0  0  0  0  0  0  0  0  0
    3.6368   -4.0009    0.0000 O   0  0  0  0  0  0  0  0  0  0  0  0
    1.8991   -2.2632    0.0000 O   0  0  0  0  0  0  0  0  0  0  0  0
    0.7500   -1.2990    0.0000 C   0  0  0  0  0  0  0  0  0  0  0  0
    1.5000    0.0000    0.0000 C   0  0  0  0  0  0  0  0  0  0  0  0
    0.7500    1.2990    0.0000 C   0  0  0  0  0  0  0  0  0  0  0  0
   -0.7500    1.2990    0.0000 C   0  0  0  0  0  0  0  0  0  0  0  0
   -1.5000    0.0000    0.0000 C   0  0  0  0  0  0  0  0  0  0  0  0
   -0.7500   -1.2990    0.0000 C   0  0  0  0  0  0  0  0  0  0  0  0
   -1.8991   -2.2632    0.0000 C   0  0  0  0  0  0  0  0  0  0  0  0
   -3.0481   -1.2990    0.0000 C   0  0  0  0  0  0  0  0  0  0  0  0
   -4.4577   -1.8121    0.0000 C   0  0  0  0  0  0  0  0  0  0  0  0
   -4.7181   -3.2893    0.0000 C   0  0  0  0  0  0  0  0  0  0  0  0
   -3.5691   -4.2535    0.0000 C   0  0  0  0  0  0  0  0  0  0  0  0
   -2.1595   -3.7404    0.0000 C   0  0  0  0  0  0  0  0  0  0  0  0
   -1.4095   -5.0395    0.0000 C   0  0  0  0  0  0  0  0  0  0  0  0
   -2.5586   -6.0037    0.0000 C   0  0  0  0  0  0  0  0  0  0  0  0
   -2.2981   -7.4809    0.0000 C   0  0  0  0  0  0  0  0  0  0  0  0
   -0.8886   -7.9939    0.0000 C   0  0  0  0  0  0  0  0  0  0  0  0
    0.2605   -7.0297    0.0000 C   0  0  0  0  0  0  0  0  0  0  0  0
   -0.0000   -5.5525    0.0000 C   0  0  0  0  0  0  0  0  0  0  0  0
  1  2  1  0
  2  3  1  0
  2  4  1  0
  4  5  2  0
  4  6  1  0
  6  7  1  0
  7  8  2  0
  8  9  1  0
  9 10  2  0
 10 11  1  0
 11 12  2  0
 12 13  1  0
 13 14  2  0
 14 15  1  0
 15 16  2  0
 16 17  1  0
 17 18  2  0
 18 19  1  0
 19 20  2  0
 20 21  1  0
 21 22  2  0
 22 23  1  0
 23 24  2  0
 24  2  1  0
 12  7  1  0
 18 13  1  0
 24 19  1  0
M  END
>  <Title>  (642) 
idAAWTgen8

$$$$

     RDKit          2D

 40 45  0  0  0  0  0  0  0  0999 V2000
    2.1535   -8.4451    0.0000 C   0  0  0  0  0  0  0  0  0  0  0  0
    1.4564   -7.1169    0.0000 C   0  0  0  0  0  0  0  0  0  0  0  0
    2.5792   -6.1222    0.0000 C   0  0  0  0  0  0  0  0  0  0  0  0
    3.1111   -4.7197    0.0000 C   0  0  0  0  0  0  0  0  0  0  0  0
    2.9303   -3.2306    0.0000 C   0  0  0  0  0  0  0  0  0  0  0  0
    4.3328   -2.6987    0.0000 O   0  0  0  0  0  0  0  0  0  0  0  0
    2.0782   -1.9961    0.0000 C   0  0  0  0  0  0  0  0  0  0  0  0
    3.0729   -0.8734    0.0000 C   0  0  0  0  0  0  0  0  0  0  0  0
    2.5979    0.5494    0.0000 O   0  0  0  0  0  0  0  0  0  0  0  0
    4.5426   -1.1734    0.0000 N   0  0  0  0  0  0  0  0  0  0  0  0
    5.5372   -0.0506    0.0000 C   0  0  0  0  0  0  0  0  0  0  0  0
    7.0069   -0.3507    0.0000 N   0  0  0  0  0  0  0  0  0  0  0  0
    8.0016    0.7721    0.0000 N   0  0  0  0  0  0  0  0  0  0  0  0
    7.5266    2.1949    0.0000 N   0  0  0  0  0  0  0  0  0  0  0  0
    6.0569    2.4949    0.0000 N   0  0  0  0  0  0  0  0  0  0  0  0
    5.0622    1.3722    0.0000 N   0  0  0  0  0  0  0  0  0  0  0  0
    0.7500   -1.2990    0.0000 C   0  0  0  0  0  0  0  0  0  0  0  0
    1.5000    0.0000    0.0000 C   0  0  0  0  0  0  0  0  0  0  0  0
    0.7500    1.2990    0.0000 C   0  0  0  0  0  0  0  0  0  0  0  0
   -0.7500    1.2990    0.0000 C   0  0  0  0  0  0  0  0  0  0  0  0
   -1.5000    0.0000    0.0000 C   0  0  0  0  0  0  0  0  0  0  0  0
   -0.7500   -1.2990    0.0000 C   0  0  0  0  0  0  0  0  0  0  0  0
   -2.0782   -1.9961    0.0000 C   0  0  0  0  0  0  0  0  0  0  0  0
   -2.7212   -0.6409    0.0000 C   0  0  0  0  0  0  0  0  0  0  0  0
   -4.2164   -0.5202    0.0000 C   0  0  0  0  0  0  0  0  0  0  0  0
   -5.0685   -1.7547    0.0000 C   0  0  0  0  0  0  0  0  0  0  0  0
   -4.4254   -3.1099    0.0000 C   0  0  0  0  0  0  0  0  0  0  0  0
   -2.9303   -3.2306    0.0000 C   0  0  0  0  0  0  0  0  0  0  0  0
   -3.1111   -4.7197    0.0000 C   0  0  0  0  0  0  0  0  0  0  0  0
   -4.5917   -4.4790    0.0000 C   0  0  0  0  0  0  0  0  0  0  0  0
   -5.5403   -5.6410    0.0000 C   0  0  0  0  0  0  0  0  0  0  0  0
   -5.0084   -7.0435    0.0000 C   0  0  0  0  0  0  0  0  0  0  0  0
   -3.5278   -7.2841    0.0000 C   0  0  0  0  0  0  0  0  0  0  0  0
   -2.5792   -6.1222    0.0000 C   0  0  0  0  0  0  0  0  0  0  0  0
   -1.4564   -7.1169    0.0000 C   0  0  0  0  0  0  0  0  0  0  0  0
   -2.4955   -8.1987    0.0000 C   0  0  0  0  0  0  0  0  0  0  0  0
   -2.0782   -9.6395    0.0000 C   0  0  0  0  0  0  0  0  0  0  0  0
   -0.6218   -9.9984    0.0000 C   0  0  0  0  0  0  0  0  0  0  0  0
    0.4173   -8.9166    0.0000 C   0  0  0  0  0  0  0  0  0  0  0  0
   -0.0000   -7.4758    0.0000 C   0  0  0  0  0  0  0  0  0  0  0  0
  1  2  1  0
  2  3  2  0
  3  4  1  0
  4  5  1  0
  5  6  1  0
  5  7  2  0
  7  8  1  0
  8  9  2  0
  8 10  1  0
 10 11  1  0
 11 12  2  0
 12 13  1  0
 13 14  2  0
 14 15  1  0
 15 16  2  0
  7 17  1  0
 17 18  2  0
 18 19  1  0
 19 20  2  0
 20 21  1  0
 21 22  2  0
 22 23  1  0
 23 24  2  0
 24 25  1  0
 25 26  2  0
 26 27  1  0
 27 28  2  0
 28 29  1  0
 29 30  2  0
 30 31  1  0
 31 32  2  0
 32 33  1  0
 33 34  2  0
 34 35  1  0
 35 36  2  0
 36 37  1  0
 37 38  2  0
 38 39  1  0
 39 40  2  0
 40  2  1  0
 16 11  1  0
 22 17  1  0
 28 23  1  0
 34 29  1  0
 40 35  1  0
M  END
>  <Title>  (643) 
idAAWUgen8

$$$$

     RDKit          2D

  8  8  0  0  0  0  0  0  0  0999 V2000
    3.0000    0.0000    0.0000 C   0  0  0  0  0  0  0  0  0  0  0  0
    1.5000    0.0000    0.0000 C   0  0  0  0  0  0  0  0  0  0  0  0
    0.7500   -1.2990    0.0000 C   0  0  0  0  0  0  0  0  0  0  0  0
   -0.7500   -1.2990    0.0000 C   0  0  0  0  0  0  0  0  0  0  0  0
   -1.5000    0.0000    0.0000 C   0  0  0  0  0  0  0  0  0  0  0  0
   -0.7500    1.2990    0.0000 C   0  0  0  0  0  0  0  0  0  0  0  0
    0.7500    1.2990    0.0000 C   0  0  0  0  0  0  0  0  0  0  0  0
    1.5000    2.5981    0.0000 O   0  0  0  0  0  0  0  0  0  0  0  0
  1  2  1  0
  2  3  1  0
  3  4  1  0
  4  5  1  0
  5  6  1  0
  6  7  1  0
  7  8  1  0
  7  2  1  0
M  END
>  <Title>  (644) 
idAAWVgen8

$$$$

     RDKit          2D

 40 45  0  0  0  0  0  0  0  0999 V2000
    3.1097   -7.2078    0.0000 C   0  0  0  0  0  0  0  0  0  0  0  0
    2.0490   -6.1471    0.0000 C   0  0  0  0  0  0  0  0  0  0  0  0
    2.7990   -4.8481    0.0000 C   0  0  0  0  0  0  0  0  0  0  0  0
    2.7990   -3.3481    0.0000 C   0  0  0  0  0  0  0  0  0  0  0  0
    2.0490   -2.0490    0.0000 C   0  0  0  0  0  0  0  0  0  0  0  0
    3.1097   -0.9884    0.0000 C   0  0  0  0  0  0  0  0  0  0  0  0
    2.7215    0.4605    0.0000 O   0  0  0  0  0  0  0  0  0  0  0  0
    4.5586   -1.3766    0.0000 N   0  0  0  0  0  0  0  0  0  0  0  0
    5.6192   -0.3159    0.0000 C   0  0  0  0  0  0  0  0  0  0  0  0
    7.0681   -0.7042    0.0000 N   0  0  0  0  0  0  0  0  0  0  0  0
    8.1288    0.3565    0.0000 N   0  0  0  0  0  0  0  0  0  0  0  0
    7.7406    1.8054    0.0000 N   0  0  0  0  0  0  0  0  0  0  0  0
    6.2917    2.1936    0.0000 N   0  0  0  0  0  0  0  0  0  0  0  0
    5.2310    1.1329    0.0000 N   0  0  0  0  0  0  0  0  0  0  0  0
    0.7500   -1.2990    0.0000 C   0  0  0  0  0  0  0  0  0  0  0  0
    1.5000    0.0000    0.0000 C   0  0  0  0  0  0  0  0  0  0  0  0
    0.7500    1.2990    0.0000 C   0  0  0  0  0  0  0  0  0  0  0  0
   -0.7500    1.2990    0.0000 C   0  0  0  0  0  0  0  0  0  0  0  0
   -1.5000    0.0000    0.0000 C   0  0  0  0  0  0  0  0  0  0  0  0
   -0.7500   -1.2990    0.0000 C   0  0  0  0  0  0  0  0  0  0  0  0
   -2.0490   -2.0490    0.0000 C   0  0  0  0  0  0  0  0  0  0  0  0
   -2.7990   -0.7500    0.0000 C   0  0  0  0  0  0  0  0  0  0  0  0
   -4.2990   -0.7500    0.0000 C   0  0  0  0  0  0  0  0  0  0  0  0
   -5.0490   -2.0490    0.0000 C   0  0  0  0  0  0  0  0  0  0  0  0
   -6.5490   -2.0490    0.0000 C   0  0  0  0  0  0  0  0  0  0  0  0
   -8.0490   -2.0490    0.0000 N   0  0  0  0  0  0  0  0  0  0  0  0
   -4.2990   -3.3481    0.0000 C   0  0  0  0  0  0  0  0  0  0  0  0
   -2.7990   -3.3481    0.0000 C   0  0  0  0  0  0  0  0  0  0  0  0
   -2.7990   -4.8481    0.0000 C   0  0  0  0  0  0  0  0  0  0  0  0
   -4.2990   -4.8481    0.0000 C   0  0  0  0  0  0  0  0  0  0  0  0
   -5.0490   -6.1471    0.0000 C   0  0  0  0  0  0  0  0  0  0  0  0
   -4.2990   -7.4462    0.0000 C   0  0  0  0  0  0  0  0  0  0  0  0
   -2.7990   -7.4462    0.0000 C   0  0  0  0  0  0  0  0  0  0  0  0
   -2.0490   -6.1471    0.0000 C   0  0  0  0  0  0  0  0  0  0  0  0
   -0.7500   -6.8971    0.0000 C   0  0  0  0  0  0  0  0  0  0  0  0
   -1.5000   -8.1962    0.0000 C   0  0  0  0  0  0  0  0  0  0  0  0
   -0.7500   -9.4952    0.0000 C   0  0  0  0  0  0  0  0  0  0  0  0
    0.7500   -9.4952    0.0000 C   0  0  0  0  0  0  0  0  0  0  0  0
    1.5000   -8.1962    0.0000 C   0  0  0  0  0  0  0  0  0  0  0  0
    0.7500   -6.8971    0.0000 C   0  0  0  0  0  0  0  0  0  0  0  0
  1  2  1  0
  2  3  1  0
  3  4  1  0
  4  5  1  0
  5  6  1  0
  6  7  2  0
  6  8  1  0
  8  9  1  0
  9 10  2  0
 10 11  1  0
 11 12  2  0
 12 13  1  0
 13 14  2  0
  5 15  1  0
 15 16  2  0
 16 17  1  0
 17 18  2  0
 18 19  1  0
 19 20  2  0
 20 21  1  0
 21 22  2  0
 22 23  1  0
 23 24  2  0
 24 25  1  0
 25 26  3  0
 24 27  1  0
 27 28  2  0
 28 29  1  0
 29 30  2  0
 30 31  1  0
 31 32  2  0
 32 33  1  0
 33 34  2  0
 34 35  1  0
 35 36  2  0
 36 37  1  0
 37 38  2  0
 38 39  1  0
 39 40  2  0
 40  2  1  0
 14  9  1  0
 20 15  1  0
 28 21  1  0
 34 29  1  0
 40 35  1  0
M  END
>  <Title>  (645) 
idAAWWgen8

$$$$

     RDKit          2D

  9  9  0  0  0  0  0  0  0  0999 V2000
    4.7286   -0.0000    0.0000 C   0  0  0  0  0  0  0  0  0  0  0  0
    3.2286   -0.0000    0.0000 C   0  0  0  0  0  0  0  0  0  0  0  0
    1.7286    0.0000    0.0000 C   0  0  0  0  0  0  0  0  0  0  0  0
    1.0777    1.3515    0.0000 C   0  0  0  0  0  0  0  0  0  0  0  0
   -0.3846    1.6852    0.0000 C   0  0  0  0  0  0  0  0  0  0  0  0
   -1.5574    0.7500    0.0000 C   0  0  0  0  0  0  0  0  0  0  0  0
   -1.5574   -0.7500    0.0000 C   0  0  0  0  0  0  0  0  0  0  0  0
   -0.3846   -1.6852    0.0000 C   0  0  0  0  0  0  0  0  0  0  0  0
    1.0777   -1.3515    0.0000 C   0  0  0  0  0  0  0  0  0  0  0  0
  1  2  3  0
  2  3  1  0
  3  4  1  0
  4  5  1  0
  5  6  1  0
  6  7  1  0
  7  8  1  0
  8  9  1  0
  9  3  1  0
M  END
>  <Title>  (646) 
idAAWXgen8

$$$$

     RDKit          2D

 11 11  0  0  0  0  0  0  0  0999 V2000
    8.0260   -1.2990    0.0000 C   0  0  0  0  0  0  0  0  0  0  0  0
    6.5260   -1.2990    0.0000 C   0  0  0  0  0  0  0  0  0  0  0  0
    5.0260   -1.2990    0.0000 C   0  0  0  0  0  0  0  0  0  0  0  0
    3.5260   -1.2990    0.0000 C   0  0  0  0  0  0  0  0  0  0  0  0
    2.7760   -2.5981    0.0000 O   0  0  0  0  0  0  0  0  0  0  0  0
    2.7760    0.0000    0.0000 N   0  0  0  0  0  0  0  0  0  0  0  0
    1.2760    0.0000    0.0000 C   0  0  0  0  0  0  0  0  0  0  0  0
    0.3943    1.2135    0.0000 C   0  0  0  0  0  0  0  0  0  0  0  0
   -1.0323    0.7500    0.0000 C   0  0  0  0  0  0  0  0  0  0  0  0
   -1.0323   -0.7500    0.0000 C   0  0  0  0  0  0  0  0  0  0  0  0
    0.3943   -1.2135    0.0000 C   0  0  0  0  0  0  0  0  0  0  0  0
  1  2  1  0
  2  3  3  0
  3  4  1  0
  4  5  2  0
  4  6  1  0
  6  7  1  0
  7  8  2  0
  8  9  1  0
  9 10  2  0
 10 11  1  0
 11  7  1  0
M  END
>  <Title>  (647) 
idAAWYgen8

$$$$

     RDKit          2D

 10 10  0  0  0  0  0  0  0  0999 V2000
    3.2286   -0.0000    0.0000 C   0  0  0  0  0  0  0  0  0  0  0  0
    1.7286    0.0000    0.0000 C   0  0  0  0  0  0  0  0  0  0  0  0
    1.0777    1.3515    0.0000 C   0  0  0  0  0  0  0  0  0  0  0  0
   -0.3846    1.6852    0.0000 C   0  0  0  0  0  0  0  0  0  0  0  0
   -1.5574    0.7500    0.0000 C   0  0  0  0  0  0  0  0  0  0  0  0
   -2.9088    1.4008    0.0000 O   0  0  0  0  0  0  0  0  0  0  0  0
   -1.5574   -0.7500    0.0000 C   0  0  0  0  0  0  0  0  0  0  0  0
   -2.9088   -1.4008    0.0000 N   0  0  0  0  0  0  0  0  0  0  0  0
   -0.3846   -1.6852    0.0000 C   0  0  0  0  0  0  0  0  0  0  0  0
    1.0777   -1.3515    0.0000 C   0  0  0  0  0  0  0  0  0  0  0  0
  1  2  1  0
  2  3  2  0
  3  4  1  0
  4  5  1  0
  5  6  1  0
  5  7  1  0
  7  8  2  0
  7  9  1  0
  9 10  1  0
 10  2  1  0
M  END
>  <Title>  (648) 
idAAWZgen8

$$$$

     RDKit          2D

 15 15  0  0  0  0  0  0  0  0999 V2000
    7.2760   -2.5981    0.0000 C   0  0  0  0  0  0  0  0  0  0  0  0
    5.7760   -2.5981    0.0000 C   0  0  0  0  0  0  0  0  0  0  0  0
    5.0260   -1.2990    0.0000 C   0  0  0  0  0  0  0  0  0  0  0  0
    3.5260   -1.2990    0.0000 C   0  0  0  0  0  0  0  0  0  0  0  0
    2.7760   -2.5981    0.0000 O   0  0  0  0  0  0  0  0  0  0  0  0
    2.7760    0.0000    0.0000 N   0  0  0  0  0  0  0  0  0  0  0  0
    1.2760    0.0000    0.0000 C   0  0  0  0  0  0  0  0  0  0  0  0
    0.3943    1.2135    0.0000 C   0  0  0  0  0  0  0  0  0  0  0  0
   -1.0323    0.7500    0.0000 C   0  0  0  0  0  0  0  0  0  0  0  0
   -1.0323   -0.7500    0.0000 C   0  0  0  0  0  0  0  0  0  0  0  0
   -2.2458   -1.6317    0.0000 C   0  0  0  0  0  0  0  0  0  0  0  0
   -2.0890   -3.1235    0.0000 O   0  0  0  0  0  0  0  0  0  0  0  0
   -3.6161   -1.0216    0.0000 O   0  0  0  0  0  0  0  0  0  0  0  0
    0.3943   -1.2135    0.0000 C   0  0  0  0  0  0  0  0  0  0  0  0
    0.8578   -2.6401    0.0000 O   0  0  0  0  0  0  0  0  0  0  0  0
  1  2  1  0
  2  3  2  3
  3  4  1  0
  4  5  2  0
  4  6  1  0
  6  7  1  0
  7  8  2  0
  8  9  1  0
  9 10  2  0
 10 11  1  0
 11 12  2  0
 11 13  1  0
 10 14  1  0
 14 15  2  0
 14  7  1  0
M  END
>  <Title>  (649) 
idAAXAgen8

$$$$

     RDKit          2D

105105  0  0  0  0  0  0  0  0999 V2000
   26.3319    0.0000    0.0000 C   0  0  0  0  0  0  0  0  0  0  0  0
   24.8319    0.0000    0.0000 C   0  0  0  0  0  0  0  0  0  0  0  0
   24.7866   -1.4993    0.0000 C   0  0  0  0  0  0  0  0  0  0  0  0
   24.6509   -2.9932    0.0000 C   0  0  0  0  0  0  0  0  0  0  0  0
   24.4252   -4.4761    0.0000 C   0  0  0  0  0  0  0  0  0  0  0  0
   24.1104   -5.9427    0.0000 C   0  0  0  0  0  0  0  0  0  0  0  0
   23.7076   -7.3876    0.0000 C   0  0  0  0  0  0  0  0  0  0  0  0
   23.2183   -8.8055    0.0000 C   0  0  0  0  0  0  0  0  0  0  0  0
   22.6442  -10.1913    0.0000 C   0  0  0  0  0  0  0  0  0  0  0  0
   21.9876  -11.5400    0.0000 C   0  0  0  0  0  0  0  0  0  0  0  0
   21.2507  -12.8465    0.0000 C   0  0  0  0  0  0  0  0  0  0  0  0
   20.4363  -14.1062    0.0000 C   0  0  0  0  0  0  0  0  0  0  0  0
   19.5473  -15.3143    0.0000 C   0  0  0  0  0  0  0  0  0  0  0  0
   18.5870  -16.4666    0.0000 C   0  0  0  0  0  0  0  0  0  0  0  0
   17.5588  -17.5588    0.0000 C   0  0  0  0  0  0  0  0  0  0  0  0
   16.4666  -18.5870    0.0000 C   0  0  0  0  0  0  0  0  0  0  0  0
   15.3143  -19.5473    0.0000 C   0  0  0  0  0  0  0  0  0  0  0  0
   14.1062  -20.4363    0.0000 C   0  0  0  0  0  0  0  0  0  0  0  0
   12.8465  -21.2507    0.0000 C   0  0  0  0  0  0  0  0  0  0  0  0
   11.5400  -21.9876    0.0000 C   0  0  0  0  0  0  0  0  0  0  0  0
   10.1913  -22.6442    0.0000 C   0  0  0  0  0  0  0  0  0  0  0  0
    8.8055  -23.2183    0.0000 C   0  0  0  0  0  0  0  0  0  0  0  0
    7.3876  -23.7076    0.0000 C   0  0  0  0  0  0  0  0  0  0  0  0
    5.9427  -24.1104    0.0000 C   0  0  0  0  0  0  0  0  0  0  0  0
    4.4761  -24.4252    0.0000 C   0  0  0  0  0  0  0  0  0  0  0  0
    2.9932  -24.6509    0.0000 C   0  0  0  0  0  0  0  0  0  0  0  0
    1.4993  -24.7866    0.0000 C   0  0  0  0  0  0  0  0  0  0  0  0
   -0.0000  -24.8319    0.0000 C   0  0  0  0  0  0  0  0  0  0  0  0
   -1.4993  -24.7866    0.0000 C   0  0  0  0  0  0  0  0  0  0  0  0
   -2.9932  -24.6509    0.0000 C   0  0  0  0  0  0  0  0  0  0  0  0
   -4.4761  -24.4252    0.0000 C   0  0  0  0  0  0  0  0  0  0  0  0
   -5.9427  -24.1104    0.0000 C   0  0  0  0  0  0  0  0  0  0  0  0
   -7.3876  -23.7076    0.0000 C   0  0  0  0  0  0  0  0  0  0  0  0
   -8.8055  -23.2183    0.0000 C   0  0  0  0  0  0  0  0  0  0  0  0
  -10.1913  -22.6442    0.0000 C   0  0  0  0  0  0  0  0  0  0  0  0
  -11.5400  -21.9876    0.0000 C   0  0  0  0  0  0  0  0  0  0  0  0
  -12.8465  -21.2507    0.0000 C   0  0  0  0  0  0  0  0  0  0  0  0
  -14.1062  -20.4363    0.0000 C   0  0  0  0  0  0  0  0  0  0  0  0
  -15.3143  -19.5473    0.0000 C   0  0  0  0  0  0  0  0  0  0  0  0
  -16.4666  -18.5870    0.0000 C   0  0  0  0  0  0  0  0  0  0  0  0
  -17.5588  -17.5588    0.0000 C   0  0  0  0  0  0  0  0  0  0  0  0
  -18.5870  -16.4666    0.0000 C   0  0  0  0  0  0  0  0  0  0  0  0
  -19.5473  -15.3143    0.0000 C   0  0  0  0  0  0  0  0  0  0  0  0
  -20.4363  -14.1062    0.0000 C   0  0  0  0  0  0  0  0  0  0  0  0
  -21.2507  -12.8465    0.0000 C   0  0  0  0  0  0  0  0  0  0  0  0
  -21.9876  -11.5400    0.0000 C   0  0  0  0  0  0  0  0  0  0  0  0
  -22.6442  -10.1913    0.0000 C   0  0  0  0  0  0  0  0  0  0  0  0
  -23.2183   -8.8055    0.0000 C   0  0  0  0  0  0  0  0  0  0  0  0
  -23.7076   -7.3876    0.0000 C   0  0  0  0  0  0  0  0  0  0  0  0
  -24.1104   -5.9427    0.0000 C   0  0  0  0  0  0  0  0  0  0  0  0
  -24.4252   -4.4761    0.0000 C   0  0  0  0  0  0  0  0  0  0  0  0
  -24.6509   -2.9932    0.0000 C   0  0  0  0  0  0  0  0  0  0  0  0
  -24.7866   -1.4993    0.0000 C   0  0  0  0  0  0  0  0  0  0  0  0
  -24.8319    0.0000    0.0000 C   0  0  0  0  0  0  0  0  0  0  0  0
  -24.7866    1.4993    0.0000 C   0  0  0  0  0  0  0  0  0  0  0  0
  -24.6509    2.9932    0.0000 C   0  0  0  0  0  0  0  0  0  0  0  0
  -24.4252    4.4761    0.0000 C   0  0  0  0  0  0  0  0  0  0  0  0
  -24.1104    5.9427    0.0000 C   0  0  0  0  0  0  0  0  0  0  0  0
  -23.7076    7.3876    0.0000 C   0  0  0  0  0  0  0  0  0  0  0  0
  -23.2183    8.8055    0.0000 C   0  0  0  0  0  0  0  0  0  0  0  0
  -22.6442   10.1913    0.0000 C   0  0  0  0  0  0  0  0  0  0  0  0
  -21.9876   11.5400    0.0000 C   0  0  0  0  0  0  0  0  0  0  0  0
  -21.2507   12.8465    0.0000 C   0  0  0  0  0  0  0  0  0  0  0  0
  -20.4363   14.1062    0.0000 C   0  0  0  0  0  0  0  0  0  0  0  0
  -19.5473   15.3143    0.0000 C   0  0  0  0  0  0  0  0  0  0  0  0
  -18.5870   16.4666    0.0000 C   0  0  0  0  0  0  0  0  0  0  0  0
  -17.5588   17.5588    0.0000 C   0  0  0  0  0  0  0  0  0  0  0  0
  -16.4666   18.5870    0.0000 C   0  0  0  0  0  0  0  0  0  0  0  0
  -15.3143   19.5473    0.0000 C   0  0  0  0  0  0  0  0  0  0  0  0
  -14.1062   20.4363    0.0000 C   0  0  0  0  0  0  0  0  0  0  0  0
  -12.8465   21.2507    0.0000 C   0  0  0  0  0  0  0  0  0  0  0  0
  -11.5400   21.9876    0.0000 C   0  0  0  0  0  0  0  0  0  0  0  0
  -10.1913   22.6442    0.0000 C   0  0  0  0  0  0  0  0  0  0  0  0
   -8.8055   23.2183    0.0000 C   0  0  0  0  0  0  0  0  0  0  0  0
   -7.3876   23.7076    0.0000 C   0  0  0  0  0  0  0  0  0  0  0  0
   -5.9427   24.1104    0.0000 C   0  0  0  0  0  0  0  0  0  0  0  0
   -4.4761   24.4252    0.0000 C   0  0  0  0  0  0  0  0  0  0  0  0
   -2.9932   24.6509    0.0000 C   0  0  0  0  0  0  0  0  0  0  0  0
   -1.4993   24.7866    0.0000 C   0  0  0  0  0  0  0  0  0  0  0  0
    0.0000   24.8319    0.0000 C   0  0  0  0  0  0  0  0  0  0  0  0
    1.4993   24.7866    0.0000 C   0  0  0  0  0  0  0  0  0  0  0  0
    2.9932   24.6509    0.0000 C   0  0  0  0  0  0  0  0  0  0  0  0
    4.4761   24.4252    0.0000 C   0  0  0  0  0  0  0  0  0  0  0  0
    5.9427   24.1104    0.0000 C   0  0  0  0  0  0  0  0  0  0  0  0
    7.3876   23.7076    0.0000 C   0  0  0  0  0  0  0  0  0  0  0  0
    8.8055   23.2183    0.0000 C   0  0  0  0  0  0  0  0  0  0  0  0
   10.1913   22.6442    0.0000 C   0  0  0  0  0  0  0  0  0  0  0  0
   11.5400   21.9876    0.0000 C   0  0  0  0  0  0  0  0  0  0  0  0
   12.8465   21.2507    0.0000 C   0  0  0  0  0  0  0  0  0  0  0  0
   14.1062   20.4363    0.0000 C   0  0  0  0  0  0  0  0  0  0  0  0
   15.3143   19.5473    0.0000 C   0  0  0  0  0  0  0  0  0  0  0  0
   16.4666   18.5870    0.0000 C   0  0  0  0  0  0  0  0  0  0  0  0
   17.5588   17.5588    0.0000 C   0  0  0  0  0  0  0  0  0  0  0  0
   18.5870   16.4666    0.0000 C   0  0  0  0  0  0  0  0  0  0  0  0
   19.5473   15.3143    0.0000 C   0  0  0  0  0  0  0  0  0  0  0  0
   20.4363   14.1062    0.0000 C   0  0  0  0  0  0  0  0  0  0  0  0
   21.2507   12.8465    0.0000 C   0  0  0  0  0  0  0  0  0  0  0  0
   21.9876   11.5400    0.0000 C   0  0  0  0  0  0  0  0  0  0  0  0
   22.6442   10.1913    0.0000 C   0  0  0  0  0  0  0  0  0  0  0  0
   23.2183    8.8055    0.0000 C   0  0  0  0  0  0  0  0  0  0  0  0
   23.7076    7.3876    0.0000 C   0  0  0  0  0  0  0  0  0  0  0  0
   24.1104    5.9427    0.0000 C   0  0  0  0  0  0  0  0  0  0  0  0
   24.4252    4.4761    0.0000 C   0  0  0  0  0  0  0  0  0  0  0  0
   24.6509    2.9932    0.0000 C   0  0  0  0  0  0  0  0  0  0  0  0
   24.7866    1.4993    0.0000 C   0  0  0  0  0  0  0  0  0  0  0  0
  1  2  1  0
  2  3  1  0
  3  4  1  0
  4  5  1  0
  5  6  1  0
  6  7  1  0
  7  8  1  0
  8  9  1  0
  9 10  1  0
 10 11  1  0
 11 12  1  0
 12 13  1  0
 13 14  1  0
 14 15  1  0
 15 16  1  0
 16 17  1  0
 17 18  1  0
 18 19  1  0
 19 20  1  0
 20 21  1  0
 21 22  1  0
 22 23  1  0
 23 24  1  0
 24 25  1  0
 25 26  1  0
 26 27  1  0
 27 28  1  0
 28 29  1  0
 29 30  1  0
 30 31  1  0
 31 32  1  0
 32 33  1  0
 33 34  1  0
 34 35  1  0
 35 36  1  0
 36 37  1  0
 37 38  1  0
 38 39  1  0
 39 40  1  0
 40 41  1  0
 41 42  1  0
 42 43  1  0
 43 44  1  0
 44 45  1  0
 45 46  1  0
 46 47  1  0
 47 48  1  0
 48 49  1  0
 49 50  1  0
 50 51  1  0
 51 52  1  0
 52 53  1  0
 53 54  1  0
 54 55  1  0
 55 56  1  0
 56 57  1  0
 57 58  1  0
 58 59  1  0
 59 60  1  0
 60 61  1  0
 61 62  1  0
 62 63  1  0
 63 64  1  0
 64 65  1  0
 65 66  1  0
 66 67  1  0
 67 68  1  0
 68 69  1  0
 69 70  1  0
 70 71  1  0
 71 72  1  0
 72 73  1  0
 73 74  1  0
 74 75  1  0
 75 76  1  0
 76 77  1  0
 77 78  1  0
 78 79  1  0
 79 80  1  0
 80 81  1  0
 81 82  1  0
 82 83  1  0
 83 84  1  0
 84 85  1  0
 85 86  1  0
 86 87  1  0
 87 88  1  0
 88 89  1  0
 89 90  1  0
 90 91  1  0
 91 92  1  0
 92 93  1  0
 93 94  1  0
 94 95  1  0
 95 96  1  0
 96 97  1  0
 97 98  1  0
 98 99  1  0
 99100  1  0
100101  1  0
101102  1  0
102103  1  0
103104  1  0
104105  1  0
105  2  1  0
M  END
>  <Title>  (650) 
idAAXBgen8

$$$$

     RDKit          2D

  8  8  0  0  0  0  0  0  0  0999 V2000
    3.0000    0.0000    0.0000 C   0  0  0  0  0  0  0  0  0  0  0  0
    1.5000    0.0000    0.0000 C   0  0  0  0  0  0  0  0  0  0  0  0
    0.7500   -1.2990    0.0000 C   0  0  0  0  0  0  0  0  0  0  0  0
   -0.7500   -1.2990    0.0000 C   0  0  0  0  0  0  0  0  0  0  0  0
   -1.5000    0.0000    0.0000 C   0  0  0  0  0  0  0  0  0  0  0  0
   -3.0000    0.0000    0.0000 O   0  0  0  0  0  0  0  0  0  0  0  0
   -0.7500    1.2990    0.0000 C   0  0  0  0  0  0  0  0  0  0  0  0
    0.7500    1.2990    0.0000 C   0  0  0  0  0  0  0  0  0  0  0  0
  1  2  1  0
  2  3  1  0
  3  4  1  0
  4  5  1  0
  5  6  1  0
  5  7  1  0
  7  8  1  0
  8  2  1  0
M  END
>  <Title>  (651) 
idAAXCgen8

$$$$

     RDKit          2D

  3  2  0  0  0  0  0  0  0  0999 V2000
    0.0000    0.0000    0.0000 C   0  0  0  0  0  0  0  0  0  0  0  0
    1.2990    0.7500    0.0000 N   0  0  0  0  0  0  0  0  0  0  0  0
    2.5981   -0.0000    0.0000 C   0  0  0  0  0  0  0  0  0  0  0  0
  1  2  1  0
  2  3  1  0
M  END
>  <Title>  (652) 
idAAXDgen8

$$$$

     RDKit          2D

118118  0  0  0  0  0  0  0  0999 V2000
   29.4350    0.0000    0.0000 C   0  0  0  0  0  0  0  0  0  0  0  0
   27.9350    0.0000    0.0000 C   0  0  0  0  0  0  0  0  0  0  0  0
   27.8948    1.4995    0.0000 C   0  0  0  0  0  0  0  0  0  0  0  0
   27.7741    2.9946    0.0000 C   0  0  0  0  0  0  0  0  0  0  0  0
   27.5733    4.4811    0.0000 C   0  0  0  0  0  0  0  0  0  0  0  0
   27.2930    5.9547    0.0000 C   0  0  0  0  0  0  0  0  0  0  0  0
   26.9340    7.4111    0.0000 C   0  0  0  0  0  0  0  0  0  0  0  0
   26.4974    8.8461    0.0000 C   0  0  0  0  0  0  0  0  0  0  0  0
   25.9844   10.2557    0.0000 C   0  0  0  0  0  0  0  0  0  0  0  0
   25.3964   11.6356    0.0000 C   0  0  0  0  0  0  0  0  0  0  0  0
   24.7353   12.9821    0.0000 C   0  0  0  0  0  0  0  0  0  0  0  0
   24.0028   14.2911    0.0000 C   0  0  0  0  0  0  0  0  0  0  0  0
   23.2011   15.5588    0.0000 C   0  0  0  0  0  0  0  0  0  0  0  0
   22.3325   16.7818    0.0000 C   0  0  0  0  0  0  0  0  0  0  0  0
   21.3995   17.9563    0.0000 C   0  0  0  0  0  0  0  0  0  0  0  0
   20.4048   19.0791    0.0000 C   0  0  0  0  0  0  0  0  0  0  0  0
   19.3513   20.1468    0.0000 C   0  0  0  0  0  0  0  0  0  0  0  0
   18.2420   21.1565    0.0000 C   0  0  0  0  0  0  0  0  0  0  0  0
   17.0801   22.1052    0.0000 C   0  0  0  0  0  0  0  0  0  0  0  0
   15.8689   22.9901    0.0000 C   0  0  0  0  0  0  0  0  0  0  0  0
   14.6120   23.8087    0.0000 C   0  0  0  0  0  0  0  0  0  0  0  0
   13.3130   24.5587    0.0000 C   0  0  0  0  0  0  0  0  0  0  0  0
   11.9755   25.2379    0.0000 C   0  0  0  0  0  0  0  0  0  0  0  0
   10.6036   25.8444    0.0000 C   0  0  0  0  0  0  0  0  0  0  0  0
    9.2011   26.3763    0.0000 C   0  0  0  0  0  0  0  0  0  0  0  0
    7.7720   26.8321    0.0000 C   0  0  0  0  0  0  0  0  0  0  0  0
    6.3206   27.2106    0.0000 C   0  0  0  0  0  0  0  0  0  0  0  0
    4.8509   27.5107    0.0000 C   0  0  0  0  0  0  0  0  0  0  0  0
    3.3672   27.7314    0.0000 C   0  0  0  0  0  0  0  0  0  0  0  0
    1.8738   27.8721    0.0000 C   0  0  0  0  0  0  0  0  0  0  0  0
    0.3750   27.9325    0.0000 C   0  0  0  0  0  0  0  0  0  0  0  0
   -1.1248   27.9124    0.0000 C   0  0  0  0  0  0  0  0  0  0  0  0
   -2.6215   27.8118    0.0000 C   0  0  0  0  0  0  0  0  0  0  0  0
   -4.1105   27.6310    0.0000 C   0  0  0  0  0  0  0  0  0  0  0  0
   -5.5877   27.3705    0.0000 C   0  0  0  0  0  0  0  0  0  0  0  0
   -7.0488   27.0311    0.0000 C   0  0  0  0  0  0  0  0  0  0  0  0
   -8.4896   26.6138    0.0000 C   0  0  0  0  0  0  0  0  0  0  0  0
   -9.9059   26.1197    0.0000 C   0  0  0  0  0  0  0  0  0  0  0  0
  -11.2936   25.5504    0.0000 C   0  0  0  0  0  0  0  0  0  0  0  0
  -12.6488   24.9073    0.0000 C   0  0  0  0  0  0  0  0  0  0  0  0
  -13.9675   24.1925    0.0000 C   0  0  0  0  0  0  0  0  0  0  0  0
  -15.2460   23.4079    0.0000 C   0  0  0  0  0  0  0  0  0  0  0  0
  -16.4804   22.5558    0.0000 C   0  0  0  0  0  0  0  0  0  0  0  0
  -17.6674   21.6386    0.0000 C   0  0  0  0  0  0  0  0  0  0  0  0
  -18.8034   20.6591    0.0000 C   0  0  0  0  0  0  0  0  0  0  0  0
  -19.8852   19.6200    0.0000 C   0  0  0  0  0  0  0  0  0  0  0  0
  -20.9097   18.5244    0.0000 C   0  0  0  0  0  0  0  0  0  0  0  0
  -21.8739   17.3753    0.0000 C   0  0  0  0  0  0  0  0  0  0  0  0
  -22.7750   16.1761    0.0000 C   0  0  0  0  0  0  0  0  0  0  0  0
  -23.6104   14.9303    0.0000 C   0  0  0  0  0  0  0  0  0  0  0  0
  -24.3778   13.6415    0.0000 C   0  0  0  0  0  0  0  0  0  0  0  0
  -25.0749   12.3133    0.0000 C   0  0  0  0  0  0  0  0  0  0  0  0
  -25.6997   10.9496    0.0000 C   0  0  0  0  0  0  0  0  0  0  0  0
  -26.2504    9.5543    0.0000 C   0  0  0  0  0  0  0  0  0  0  0  0
  -26.7254    8.1315    0.0000 C   0  0  0  0  0  0  0  0  0  0  0  0
  -27.1233    6.6853    0.0000 C   0  0  0  0  0  0  0  0  0  0  0  0
  -27.4430    5.2198    0.0000 C   0  0  0  0  0  0  0  0  0  0  0  0
  -27.6837    3.7392    0.0000 C   0  0  0  0  0  0  0  0  0  0  0  0
  -27.8445    2.2478    0.0000 C   0  0  0  0  0  0  0  0  0  0  0  0
  -27.9250    0.7500    0.0000 C   0  0  0  0  0  0  0  0  0  0  0  0
  -27.9250   -0.7500    0.0000 C   0  0  0  0  0  0  0  0  0  0  0  0
  -27.8445   -2.2478    0.0000 C   0  0  0  0  0  0  0  0  0  0  0  0
  -27.6837   -3.7392    0.0000 C   0  0  0  0  0  0  0  0  0  0  0  0
  -27.4430   -5.2198    0.0000 C   0  0  0  0  0  0  0  0  0  0  0  0
  -27.1233   -6.6853    0.0000 C   0  0  0  0  0  0  0  0  0  0  0  0
  -26.7254   -8.1315    0.0000 C   0  0  0  0  0  0  0  0  0  0  0  0
  -26.2504   -9.5543    0.0000 C   0  0  0  0  0  0  0  0  0  0  0  0
  -25.6997  -10.9496    0.0000 C   0  0  0  0  0  0  0  0  0  0  0  0
  -25.0749  -12.3133    0.0000 C   0  0  0  0  0  0  0  0  0  0  0  0
  -24.3778  -13.6415    0.0000 C   0  0  0  0  0  0  0  0  0  0  0  0
  -23.6104  -14.9303    0.0000 C   0  0  0  0  0  0  0  0  0  0  0  0
  -22.7750  -16.1761    0.0000 C   0  0  0  0  0  0  0  0  0  0  0  0
  -21.8739  -17.3753    0.0000 C   0  0  0  0  0  0  0  0  0  0  0  0
  -20.9097  -18.5244    0.0000 C   0  0  0  0  0  0  0  0  0  0  0  0
  -19.8852  -19.6200    0.0000 C   0  0  0  0  0  0  0  0  0  0  0  0
  -18.8034  -20.6591    0.0000 C   0  0  0  0  0  0  0  0  0  0  0  0
  -17.6674  -21.6386    0.0000 C   0  0  0  0  0  0  0  0  0  0  0  0
  -16.4804  -22.5558    0.0000 C   0  0  0  0  0  0  0  0  0  0  0  0
  -15.2460  -23.4079    0.0000 C   0  0  0  0  0  0  0  0  0  0  0  0
  -13.9675  -24.1925    0.0000 C   0  0  0  0  0  0  0  0  0  0  0  0
  -12.6488  -24.9073    0.0000 C   0  0  0  0  0  0  0  0  0  0  0  0
  -11.2936  -25.5504    0.0000 C   0  0  0  0  0  0  0  0  0  0  0  0
   -9.9059  -26.1197    0.0000 C   0  0  0  0  0  0  0  0  0  0  0  0
   -8.4896  -26.6138    0.0000 C   0  0  0  0  0  0  0  0  0  0  0  0
   -7.0488  -27.0311    0.0000 C   0  0  0  0  0  0  0  0  0  0  0  0
   -5.5877  -27.3705    0.0000 C   0  0  0  0  0  0  0  0  0  0  0  0
   -4.1105  -27.6310    0.0000 C   0  0  0  0  0  0  0  0  0  0  0  0
   -2.6215  -27.8118    0.0000 C   0  0  0  0  0  0  0  0  0  0  0  0
   -1.1248  -27.9124    0.0000 C   0  0  0  0  0  0  0  0  0  0  0  0
    0.3750  -27.9325    0.0000 C   0  0  0  0  0  0  0  0  0  0  0  0
    1.8738  -27.8721    0.0000 C   0  0  0  0  0  0  0  0  0  0  0  0
    3.3672  -27.7314    0.0000 C   0  0  0  0  0  0  0  0  0  0  0  0
    4.8509  -27.5107    0.0000 C   0  0  0  0  0  0  0  0  0  0  0  0
    6.3206  -27.2106    0.0000 C   0  0  0  0  0  0  0  0  0  0  0  0
    7.7720  -26.8321    0.0000 C   0  0  0  0  0  0  0  0  0  0  0  0
    9.2011  -26.3763    0.0000 C   0  0  0  0  0  0  0  0  0  0  0  0
   10.6036  -25.8444    0.0000 C   0  0  0  0  0  0  0  0  0  0  0  0
   11.9755  -25.2379    0.0000 C   0  0  0  0  0  0  0  0  0  0  0  0
   13.3130  -24.5587    0.0000 C   0  0  0  0  0  0  0  0  0  0  0  0
   14.6120  -23.8087    0.0000 C   0  0  0  0  0  0  0  0  0  0  0  0
   15.8689  -22.9901    0.0000 C   0  0  0  0  0  0  0  0  0  0  0  0
   17.0801  -22.1052    0.0000 C   0  0  0  0  0  0  0  0  0  0  0  0
   18.2420  -21.1565    0.0000 C   0  0  0  0  0  0  0  0  0  0  0  0
   19.3513  -20.1468    0.0000 C   0  0  0  0  0  0  0  0  0  0  0  0
   20.4048  -19.0791    0.0000 C   0  0  0  0  0  0  0  0  0  0  0  0
   21.3995  -17.9563    0.0000 C   0  0  0  0  0  0  0  0  0  0  0  0
   22.3325  -16.7818    0.0000 C   0  0  0  0  0  0  0  0  0  0  0  0
   23.2011  -15.5588    0.0000 C   0  0  0  0  0  0  0  0  0  0  0  0
   24.0028  -14.2911    0.0000 C   0  0  0  0  0  0  0  0  0  0  0  0
   24.7353  -12.9821    0.0000 C   0  0  0  0  0  0  0  0  0  0  0  0
   25.3964  -11.6356    0.0000 C   0  0  0  0  0  0  0  0  0  0  0  0
   25.9844  -10.2557    0.0000 C   0  0  0  0  0  0  0  0  0  0  0  0
   26.4974   -8.8461    0.0000 C   0  0  0  0  0  0  0  0  0  0  0  0
   26.9340   -7.4111    0.0000 C   0  0  0  0  0  0  0  0  0  0  0  0
   27.2930   -5.9547    0.0000 C   0  0  0  0  0  0  0  0  0  0  0  0
   27.5733   -4.4811    0.0000 C   0  0  0  0  0  0  0  0  0  0  0  0
   27.7741   -2.9946    0.0000 C   0  0  0  0  0  0  0  0  0  0  0  0
   27.8948   -1.4995    0.0000 C   0  0  0  0  0  0  0  0  0  0  0  0
  1  2  1  0
  2  3  1  0
  3  4  1  0
  4  5  1  0
  5  6  1  0
  6  7  1  0
  7  8  1  0
  8  9  1  0
  9 10  1  0
 10 11  1  0
 11 12  1  0
 12 13  1  0
 13 14  1  0
 14 15  1  0
 15 16  1  0
 16 17  1  0
 17 18  1  0
 18 19  1  0
 19 20  1  0
 20 21  1  0
 21 22  1  0
 22 23  1  0
 23 24  1  0
 24 25  1  0
 25 26  1  0
 26 27  1  0
 27 28  1  0
 28 29  1  0
 29 30  1  0
 30 31  1  0
 31 32  1  0
 32 33  1  0
 33 34  1  0
 34 35  1  0
 35 36  1  0
 36 37  1  0
 37 38  1  0
 38 39  1  0
 39 40  1  0
 40 41  1  0
 41 42  1  0
 42 43  1  0
 43 44  1  0
 44 45  1  0
 45 46  1  0
 46 47  1  0
 47 48  1  0
 48 49  1  0
 49 50  1  0
 50 51  1  0
 51 52  1  0
 52 53  1  0
 53 54  1  0
 54 55  1  0
 55 56  1  0
 56 57  1  0
 57 58  1  0
 58 59  1  0
 59 60  1  0
 60 61  1  0
 61 62  1  0
 62 63  1  0
 63 64  1  0
 64 65  1  0
 65 66  1  0
 66 67  1  0
 67 68  1  0
 68 69  1  0
 69 70  1  0
 70 71  1  0
 71 72  1  0
 72 73  1  0
 73 74  1  0
 74 75  1  0
 75 76  1  0
 76 77  1  0
 77 78  1  0
 78 79  1  0
 79 80  1  0
 80 81  1  0
 81 82  1  0
 82 83  1  0
 83 84  1  0
 84 85  1  0
 85 86  1  0
 86 87  1  0
 87 88  1  0
 88 89  1  0
 89 90  1  0
 90 91  1  0
 91 92  1  0
 92 93  1  0
 93 94  1  0
 94 95  1  0
 95 96  1  0
 96 97  1  0
 97 98  1  0
 98 99  1  0
 99100  1  0
100101  1  0
101102  1  0
102103  1  0
103104  1  0
104105  1  0
105106  1  0
106107  1  0
107108  1  0
108109  1  0
109110  1  0
110111  1  0
111112  1  0
112113  1  0
113114  1  0
114115  1  0
115116  1  0
116117  1  0
117118  1  0
118  2  1  0
M  END
>  <Title>  (653) 
idAAXEgen8

$$$$

     RDKit          2D

 11 11  0  0  0  0  0  0  0  0999 V2000
    3.2286   -0.0000    0.0000 C   0  0  0  0  0  0  0  0  0  0  0  0
    1.7286    0.0000    0.0000 C   0  0  0  0  0  0  0  0  0  0  0  0
    1.0777    1.3515    0.0000 C   0  0  0  0  0  0  0  0  0  0  0  0
   -0.3846    1.6852    0.0000 C   0  0  0  0  0  0  0  0  0  0  0  0
   -1.5574    0.7500    0.0000 C   0  0  0  0  0  0  0  0  0  0  0  0
   -2.9088    1.4008    0.0000 O   0  0  0  0  0  0  0  0  0  0  0  0
   -1.5574   -0.7500    0.0000 C   0  0  0  0  0  0  0  0  0  0  0  0
   -2.9088   -1.4008    0.0000 O   0  0  0  0  0  0  0  0  0  0  0  0
   -0.3846   -1.6852    0.0000 C   0  0  0  0  0  0  0  0  0  0  0  0
    1.0777   -1.3515    0.0000 C   0  0  0  0  0  0  0  0  0  0  0  0
    2.0130   -2.5242    0.0000 C   0  0  0  0  0  0  0  0  0  0  0  0
  1  2  1  0
  2  3  2  0
  3  4  1  0
  4  5  1  0
  5  6  1  0
  5  7  2  0
  7  8  1  0
  7  9  1  0
  9 10  2  0
 10 11  1  0
 10  2  1  0
M  END
>  <Title>  (654) 
idAAXFgen8

$$$$

     RDKit          2D

 65 74  0  0  0  0  0  0  0  0999 V2000
    8.8547   -5.6358    0.0000 C   0  0  0  0  0  0  0  0  0  0  0  0
    7.3588   -5.5238    0.0000 C   0  0  0  0  0  0  0  0  0  0  0  0
    6.5139   -6.7631    0.0000 C   0  0  0  0  0  0  0  0  0  0  0  0
    5.0181   -6.6510    0.0000 C   0  0  0  0  0  0  0  0  0  0  0  0
    4.9060   -5.1552    0.0000 C   0  0  0  0  0  0  0  0  0  0  0  0
    4.3580   -3.7589    0.0000 C   0  0  0  0  0  0  0  0  0  0  0  0
    3.4227   -2.5862    0.0000 C   0  0  0  0  0  0  0  0  0  0  0  0
    2.1834   -1.7412    0.0000 C   0  0  0  0  0  0  0  0  0  0  0  0
    2.8342   -0.3897    0.0000 C   0  0  0  0  0  0  0  0  0  0  0  0
    1.9892    0.8496    0.0000 O   0  0  0  0  0  0  0  0  0  0  0  0
    4.3300   -0.2776    0.0000 N   0  0  0  0  0  0  0  0  0  0  0  0
    4.9808    1.0738    0.0000 C   0  0  0  0  0  0  0  0  0  0  0  0
    6.4766    1.1859    0.0000 N   0  0  0  0  0  0  0  0  0  0  0  0
    7.1274    2.5374    0.0000 N   0  0  0  0  0  0  0  0  0  0  0  0
    6.2825    3.7767    0.0000 N   0  0  0  0  0  0  0  0  0  0  0  0
    4.7867    3.6646    0.0000 N   0  0  0  0  0  0  0  0  0  0  0  0
    4.1358    2.3132    0.0000 N   0  0  0  0  0  0  0  0  0  0  0  0
    0.7500   -1.2990    0.0000 C   0  0  0  0  0  0  0  0  0  0  0  0
    1.5000    0.0000    0.0000 C   0  0  0  0  0  0  0  0  0  0  0  0
    0.7500    1.2990    0.0000 C   0  0  0  0  0  0  0  0  0  0  0  0
   -0.7500    1.2990    0.0000 C   0  0  0  0  0  0  0  0  0  0  0  0
   -1.5000    0.0000    0.0000 C   0  0  0  0  0  0  0  0  0  0  0  0
   -0.7500   -1.2990    0.0000 C   0  0  0  0  0  0  0  0  0  0  0  0
   -2.1834   -1.7412    0.0000 C   0  0  0  0  0  0  0  0  0  0  0  0
   -2.2955   -0.2454    0.0000 C   0  0  0  0  0  0  0  0  0  0  0  0
   -3.6469    0.4055    0.0000 C   0  0  0  0  0  0  0  0  0  0  0  0
   -4.8863   -0.4395    0.0000 C   0  0  0  0  0  0  0  0  0  0  0  0
   -4.7742   -1.9353    0.0000 C   0  0  0  0  0  0  0  0  0  0  0  0
   -3.4227   -2.5862    0.0000 C   0  0  0  0  0  0  0  0  0  0  0  0
   -4.3580   -3.7589    0.0000 C   0  0  0  0  0  0  0  0  0  0  0  0
   -5.2932   -2.5862    0.0000 C   0  0  0  0  0  0  0  0  0  0  0  0
   -6.7764   -2.8097    0.0000 C   0  0  0  0  0  0  0  0  0  0  0  0
   -7.3244   -4.2060    0.0000 C   0  0  0  0  0  0  0  0  0  0  0  0
   -6.3892   -5.3788    0.0000 C   0  0  0  0  0  0  0  0  0  0  0  0
   -4.9060   -5.1552    0.0000 C   0  0  0  0  0  0  0  0  0  0  0  0
   -5.0181   -6.6510    0.0000 C   0  0  0  0  0  0  0  0  0  0  0  0
   -6.4514   -6.2089    0.0000 C   0  0  0  0  0  0  0  0  0  0  0  0
   -7.5510   -7.2291    0.0000 C   0  0  0  0  0  0  0  0  0  0  0  0
   -7.2172   -8.6915    0.0000 C   0  0  0  0  0  0  0  0  0  0  0  0
   -5.7839   -9.1337    0.0000 C   0  0  0  0  0  0  0  0  0  0  0  0
   -4.6843   -8.1134    0.0000 C   0  0  0  0  0  0  0  0  0  0  0  0
   -3.9343   -9.4124    0.0000 C   0  0  0  0  0  0  0  0  0  0  0  0
   -5.3676   -9.8546    0.0000 C   0  0  0  0  0  0  0  0  0  0  0  0
   -5.7014  -11.3170    0.0000 C   0  0  0  0  0  0  0  0  0  0  0  0
   -4.6018  -12.3372    0.0000 C   0  0  0  0  0  0  0  0  0  0  0  0
   -3.1685  -11.8951    0.0000 C   0  0  0  0  0  0  0  0  0  0  0  0
   -2.8347  -10.4327    0.0000 C   0  0  0  0  0  0  0  0  0  0  0  0
   -1.4832  -11.0835    0.0000 C   0  0  0  0  0  0  0  0  0  0  0  0
   -2.4185  -12.2563    0.0000 C   0  0  0  0  0  0  0  0  0  0  0  0
   -1.8705  -13.6526    0.0000 C   0  0  0  0  0  0  0  0  0  0  0  0
   -0.3872  -13.8762    0.0000 C   0  0  0  0  0  0  0  0  0  0  0  0
    0.5480  -12.7034    0.0000 C   0  0  0  0  0  0  0  0  0  0  0  0
   -0.0000  -11.3071    0.0000 C   0  0  0  0  0  0  0  0  0  0  0  0
    1.4832  -11.0835    0.0000 C   0  0  0  0  0  0  0  0  0  0  0  0
    1.3712  -12.5793    0.0000 C   0  0  0  0  0  0  0  0  0  0  0  0
    2.6105  -13.4243    0.0000 C   0  0  0  0  0  0  0  0  0  0  0  0
    3.9620  -12.7735    0.0000 C   0  0  0  0  0  0  0  0  0  0  0  0
    4.0741  -11.2777    0.0000 C   0  0  0  0  0  0  0  0  0  0  0  0
    2.8347  -10.4327    0.0000 C   0  0  0  0  0  0  0  0  0  0  0  0
    3.9343   -9.4124    0.0000 C   0  0  0  0  0  0  0  0  0  0  0  0
    4.6843  -10.7115    0.0000 C   0  0  0  0  0  0  0  0  0  0  0  0
    6.1843  -10.7115    0.0000 C   0  0  0  0  0  0  0  0  0  0  0  0
    6.9343   -9.4124    0.0000 C   0  0  0  0  0  0  0  0  0  0  0  0
    6.1843   -8.1134    0.0000 C   0  0  0  0  0  0  0  0  0  0  0  0
    4.6843   -8.1134    0.0000 C   0  0  0  0  0  0  0  0  0  0  0  0
  1  2  1  0
  2  3  1  0
  3  4  1  0
  4  5  2  0
  5  6  1  0
  6  7  1  0
  7  8  1  0
  8  9  1  0
  9 10  2  0
  9 11  1  0
 11 12  1  0
 12 13  2  0
 13 14  1  0
 14 15  2  0
 15 16  1  0
 16 17  2  0
  8 18  1  0
 18 19  2  0
 19 20  1  0
 20 21  2  0
 21 22  1  0
 22 23  2  0
 23 24  1  0
 24 25  2  0
 25 26  1  0
 26 27  2  0
 27 28  1  0
 28 29  2  0
 29 30  1  0
 30 31  2  0
 31 32  1  0
 32 33  2  0
 33 34  1  0
 34 35  2  0
 35 36  1  0
 36 37  2  0
 37 38  1  0
 38 39  2  0
 39 40  1  0
 40 41  2  0
 41 42  1  0
 42 43  2  0
 43 44  1  0
 44 45  2  0
 45 46  1  0
 46 47  2  0
 47 48  1  0
 48 49  2  0
 49 50  1  0
 50 51  2  0
 51 52  1  0
 52 53  2  0
 53 54  1  0
 54 55  2  0
 55 56  1  0
 56 57  2  0
 57 58  1  0
 58 59  2  0
 59 60  1  0
 60 61  2  0
 61 62  1  0
 62 63  2  0
 63 64  1  0
 64 65  2  0
 65  4  1  0
 17 12  1  0
 23 18  1  0
 29 24  1  0
 35 30  1  0
 41 36  1  0
 47 42  1  0
 53 48  1  0
 59 54  1  0
 65 60  1  0
M  END
>  <Title>  (655) 
idAAXGgen8

$$$$

     RDKit          2D

 14 14  0  0  0  0  0  0  0  0999 V2000
    6.6172    0.9023    0.0000 C   0  0  0  0  0  0  0  0  0  0  0  0
    5.2077    1.4153    0.0000 C   0  0  0  0  0  0  0  0  0  0  0  0
    4.9472    2.8925    0.0000 N   0  0  0  0  0  0  0  0  0  0  0  0
    4.0586    0.4512    0.0000 C   0  0  0  0  0  0  0  0  0  0  0  0
    2.6491    0.9642    0.0000 C   0  0  0  0  0  0  0  0  0  0  0  0
    1.5000    0.0000    0.0000 C   0  0  0  0  0  0  0  0  0  0  0  0
    2.6491   -0.9642    0.0000 O   0  0  0  0  0  0  0  0  0  0  0  0
    0.7500   -1.2990    0.0000 C   0  0  0  0  0  0  0  0  0  0  0  0
   -0.7500   -1.2990    0.0000 C   0  0  0  0  0  0  0  0  0  0  0  0
   -1.5000   -2.5981    0.0000 O   0  0  0  0  0  0  0  0  0  0  0  0
   -1.5000    0.0000    0.0000 C   0  0  0  0  0  0  0  0  0  0  0  0
   -0.7500    1.2990    0.0000 C   0  0  0  0  0  0  0  0  0  0  0  0
    0.7500    1.2990    0.0000 C   0  0  0  0  0  0  0  0  0  0  0  0
    1.5000    2.5981    0.0000 C   0  0  0  0  0  0  0  0  0  0  0  0
  1  2  1  0
  2  3  1  0
  2  4  1  0
  4  5  1  0
  5  6  1  0
  6  7  1  0
  6  8  1  0
  8  9  1  0
  9 10  1  0
  9 11  1  0
 11 12  1  0
 12 13  1  0
 13 14  1  0
 13  6  1  0
M  END
>  <Title>  (656) 
idAAXHgen8

$$$$

     RDKit          2D

126126  0  0  0  0  0  0  0  0999 V2000
   31.3447    0.0000    0.0000 C   0  0  0  0  0  0  0  0  0  0  0  0
   29.8447    0.0000    0.0000 C   0  0  0  0  0  0  0  0  0  0  0  0
   29.8070    1.4995    0.0000 C   0  0  0  0  0  0  0  0  0  0  0  0
   29.6940    2.9953    0.0000 C   0  0  0  0  0  0  0  0  0  0  0  0
   29.5060    4.4834    0.0000 C   0  0  0  0  0  0  0  0  0  0  0  0
   29.2435    5.9603    0.0000 C   0  0  0  0  0  0  0  0  0  0  0  0
   28.9071    7.4221    0.0000 C   0  0  0  0  0  0  0  0  0  0  0  0
   28.4976    8.8651    0.0000 C   0  0  0  0  0  0  0  0  0  0  0  0
   28.0162   10.2858    0.0000 C   0  0  0  0  0  0  0  0  0  0  0  0
   27.4640   11.6804    0.0000 C   0  0  0  0  0  0  0  0  0  0  0  0
   26.8425   13.0456    0.0000 C   0  0  0  0  0  0  0  0  0  0  0  0
   26.1531   14.3778    0.0000 C   0  0  0  0  0  0  0  0  0  0  0  0
   25.3977   15.6737    0.0000 C   0  0  0  0  0  0  0  0  0  0  0  0
   24.5781   16.9300    0.0000 C   0  0  0  0  0  0  0  0  0  0  0  0
   23.6964   18.1435    0.0000 C   0  0  0  0  0  0  0  0  0  0  0  0
   22.7549   19.3112    0.0000 C   0  0  0  0  0  0  0  0  0  0  0  0
   21.7558   20.4301    0.0000 C   0  0  0  0  0  0  0  0  0  0  0  0
   20.7019   21.4974    0.0000 C   0  0  0  0  0  0  0  0  0  0  0  0
   19.5956   22.5104    0.0000 C   0  0  0  0  0  0  0  0  0  0  0  0
   18.4398   23.4665    0.0000 C   0  0  0  0  0  0  0  0  0  0  0  0
   17.2375   24.3634    0.0000 C   0  0  0  0  0  0  0  0  0  0  0  0
   15.9916   25.1987    0.0000 C   0  0  0  0  0  0  0  0  0  0  0  0
   14.7053   25.9704    0.0000 C   0  0  0  0  0  0  0  0  0  0  0  0
   13.3819   26.6764    0.0000 C   0  0  0  0  0  0  0  0  0  0  0  0
   12.0246   27.3151    0.0000 C   0  0  0  0  0  0  0  0  0  0  0  0
   10.6370   27.8848    0.0000 C   0  0  0  0  0  0  0  0  0  0  0  0
    9.2225   28.3840    0.0000 C   0  0  0  0  0  0  0  0  0  0  0  0
    7.7847   28.8115    0.0000 C   0  0  0  0  0  0  0  0  0  0  0  0
    6.3273   29.1663    0.0000 C   0  0  0  0  0  0  0  0  0  0  0  0
    4.8539   29.4473    0.0000 C   0  0  0  0  0  0  0  0  0  0  0  0
    3.3682   29.6540    0.0000 C   0  0  0  0  0  0  0  0  0  0  0  0
    1.8740   29.7858    0.0000 C   0  0  0  0  0  0  0  0  0  0  0  0
    0.3750   29.8423    0.0000 C   0  0  0  0  0  0  0  0  0  0  0  0
   -1.1249   29.8235    0.0000 C   0  0  0  0  0  0  0  0  0  0  0  0
   -2.6219   29.7293    0.0000 C   0  0  0  0  0  0  0  0  0  0  0  0
   -4.1123   29.5600    0.0000 C   0  0  0  0  0  0  0  0  0  0  0  0
   -5.5923   29.3161    0.0000 C   0  0  0  0  0  0  0  0  0  0  0  0
   -7.0582   28.9981    0.0000 C   0  0  0  0  0  0  0  0  0  0  0  0
   -8.5063   28.6068    0.0000 C   0  0  0  0  0  0  0  0  0  0  0  0
   -9.9329   28.1433    0.0000 C   0  0  0  0  0  0  0  0  0  0  0  0
  -11.3344   27.6086    0.0000 C   0  0  0  0  0  0  0  0  0  0  0  0
  -12.7073   27.0043    0.0000 C   0  0  0  0  0  0  0  0  0  0  0  0
  -14.0480   26.3317    0.0000 C   0  0  0  0  0  0  0  0  0  0  0  0
  -15.3533   25.5926    0.0000 C   0  0  0  0  0  0  0  0  0  0  0  0
  -16.6198   24.7889    0.0000 C   0  0  0  0  0  0  0  0  0  0  0  0
  -17.8443   23.9225    0.0000 C   0  0  0  0  0  0  0  0  0  0  0  0
  -19.0237   22.9957    0.0000 C   0  0  0  0  0  0  0  0  0  0  0  0
  -20.1551   22.0109    0.0000 C   0  0  0  0  0  0  0  0  0  0  0  0
  -21.2356   20.9704    0.0000 C   0  0  0  0  0  0  0  0  0  0  0  0
  -22.2624   19.8769    0.0000 C   0  0  0  0  0  0  0  0  0  0  0  0
  -23.2330   18.7333    0.0000 C   0  0  0  0  0  0  0  0  0  0  0  0
  -24.1449   17.5423    0.0000 C   0  0  0  0  0  0  0  0  0  0  0  0
  -24.9958   16.3070    0.0000 C   0  0  0  0  0  0  0  0  0  0  0  0
  -25.7835   15.0305    0.0000 C   0  0  0  0  0  0  0  0  0  0  0  0
  -26.5062   13.7160    0.0000 C   0  0  0  0  0  0  0  0  0  0  0  0
  -27.1618   12.3669    0.0000 C   0  0  0  0  0  0  0  0  0  0  0  0
  -27.7489   10.9866    0.0000 C   0  0  0  0  0  0  0  0  0  0  0  0
  -28.2659    9.5785    0.0000 C   0  0  0  0  0  0  0  0  0  0  0  0
  -28.7114    8.1462    0.0000 C   0  0  0  0  0  0  0  0  0  0  0  0
  -29.0845    6.6933    0.0000 C   0  0  0  0  0  0  0  0  0  0  0  0
  -29.3840    5.2235    0.0000 C   0  0  0  0  0  0  0  0  0  0  0  0
  -29.6094    3.7405    0.0000 C   0  0  0  0  0  0  0  0  0  0  0  0
  -29.7599    2.2481    0.0000 C   0  0  0  0  0  0  0  0  0  0  0  0
  -29.8353    0.7500    0.0000 C   0  0  0  0  0  0  0  0  0  0  0  0
  -29.8353   -0.7500    0.0000 C   0  0  0  0  0  0  0  0  0  0  0  0
  -29.7599   -2.2481    0.0000 C   0  0  0  0  0  0  0  0  0  0  0  0
  -29.6094   -3.7405    0.0000 C   0  0  0  0  0  0  0  0  0  0  0  0
  -29.3840   -5.2235    0.0000 C   0  0  0  0  0  0  0  0  0  0  0  0
  -29.0845   -6.6933    0.0000 C   0  0  0  0  0  0  0  0  0  0  0  0
  -28.7114   -8.1462    0.0000 C   0  0  0  0  0  0  0  0  0  0  0  0
  -28.2659   -9.5785    0.0000 C   0  0  0  0  0  0  0  0  0  0  0  0
  -27.7489  -10.9866    0.0000 C   0  0  0  0  0  0  0  0  0  0  0  0
  -27.1618  -12.3669    0.0000 C   0  0  0  0  0  0  0  0  0  0  0  0
  -26.5062  -13.7160    0.0000 C   0  0  0  0  0  0  0  0  0  0  0  0
  -25.7835  -15.0305    0.0000 C   0  0  0  0  0  0  0  0  0  0  0  0
  -24.9958  -16.3070    0.0000 C   0  0  0  0  0  0  0  0  0  0  0  0
  -24.1449  -17.5423    0.0000 C   0  0  0  0  0  0  0  0  0  0  0  0
  -23.2330  -18.7333    0.0000 C   0  0  0  0  0  0  0  0  0  0  0  0
  -22.2624  -19.8769    0.0000 C   0  0  0  0  0  0  0  0  0  0  0  0
  -21.2356  -20.9704    0.0000 C   0  0  0  0  0  0  0  0  0  0  0  0
  -20.1551  -22.0109    0.0000 C   0  0  0  0  0  0  0  0  0  0  0  0
  -19.0237  -22.9957    0.0000 C   0  0  0  0  0  0  0  0  0  0  0  0
  -17.8443  -23.9225    0.0000 C   0  0  0  0  0  0  0  0  0  0  0  0
  -16.6198  -24.7889    0.0000 C   0  0  0  0  0  0  0  0  0  0  0  0
  -15.3533  -25.5926    0.0000 C   0  0  0  0  0  0  0  0  0  0  0  0
  -14.0480  -26.3317    0.0000 C   0  0  0  0  0  0  0  0  0  0  0  0
  -12.7073  -27.0043    0.0000 C   0  0  0  0  0  0  0  0  0  0  0  0
  -11.3344  -27.6086    0.0000 C   0  0  0  0  0  0  0  0  0  0  0  0
   -9.9329  -28.1433    0.0000 C   0  0  0  0  0  0  0  0  0  0  0  0
   -8.5063  -28.6068    0.0000 C   0  0  0  0  0  0  0  0  0  0  0  0
   -7.0582  -28.9981    0.0000 C   0  0  0  0  0  0  0  0  0  0  0  0
   -5.5923  -29.3161    0.0000 C   0  0  0  0  0  0  0  0  0  0  0  0
   -4.1123  -29.5600    0.0000 C   0  0  0  0  0  0  0  0  0  0  0  0
   -2.6219  -29.7293    0.0000 C   0  0  0  0  0  0  0  0  0  0  0  0
   -1.1249  -29.8235    0.0000 C   0  0  0  0  0  0  0  0  0  0  0  0
    0.3750  -29.8423    0.0000 C   0  0  0  0  0  0  0  0  0  0  0  0
    1.8740  -29.7858    0.0000 C   0  0  0  0  0  0  0  0  0  0  0  0
    3.3682  -29.6540    0.0000 C   0  0  0  0  0  0  0  0  0  0  0  0
    4.8539  -29.4473    0.0000 C   0  0  0  0  0  0  0  0  0  0  0  0
    6.3273  -29.1663    0.0000 C   0  0  0  0  0  0  0  0  0  0  0  0
    7.7847  -28.8115    0.0000 C   0  0  0  0  0  0  0  0  0  0  0  0
    9.2225  -28.3840    0.0000 C   0  0  0  0  0  0  0  0  0  0  0  0
   10.6370  -27.8848    0.0000 C   0  0  0  0  0  0  0  0  0  0  0  0
   12.0246  -27.3151    0.0000 C   0  0  0  0  0  0  0  0  0  0  0  0
   13.3819  -26.6764    0.0000 C   0  0  0  0  0  0  0  0  0  0  0  0
   14.7053  -25.9704    0.0000 C   0  0  0  0  0  0  0  0  0  0  0  0
   15.9916  -25.1987    0.0000 C   0  0  0  0  0  0  0  0  0  0  0  0
   17.2375  -24.3634    0.0000 C   0  0  0  0  0  0  0  0  0  0  0  0
   18.4398  -23.4665    0.0000 C   0  0  0  0  0  0  0  0  0  0  0  0
   19.5956  -22.5104    0.0000 C   0  0  0  0  0  0  0  0  0  0  0  0
   20.7019  -21.4974    0.0000 C   0  0  0  0  0  0  0  0  0  0  0  0
   21.7558  -20.4301    0.0000 C   0  0  0  0  0  0  0  0  0  0  0  0
   22.7549  -19.3112    0.0000 C   0  0  0  0  0  0  0  0  0  0  0  0
   23.6964  -18.1435    0.0000 C   0  0  0  0  0  0  0  0  0  0  0  0
   24.5781  -16.9300    0.0000 C   0  0  0  0  0  0  0  0  0  0  0  0
   25.3977  -15.6737    0.0000 C   0  0  0  0  0  0  0  0  0  0  0  0
   26.1531  -14.3778    0.0000 C   0  0  0  0  0  0  0  0  0  0  0  0
   26.8425  -13.0456    0.0000 C   0  0  0  0  0  0  0  0  0  0  0  0
   27.4640  -11.6804    0.0000 C   0  0  0  0  0  0  0  0  0  0  0  0
   28.0162  -10.2858    0.0000 C   0  0  0  0  0  0  0  0  0  0  0  0
   28.4976   -8.8651    0.0000 C   0  0  0  0  0  0  0  0  0  0  0  0
   28.9071   -7.4221    0.0000 C   0  0  0  0  0  0  0  0  0  0  0  0
   29.2435   -5.9603    0.0000 C   0  0  0  0  0  0  0  0  0  0  0  0
   29.5060   -4.4834    0.0000 C   0  0  0  0  0  0  0  0  0  0  0  0
   29.6940   -2.9953    0.0000 C   0  0  0  0  0  0  0  0  0  0  0  0
   29.8070   -1.4995    0.0000 C   0  0  0  0  0  0  0  0  0  0  0  0
  1  2  1  0
  2  3  1  0
  3  4  1  0
  4  5  1  0
  5  6  1  0
  6  7  1  0
  7  8  1  0
  8  9  1  0
  9 10  1  0
 10 11  1  0
 11 12  1  0
 12 13  1  0
 13 14  1  0
 14 15  1  0
 15 16  1  0
 16 17  1  0
 17 18  1  0
 18 19  1  0
 19 20  1  0
 20 21  1  0
 21 22  1  0
 22 23  1  0
 23 24  1  0
 24 25  1  0
 25 26  1  0
 26 27  1  0
 27 28  1  0
 28 29  1  0
 29 30  1  0
 30 31  1  0
 31 32  1  0
 32 33  1  0
 33 34  1  0
 34 35  1  0
 35 36  1  0
 36 37  1  0
 37 38  1  0
 38 39  1  0
 39 40  1  0
 40 41  1  0
 41 42  1  0
 42 43  1  0
 43 44  1  0
 44 45  1  0
 45 46  1  0
 46 47  1  0
 47 48  1  0
 48 49  1  0
 49 50  1  0
 50 51  1  0
 51 52  1  0
 52 53  1  0
 53 54  1  0
 54 55  1  0
 55 56  1  0
 56 57  1  0
 57 58  1  0
 58 59  1  0
 59 60  1  0
 60 61  1  0
 61 62  1  0
 62 63  1  0
 63 64  1  0
 64 65  1  0
 65 66  1  0
 66 67  1  0
 67 68  1  0
 68 69  1  0
 69 70  1  0
 70 71  1  0
 71 72  1  0
 72 73  1  0
 73 74  1  0
 74 75  1  0
 75 76  1  0
 76 77  1  0
 77 78  1  0
 78 79  1  0
 79 80  1  0
 80 81  1  0
 81 82  1  0
 82 83  1  0
 83 84  1  0
 84 85  1  0
 85 86  1  0
 86 87  1  0
 87 88  1  0
 88 89  1  0
 89 90  1  0
 90 91  1  0
 91 92  1  0
 92 93  1  0
 93 94  1  0
 94 95  1  0
 95 96  1  0
 96 97  1  0
 97 98  1  0
 98 99  1  0
 99100  1  0
100101  1  0
101102  1  0
102103  1  0
103104  1  0
104105  1  0
105106  1  0
106107  1  0
107108  1  0
108109  1  0
109110  1  0
110111  1  0
111112  1  0
112113  1  0
113114  1  0
114115  1  0
115116  1  0
116117  1  0
117118  1  0
118119  1  0
119120  1  0
120121  1  0
121122  1  0
122123  1  0
123124  1  0
124125  1  0
125126  1  0
126  2  1  0
M  END
>  <Title>  (657) 
idAAXIgen8

$$$$

     RDKit          2D

  9  8  0  0  0  0  0  0  0  0999 V2000
    0.0000    0.0000    0.0000 C   0  0  0  0  0  0  0  0  0  0  0  0
   -0.0000   -1.5000    0.0000 C   0  0  0  0  0  0  0  0  0  0  0  0
   -0.0000   -3.0000    0.0000 C   0  0  0  0  0  0  0  0  0  0  0  0
   -0.0000   -4.5000    0.0000 C   0  0  0  0  0  0  0  0  0  0  0  0
   -0.0000   -6.0000    0.0000 C   0  0  0  0  0  0  0  0  0  0  0  0
   -1.2990   -6.7500    0.0000 O   0  0  0  0  0  0  0  0  0  0  0  0
    1.2990   -6.7500    0.0000 C   0  0  0  0  0  0  0  0  0  0  0  0
    1.2990   -8.2500    0.0000 C   0  0  0  0  0  0  0  0  0  0  0  0
    2.5981   -6.0000    0.0000 O   0  0  0  0  0  0  0  0  0  0  0  0
  1  2  3  0
  2  3  1  0
  3  4  3  0
  4  5  1  0
  5  6  2  0
  5  7  1  0
  7  8  1  0
  7  9  2  0
M  END
>  <Title>  (658) 
idAAXJgen8

$$$$

     RDKit          2D

  6  6  0  0  0  0  0  0  0  0999 V2000
    2.7760    0.0000    0.0000 O   0  0  0  0  0  0  0  0  0  0  0  0
    1.2760    0.0000    0.0000 C   0  0  0  0  0  0  0  0  0  0  0  0
    0.3943    1.2135    0.0000 C   0  0  0  0  0  0  0  0  0  0  0  0
   -1.0323    0.7500    0.0000 C   0  0  0  0  0  0  0  0  0  0  0  0
   -1.0323   -0.7500    0.0000 C   0  0  0  0  0  0  0  0  0  0  0  0
    0.3943   -1.2135    0.0000 C   0  0  0  0  0  0  0  0  0  0  0  0
  1  2  1  0
  2  3  2  0
  3  4  1  0
  4  5  1  0
  5  6  2  0
  6  2  1  0
M  END
>  <Title>  (659) 
idAAXKgen8

$$$$

     RDKit          2D

107107  0  0  0  0  0  0  0  0999 V2000
   26.8093    0.0000    0.0000 C   0  0  0  0  0  0  0  0  0  0  0  0
   25.3093    0.0000    0.0000 C   0  0  0  0  0  0  0  0  0  0  0  0
   25.2649   -1.4993    0.0000 C   0  0  0  0  0  0  0  0  0  0  0  0
   25.1317   -2.9934    0.0000 C   0  0  0  0  0  0  0  0  0  0  0  0
   24.9102   -4.4770    0.0000 C   0  0  0  0  0  0  0  0  0  0  0  0
   24.6013   -5.9448    0.0000 C   0  0  0  0  0  0  0  0  0  0  0  0
   24.2059   -7.3918    0.0000 C   0  0  0  0  0  0  0  0  0  0  0  0
   23.7255   -8.8128    0.0000 C   0  0  0  0  0  0  0  0  0  0  0  0
   23.1617  -10.2028    0.0000 C   0  0  0  0  0  0  0  0  0  0  0  0
   22.5166  -11.5570    0.0000 C   0  0  0  0  0  0  0  0  0  0  0  0
   21.7924  -12.8706    0.0000 C   0  0  0  0  0  0  0  0  0  0  0  0
   20.9917  -14.1390    0.0000 C   0  0  0  0  0  0  0  0  0  0  0  0
   20.1172  -15.3577    0.0000 C   0  0  0  0  0  0  0  0  0  0  0  0
   19.1721  -16.5225    0.0000 C   0  0  0  0  0  0  0  0  0  0  0  0
   18.1596  -17.6292    0.0000 C   0  0  0  0  0  0  0  0  0  0  0  0
   17.0834  -18.6741    0.0000 C   0  0  0  0  0  0  0  0  0  0  0  0
   15.9471  -19.6533    0.0000 C   0  0  0  0  0  0  0  0  0  0  0  0
   14.7548  -20.5635    0.0000 C   0  0  0  0  0  0  0  0  0  0  0  0
   13.5107  -21.4015    0.0000 C   0  0  0  0  0  0  0  0  0  0  0  0
   12.2192  -22.1643    0.0000 C   0  0  0  0  0  0  0  0  0  0  0  0
   10.8847  -22.8492    0.0000 C   0  0  0  0  0  0  0  0  0  0  0  0
    9.5119  -23.4539    0.0000 C   0  0  0  0  0  0  0  0  0  0  0  0
    8.1058  -23.9762    0.0000 C   0  0  0  0  0  0  0  0  0  0  0  0
    6.6712  -24.4143    0.0000 C   0  0  0  0  0  0  0  0  0  0  0  0
    5.2132  -24.7666    0.0000 C   0  0  0  0  0  0  0  0  0  0  0  0
    3.7368  -25.0320    0.0000 C   0  0  0  0  0  0  0  0  0  0  0  0
    2.2474  -25.2094    0.0000 C   0  0  0  0  0  0  0  0  0  0  0  0
    0.7500  -25.2982    0.0000 C   0  0  0  0  0  0  0  0  0  0  0  0
   -0.7500  -25.2982    0.0000 C   0  0  0  0  0  0  0  0  0  0  0  0
   -2.2474  -25.2094    0.0000 C   0  0  0  0  0  0  0  0  0  0  0  0
   -3.7368  -25.0320    0.0000 C   0  0  0  0  0  0  0  0  0  0  0  0
   -5.2132  -24.7666    0.0000 C   0  0  0  0  0  0  0  0  0  0  0  0
   -6.6712  -24.4143    0.0000 C   0  0  0  0  0  0  0  0  0  0  0  0
   -8.1058  -23.9762    0.0000 C   0  0  0  0  0  0  0  0  0  0  0  0
   -9.5119  -23.4539    0.0000 C   0  0  0  0  0  0  0  0  0  0  0  0
  -10.8847  -22.8492    0.0000 C   0  0  0  0  0  0  0  0  0  0  0  0
  -12.2192  -22.1643    0.0000 C   0  0  0  0  0  0  0  0  0  0  0  0
  -13.5107  -21.4015    0.0000 C   0  0  0  0  0  0  0  0  0  0  0  0
  -14.7548  -20.5635    0.0000 C   0  0  0  0  0  0  0  0  0  0  0  0
  -15.9471  -19.6533    0.0000 C   0  0  0  0  0  0  0  0  0  0  0  0
  -17.0834  -18.6741    0.0000 C   0  0  0  0  0  0  0  0  0  0  0  0
  -18.1596  -17.6292    0.0000 C   0  0  0  0  0  0  0  0  0  0  0  0
  -19.1721  -16.5225    0.0000 C   0  0  0  0  0  0  0  0  0  0  0  0
  -20.1172  -15.3577    0.0000 C   0  0  0  0  0  0  0  0  0  0  0  0
  -20.9917  -14.1390    0.0000 C   0  0  0  0  0  0  0  0  0  0  0  0
  -21.7924  -12.8706    0.0000 C   0  0  0  0  0  0  0  0  0  0  0  0
  -22.5166  -11.5570    0.0000 C   0  0  0  0  0  0  0  0  0  0  0  0
  -23.1617  -10.2028    0.0000 C   0  0  0  0  0  0  0  0  0  0  0  0
  -23.7255   -8.8128    0.0000 C   0  0  0  0  0  0  0  0  0  0  0  0
  -24.2059   -7.3918    0.0000 C   0  0  0  0  0  0  0  0  0  0  0  0
  -24.6013   -5.9448    0.0000 C   0  0  0  0  0  0  0  0  0  0  0  0
  -24.9102   -4.4770    0.0000 C   0  0  0  0  0  0  0  0  0  0  0  0
  -25.1317   -2.9934    0.0000 C   0  0  0  0  0  0  0  0  0  0  0  0
  -25.2649   -1.4993    0.0000 C   0  0  0  0  0  0  0  0  0  0  0  0
  -25.3093    0.0000    0.0000 C   0  0  0  0  0  0  0  0  0  0  0  0
  -25.2649    1.4993    0.0000 C   0  0  0  0  0  0  0  0  0  0  0  0
  -25.1317    2.9934    0.0000 C   0  0  0  0  0  0  0  0  0  0  0  0
  -24.9102    4.4770    0.0000 C   0  0  0  0  0  0  0  0  0  0  0  0
  -24.6013    5.9448    0.0000 C   0  0  0  0  0  0  0  0  0  0  0  0
  -24.2059    7.3918    0.0000 C   0  0  0  0  0  0  0  0  0  0  0  0
  -23.7255    8.8128    0.0000 C   0  0  0  0  0  0  0  0  0  0  0  0
  -23.1617   10.2028    0.0000 C   0  0  0  0  0  0  0  0  0  0  0  0
  -22.5166   11.5570    0.0000 C   0  0  0  0  0  0  0  0  0  0  0  0
  -21.7924   12.8706    0.0000 C   0  0  0  0  0  0  0  0  0  0  0  0
  -20.9917   14.1390    0.0000 C   0  0  0  0  0  0  0  0  0  0  0  0
  -20.1172   15.3577    0.0000 C   0  0  0  0  0  0  0  0  0  0  0  0
  -19.1721   16.5225    0.0000 C   0  0  0  0  0  0  0  0  0  0  0  0
  -18.1596   17.6292    0.0000 C   0  0  0  0  0  0  0  0  0  0  0  0
  -17.0834   18.6741    0.0000 C   0  0  0  0  0  0  0  0  0  0  0  0
  -15.9471   19.6533    0.0000 C   0  0  0  0  0  0  0  0  0  0  0  0
  -14.7548   20.5635    0.0000 C   0  0  0  0  0  0  0  0  0  0  0  0
  -13.5107   21.4015    0.0000 C   0  0  0  0  0  0  0  0  0  0  0  0
  -12.2192   22.1643    0.0000 C   0  0  0  0  0  0  0  0  0  0  0  0
  -10.8847   22.8492    0.0000 C   0  0  0  0  0  0  0  0  0  0  0  0
   -9.5119   23.4539    0.0000 C   0  0  0  0  0  0  0  0  0  0  0  0
   -8.1058   23.9762    0.0000 C   0  0  0  0  0  0  0  0  0  0  0  0
   -6.6712   24.4143    0.0000 C   0  0  0  0  0  0  0  0  0  0  0  0
   -5.2132   24.7666    0.0000 C   0  0  0  0  0  0  0  0  0  0  0  0
   -3.7368   25.0320    0.0000 C   0  0  0  0  0  0  0  0  0  0  0  0
   -2.2474   25.2094    0.0000 C   0  0  0  0  0  0  0  0  0  0  0  0
   -0.7500   25.2982    0.0000 C   0  0  0  0  0  0  0  0  0  0  0  0
    0.7500   25.2982    0.0000 C   0  0  0  0  0  0  0  0  0  0  0  0
    2.2474   25.2094    0.0000 C   0  0  0  0  0  0  0  0  0  0  0  0
    3.7368   25.0320    0.0000 C   0  0  0  0  0  0  0  0  0  0  0  0
    5.2132   24.7666    0.0000 C   0  0  0  0  0  0  0  0  0  0  0  0
    6.6712   24.4143    0.0000 C   0  0  0  0  0  0  0  0  0  0  0  0
    8.1058   23.9762    0.0000 C   0  0  0  0  0  0  0  0  0  0  0  0
    9.5119   23.4539    0.0000 C   0  0  0  0  0  0  0  0  0  0  0  0
   10.8847   22.8492    0.0000 C   0  0  0  0  0  0  0  0  0  0  0  0
   12.2192   22.1643    0.0000 C   0  0  0  0  0  0  0  0  0  0  0  0
   13.5107   21.4015    0.0000 C   0  0  0  0  0  0  0  0  0  0  0  0
   14.7548   20.5635    0.0000 C   0  0  0  0  0  0  0  0  0  0  0  0
   15.9471   19.6533    0.0000 C   0  0  0  0  0  0  0  0  0  0  0  0
   17.0834   18.6741    0.0000 C   0  0  0  0  0  0  0  0  0  0  0  0
   18.1596   17.6292    0.0000 C   0  0  0  0  0  0  0  0  0  0  0  0
   19.1721   16.5225    0.0000 C   0  0  0  0  0  0  0  0  0  0  0  0
   20.1172   15.3577    0.0000 C   0  0  0  0  0  0  0  0  0  0  0  0
   20.9917   14.1390    0.0000 C   0  0  0  0  0  0  0  0  0  0  0  0
   21.7924   12.8706    0.0000 C   0  0  0  0  0  0  0  0  0  0  0  0
   22.5166   11.5570    0.0000 C   0  0  0  0  0  0  0  0  0  0  0  0
   23.1617   10.2028    0.0000 C   0  0  0  0  0  0  0  0  0  0  0  0
   23.7255    8.8128    0.0000 C   0  0  0  0  0  0  0  0  0  0  0  0
   24.2059    7.3918    0.0000 C   0  0  0  0  0  0  0  0  0  0  0  0
   24.6013    5.9448    0.0000 C   0  0  0  0  0  0  0  0  0  0  0  0
   24.9102    4.4770    0.0000 C   0  0  0  0  0  0  0  0  0  0  0  0
   25.1317    2.9934    0.0000 C   0  0  0  0  0  0  0  0  0  0  0  0
   25.2649    1.4993    0.0000 C   0  0  0  0  0  0  0  0  0  0  0  0
  1  2  1  0
  2  3  1  0
  3  4  2  0
  4  5  1  0
  5  6  2  0
  6  7  1  0
  7  8  2  0
  8  9  1  0
  9 10  2  0
 10 11  1  0
 11 12  2  0
 12 13  1  0
 13 14  1  0
 14 15  1  0
 15 16  1  0
 16 17  1  0
 17 18  1  0
 18 19  1  0
 19 20  1  0
 20 21  1  0
 21 22  1  0
 22 23  1  0
 23 24  1  0
 24 25  1  0
 25 26  1  0
 26 27  1  0
 27 28  1  0
 28 29  1  0
 29 30  1  0
 30 31  1  0
 31 32  1  0
 32 33  1  0
 33 34  1  0
 34 35  1  0
 35 36  1  0
 36 37  1  0
 37 38  1  0
 38 39  1  0
 39 40  1  0
 40 41  1  0
 41 42  1  0
 42 43  1  0
 43 44  1  0
 44 45  1  0
 45 46  1  0
 46 47  1  0
 47 48  1  0
 48 49  1  0
 49 50  1  0
 50 51  1  0
 51 52  1  0
 52 53  1  0
 53 54  1  0
 54 55  1  0
 55 56  1  0
 56 57  1  0
 57 58  1  0
 58 59  1  0
 59 60  1  0
 60 61  1  0
 61 62  1  0
 62 63  1  0
 63 64  1  0
 64 65  1  0
 65 66  1  0
 66 67  1  0
 67 68  1  0
 68 69  1  0
 69 70  1  0
 70 71  1  0
 71 72  1  0
 72 73  1  0
 73 74  1  0
 74 75  1  0
 75 76  1  0
 76 77  1  0
 77 78  1  0
 78 79  1  0
 79 80  1  0
 80 81  1  0
 81 82  1  0
 82 83  1  0
 83 84  1  0
 84 85  1  0
 85 86  1  0
 86 87  1  0
 87 88  1  0
 88 89  1  0
 89 90  1  0
 90 91  1  0
 91 92  1  0
 92 93  1  0
 93 94  1  0
 94 95  1  0
 95 96  1  0
 96 97  1  0
 97 98  1  0
 98 99  1  0
 99100  1  0
100101  1  0
101102  1  0
102103  1  0
103104  1  0
104105  1  0
105106  1  0
106107  1  0
107  2  1  0
M  END
>  <Title>  (660) 
idAAXLgen8

$$$$

     RDKit          2D

 13 13  0  0  0  0  0  0  0  0999 V2000
   10.5000    0.0000    0.0000 C   0  0  0  0  0  0  0  0  0  0  0  0
    9.0000    0.0000    0.0000 C   0  0  0  0  0  0  0  0  0  0  0  0
    7.5000    0.0000    0.0000 C   0  0  0  0  0  0  0  0  0  0  0  0
    6.0000    0.0000    0.0000 C   0  0  0  0  0  0  0  0  0  0  0  0
    4.5000    0.0000    0.0000 C   0  0  0  0  0  0  0  0  0  0  0  0
    3.0000    0.0000    0.0000 C   0  0  0  0  0  0  0  0  0  0  0  0
    1.5000    0.0000    0.0000 C   0  0  0  0  0  0  0  0  0  0  0  0
    0.7500   -1.2990    0.0000 C   0  0  0  0  0  0  0  0  0  0  0  0
   -0.7500   -1.2990    0.0000 C   0  0  0  0  0  0  0  0  0  0  0  0
   -1.5000    0.0000    0.0000 C   0  0  0  0  0  0  0  0  0  0  0  0
   -3.0000    0.0000    0.0000 O   0  0  0  0  0  0  0  0  0  0  0  0
   -0.7500    1.2990    0.0000 C   0  0  0  0  0  0  0  0  0  0  0  0
    0.7500    1.2990    0.0000 C   0  0  0  0  0  0  0  0  0  0  0  0
  1  2  3  0
  2  3  1  0
  3  4  3  0
  4  5  1  0
  5  6  3  0
  6  7  1  0
  7  8  2  0
  8  9  1  0
  9 10  1  0
 10 11  1  0
 10 12  2  0
 12 13  1  0
 13  7  1  0
M  END
>  <Title>  (661) 
idAAXMgen8

$$$$

     RDKit          2D

 52 59  0  0  0  0  0  0  0  0999 V2000
    7.7019   -5.2771    0.0000 C   0  0  0  0  0  0  0  0  0  0  0  0
    6.2307   -4.9844    0.0000 C   0  0  0  0  0  0  0  0  0  0  0  0
    5.2417   -6.1122    0.0000 C   0  0  0  0  0  0  0  0  0  0  0  0
    3.7705   -5.8195    0.0000 C   0  0  0  0  0  0  0  0  0  0  0  0
    3.7705   -4.3195    0.0000 C   0  0  0  0  0  0  0  0  0  0  0  0
    3.1965   -2.9337    0.0000 C   0  0  0  0  0  0  0  0  0  0  0  0
    2.1358   -1.8731    0.0000 C   0  0  0  0  0  0  0  0  0  0  0  0
    2.9692   -0.6259    0.0000 C   0  0  0  0  0  0  0  0  0  0  0  0
    2.3057    0.7195    0.0000 O   0  0  0  0  0  0  0  0  0  0  0  0
    4.4660   -0.7240    0.0000 N   0  0  0  0  0  0  0  0  0  0  0  0
    5.2993    0.5232    0.0000 C   0  0  0  0  0  0  0  0  0  0  0  0
    6.7961    0.4251    0.0000 N   0  0  0  0  0  0  0  0  0  0  0  0
    7.6295    1.6723    0.0000 N   0  0  0  0  0  0  0  0  0  0  0  0
    6.9660    3.0176    0.0000 N   0  0  0  0  0  0  0  0  0  0  0  0
    5.4692    3.1158    0.0000 N   0  0  0  0  0  0  0  0  0  0  0  0
    4.6359    1.8686    0.0000 N   0  0  0  0  0  0  0  0  0  0  0  0
    0.7500   -1.2990    0.0000 C   0  0  0  0  0  0  0  0  0  0  0  0
    1.5000    0.0000    0.0000 C   0  0  0  0  0  0  0  0  0  0  0  0
    0.7500    1.2990    0.0000 C   0  0  0  0  0  0  0  0  0  0  0  0
   -0.7500    1.2990    0.0000 C   0  0  0  0  0  0  0  0  0  0  0  0
   -1.5000    0.0000    0.0000 C   0  0  0  0  0  0  0  0  0  0  0  0
   -0.7500   -1.2990    0.0000 C   0  0  0  0  0  0  0  0  0  0  0  0
   -2.1358   -1.8731    0.0000 C   0  0  0  0  0  0  0  0  0  0  0  0
   -2.5240   -0.4242    0.0000 C   0  0  0  0  0  0  0  0  0  0  0  0
   -3.9729   -0.0359    0.0000 C   0  0  0  0  0  0  0  0  0  0  0  0
   -5.0336   -1.0966    0.0000 C   0  0  0  0  0  0  0  0  0  0  0  0
   -4.6454   -2.5455    0.0000 C   0  0  0  0  0  0  0  0  0  0  0  0
   -3.1965   -2.9337    0.0000 C   0  0  0  0  0  0  0  0  0  0  0  0
   -3.7705   -4.3195    0.0000 C   0  0  0  0  0  0  0  0  0  0  0  0
   -5.0695   -3.5695    0.0000 C   0  0  0  0  0  0  0  0  0  0  0  0
   -6.3686   -4.3195    0.0000 C   0  0  0  0  0  0  0  0  0  0  0  0
   -6.3686   -5.8195    0.0000 C   0  0  0  0  0  0  0  0  0  0  0  0
   -5.0695   -6.5695    0.0000 C   0  0  0  0  0  0  0  0  0  0  0  0
   -3.7705   -5.8195    0.0000 C   0  0  0  0  0  0  0  0  0  0  0  0
   -3.1965   -7.2054    0.0000 C   0  0  0  0  0  0  0  0  0  0  0  0
   -4.6454   -7.5936    0.0000 C   0  0  0  0  0  0  0  0  0  0  0  0
   -5.0336   -9.0425    0.0000 C   0  0  0  0  0  0  0  0  0  0  0  0
   -3.9729  -10.1031    0.0000 C   0  0  0  0  0  0  0  0  0  0  0  0
   -2.5240   -9.7149    0.0000 C   0  0  0  0  0  0  0  0  0  0  0  0
   -2.1358   -8.2660    0.0000 C   0  0  0  0  0  0  0  0  0  0  0  0
   -0.7500   -8.8400    0.0000 C   0  0  0  0  0  0  0  0  0  0  0  0
   -1.5000  -10.1391    0.0000 C   0  0  0  0  0  0  0  0  0  0  0  0
   -0.7500  -11.4381    0.0000 C   0  0  0  0  0  0  0  0  0  0  0  0
    0.7500  -11.4381    0.0000 C   0  0  0  0  0  0  0  0  0  0  0  0
    1.5000  -10.1391    0.0000 C   0  0  0  0  0  0  0  0  0  0  0  0
    0.7500   -8.8400    0.0000 C   0  0  0  0  0  0  0  0  0  0  0  0
    2.1358   -8.2660    0.0000 C   0  0  0  0  0  0  0  0  0  0  0  0
    2.5240   -9.7149    0.0000 C   0  0  0  0  0  0  0  0  0  0  0  0
    3.9729  -10.1031    0.0000 C   0  0  0  0  0  0  0  0  0  0  0  0
    5.0336   -9.0425    0.0000 C   0  0  0  0  0  0  0  0  0  0  0  0
    4.6454   -7.5936    0.0000 C   0  0  0  0  0  0  0  0  0  0  0  0
    3.1965   -7.2054    0.0000 C   0  0  0  0  0  0  0  0  0  0  0  0
  1  2  1  0
  2  3  1  0
  3  4  1  0
  4  5  1  0
  5  6  1  0
  6  7  1  0
  7  8  1  0
  8  9  2  0
  8 10  1  0
 10 11  1  0
 11 12  2  0
 12 13  1  0
 13 14  2  0
 14 15  1  0
 15 16  2  0
  7 17  1  0
 17 18  2  0
 18 19  1  0
 19 20  2  0
 20 21  1  0
 21 22  2  0
 22 23  1  0
 23 24  2  0
 24 25  1  0
 25 26  2  0
 26 27  1  0
 27 28  2  0
 28 29  1  0
 29 30  2  0
 30 31  1  0
 31 32  2  0
 32 33  1  0
 33 34  2  0
 34 35  1  0
 35 36  2  0
 36 37  1  0
 37 38  2  0
 38 39  1  0
 39 40  2  0
 40 41  1  0
 41 42  2  0
 42 43  1  0
 43 44  2  0
 44 45  1  0
 45 46  2  0
 46 47  1  0
 47 48  2  0
 48 49  1  0
 49 50  2  0
 50 51  1  0
 51 52  2  0
 52  4  1  0
 16 11  1  0
 22 17  1  0
 28 23  1  0
 34 29  1  0
 40 35  1  0
 46 41  1  0
 52 47  1  0
M  END
>  <Title>  (662) 
idAAXNgen8

$$$$

     RDKit          2D

  9  9  0  0  0  0  0  0  0  0999 V2000
    4.5000    0.0000    0.0000 N   0  0  0  0  0  0  0  0  0  0  0  0
    3.0000    0.0000    0.0000 C   0  0  0  0  0  0  0  0  0  0  0  0
    1.5000    0.0000    0.0000 C   0  0  0  0  0  0  0  0  0  0  0  0
    0.7500   -1.2990    0.0000 C   0  0  0  0  0  0  0  0  0  0  0  0
   -0.7500   -1.2990    0.0000 C   0  0  0  0  0  0  0  0  0  0  0  0
   -1.5000    0.0000    0.0000 C   0  0  0  0  0  0  0  0  0  0  0  0
   -3.0000    0.0000    0.0000 F   0  0  0  0  0  0  0  0  0  0  0  0
   -0.7500    1.2990    0.0000 C   0  0  0  0  0  0  0  0  0  0  0  0
    0.7500    1.2990    0.0000 C   0  0  0  0  0  0  0  0  0  0  0  0
  1  2  3  0
  2  3  1  0
  3  4  2  0
  4  5  1  0
  5  6  2  0
  6  7  1  0
  6  8  1  0
  8  9  2  0
  9  3  1  0
M  END
>  <Title>  (663) 
idAAXOgen8

$$$$

     RDKit          2D

 40 45  0  0  0  0  0  0  0  0999 V2000
    2.1535   -8.4451    0.0000 C   0  0  0  0  0  0  0  0  0  0  0  0
    1.4564   -7.1169    0.0000 C   0  0  0  0  0  0  0  0  0  0  0  0
    2.5792   -6.1222    0.0000 C   0  0  0  0  0  0  0  0  0  0  0  0
    3.1111   -4.7197    0.0000 C   0  0  0  0  0  0  0  0  0  0  0  0
    4.6001   -4.9005    0.0000 O   0  0  0  0  0  0  0  0  0  0  0  0
    2.9303   -3.2306    0.0000 O   0  0  0  0  0  0  0  0  0  0  0  0
    2.0782   -1.9961    0.0000 C   0  0  0  0  0  0  0  0  0  0  0  0
    3.0729   -0.8734    0.0000 C   0  0  0  0  0  0  0  0  0  0  0  0
    2.5979    0.5494    0.0000 O   0  0  0  0  0  0  0  0  0  0  0  0
    4.5426   -1.1734    0.0000 N   0  0  0  0  0  0  0  0  0  0  0  0
    5.5372   -0.0506    0.0000 C   0  0  0  0  0  0  0  0  0  0  0  0
    7.0069   -0.3507    0.0000 N   0  0  0  0  0  0  0  0  0  0  0  0
    8.0016    0.7721    0.0000 N   0  0  0  0  0  0  0  0  0  0  0  0
    7.5266    2.1949    0.0000 N   0  0  0  0  0  0  0  0  0  0  0  0
    6.0569    2.4949    0.0000 N   0  0  0  0  0  0  0  0  0  0  0  0
    5.0622    1.3722    0.0000 N   0  0  0  0  0  0  0  0  0  0  0  0
    0.7500   -1.2990    0.0000 C   0  0  0  0  0  0  0  0  0  0  0  0
    1.5000    0.0000    0.0000 C   0  0  0  0  0  0  0  0  0  0  0  0
    0.7500    1.2990    0.0000 C   0  0  0  0  0  0  0  0  0  0  0  0
   -0.7500    1.2990    0.0000 C   0  0  0  0  0  0  0  0  0  0  0  0
   -1.5000    0.0000    0.0000 C   0  0  0  0  0  0  0  0  0  0  0  0
   -0.7500   -1.2990    0.0000 C   0  0  0  0  0  0  0  0  0  0  0  0
   -2.0782   -1.9961    0.0000 C   0  0  0  0  0  0  0  0  0  0  0  0
   -2.7212   -0.6409    0.0000 C   0  0  0  0  0  0  0  0  0  0  0  0
   -4.2164   -0.5202    0.0000 C   0  0  0  0  0  0  0  0  0  0  0  0
   -5.0685   -1.7547    0.0000 C   0  0  0  0  0  0  0  0  0  0  0  0
   -4.4254   -3.1099    0.0000 C   0  0  0  0  0  0  0  0  0  0  0  0
   -2.9303   -3.2306    0.0000 C   0  0  0  0  0  0  0  0  0  0  0  0
   -3.1111   -4.7197    0.0000 C   0  0  0  0  0  0  0  0  0  0  0  0
   -4.5917   -4.4790    0.0000 C   0  0  0  0  0  0  0  0  0  0  0  0
   -5.5403   -5.6410    0.0000 C   0  0  0  0  0  0  0  0  0  0  0  0
   -5.0084   -7.0435    0.0000 C   0  0  0  0  0  0  0  0  0  0  0  0
   -3.5278   -7.2841    0.0000 C   0  0  0  0  0  0  0  0  0  0  0  0
   -2.5792   -6.1222    0.0000 C   0  0  0  0  0  0  0  0  0  0  0  0
   -1.4564   -7.1169    0.0000 C   0  0  0  0  0  0  0  0  0  0  0  0
   -2.4955   -8.1987    0.0000 C   0  0  0  0  0  0  0  0  0  0  0  0
   -2.0782   -9.6395    0.0000 C   0  0  0  0  0  0  0  0  0  0  0  0
   -0.6218   -9.9984    0.0000 C   0  0  0  0  0  0  0  0  0  0  0  0
    0.4173   -8.9166    0.0000 C   0  0  0  0  0  0  0  0  0  0  0  0
   -0.0000   -7.4758    0.0000 C   0  0  0  0  0  0  0  0  0  0  0  0
  1  2  1  0
  2  3  2  0
  3  4  1  0
  4  5  1  0
  4  6  1  0
  6  7  1  0
  7  8  1  0
  8  9  2  0
  8 10  1  0
 10 11  1  0
 11 12  2  0
 12 13  1  0
 13 14  2  0
 14 15  1  0
 15 16  2  0
  7 17  1  0
 17 18  2  0
 18 19  1  0
 19 20  1  0
 20 21  1  0
 21 22  1  0
 22 23  1  0
 23 24  2  0
 24 25  1  0
 25 26  2  0
 26 27  1  0
 27 28  2  0
 28 29  1  0
 29 30  2  0
 30 31  1  0
 31 32  2  0
 32 33  1  0
 33 34  2  0
 34 35  1  0
 35 36  2  0
 36 37  1  0
 37 38  2  0
 38 39  1  0
 39 40  2  0
 40  2  1  0
 16 11  1  0
 22 17  1  0
 28 23  1  0
 34 29  1  0
 40 35  1  0
M  END
>  <Title>  (664) 
idAAXPgen8

$$$$

     RDKit          2D

  9  9  0  0  0  0  0  0  0  0999 V2000
    4.5000    0.0000    0.0000 N   0  0  0  0  0  0  0  0  0  0  0  0
    3.0000    0.0000    0.0000 C   0  0  0  0  0  0  0  0  0  0  0  0
    1.5000    0.0000    0.0000 C   0  0  0  0  0  0  0  0  0  0  0  0
    0.7500   -1.2990    0.0000 C   0  0  0  0  0  0  0  0  0  0  0  0
   -0.7500   -1.2990    0.0000 C   0  0  0  0  0  0  0  0  0  0  0  0
   -1.5000    0.0000    0.0000 C   0  0  0  0  0  0  0  0  0  0  0  0
   -3.0000    0.0000    0.0000 O   0  0  0  0  0  0  0  0  0  0  0  0
   -0.7500    1.2990    0.0000 C   0  0  0  0  0  0  0  0  0  0  0  0
    0.7500    1.2990    0.0000 C   0  0  0  0  0  0  0  0  0  0  0  0
  1  2  3  0
  2  3  1  0
  3  4  2  0
  4  5  1  0
  5  6  1  0
  6  7  1  0
  6  8  1  0
  8  9  2  0
  9  3  1  0
M  END
>  <Title>  (665) 
idAAXQgen8

$$$$

     RDKit          2D

 67 70  0  0  0  0  0  0  0  0999 V2000
   -2.5192   -0.0136    0.0000 C   0  0  0  0  0  0  0  0  0  0  0  0
   -2.2382   -1.4870    0.0000 C   0  0  0  0  0  0  0  0  0  0  0  0
   -3.6910   -1.8601    0.0000 C   0  0  0  0  0  0  0  0  0  0  0  0
   -5.0857   -2.4123    0.0000 C   0  0  0  0  0  0  0  0  0  0  0  0
   -6.4002   -3.1349    0.0000 C   0  0  0  0  0  0  0  0  0  0  0  0
   -7.6137   -4.0166    0.0000 C   0  0  0  0  0  0  0  0  0  0  0  0
   -8.7071   -5.0434    0.0000 C   0  0  0  0  0  0  0  0  0  0  0  0
   -9.6633   -6.1992    0.0000 C   0  0  0  0  0  0  0  0  0  0  0  0
  -10.4670   -7.4657    0.0000 C   0  0  0  0  0  0  0  0  0  0  0  0
  -11.1057   -8.8229    0.0000 C   0  0  0  0  0  0  0  0  0  0  0  0
  -11.5692  -10.2495    0.0000 C   0  0  0  0  0  0  0  0  0  0  0  0
  -11.8503  -11.7229    0.0000 C   0  0  0  0  0  0  0  0  0  0  0  0
  -11.9445  -13.2199    0.0000 C   0  0  0  0  0  0  0  0  0  0  0  0
  -11.8503  -14.7170    0.0000 C   0  0  0  0  0  0  0  0  0  0  0  0
  -11.5692  -16.1904    0.0000 C   0  0  0  0  0  0  0  0  0  0  0  0
  -11.1057  -17.6170    0.0000 C   0  0  0  0  0  0  0  0  0  0  0  0
  -10.4670  -18.9742    0.0000 C   0  0  0  0  0  0  0  0  0  0  0  0
   -9.6633  -20.2407    0.0000 C   0  0  0  0  0  0  0  0  0  0  0  0
   -8.7071  -21.3965    0.0000 C   0  0  0  0  0  0  0  0  0  0  0  0
   -7.6137  -22.4233    0.0000 C   0  0  0  0  0  0  0  0  0  0  0  0
   -6.4002  -23.3050    0.0000 C   0  0  0  0  0  0  0  0  0  0  0  0
   -5.0857  -24.0276    0.0000 C   0  0  0  0  0  0  0  0  0  0  0  0
   -3.6910  -24.5798    0.0000 C   0  0  0  0  0  0  0  0  0  0  0  0
   -2.2382  -24.9529    0.0000 C   0  0  0  0  0  0  0  0  0  0  0  0
   -0.7500  -25.1409    0.0000 C   0  0  0  0  0  0  0  0  0  0  0  0
    0.7500  -25.1409    0.0000 C   0  0  0  0  0  0  0  0  0  0  0  0
    2.2382  -24.9529    0.0000 C   0  0  0  0  0  0  0  0  0  0  0  0
    3.6910  -24.5798    0.0000 C   0  0  0  0  0  0  0  0  0  0  0  0
    5.0857  -24.0276    0.0000 C   0  0  0  0  0  0  0  0  0  0  0  0
    6.4002  -23.3050    0.0000 C   0  0  0  0  0  0  0  0  0  0  0  0
    7.6137  -22.4233    0.0000 C   0  0  0  0  0  0  0  0  0  0  0  0
    8.7071  -21.3965    0.0000 C   0  0  0  0  0  0  0  0  0  0  0  0
    9.6633  -20.2407    0.0000 C   0  0  0  0  0  0  0  0  0  0  0  0
   10.4670  -18.9742    0.0000 C   0  0  0  0  0  0  0  0  0  0  0  0
   11.1057  -17.6170    0.0000 C   0  0  0  0  0  0  0  0  0  0  0  0
   11.5692  -16.1904    0.0000 C   0  0  0  0  0  0  0  0  0  0  0  0
   11.8503  -14.7170    0.0000 C   0  0  0  0  0  0  0  0  0  0  0  0
   11.9445  -13.2199    0.0000 C   0  0  0  0  0  0  0  0  0  0  0  0
   11.8503  -11.7229    0.0000 C   0  0  0  0  0  0  0  0  0  0  0  0
   11.5692  -10.2495    0.0000 C   0  0  0  0  0  0  0  0  0  0  0  0
   11.1057   -8.8229    0.0000 C   0  0  0  0  0  0  0  0  0  0  0  0
   10.4670   -7.4657    0.0000 C   0  0  0  0  0  0  0  0  0  0  0  0
    9.6633   -6.1992    0.0000 C   0  0  0  0  0  0  0  0  0  0  0  0
    8.7071   -5.0434    0.0000 C   0  0  0  0  0  0  0  0  0  0  0  0
    7.6137   -4.0166    0.0000 C   0  0  0  0  0  0  0  0  0  0  0  0
    6.4002   -3.1349    0.0000 C   0  0  0  0  0  0  0  0  0  0  0  0
    5.0857   -2.4123    0.0000 C   0  0  0  0  0  0  0  0  0  0  0  0
    3.6910   -1.8601    0.0000 C   0  0  0  0  0  0  0  0  0  0  0  0
    3.7852   -3.3571    0.0000 C   0  0  0  0  0  0  0  0  0  0  0  0
    2.3906   -3.9093    0.0000 C   0  0  0  0  0  0  0  0  0  0  0  0
    1.4344   -2.7535    0.0000 C   0  0  0  0  0  0  0  0  0  0  0  0
   -0.0626   -2.8477    0.0000 C   0  0  0  0  0  0  0  0  0  0  0  0
   -0.8701   -2.1104    0.0000 O   0  0  0  0  0  0  0  0  0  0  0  0
   -0.7296   -4.1913    0.0000 N   0  0  0  0  0  0  0  0  0  0  0  0
   -2.2266   -4.2855    0.0000 C   0  0  0  0  0  0  0  0  0  0  0  0
   -3.0567   -3.0361    0.0000 N   0  0  0  0  0  0  0  0  0  0  0  0
   -4.5537   -3.1303    0.0000 N   0  0  0  0  0  0  0  0  0  0  0  0
   -5.2207   -4.4738    0.0000 N   0  0  0  0  0  0  0  0  0  0  0  0
   -4.3906   -5.7232    0.0000 N   0  0  0  0  0  0  0  0  0  0  0  0
   -2.8936   -5.6290    0.0000 N   0  0  0  0  0  0  0  0  0  0  0  0
    2.2382   -1.4870    0.0000 C   0  0  0  0  0  0  0  0  0  0  0  0
    0.7500   -1.2990    0.0000 C   0  0  0  0  0  0  0  0  0  0  0  0
    1.5000    0.0000    0.0000 C   0  0  0  0  0  0  0  0  0  0  0  0
    0.7500    1.2990    0.0000 C   0  0  0  0  0  0  0  0  0  0  0  0
   -0.7500    1.2990    0.0000 C   0  0  0  0  0  0  0  0  0  0  0  0
   -1.5000    0.0000    0.0000 C   0  0  0  0  0  0  0  0  0  0  0  0
   -0.7500   -1.2990    0.0000 C   0  0  0  0  0  0  0  0  0  0  0  0
  1  2  1  0
  2  3  2  0
  3  4  1  0
  4  5  1  0
  5  6  1  0
  6  7  1  0
  7  8  1  0
  8  9  1  0
  9 10  1  0
 10 11  1  0
 11 12  2  0
 12 13  1  0
 13 14  2  0
 14 15  1  0
 15 16  2  0
 16 17  1  0
 17 18  2  0
 18 19  1  0
 19 20  2  0
 20 21  1  0
 21 22  2  0
 22 23  1  0
 23 24  2  0
 24 25  1  0
 25 26  2  0
 26 27  1  0
 27 28  2  0
 28 29  1  0
 29 30  2  0
 30 31  1  0
 31 32  2  0
 32 33  1  0
 33 34  2  0
 34 35  1  0
 35 36  2  0
 36 37  1  0
 37 38  2  0
 38 39  1  0
 39 40  2  0
 40 41  1  0
 41 42  2  0
 42 43  1  0
 43 44  2  0
 44 45  1  0
 45 46  2  0
 46 47  1  0
 47 48  2  0
 48 49  1  0
 49 50  1  0
 50 51  1  0
 51 52  1  0
 52 53  2  0
 52 54  1  0
 54 55  1  0
 55 56  2  0
 56 57  1  0
 57 58  2  0
 58 59  1  0
 59 60  2  0
 51 61  1  0
 61 62  1  0
 62 63  2  0
 63 64  1  0
 64 65  2  0
 65 66  1  0
 66 67  2  0
 67  2  1  0
 61 48  1  0
 67 62  1  0
 60 55  1  0
M  END
>  <Title>  (666) 
idAAXRgen8

$$$$

     RDKit          2D

 45 51  0  0  0  0  0  0  0  0999 V2000
    1.2135   -7.3421    0.0000 C   0  0  0  0  0  0  0  0  0  0  0  0
    0.7500   -5.9156    0.0000 C   0  0  0  0  0  0  0  0  0  0  0  0
    1.9635   -5.0339    0.0000 C   0  0  0  0  0  0  0  0  0  0  0  0
    2.4271   -3.6073    0.0000 C   0  0  0  0  0  0  0  0  0  0  0  0
    1.9635   -2.1807    0.0000 C   0  0  0  0  0  0  0  0  0  0  0  0
    3.1771   -1.2990    0.0000 C   0  0  0  0  0  0  0  0  0  0  0  0
    3.0203    0.1927    0.0000 O   0  0  0  0  0  0  0  0  0  0  0  0
    4.5474   -1.9091    0.0000 N   0  0  0  0  0  0  0  0  0  0  0  0
    5.7609   -1.0275    0.0000 C   0  0  0  0  0  0  0  0  0  0  0  0
    5.7609    0.4725    0.0000 N   0  0  0  0  0  0  0  0  0  0  0  0
    7.1875    0.9361    0.0000 N   0  0  0  0  0  0  0  0  0  0  0  0
    8.0692   -0.2775    0.0000 N   0  0  0  0  0  0  0  0  0  0  0  0
    7.1875   -1.4910    0.0000 N   0  0  0  0  0  0  0  0  0  0  0  0
    7.6510   -2.9176    0.0000 C   0  0  0  0  0  0  0  0  0  0  0  0
    9.0776   -3.3811    0.0000 C   0  0  0  0  0  0  0  0  0  0  0  0
    9.0776   -4.8811    0.0000 C   0  0  0  0  0  0  0  0  0  0  0  0
    7.6510   -5.3446    0.0000 C   0  0  0  0  0  0  0  0  0  0  0  0
    7.1875   -6.7712    0.0000 C   0  0  0  0  0  0  0  0  0  0  0  0
    8.1912   -7.8859    0.0000 O   0  0  0  0  0  0  0  0  0  0  0  0
    5.7203   -7.0831    0.0000 N   0  0  0  0  0  0  0  0  0  0  0  0
    5.2567   -8.5097    0.0000 C   0  0  0  0  0  0  0  0  0  0  0  0
    3.7895   -8.8215    0.0000 N   0  0  0  0  0  0  0  0  0  0  0  0
    3.3260  -10.2481    0.0000 N   0  0  0  0  0  0  0  0  0  0  0  0
    4.3297  -11.3628    0.0000 N   0  0  0  0  0  0  0  0  0  0  0  0
    5.7969  -11.0510    0.0000 N   0  0  0  0  0  0  0  0  0  0  0  0
    6.2604   -9.6244    0.0000 N   0  0  0  0  0  0  0  0  0  0  0  0
    6.7693   -4.1311    0.0000 C   0  0  0  0  0  0  0  0  0  0  0  0
    0.7500   -1.2990    0.0000 C   0  0  0  0  0  0  0  0  0  0  0  0
    1.5000    0.0000    0.0000 C   0  0  0  0  0  0  0  0  0  0  0  0
    0.7500    1.2990    0.0000 C   0  0  0  0  0  0  0  0  0  0  0  0
   -0.7500    1.2990    0.0000 C   0  0  0  0  0  0  0  0  0  0  0  0
   -1.5000    0.0000    0.0000 C   0  0  0  0  0  0  0  0  0  0  0  0
   -0.7500   -1.2990    0.0000 C   0  0  0  0  0  0  0  0  0  0  0  0
   -1.9635   -2.1807    0.0000 C   0  0  0  0  0  0  0  0  0  0  0  0
   -2.9672   -1.0660    0.0000 C   0  0  0  0  0  0  0  0  0  0  0  0
   -4.4344   -1.3779    0.0000 C   0  0  0  0  0  0  0  0  0  0  0  0
   -4.8980   -2.8045    0.0000 C   0  0  0  0  0  0  0  0  0  0  0  0
   -3.8943   -3.9192    0.0000 C   0  0  0  0  0  0  0  0  0  0  0  0
   -2.4271   -3.6073    0.0000 C   0  0  0  0  0  0  0  0  0  0  0  0
   -1.9635   -5.0339    0.0000 C   0  0  0  0  0  0  0  0  0  0  0  0
   -3.3338   -5.6440    0.0000 C   0  0  0  0  0  0  0  0  0  0  0  0
   -3.4906   -7.1358    0.0000 C   0  0  0  0  0  0  0  0  0  0  0  0
   -2.2771   -8.0175    0.0000 C   0  0  0  0  0  0  0  0  0  0  0  0
   -0.9068   -7.4073    0.0000 C   0  0  0  0  0  0  0  0  0  0  0  0
   -0.7500   -5.9156    0.0000 C   0  0  0  0  0  0  0  0  0  0  0  0
  1  2  1  0
  2  3  1  0
  3  4  1  0
  4  5  1  0
  5  6  1  0
  6  7  2  0
  6  8  1  0
  8  9  1  0
  9 10  2  0
 10 11  1  0
 11 12  2  0
 12 13  1  0
 13 14  1  0
 14 15  2  0
 15 16  1  0
 16 17  2  0
 17 18  1  0
 18 19  2  0
 18 20  1  0
 20 21  1  0
 21 22  2  0
 22 23  1  0
 23 24  2  0
 24 25  1  0
 25 26  2  0
 17 27  1  0
  5 28  1  0
 28 29  2  0
 29 30  1  0
 30 31  2  0
 31 32  1  0
 32 33  2  0
 33 34  1  0
 34 35  2  0
 35 36  1  0
 36 37  2  0
 37 38  1  0
 38 39  2  0
 39 40  1  0
 40 41  2  0
 41 42  1  0
 42 43  2  0
 43 44  1  0
 44 45  2  0
 45  2  1  0
 13  9  1  0
 27 14  1  0
 33 28  1  0
 39 34  1  0
 45 40  1  0
 26 21  1  0
M  END
>  <Title>  (667) 
idAAXSgen8

$$$$

     RDKit          2D

 15 16  0  0  0  0  0  0  0  0999 V2000
   -3.1965   -4.4337    0.0000 C   0  0  0  0  0  0  0  0  0  0  0  0
   -1.8107   -3.8597    0.0000 C   0  0  0  0  0  0  0  0  0  0  0  0
   -0.7500   -4.9204    0.0000 C   0  0  0  0  0  0  0  0  0  0  0  0
    0.7500   -4.9204    0.0000 C   0  0  0  0  0  0  0  0  0  0  0  0
    1.8107   -3.8597    0.0000 C   0  0  0  0  0  0  0  0  0  0  0  0
    3.1965   -4.4337    0.0000 C   0  0  0  0  0  0  0  0  0  0  0  0
    1.8107   -2.3597    0.0000 C   0  0  0  0  0  0  0  0  0  0  0  0
    0.7500   -1.2990    0.0000 C   0  0  0  0  0  0  0  0  0  0  0  0
    1.5000    0.0000    0.0000 C   0  0  0  0  0  0  0  0  0  0  0  0
    0.7500    1.2990    0.0000 C   0  0  0  0  0  0  0  0  0  0  0  0
    1.5000    2.5981    0.0000 O   0  0  0  0  0  0  0  0  0  0  0  0
   -0.7500    1.2990    0.0000 C   0  0  0  0  0  0  0  0  0  0  0  0
   -1.5000    0.0000    0.0000 C   0  0  0  0  0  0  0  0  0  0  0  0
   -0.7500   -1.2990    0.0000 C   0  0  0  0  0  0  0  0  0  0  0  0
   -1.8107   -2.3597    0.0000 C   0  0  0  0  0  0  0  0  0  0  0  0
  1  2  1  0
  2  3  1  0
  3  4  2  0
  4  5  1  0
  5  6  1  0
  5  7  1  0
  7  8  1  0
  8  9  2  0
  9 10  1  0
 10 11  1  0
 10 12  2  0
 12 13  1  0
 13 14  2  0
 14 15  1  0
 15  2  1  0
 14  8  1  0
M  END
>  <Title>  (668) 
idAAXTgen8

$$$$

     RDKit          2D

  9  8  0  0  0  0  0  0  0  0999 V2000
    0.0000    0.0000    0.0000 C   0  0  0  0  0  0  0  0  0  0  0  0
   -0.0000   -1.5000    0.0000 C   0  0  0  0  0  0  0  0  0  0  0  0
   -0.0000   -3.0000    0.0000 C   0  0  0  0  0  0  0  0  0  0  0  0
   -0.0000   -4.5000    0.0000 C   0  0  0  0  0  0  0  0  0  0  0  0
   -0.0000   -6.0000    0.0000 C   0  0  0  0  0  0  0  0  0  0  0  0
   -0.0000   -7.5000    0.0000 C   0  0  0  0  0  0  0  0  0  0  0  0
   -0.0000   -9.0000    0.0000 C   0  0  0  0  0  0  0  0  0  0  0  0
   -0.0000  -10.5000    0.0000 C   0  0  0  0  0  0  0  0  0  0  0  0
   -0.0000  -12.0000    0.0000 C   0  0  0  0  0  0  0  0  0  0  0  0
  1  2  3  0
  2  3  1  0
  3  4  3  0
  4  5  1  0
  5  6  3  0
  6  7  1  0
  7  8  3  0
  8  9  1  0
M  END
>  <Title>  (669) 
idAAXUgen8

$$$$

     RDKit          2D

 90 90  0  0  0  0  0  0  0  0999 V2000
   22.7516    0.0000    0.0000 C   0  0  0  0  0  0  0  0  0  0  0  0
   21.2516    0.0000    0.0000 C   0  0  0  0  0  0  0  0  0  0  0  0
   21.1987    1.4991    0.0000 C   0  0  0  0  0  0  0  0  0  0  0  0
   21.0401    2.9907    0.0000 C   0  0  0  0  0  0  0  0  0  0  0  0
   20.7767    4.4674    0.0000 C   0  0  0  0  0  0  0  0  0  0  0  0
   20.4099    5.9218    0.0000 C   0  0  0  0  0  0  0  0  0  0  0  0
   19.9413    7.3467    0.0000 C   0  0  0  0  0  0  0  0  0  0  0  0
   19.3734    8.7351    0.0000 C   0  0  0  0  0  0  0  0  0  0  0  0
   18.7090   10.0799    0.0000 C   0  0  0  0  0  0  0  0  0  0  0  0
   17.9514   11.3745    0.0000 C   0  0  0  0  0  0  0  0  0  0  0  0
   17.1043   12.6124    0.0000 C   0  0  0  0  0  0  0  0  0  0  0  0
   16.1720   13.7875    0.0000 C   0  0  0  0  0  0  0  0  0  0  0  0
   15.1592   14.8940    0.0000 C   0  0  0  0  0  0  0  0  0  0  0  0
   14.0708   15.9262    0.0000 C   0  0  0  0  0  0  0  0  0  0  0  0
   12.9123   16.8790    0.0000 C   0  0  0  0  0  0  0  0  0  0  0  0
   11.6895   17.7478    0.0000 C   0  0  0  0  0  0  0  0  0  0  0  0
   10.4085   18.5282    0.0000 C   0  0  0  0  0  0  0  0  0  0  0  0
    9.0756   19.2162    0.0000 C   0  0  0  0  0  0  0  0  0  0  0  0
    7.6975   19.8085    0.0000 C   0  0  0  0  0  0  0  0  0  0  0  0
    6.2811   20.3022    0.0000 C   0  0  0  0  0  0  0  0  0  0  0  0
    4.8333   20.6947    0.0000 C   0  0  0  0  0  0  0  0  0  0  0  0
    3.3615   20.9841    0.0000 C   0  0  0  0  0  0  0  0  0  0  0  0
    1.8730   21.1689    0.0000 C   0  0  0  0  0  0  0  0  0  0  0  0
    0.3751   21.2483    0.0000 C   0  0  0  0  0  0  0  0  0  0  0  0
   -1.1247   21.2218    0.0000 C   0  0  0  0  0  0  0  0  0  0  0  0
   -2.6189   21.0896    0.0000 C   0  0  0  0  0  0  0  0  0  0  0  0
   -4.1000   20.8524    0.0000 C   0  0  0  0  0  0  0  0  0  0  0  0
   -5.5607   20.5112    0.0000 C   0  0  0  0  0  0  0  0  0  0  0  0
   -6.9937   20.0679    0.0000 C   0  0  0  0  0  0  0  0  0  0  0  0
   -8.3918   19.5245    0.0000 C   0  0  0  0  0  0  0  0  0  0  0  0
   -9.7481   18.8840    0.0000 C   0  0  0  0  0  0  0  0  0  0  0  0
  -11.0559   18.1493    0.0000 C   0  0  0  0  0  0  0  0  0  0  0  0
  -12.3086   17.3242    0.0000 C   0  0  0  0  0  0  0  0  0  0  0  0
  -13.5000   16.4128    0.0000 C   0  0  0  0  0  0  0  0  0  0  0  0
  -14.6241   15.4197    0.0000 C   0  0  0  0  0  0  0  0  0  0  0  0
  -15.6754   14.3497    0.0000 C   0  0  0  0  0  0  0  0  0  0  0  0
  -16.6485   13.2082    0.0000 C   0  0  0  0  0  0  0  0  0  0  0  0
  -17.5387   12.0009    0.0000 C   0  0  0  0  0  0  0  0  0  0  0  0
  -18.3416   10.7339    0.0000 C   0  0  0  0  0  0  0  0  0  0  0  0
  -19.0531    9.4134    0.0000 C   0  0  0  0  0  0  0  0  0  0  0  0
  -19.6696    8.0459    0.0000 C   0  0  0  0  0  0  0  0  0  0  0  0
  -20.1882    6.6384    0.0000 C   0  0  0  0  0  0  0  0  0  0  0  0
  -20.6061    5.1978    0.0000 C   0  0  0  0  0  0  0  0  0  0  0  0
  -20.9215    3.7313    0.0000 C   0  0  0  0  0  0  0  0  0  0  0  0
  -21.1326    2.2463    0.0000 C   0  0  0  0  0  0  0  0  0  0  0  0
  -21.2384    0.7500    0.0000 C   0  0  0  0  0  0  0  0  0  0  0  0
  -21.2384   -0.7500    0.0000 C   0  0  0  0  0  0  0  0  0  0  0  0
  -21.1326   -2.2463    0.0000 C   0  0  0  0  0  0  0  0  0  0  0  0
  -20.9215   -3.7313    0.0000 C   0  0  0  0  0  0  0  0  0  0  0  0
  -20.6061   -5.1978    0.0000 C   0  0  0  0  0  0  0  0  0  0  0  0
  -20.1882   -6.6384    0.0000 C   0  0  0  0  0  0  0  0  0  0  0  0
  -19.6696   -8.0459    0.0000 C   0  0  0  0  0  0  0  0  0  0  0  0
  -19.0531   -9.4134    0.0000 C   0  0  0  0  0  0  0  0  0  0  0  0
  -18.3416  -10.7339    0.0000 C   0  0  0  0  0  0  0  0  0  0  0  0
  -17.5387  -12.0009    0.0000 C   0  0  0  0  0  0  0  0  0  0  0  0
  -16.6485  -13.2082    0.0000 C   0  0  0  0  0  0  0  0  0  0  0  0
  -15.6754  -14.3497    0.0000 C   0  0  0  0  0  0  0  0  0  0  0  0
  -14.6241  -15.4197    0.0000 C   0  0  0  0  0  0  0  0  0  0  0  0
  -13.5000  -16.4128    0.0000 C   0  0  0  0  0  0  0  0  0  0  0  0
  -12.3086  -17.3242    0.0000 C   0  0  0  0  0  0  0  0  0  0  0  0
  -11.0559  -18.1493    0.0000 C   0  0  0  0  0  0  0  0  0  0  0  0
   -9.7481  -18.8840    0.0000 C   0  0  0  0  0  0  0  0  0  0  0  0
   -8.3918  -19.5245    0.0000 C   0  0  0  0  0  0  0  0  0  0  0  0
   -6.9937  -20.0679    0.0000 C   0  0  0  0  0  0  0  0  0  0  0  0
   -5.5607  -20.5112    0.0000 C   0  0  0  0  0  0  0  0  0  0  0  0
   -4.1000  -20.8524    0.0000 C   0  0  0  0  0  0  0  0  0  0  0  0
   -2.6189  -21.0896    0.0000 C   0  0  0  0  0  0  0  0  0  0  0  0
   -1.1247  -21.2218    0.0000 C   0  0  0  0  0  0  0  0  0  0  0  0
    0.3751  -21.2483    0.0000 C   0  0  0  0  0  0  0  0  0  0  0  0
    1.8730  -21.1689    0.0000 C   0  0  0  0  0  0  0  0  0  0  0  0
    3.3615  -20.9841    0.0000 C   0  0  0  0  0  0  0  0  0  0  0  0
    4.8333  -20.6947    0.0000 C   0  0  0  0  0  0  0  0  0  0  0  0
    6.2811  -20.3022    0.0000 C   0  0  0  0  0  0  0  0  0  0  0  0
    7.6975  -19.8085    0.0000 C   0  0  0  0  0  0  0  0  0  0  0  0
    9.0756  -19.2162    0.0000 C   0  0  0  0  0  0  0  0  0  0  0  0
   10.4085  -18.5282    0.0000 C   0  0  0  0  0  0  0  0  0  0  0  0
   11.6895  -17.7478    0.0000 C   0  0  0  0  0  0  0  0  0  0  0  0
   12.9123  -16.8790    0.0000 C   0  0  0  0  0  0  0  0  0  0  0  0
   14.0708  -15.9262    0.0000 C   0  0  0  0  0  0  0  0  0  0  0  0
   15.1592  -14.8940    0.0000 C   0  0  0  0  0  0  0  0  0  0  0  0
   16.1720  -13.7875    0.0000 C   0  0  0  0  0  0  0  0  0  0  0  0
   17.1043  -12.6124    0.0000 C   0  0  0  0  0  0  0  0  0  0  0  0
   17.9514  -11.3745    0.0000 C   0  0  0  0  0  0  0  0  0  0  0  0
   18.7090  -10.0799    0.0000 C   0  0  0  0  0  0  0  0  0  0  0  0
   19.3734   -8.7351    0.0000 C   0  0  0  0  0  0  0  0  0  0  0  0
   19.9413   -7.3467    0.0000 C   0  0  0  0  0  0  0  0  0  0  0  0
   20.4099   -5.9218    0.0000 C   0  0  0  0  0  0  0  0  0  0  0  0
   20.7767   -4.4674    0.0000 C   0  0  0  0  0  0  0  0  0  0  0  0
   21.0401   -2.9907    0.0000 C   0  0  0  0  0  0  0  0  0  0  0  0
   21.1987   -1.4991    0.0000 C   0  0  0  0  0  0  0  0  0  0  0  0
  1  2  1  0
  2  3  1  0
  3  4  1  0
  4  5  2  0
  5  6  1  0
  6  7  2  0
  7  8  1  0
  8  9  2  0
  9 10  1  0
 10 11  1  0
 11 12  1  0
 12 13  1  0
 13 14  1  0
 14 15  1  0
 15 16  1  0
 16 17  1  0
 17 18  1  0
 18 19  1  0
 19 20  1  0
 20 21  1  0
 21 22  1  0
 22 23  1  0
 23 24  1  0
 24 25  1  0
 25 26  1  0
 26 27  1  0
 27 28  1  0
 28 29  1  0
 29 30  1  0
 30 31  1  0
 31 32  1  0
 32 33  1  0
 33 34  1  0
 34 35  1  0
 35 36  1  0
 36 37  1  0
 37 38  1  0
 38 39  1  0
 39 40  1  0
 40 41  1  0
 41 42  1  0
 42 43  1  0
 43 44  1  0
 44 45  1  0
 45 46  1  0
 46 47  1  0
 47 48  1  0
 48 49  1  0
 49 50  1  0
 50 51  1  0
 51 52  1  0
 52 53  1  0
 53 54  1  0
 54 55  1  0
 55 56  1  0
 56 57  1  0
 57 58  1  0
 58 59  1  0
 59 60  1  0
 60 61  1  0
 61 62  1  0
 62 63  1  0
 63 64  1  0
 64 65  1  0
 65 66  1  0
 66 67  1  0
 67 68  1  0
 68 69  1  0
 69 70  1  0
 70 71  1  0
 71 72  1  0
 72 73  1  0
 73 74  1  0
 74 75  1  0
 75 76  1  0
 76 77  1  0
 77 78  1  0
 78 79  1  0
 79 80  1  0
 80 81  1  0
 81 82  1  0
 82 83  1  0
 83 84  1  0
 84 85  1  0
 85 86  1  0
 86 87  1  0
 87 88  1  0
 88 89  1  0
 89 90  1  0
 90  2  1  0
M  END
>  <Title>  (670) 
idAAXVgen8

$$$$

     RDKit          2D

 81 82  0  0  0  0  0  0  0  0999 V2000
   13.4397  -10.7804    0.0000 C   0  0  0  0  0  0  0  0  0  0  0  0
   14.3822   -9.6134    0.0000 C   0  0  0  0  0  0  0  0  0  0  0  0
   15.6359  -10.4370    0.0000 C   0  0  0  0  0  0  0  0  0  0  0  0
   17.0262  -11.0001    0.0000 C   0  0  0  0  0  0  0  0  0  0  0  0
   18.4996  -11.2812    0.0000 C   0  0  0  0  0  0  0  0  0  0  0  0
   19.9995  -11.2694    0.0000 C   0  0  0  0  0  0  0  0  0  0  0  0
   21.4684  -10.9652    0.0000 C   0  0  0  0  0  0  0  0  0  0  0  0
   22.8496  -10.3803    0.0000 C   0  0  0  0  0  0  0  0  0  0  0  0
   24.0903   -9.5372    0.0000 C   0  0  0  0  0  0  0  0  0  0  0  0
   25.1426   -8.4682    0.0000 C   0  0  0  0  0  0  0  0  0  0  0  0
   25.9661   -7.2145    0.0000 C   0  0  0  0  0  0  0  0  0  0  0  0
   26.5292   -5.8242    0.0000 C   0  0  0  0  0  0  0  0  0  0  0  0
   26.8103   -4.3508    0.0000 C   0  0  0  0  0  0  0  0  0  0  0  0
   26.7985   -2.8509    0.0000 C   0  0  0  0  0  0  0  0  0  0  0  0
   26.4943   -1.3820    0.0000 C   0  0  0  0  0  0  0  0  0  0  0  0
   25.9094   -0.0008    0.0000 C   0  0  0  0  0  0  0  0  0  0  0  0
   25.0663    1.2399    0.0000 C   0  0  0  0  0  0  0  0  0  0  0  0
   23.9974    2.2922    0.0000 C   0  0  0  0  0  0  0  0  0  0  0  0
   22.7436    3.1157    0.0000 C   0  0  0  0  0  0  0  0  0  0  0  0
   21.3534    3.6788    0.0000 C   0  0  0  0  0  0  0  0  0  0  0  0
   19.8799    3.9599    0.0000 C   0  0  0  0  0  0  0  0  0  0  0  0
   18.3800    3.9481    0.0000 C   0  0  0  0  0  0  0  0  0  0  0  0
   16.9111    3.6439    0.0000 C   0  0  0  0  0  0  0  0  0  0  0  0
   15.5299    3.0590    0.0000 C   0  0  0  0  0  0  0  0  0  0  0  0
   14.2892    2.2159    0.0000 C   0  0  0  0  0  0  0  0  0  0  0  0
   13.2370    1.1470    0.0000 C   0  0  0  0  0  0  0  0  0  0  0  0
   12.4134   -0.1068    0.0000 C   0  0  0  0  0  0  0  0  0  0  0  0
   11.8503   -1.4970    0.0000 C   0  0  0  0  0  0  0  0  0  0  0  0
   11.2445    0.0000    0.0000 C   0  0  0  0  0  0  0  0  0  0  0  0
   11.1558    1.4093    0.0000 C   0  0  0  0  0  0  0  0  0  0  0  0
   10.8912    2.7964    0.0000 C   0  0  0  0  0  0  0  0  0  0  0  0
   10.4549    4.1394    0.0000 C   0  0  0  0  0  0  0  0  0  0  0  0
    9.8536    5.4171    0.0000 C   0  0  0  0  0  0  0  0  0  0  0  0
    9.0970    6.6093    0.0000 C   0  0  0  0  0  0  0  0  0  0  0  0
    8.1969    7.6974    0.0000 C   0  0  0  0  0  0  0  0  0  0  0  0
    7.1675    8.6640    0.0000 C   0  0  0  0  0  0  0  0  0  0  0  0
    6.0251    9.4940    0.0000 C   0  0  0  0  0  0  0  0  0  0  0  0
    4.7877   10.1743    0.0000 C   0  0  0  0  0  0  0  0  0  0  0  0
    3.4747   10.6941    0.0000 C   0  0  0  0  0  0  0  0  0  0  0  0
    2.1070   11.0453    0.0000 C   0  0  0  0  0  0  0  0  0  0  0  0
    0.7060   11.2223    0.0000 C   0  0  0  0  0  0  0  0  0  0  0  0
   -0.7060   11.2223    0.0000 C   0  0  0  0  0  0  0  0  0  0  0  0
   -2.1070   11.0453    0.0000 C   0  0  0  0  0  0  0  0  0  0  0  0
   -3.4747   10.6941    0.0000 C   0  0  0  0  0  0  0  0  0  0  0  0
   -4.7877   10.1743    0.0000 C   0  0  0  0  0  0  0  0  0  0  0  0
   -6.0251    9.4940    0.0000 C   0  0  0  0  0  0  0  0  0  0  0  0
   -7.1675    8.6640    0.0000 C   0  0  0  0  0  0  0  0  0  0  0  0
   -8.1969    7.6974    0.0000 C   0  0  0  0  0  0  0  0  0  0  0  0
   -9.0970    6.6093    0.0000 C   0  0  0  0  0  0  0  0  0  0  0  0
   -9.8536    5.4171    0.0000 C   0  0  0  0  0  0  0  0  0  0  0  0
  -10.4549    4.1394    0.0000 C   0  0  0  0  0  0  0  0  0  0  0  0
  -10.8912    2.7964    0.0000 C   0  0  0  0  0  0  0  0  0  0  0  0
  -11.1558    1.4093    0.0000 C   0  0  0  0  0  0  0  0  0  0  0  0
  -11.2445    0.0000    0.0000 C   0  0  0  0  0  0  0  0  0  0  0  0
  -11.1558   -1.4093    0.0000 C   0  0  0  0  0  0  0  0  0  0  0  0
  -10.8912   -2.7964    0.0000 C   0  0  0  0  0  0  0  0  0  0  0  0
  -10.4549   -4.1394    0.0000 C   0  0  0  0  0  0  0  0  0  0  0  0
   -9.8536   -5.4171    0.0000 C   0  0  0  0  0  0  0  0  0  0  0  0
   -9.0970   -6.6093    0.0000 C   0  0  0  0  0  0  0  0  0  0  0  0
   -8.1969   -7.6974    0.0000 C   0  0  0  0  0  0  0  0  0  0  0  0
   -7.1675   -8.6640    0.0000 C   0  0  0  0  0  0  0  0  0  0  0  0
   -6.0251   -9.4940    0.0000 C   0  0  0  0  0  0  0  0  0  0  0  0
   -4.7877  -10.1743    0.0000 C   0  0  0  0  0  0  0  0  0  0  0  0
   -3.4747  -10.6941    0.0000 C   0  0  0  0  0  0  0  0  0  0  0  0
   -2.1070  -11.0453    0.0000 C   0  0  0  0  0  0  0  0  0  0  0  0
   -0.7060  -11.2223    0.0000 C   0  0  0  0  0  0  0  0  0  0  0  0
    0.7060  -11.2223    0.0000 C   0  0  0  0  0  0  0  0  0  0  0  0
    2.1070  -11.0453    0.0000 C   0  0  0  0  0  0  0  0  0  0  0  0
    3.4747  -10.6941    0.0000 C   0  0  0  0  0  0  0  0  0  0  0  0
    4.7877  -10.1743    0.0000 C   0  0  0  0  0  0  0  0  0  0  0  0
    6.0251   -9.4940    0.0000 C   0  0  0  0  0  0  0  0  0  0  0  0
    7.1675   -8.6640    0.0000 C   0  0  0  0  0  0  0  0  0  0  0  0
    8.1969   -7.6974    0.0000 C   0  0  0  0  0  0  0  0  0  0  0  0
    9.0970   -6.6093    0.0000 C   0  0  0  0  0  0  0  0  0  0  0  0
    9.8536   -5.4171    0.0000 C   0  0  0  0  0  0  0  0  0  0  0  0
   10.4549   -4.1394    0.0000 C   0  0  0  0  0  0  0  0  0  0  0  0
   11.5692   -2.9705    0.0000 C   0  0  0  0  0  0  0  0  0  0  0  0
   11.5810   -4.4704    0.0000 C   0  0  0  0  0  0  0  0  0  0  0  0
   11.8852   -5.9393    0.0000 C   0  0  0  0  0  0  0  0  0  0  0  0
   12.4701   -7.3205    0.0000 C   0  0  0  0  0  0  0  0  0  0  0  0
   13.3132   -8.5611    0.0000 C   0  0  0  0  0  0  0  0  0  0  0  0
  1  2  1  0
  2  3  2  0
  3  4  1  0
  4  5  1  0
  5  6  1  0
  6  7  1  0
  7  8  2  0
  8  9  1  0
  9 10  2  0
 10 11  1  0
 11 12  2  0
 12 13  1  0
 13 14  2  0
 14 15  1  0
 15 16  2  0
 16 17  1  0
 17 18  2  0
 18 19  1  0
 19 20  2  0
 20 21  1  0
 21 22  2  0
 22 23  1  0
 23 24  2  0
 24 25  1  0
 25 26  2  0
 26 27  1  0
 27 28  2  0
 28 29  1  0
 29 30  1  0
 30 31  1  0
 31 32  1  0
 32 33  1  0
 33 34  1  0
 34 35  1  0
 35 36  1  0
 36 37  1  0
 37 38  1  0
 38 39  1  0
 39 40  1  0
 40 41  1  0
 41 42  1  0
 42 43  1  0
 43 44  1  0
 44 45  1  0
 45 46  1  0
 46 47  1  0
 47 48  1  0
 48 49  1  0
 49 50  1  0
 50 51  1  0
 51 52  1  0
 52 53  1  0
 53 54  1  0
 54 55  2  0
 55 56  1  0
 56 57  2  0
 57 58  1  0
 58 59  2  0
 59 60  1  0
 60 61  2  0
 61 62  1  0
 62 63  2  0
 63 64  1  0
 64 65  2  0
 65 66  1  0
 66 67  2  0
 67 68  1  0
 68 69  2  0
 69 70  1  0
 70 71  2  0
 71 72  1  0
 72 73  2  0
 73 74  1  0
 74 75  2  0
 75 76  1  0
 76 77  2  0
 77 78  1  0
 78 79  1  0
 79 80  1  0
 80 81  1  0
 81  2  1  0
 77 28  1  0
M  END
>  <Title>  (671) 
idAAXWgen8

$$$$

     RDKit          2D

 62 68  0  0  0  0  0  0  0  0999 V2000
  -10.5822  -10.3502    0.0000 C   0  0  0  0  0  0  0  0  0  0  0  0
   -9.0822  -10.3502    0.0000 C   0  0  0  0  0  0  0  0  0  0  0  0
   -8.9583  -11.8451    0.0000 C   0  0  0  0  0  0  0  0  0  0  0  0
   -8.5901  -13.2992    0.0000 C   0  0  0  0  0  0  0  0  0  0  0  0
   -7.9875  -14.6728    0.0000 C   0  0  0  0  0  0  0  0  0  0  0  0
   -7.1671  -15.9286    0.0000 C   0  0  0  0  0  0  0  0  0  0  0  0
   -6.1512  -17.0322    0.0000 C   0  0  0  0  0  0  0  0  0  0  0  0
   -4.9675  -17.9535    0.0000 C   0  0  0  0  0  0  0  0  0  0  0  0
   -3.6483  -18.6674    0.0000 C   0  0  0  0  0  0  0  0  0  0  0  0
   -2.2295  -19.1545    0.0000 C   0  0  0  0  0  0  0  0  0  0  0  0
   -0.7500  -19.4013    0.0000 C   0  0  0  0  0  0  0  0  0  0  0  0
    0.7500  -19.4013    0.0000 C   0  0  0  0  0  0  0  0  0  0  0  0
    2.2295  -19.1545    0.0000 C   0  0  0  0  0  0  0  0  0  0  0  0
    3.6483  -18.6674    0.0000 C   0  0  0  0  0  0  0  0  0  0  0  0
    4.9675  -17.9535    0.0000 C   0  0  0  0  0  0  0  0  0  0  0  0
    6.1512  -17.0322    0.0000 C   0  0  0  0  0  0  0  0  0  0  0  0
    7.1671  -15.9286    0.0000 C   0  0  0  0  0  0  0  0  0  0  0  0
    7.9875  -14.6728    0.0000 C   0  0  0  0  0  0  0  0  0  0  0  0
    8.5901  -13.2992    0.0000 C   0  0  0  0  0  0  0  0  0  0  0  0
    8.9583  -11.8451    0.0000 C   0  0  0  0  0  0  0  0  0  0  0  0
    9.0822  -10.3502    0.0000 C   0  0  0  0  0  0  0  0  0  0  0  0
    8.9583   -8.8553    0.0000 C   0  0  0  0  0  0  0  0  0  0  0  0
    8.5901   -7.4012    0.0000 C   0  0  0  0  0  0  0  0  0  0  0  0
    7.9875   -6.0276    0.0000 C   0  0  0  0  0  0  0  0  0  0  0  0
    7.1671   -4.7718    0.0000 C   0  0  0  0  0  0  0  0  0  0  0  0
    6.1512   -3.6682    0.0000 C   0  0  0  0  0  0  0  0  0  0  0  0
    4.9675   -2.7469    0.0000 C   0  0  0  0  0  0  0  0  0  0  0  0
    3.6483   -2.0330    0.0000 C   0  0  0  0  0  0  0  0  0  0  0  0
    4.5499   -0.8342    0.0000 C   0  0  0  0  0  0  0  0  0  0  0  0
    3.6884    0.3937    0.0000 C   0  0  0  0  0  0  0  0  0  0  0  0
    2.2543   -0.0461    0.0000 C   0  0  0  0  0  0  0  0  0  0  0  0
    2.2295   -1.5459    0.0000 C   0  0  0  0  0  0  0  0  0  0  0  0
    0.7500   -1.2990    0.0000 C   0  0  0  0  0  0  0  0  0  0  0  0
    1.5000    0.0000    0.0000 C   0  0  0  0  0  0  0  0  0  0  0  0
    0.7500    1.2990    0.0000 C   0  0  0  0  0  0  0  0  0  0  0  0
   -0.7500    1.2990    0.0000 C   0  0  0  0  0  0  0  0  0  0  0  0
   -1.5000    0.0000    0.0000 C   0  0  0  0  0  0  0  0  0  0  0  0
   -0.7500   -1.2990    0.0000 C   0  0  0  0  0  0  0  0  0  0  0  0
   -2.2295   -1.5459    0.0000 C   0  0  0  0  0  0  0  0  0  0  0  0
   -2.6040   -0.3010    0.0000 C   0  0  0  0  0  0  0  0  0  0  0  0
   -3.2073    0.2244    0.0000 C   0  0  0  0  0  0  0  0  0  0  0  0
   -3.9640   -0.0354    0.0000 C   0  0  0  0  0  0  0  0  0  0  0  0
   -4.1174   -0.8206    0.0000 C   0  0  0  0  0  0  0  0  0  0  0  0
   -3.6483   -2.0330    0.0000 C   0  0  0  0  0  0  0  0  0  0  0  0
   -4.9675   -2.7469    0.0000 C   0  0  0  0  0  0  0  0  0  0  0  0
   -5.1735   -1.2611    0.0000 C   0  0  0  0  0  0  0  0  0  0  0  0
   -6.5632   -0.6967    0.0000 C   0  0  0  0  0  0  0  0  0  0  0  0
   -7.7470   -1.6180    0.0000 C   0  0  0  0  0  0  0  0  0  0  0  0
   -7.5409   -3.1038    0.0000 C   0  0  0  0  0  0  0  0  0  0  0  0
   -6.1512   -3.6682    0.0000 C   0  0  0  0  0  0  0  0  0  0  0  0
   -7.1671   -4.7718    0.0000 C   0  0  0  0  0  0  0  0  0  0  0  0
   -8.2273   -4.0194    0.0000 C   0  0  0  0  0  0  0  0  0  0  0  0
   -9.0261   -3.9754    0.0000 C   0  0  0  0  0  0  0  0  0  0  0  0
   -9.4636   -4.6451    0.0000 C   0  0  0  0  0  0  0  0  0  0  0  0
   -9.1024   -5.3589    0.0000 C   0  0  0  0  0  0  0  0  0  0  0  0
   -7.9875   -6.0276    0.0000 C   0  0  0  0  0  0  0  0  0  0  0  0
   -8.5901   -7.4012    0.0000 C   0  0  0  0  0  0  0  0  0  0  0  0
   -9.6653   -6.3553    0.0000 C   0  0  0  0  0  0  0  0  0  0  0  0
  -11.1087   -6.7634    0.0000 C   0  0  0  0  0  0  0  0  0  0  0  0
  -11.4769   -8.2175    0.0000 C   0  0  0  0  0  0  0  0  0  0  0  0
  -10.4017   -9.2635    0.0000 C   0  0  0  0  0  0  0  0  0  0  0  0
   -8.9583   -8.8553    0.0000 C   0  0  0  0  0  0  0  0  0  0  0  0
  1  2  1  0
  2  3  2  0
  3  4  1  0
  4  5  1  0
  5  6  1  0
  6  7  1  0
  7  8  2  0
  8  9  1  0
  9 10  2  0
 10 11  1  0
 11 12  2  0
 12 13  1  0
 13 14  2  0
 14 15  1  0
 15 16  2  0
 16 17  1  0
 17 18  2  0
 18 19  1  0
 19 20  2  0
 20 21  1  0
 21 22  2  0
 22 23  1  0
 23 24  2  0
 24 25  1  0
 25 26  2  0
 26 27  1  0
 27 28  2  0
 28 29  1  0
 29 30  2  0
 30 31  1  0
 31 32  2  0
 32 33  1  0
 33 34  2  0
 34 35  1  0
 35 36  2  0
 36 37  1  0
 37 38  2  0
 38 39  1  0
 39 40  2  0
 40 41  1  0
 41 42  2  0
 42 43  1  0
 43 44  2  0
 44 45  1  0
 45 46  2  0
 46 47  1  0
 47 48  2  0
 48 49  1  0
 49 50  2  0
 50 51  1  0
 51 52  2  0
 52 53  1  0
 53 54  2  0
 54 55  1  0
 55 56  2  0
 56 57  1  0
 57 58  2  0
 58 59  1  0
 59 60  2  0
 60 61  1  0
 61 62  2  0
 62  2  1  0
 32 28  1  0
 38 33  1  0
 44 39  1  0
 50 45  1  0
 56 51  1  0
 62 57  1  0
M  END
>  <Title>  (672) 
idAAXXgen8

$$$$

     RDKit          2D

 33 37  0  0  0  0  0  0  0  0999 V2000
   -0.0000   -8.0154    0.0000 C   0  0  0  0  0  0  0  0  0  0  0  0
   -0.0000   -6.5154    0.0000 C   0  0  0  0  0  0  0  0  0  0  0  0
    1.4392   -6.0928    0.0000 C   0  0  0  0  0  0  0  0  0  0  0  0
    2.4215   -4.9592    0.0000 C   0  0  0  0  0  0  0  0  0  0  0  0
    2.6350   -3.4744    0.0000 C   0  0  0  0  0  0  0  0  0  0  0  0
    2.0119   -2.1100    0.0000 C   0  0  0  0  0  0  0  0  0  0  0  0
    3.1455   -1.1277    0.0000 N   0  0  0  0  0  0  0  0  0  0  0  0
    4.5630   -1.6183    0.0000 C   0  0  0  0  0  0  0  0  0  0  0  0
    4.8469   -3.0912    0.0000 O   0  0  0  0  0  0  0  0  0  0  0  0
    5.6966   -0.6360    0.0000 C   0  0  0  0  0  0  0  0  0  0  0  0
    7.1141   -1.1266    0.0000 C   0  0  0  0  0  0  0  0  0  0  0  0
    8.2478   -0.1443    0.0000 C   0  0  0  0  0  0  0  0  0  0  0  0
    7.9639    1.3286    0.0000 C   0  0  0  0  0  0  0  0  0  0  0  0
    6.5464    1.8192    0.0000 C   0  0  0  0  0  0  0  0  0  0  0  0
    5.4128    0.8369    0.0000 N   0  0  0  0  0  0  0  0  0  0  0  0
    0.7500   -1.2990    0.0000 C   0  0  0  0  0  0  0  0  0  0  0  0
    1.5000    0.0000    0.0000 C   0  0  0  0  0  0  0  0  0  0  0  0
    0.7500    1.2990    0.0000 C   0  0  0  0  0  0  0  0  0  0  0  0
   -0.7500    1.2990    0.0000 C   0  0  0  0  0  0  0  0  0  0  0  0
   -1.5000    0.0000    0.0000 C   0  0  0  0  0  0  0  0  0  0  0  0
   -0.7500   -1.2990    0.0000 C   0  0  0  0  0  0  0  0  0  0  0  0
   -2.0119   -2.1100    0.0000 C   0  0  0  0  0  0  0  0  0  0  0  0
   -2.8820   -0.8881    0.0000 C   0  0  0  0  0  0  0  0  0  0  0  0
   -4.3752   -1.0307    0.0000 C   0  0  0  0  0  0  0  0  0  0  0  0
   -4.9983   -2.3952    0.0000 C   0  0  0  0  0  0  0  0  0  0  0  0
   -4.1282   -3.6170    0.0000 C   0  0  0  0  0  0  0  0  0  0  0  0
   -2.6350   -3.4744    0.0000 C   0  0  0  0  0  0  0  0  0  0  0  0
   -2.4215   -4.9592    0.0000 C   0  0  0  0  0  0  0  0  0  0  0  0
   -3.8944   -5.2431    0.0000 C   0  0  0  0  0  0  0  0  0  0  0  0
   -4.3850   -6.6606    0.0000 C   0  0  0  0  0  0  0  0  0  0  0  0
   -3.4027   -7.7942    0.0000 C   0  0  0  0  0  0  0  0  0  0  0  0
   -1.9298   -7.5103    0.0000 C   0  0  0  0  0  0  0  0  0  0  0  0
   -1.4392   -6.0928    0.0000 C   0  0  0  0  0  0  0  0  0  0  0  0
  1  2  1  0
  2  3  1  0
  3  4  1  0
  4  5  1  0
  5  6  1  0
  6  7  1  0
  7  8  1  0
  8  9  2  0
  8 10  1  0
 10 11  2  0
 11 12  1  0
 12 13  2  0
 13 14  1  0
 14 15  2  0
  6 16  1  0
 16 17  2  0
 17 18  1  0
 18 19  2  0
 19 20  1  0
 20 21  2  0
 21 22  1  0
 22 23  2  0
 23 24  1  0
 24 25  2  0
 25 26  1  0
 26 27  2  0
 27 28  1  0
 28 29  2  0
 29 30  1  0
 30 31  2  0
 31 32  1  0
 32 33  2  0
 33  2  1  0
 15 10  1  0
 21 16  1  0
 27 22  1  0
 33 28  1  0
M  END
>  <Title>  (673) 
idAAXYgen8

$$$$

     RDKit          2D

 11 11  0  0  0  0  0  0  0  0999 V2000
    7.2760   -2.5981    0.0000 C   0  0  0  0  0  0  0  0  0  0  0  0
    5.7760   -2.5981    0.0000 C   0  0  0  0  0  0  0  0  0  0  0  0
    5.0260   -1.2990    0.0000 C   0  0  0  0  0  0  0  0  0  0  0  0
    3.5260   -1.2990    0.0000 C   0  0  0  0  0  0  0  0  0  0  0  0
    2.7760   -2.5981    0.0000 O   0  0  0  0  0  0  0  0  0  0  0  0
    2.7760    0.0000    0.0000 N   0  0  0  0  0  0  0  0  0  0  0  0
    1.2760    0.0000    0.0000 C   0  0  0  0  0  0  0  0  0  0  0  0
    0.3943    1.2135    0.0000 C   0  0  0  0  0  0  0  0  0  0  0  0
   -1.0323    0.7500    0.0000 C   0  0  0  0  0  0  0  0  0  0  0  0
   -1.0323   -0.7500    0.0000 C   0  0  0  0  0  0  0  0  0  0  0  0
    0.3943   -1.2135    0.0000 C   0  0  0  0  0  0  0  0  0  0  0  0
  1  2  1  0
  2  3  2  3
  3  4  1  0
  4  5  2  0
  4  6  1  0
  6  7  1  0
  7  8  2  0
  8  9  1  0
  9 10  1  0
 10 11  2  0
 11  7  1  0
M  END
>  <Title>  (674) 
idAAXZgen8

$$$$

     RDKit          2D

104104  0  0  0  0  0  0  0  0999 V2000
   25.8546    0.0000    0.0000 C   0  0  0  0  0  0  0  0  0  0  0  0
   24.3546    0.0000    0.0000 C   0  0  0  0  0  0  0  0  0  0  0  0
   24.3084   -1.4993    0.0000 C   0  0  0  0  0  0  0  0  0  0  0  0
   24.1700   -2.9929    0.0000 C   0  0  0  0  0  0  0  0  0  0  0  0
   23.9399   -4.4751    0.0000 C   0  0  0  0  0  0  0  0  0  0  0  0
   23.6190   -5.9404    0.0000 C   0  0  0  0  0  0  0  0  0  0  0  0
   23.2085   -7.3831    0.0000 C   0  0  0  0  0  0  0  0  0  0  0  0
   22.7099   -8.7979    0.0000 C   0  0  0  0  0  0  0  0  0  0  0  0
   22.1253  -10.1792    0.0000 C   0  0  0  0  0  0  0  0  0  0  0  0
   21.4567  -11.5220    0.0000 C   0  0  0  0  0  0  0  0  0  0  0  0
   20.7067  -12.8210    0.0000 C   0  0  0  0  0  0  0  0  0  0  0  0
   19.8781  -14.0714    0.0000 C   0  0  0  0  0  0  0  0  0  0  0  0
   18.9742  -15.2685    0.0000 C   0  0  0  0  0  0  0  0  0  0  0  0
   17.9982  -16.4076    0.0000 C   0  0  0  0  0  0  0  0  0  0  0  0
   16.9540  -17.4844    0.0000 C   0  0  0  0  0  0  0  0  0  0  0  0
   15.8455  -18.4950    0.0000 C   0  0  0  0  0  0  0  0  0  0  0  0
   14.6769  -19.4354    0.0000 C   0  0  0  0  0  0  0  0  0  0  0  0
   13.4526  -20.3020    0.0000 C   0  0  0  0  0  0  0  0  0  0  0  0
   12.1773  -21.0917    0.0000 C   0  0  0  0  0  0  0  0  0  0  0  0
   10.8558  -21.8013    0.0000 C   0  0  0  0  0  0  0  0  0  0  0  0
    9.4931  -22.4282    0.0000 C   0  0  0  0  0  0  0  0  0  0  0  0
    8.0944  -22.9701    0.0000 C   0  0  0  0  0  0  0  0  0  0  0  0
    6.6649  -23.4248    0.0000 C   0  0  0  0  0  0  0  0  0  0  0  0
    5.2102  -23.7907    0.0000 C   0  0  0  0  0  0  0  0  0  0  0  0
    3.7358  -24.0663    0.0000 C   0  0  0  0  0  0  0  0  0  0  0  0
    2.2472  -24.2507    0.0000 C   0  0  0  0  0  0  0  0  0  0  0  0
    0.7500  -24.3430    0.0000 C   0  0  0  0  0  0  0  0  0  0  0  0
   -0.7500  -24.3430    0.0000 C   0  0  0  0  0  0  0  0  0  0  0  0
   -2.2472  -24.2507    0.0000 C   0  0  0  0  0  0  0  0  0  0  0  0
   -3.7358  -24.0663    0.0000 C   0  0  0  0  0  0  0  0  0  0  0  0
   -5.2102  -23.7907    0.0000 C   0  0  0  0  0  0  0  0  0  0  0  0
   -6.6649  -23.4248    0.0000 C   0  0  0  0  0  0  0  0  0  0  0  0
   -8.0944  -22.9701    0.0000 C   0  0  0  0  0  0  0  0  0  0  0  0
   -9.4931  -22.4282    0.0000 C   0  0  0  0  0  0  0  0  0  0  0  0
  -10.8558  -21.8013    0.0000 C   0  0  0  0  0  0  0  0  0  0  0  0
  -12.1773  -21.0917    0.0000 C   0  0  0  0  0  0  0  0  0  0  0  0
  -13.4526  -20.3020    0.0000 C   0  0  0  0  0  0  0  0  0  0  0  0
  -14.6769  -19.4354    0.0000 C   0  0  0  0  0  0  0  0  0  0  0  0
  -15.8455  -18.4950    0.0000 C   0  0  0  0  0  0  0  0  0  0  0  0
  -16.9540  -17.4844    0.0000 C   0  0  0  0  0  0  0  0  0  0  0  0
  -17.9982  -16.4076    0.0000 C   0  0  0  0  0  0  0  0  0  0  0  0
  -18.9742  -15.2685    0.0000 C   0  0  0  0  0  0  0  0  0  0  0  0
  -19.8781  -14.0714    0.0000 C   0  0  0  0  0  0  0  0  0  0  0  0
  -20.7067  -12.8210    0.0000 C   0  0  0  0  0  0  0  0  0  0  0  0
  -21.4567  -11.5220    0.0000 C   0  0  0  0  0  0  0  0  0  0  0  0
  -22.1253  -10.1792    0.0000 C   0  0  0  0  0  0  0  0  0  0  0  0
  -22.7099   -8.7979    0.0000 C   0  0  0  0  0  0  0  0  0  0  0  0
  -23.2085   -7.3831    0.0000 C   0  0  0  0  0  0  0  0  0  0  0  0
  -23.6190   -5.9404    0.0000 C   0  0  0  0  0  0  0  0  0  0  0  0
  -23.9399   -4.4751    0.0000 C   0  0  0  0  0  0  0  0  0  0  0  0
  -24.1700   -2.9929    0.0000 C   0  0  0  0  0  0  0  0  0  0  0  0
  -24.3084   -1.4993    0.0000 C   0  0  0  0  0  0  0  0  0  0  0  0
  -24.3546    0.0000    0.0000 C   0  0  0  0  0  0  0  0  0  0  0  0
  -24.3084    1.4993    0.0000 C   0  0  0  0  0  0  0  0  0  0  0  0
  -24.1700    2.9929    0.0000 C   0  0  0  0  0  0  0  0  0  0  0  0
  -23.9399    4.4751    0.0000 C   0  0  0  0  0  0  0  0  0  0  0  0
  -23.6190    5.9404    0.0000 C   0  0  0  0  0  0  0  0  0  0  0  0
  -23.2085    7.3831    0.0000 C   0  0  0  0  0  0  0  0  0  0  0  0
  -22.7099    8.7979    0.0000 C   0  0  0  0  0  0  0  0  0  0  0  0
  -22.1253   10.1792    0.0000 C   0  0  0  0  0  0  0  0  0  0  0  0
  -21.4567   11.5220    0.0000 C   0  0  0  0  0  0  0  0  0  0  0  0
  -20.7067   12.8210    0.0000 C   0  0  0  0  0  0  0  0  0  0  0  0
  -19.8781   14.0714    0.0000 C   0  0  0  0  0  0  0  0  0  0  0  0
  -18.9742   15.2685    0.0000 C   0  0  0  0  0  0  0  0  0  0  0  0
  -17.9982   16.4076    0.0000 C   0  0  0  0  0  0  0  0  0  0  0  0
  -16.9540   17.4844    0.0000 C   0  0  0  0  0  0  0  0  0  0  0  0
  -15.8455   18.4950    0.0000 C   0  0  0  0  0  0  0  0  0  0  0  0
  -14.6769   19.4354    0.0000 C   0  0  0  0  0  0  0  0  0  0  0  0
  -13.4526   20.3020    0.0000 C   0  0  0  0  0  0  0  0  0  0  0  0
  -12.1773   21.0917    0.0000 C   0  0  0  0  0  0  0  0  0  0  0  0
  -10.8558   21.8013    0.0000 C   0  0  0  0  0  0  0  0  0  0  0  0
   -9.4931   22.4282    0.0000 C   0  0  0  0  0  0  0  0  0  0  0  0
   -8.0944   22.9701    0.0000 C   0  0  0  0  0  0  0  0  0  0  0  0
   -6.6649   23.4248    0.0000 C   0  0  0  0  0  0  0  0  0  0  0  0
   -5.2102   23.7907    0.0000 C   0  0  0  0  0  0  0  0  0  0  0  0
   -3.7358   24.0663    0.0000 C   0  0  0  0  0  0  0  0  0  0  0  0
   -2.2472   24.2507    0.0000 C   0  0  0  0  0  0  0  0  0  0  0  0
   -0.7500   24.3430    0.0000 C   0  0  0  0  0  0  0  0  0  0  0  0
    0.7500   24.3430    0.0000 C   0  0  0  0  0  0  0  0  0  0  0  0
    2.2472   24.2507    0.0000 C   0  0  0  0  0  0  0  0  0  0  0  0
    3.7358   24.0663    0.0000 C   0  0  0  0  0  0  0  0  0  0  0  0
    5.2102   23.7907    0.0000 C   0  0  0  0  0  0  0  0  0  0  0  0
    6.6649   23.4248    0.0000 C   0  0  0  0  0  0  0  0  0  0  0  0
    8.0944   22.9701    0.0000 C   0  0  0  0  0  0  0  0  0  0  0  0
    9.4931   22.4282    0.0000 C   0  0  0  0  0  0  0  0  0  0  0  0
   10.8558   21.8013    0.0000 C   0  0  0  0  0  0  0  0  0  0  0  0
   12.1773   21.0917    0.0000 C   0  0  0  0  0  0  0  0  0  0  0  0
   13.4526   20.3020    0.0000 C   0  0  0  0  0  0  0  0  0  0  0  0
   14.6769   19.4354    0.0000 C   0  0  0  0  0  0  0  0  0  0  0  0
   15.8455   18.4950    0.0000 C   0  0  0  0  0  0  0  0  0  0  0  0
   16.9540   17.4844    0.0000 C   0  0  0  0  0  0  0  0  0  0  0  0
   17.9982   16.4076    0.0000 C   0  0  0  0  0  0  0  0  0  0  0  0
   18.9742   15.2685    0.0000 C   0  0  0  0  0  0  0  0  0  0  0  0
   19.8781   14.0714    0.0000 C   0  0  0  0  0  0  0  0  0  0  0  0
   20.7067   12.8210    0.0000 C   0  0  0  0  0  0  0  0  0  0  0  0
   21.4567   11.5220    0.0000 C   0  0  0  0  0  0  0  0  0  0  0  0
   22.1253   10.1792    0.0000 C   0  0  0  0  0  0  0  0  0  0  0  0
   22.7099    8.7979    0.0000 C   0  0  0  0  0  0  0  0  0  0  0  0
   23.2085    7.3831    0.0000 C   0  0  0  0  0  0  0  0  0  0  0  0
   23.6190    5.9404    0.0000 C   0  0  0  0  0  0  0  0  0  0  0  0
   23.9399    4.4751    0.0000 C   0  0  0  0  0  0  0  0  0  0  0  0
   25.4143    4.7508    0.0000 C   0  0  0  0  0  0  0  0  0  0  0  0
   24.1700    2.9929    0.0000 C   0  0  0  0  0  0  0  0  0  0  0  0
   24.3084    1.4993    0.0000 C   0  0  0  0  0  0  0  0  0  0  0  0
  1  2  1  0
  2  3  1  0
  3  4  1  0
  4  5  1  0
  5  6  1  0
  6  7  1  0
  7  8  1  0
  8  9  1  0
  9 10  1  0
 10 11  1  0
 11 12  1  0
 12 13  1  0
 13 14  1  0
 14 15  1  0
 15 16  1  0
 16 17  1  0
 17 18  1  0
 18 19  1  0
 19 20  1  0
 20 21  1  0
 21 22  1  0
 22 23  1  0
 23 24  1  0
 24 25  1  0
 25 26  1  0
 26 27  1  0
 27 28  1  0
 28 29  1  0
 29 30  1  0
 30 31  1  0
 31 32  1  0
 32 33  1  0
 33 34  1  0
 34 35  1  0
 35 36  1  0
 36 37  1  0
 37 38  1  0
 38 39  1  0
 39 40  1  0
 40 41  1  0
 41 42  1  0
 42 43  1  0
 43 44  1  0
 44 45  1  0
 45 46  1  0
 46 47  1  0
 47 48  1  0
 48 49  1  0
 49 50  1  0
 50 51  1  0
 51 52  1  0
 52 53  1  0
 53 54  1  0
 54 55  1  0
 55 56  1  0
 56 57  1  0
 57 58  1  0
 58 59  1  0
 59 60  1  0
 60 61  1  0
 61 62  1  0
 62 63  1  0
 63 64  1  0
 64 65  1  0
 65 66  1  0
 66 67  1  0
 67 68  1  0
 68 69  1  0
 69 70  1  0
 70 71  1  0
 71 72  1  0
 72 73  1  0
 73 74  1  0
 74 75  1  0
 75 76  1  0
 76 77  1  0
 77 78  1  0
 78 79  1  0
 79 80  1  0
 80 81  1  0
 81 82  1  0
 82 83  1  0
 83 84  1  0
 84 85  1  0
 85 86  1  0
 86 87  1  0
 87 88  1  0
 88 89  1  0
 89 90  1  0
 90 91  1  0
 91 92  1  0
 92 93  1  0
 93 94  1  0
 94 95  1  0
 95 96  1  0
 96 97  1  0
 97 98  1  0
 98 99  1  0
 99100  1  0
100101  1  0
101102  1  0
101103  1  0
103104  1  0
104  2  1  0
M  END
>  <Title>  (675) 
idAAYAgen8

$$$$

     RDKit          2D

  7  7  0  0  0  0  0  0  0  0999 V2000
    4.2760   -0.0000    0.0000 C   0  0  0  0  0  0  0  0  0  0  0  0
    2.7760    0.0000    0.0000 C   0  0  0  0  0  0  0  0  0  0  0  0
    1.2760    0.0000    0.0000 C   0  0  0  0  0  0  0  0  0  0  0  0
    0.3943    1.2135    0.0000 C   0  0  0  0  0  0  0  0  0  0  0  0
   -1.0323    0.7500    0.0000 C   0  0  0  0  0  0  0  0  0  0  0  0
   -1.0323   -0.7500    0.0000 C   0  0  0  0  0  0  0  0  0  0  0  0
    0.3943   -1.2135    0.0000 C   0  0  0  0  0  0  0  0  0  0  0  0
  1  2  3  0
  2  3  1  0
  3  4  2  0
  4  5  1  0
  5  6  2  0
  6  7  1  0
  7  3  1  0
M  END
>  <Title>  (676) 
idAAYBgen8

$$$$

     RDKit          2D

  9  9  0  0  0  0  0  0  0  0999 V2000
    5.0260   -1.2990    0.0000 C   0  0  0  0  0  0  0  0  0  0  0  0
    3.5260   -1.2990    0.0000 C   0  0  0  0  0  0  0  0  0  0  0  0
    2.7760    0.0000    0.0000 C   0  0  0  0  0  0  0  0  0  0  0  0
    1.2760    0.0000    0.0000 C   0  0  0  0  0  0  0  0  0  0  0  0
    0.3943    1.2135    0.0000 C   0  0  0  0  0  0  0  0  0  0  0  0
   -1.0323    0.7500    0.0000 C   0  0  0  0  0  0  0  0  0  0  0  0
   -2.2458    1.6317    0.0000 O   0  0  0  0  0  0  0  0  0  0  0  0
   -1.0323   -0.7500    0.0000 C   0  0  0  0  0  0  0  0  0  0  0  0
    0.3943   -1.2135    0.0000 C   0  0  0  0  0  0  0  0  0  0  0  0
  1  2  1  0
  2  3  1  0
  3  4  1  0
  4  5  2  0
  5  6  1  0
  6  7  1  0
  6  8  1  0
  8  9  1  0
  9  4  1  0
M  END
>  <Title>  (677) 
idAAYCgen8

$$$$

     RDKit          2D

 52 59  0  0  0  0  0  0  0  0999 V2000
    4.4577   -9.2929    0.0000 C   0  0  0  0  0  0  0  0  0  0  0  0
    3.3086   -8.3287    0.0000 C   0  0  0  0  0  0  0  0  0  0  0  0
    4.0586   -7.0297    0.0000 C   0  0  0  0  0  0  0  0  0  0  0  0
    4.3191   -5.5525    0.0000 C   0  0  0  0  0  0  0  0  0  0  0  0
    4.0586   -4.0753    0.0000 C   0  0  0  0  0  0  0  0  0  0  0  0
    3.3086   -2.7762    0.0000 C   0  0  0  0  0  0  0  0  0  0  0  0
    2.1595   -1.8121    0.0000 C   0  0  0  0  0  0  0  0  0  0  0  0
    2.9095   -0.5130    0.0000 C   0  0  0  0  0  0  0  0  0  0  0  0
    2.1595    0.7860    0.0000 O   0  0  0  0  0  0  0  0  0  0  0  0
    4.4095   -0.5130    0.0000 N   0  0  0  0  0  0  0  0  0  0  0  0
    5.1595    0.7860    0.0000 C   0  0  0  0  0  0  0  0  0  0  0  0
    6.6595    0.7860    0.0000 N   0  0  0  0  0  0  0  0  0  0  0  0
    7.4095    2.0850    0.0000 N   0  0  0  0  0  0  0  0  0  0  0  0
    6.6595    3.3841    0.0000 N   0  0  0  0  0  0  0  0  0  0  0  0
    5.1595    3.3841    0.0000 N   0  0  0  0  0  0  0  0  0  0  0  0
    4.4095    2.0850    0.0000 N   0  0  0  0  0  0  0  0  0  0  0  0
    0.7500   -1.2990    0.0000 C   0  0  0  0  0  0  0  0  0  0  0  0
    1.5000    0.0000    0.0000 C   0  0  0  0  0  0  0  0  0  0  0  0
    0.7500    1.2990    0.0000 C   0  0  0  0  0  0  0  0  0  0  0  0
   -0.7500    1.2990    0.0000 C   0  0  0  0  0  0  0  0  0  0  0  0
   -1.5000    0.0000    0.0000 C   0  0  0  0  0  0  0  0  0  0  0  0
   -0.7500   -1.2990    0.0000 C   0  0  0  0  0  0  0  0  0  0  0  0
   -2.1595   -1.8121    0.0000 C   0  0  0  0  0  0  0  0  0  0  0  0
   -2.4200   -0.3349    0.0000 C   0  0  0  0  0  0  0  0  0  0  0  0
   -3.8296    0.1782    0.0000 C   0  0  0  0  0  0  0  0  0  0  0  0
   -4.9786   -0.7860    0.0000 C   0  0  0  0  0  0  0  0  0  0  0  0
   -4.7181   -2.2632    0.0000 C   0  0  0  0  0  0  0  0  0  0  0  0
   -3.3086   -2.7762    0.0000 C   0  0  0  0  0  0  0  0  0  0  0  0
   -4.0586   -4.0753    0.0000 C   0  0  0  0  0  0  0  0  0  0  0  0
   -5.2077   -3.1111    0.0000 C   0  0  0  0  0  0  0  0  0  0  0  0
   -6.6172   -3.6241    0.0000 C   0  0  0  0  0  0  0  0  0  0  0  0
   -6.8777   -5.1013    0.0000 C   0  0  0  0  0  0  0  0  0  0  0  0
   -5.7286   -6.0655    0.0000 C   0  0  0  0  0  0  0  0  0  0  0  0
   -4.3191   -5.5525    0.0000 C   0  0  0  0  0  0  0  0  0  0  0  0
   -4.0586   -7.0297    0.0000 C   0  0  0  0  0  0  0  0  0  0  0  0
   -5.5586   -7.0297    0.0000 C   0  0  0  0  0  0  0  0  0  0  0  0
   -6.3086   -8.3287    0.0000 C   0  0  0  0  0  0  0  0  0  0  0  0
   -5.5586   -9.6278    0.0000 C   0  0  0  0  0  0  0  0  0  0  0  0
   -4.0586   -9.6278    0.0000 C   0  0  0  0  0  0  0  0  0  0  0  0
   -3.3086   -8.3287    0.0000 C   0  0  0  0  0  0  0  0  0  0  0  0
   -2.1595   -9.2929    0.0000 C   0  0  0  0  0  0  0  0  0  0  0  0
   -3.3086  -10.2571    0.0000 C   0  0  0  0  0  0  0  0  0  0  0  0
   -3.0481  -11.7343    0.0000 C   0  0  0  0  0  0  0  0  0  0  0  0
   -1.6386  -12.2474    0.0000 C   0  0  0  0  0  0  0  0  0  0  0  0
   -0.4895  -11.2832    0.0000 C   0  0  0  0  0  0  0  0  0  0  0  0
   -0.7500   -9.8060    0.0000 C   0  0  0  0  0  0  0  0  0  0  0  0
    0.7500   -9.8060    0.0000 C   0  0  0  0  0  0  0  0  0  0  0  0
    0.4895  -11.2832    0.0000 C   0  0  0  0  0  0  0  0  0  0  0  0
    1.6386  -12.2474    0.0000 C   0  0  0  0  0  0  0  0  0  0  0  0
    3.0481  -11.7343    0.0000 C   0  0  0  0  0  0  0  0  0  0  0  0
    3.3086  -10.2571    0.0000 C   0  0  0  0  0  0  0  0  0  0  0  0
    2.1595   -9.2929    0.0000 C   0  0  0  0  0  0  0  0  0  0  0  0
  1  2  1  0
  2  3  1  0
  3  4  1  0
  4  5  1  0
  5  6  1  0
  6  7  1  0
  7  8  1  0
  8  9  2  0
  8 10  1  0
 10 11  1  0
 11 12  2  0
 12 13  1  0
 13 14  2  0
 14 15  1  0
 15 16  2  0
  7 17  1  0
 17 18  2  0
 18 19  1  0
 19 20  2  0
 20 21  1  0
 21 22  2  0
 22 23  1  0
 23 24  2  0
 24 25  1  0
 25 26  2  0
 26 27  1  0
 27 28  2  0
 28 29  1  0
 29 30  2  0
 30 31  1  0
 31 32  2  0
 32 33  1  0
 33 34  2  0
 34 35  1  0
 35 36  2  0
 36 37  1  0
 37 38  2  0
 38 39  1  0
 39 40  2  0
 40 41  1  0
 41 42  2  0
 42 43  1  0
 43 44  2  0
 44 45  1  0
 45 46  2  0
 46 47  1  0
 47 48  2  0
 48 49  1  0
 49 50  2  0
 50 51  1  0
 51 52  2  0
 52  2  1  0
 16 11  1  0
 22 17  1  0
 28 23  1  0
 34 29  1  0
 40 35  1  0
 46 41  1  0
 52 47  1  0
M  END
>  <Title>  (678) 
idAAYDgen8

$$$$

     RDKit          2D

 23 24  0  0  0  0  0  0  0  0999 V2000
    3.2286   -0.0000    0.0000 C   0  0  0  0  0  0  0  0  0  0  0  0
    1.7286    0.0000    0.0000 C   0  0  0  0  0  0  0  0  0  0  0  0
    1.0777    1.3515    0.0000 C   0  0  0  0  0  0  0  0  0  0  0  0
   -0.3846    1.6852    0.0000 C   0  0  0  0  0  0  0  0  0  0  0  0
   -0.7184    3.1476    0.0000 O   0  0  0  0  0  0  0  0  0  0  0  0
   -1.5574    0.7500    0.0000 C   0  0  0  0  0  0  0  0  0  0  0  0
   -1.5574   -0.7500    0.0000 C   0  0  0  0  0  0  0  0  0  0  0  0
   -2.9088   -1.4008    0.0000 O   0  0  0  0  0  0  0  0  0  0  0  0
   -0.3846   -1.6852    0.0000 C   0  0  0  0  0  0  0  0  0  0  0  0
    1.0777   -1.3515    0.0000 C   0  0  0  0  0  0  0  0  0  0  0  0
    2.0130   -2.5242    0.0000 C   0  0  0  0  0  0  0  0  0  0  0  0
    1.4650   -3.9205    0.0000 C   0  0  0  0  0  0  0  0  0  0  0  0
    2.4002   -5.0933    0.0000 C   0  0  0  0  0  0  0  0  0  0  0  0
    3.8835   -4.8697    0.0000 O   0  0  0  0  0  0  0  0  0  0  0  0
    1.8522   -6.4896    0.0000 N   0  0  0  0  0  0  0  0  0  0  0  0
    2.7874   -7.6623    0.0000 C   0  0  0  0  0  0  0  0  0  0  0  0
    2.2394   -9.0586    0.0000 N   0  0  0  0  0  0  0  0  0  0  0  0
    3.1747  -10.2314    0.0000 N   0  0  0  0  0  0  0  0  0  0  0  0
    4.6579  -10.0078    0.0000 C   0  0  0  0  0  0  0  0  0  0  0  0
    5.5931  -11.1806    0.0000 O   0  0  0  0  0  0  0  0  0  0  0  0
    5.2059   -8.6115    0.0000 C   0  0  0  0  0  0  0  0  0  0  0  0
    4.2707   -7.4388    0.0000 C   0  0  0  0  0  0  0  0  0  0  0  0
    4.8187   -6.0424    0.0000 O   0  0  0  0  0  0  0  0  0  0  0  0
  1  2  1  0
  2  3  2  0
  3  4  1  0
  4  5  1  0
  4  6  1  0
  6  7  1  0
  7  8  1  0
  7  9  1  0
  9 10  1  0
 10 11  1  0
 11 12  1  0
 12 13  1  0
 13 14  2  0
 13 15  1  0
 15 16  1  0
 16 17  2  0
 17 18  1  0
 18 19  2  0
 19 20  1  0
 19 21  1  0
 21 22  2  0
 22 23  1  0
 10  2  1  0
 22 16  1  0
M  END
>  <Title>  (679) 
idAAYEgen8

$$$$

     RDKit          2D

 63 72  0  0  0  0  0  0  0  0999 V2000
    7.0852   -1.2672    0.0000 C   0  0  0  0  0  0  0  0  0  0  0  0
    5.7115   -1.8697    0.0000 C   0  0  0  0  0  0  0  0  0  0  0  0
    5.5465   -3.3606    0.0000 C   0  0  0  0  0  0  0  0  0  0  0  0
    4.1729   -3.9632    0.0000 C   0  0  0  0  0  0  0  0  0  0  0  0
    3.3524   -2.7074    0.0000 C   0  0  0  0  0  0  0  0  0  0  0  0
    2.1687   -1.7861    0.0000 C   0  0  0  0  0  0  0  0  0  0  0  0
    2.8826   -0.4669    0.0000 C   0  0  0  0  0  0  0  0  0  0  0  0
    2.0971    0.8110    0.0000 O   0  0  0  0  0  0  0  0  0  0  0  0
    4.3821   -0.4255    0.0000 N   0  0  0  0  0  0  0  0  0  0  0  0
    5.0960    0.8937    0.0000 C   0  0  0  0  0  0  0  0  0  0  0  0
    6.5954    0.9350    0.0000 N   0  0  0  0  0  0  0  0  0  0  0  0
    7.3094    2.2542    0.0000 N   0  0  0  0  0  0  0  0  0  0  0  0
    6.5238    3.5321    0.0000 N   0  0  0  0  0  0  0  0  0  0  0  0
    5.0244    3.4908    0.0000 N   0  0  0  0  0  0  0  0  0  0  0  0
    4.3105    2.1715    0.0000 N   0  0  0  0  0  0  0  0  0  0  0  0
    0.7500   -1.2990    0.0000 C   0  0  0  0  0  0  0  0  0  0  0  0
    1.5000    0.0000    0.0000 C   0  0  0  0  0  0  0  0  0  0  0  0
    0.7500    1.2990    0.0000 C   0  0  0  0  0  0  0  0  0  0  0  0
   -0.7500    1.2990    0.0000 C   0  0  0  0  0  0  0  0  0  0  0  0
   -1.5000    0.0000    0.0000 C   0  0  0  0  0  0  0  0  0  0  0  0
   -0.7500   -1.2990    0.0000 C   0  0  0  0  0  0  0  0  0  0  0  0
   -2.1687   -1.7861    0.0000 C   0  0  0  0  0  0  0  0  0  0  0  0
   -2.3748   -0.3003    0.0000 C   0  0  0  0  0  0  0  0  0  0  0  0
   -3.7645    0.2642    0.0000 C   0  0  0  0  0  0  0  0  0  0  0  0
   -4.9482   -0.6572    0.0000 C   0  0  0  0  0  0  0  0  0  0  0  0
   -4.7422   -2.1429    0.0000 C   0  0  0  0  0  0  0  0  0  0  0  0
   -3.3524   -2.7074    0.0000 C   0  0  0  0  0  0  0  0  0  0  0  0
   -4.1729   -3.9632    0.0000 C   0  0  0  0  0  0  0  0  0  0  0  0
   -5.2480   -2.9172    0.0000 C   0  0  0  0  0  0  0  0  0  0  0  0
   -6.6914   -3.3254    0.0000 C   0  0  0  0  0  0  0  0  0  0  0  0
   -7.0597   -4.7795    0.0000 C   0  0  0  0  0  0  0  0  0  0  0  0
   -5.9845   -5.8254    0.0000 C   0  0  0  0  0  0  0  0  0  0  0  0
   -4.5411   -5.4173    0.0000 C   0  0  0  0  0  0  0  0  0  0  0  0
   -4.4172   -6.9121    0.0000 C   0  0  0  0  0  0  0  0  0  0  0  0
   -5.9081   -6.7471    0.0000 C   0  0  0  0  0  0  0  0  0  0  0  0
   -6.7965   -7.9558    0.0000 C   0  0  0  0  0  0  0  0  0  0  0  0
   -6.1939   -9.3294    0.0000 C   0  0  0  0  0  0  0  0  0  0  0  0
   -4.7030   -9.4944    0.0000 C   0  0  0  0  0  0  0  0  0  0  0  0
   -3.8147   -8.2858    0.0000 C   0  0  0  0  0  0  0  0  0  0  0  0
   -2.7988   -9.3894    0.0000 C   0  0  0  0  0  0  0  0  0  0  0  0
   -4.0766  -10.1749    0.0000 C   0  0  0  0  0  0  0  0  0  0  0  0
   -4.0353  -11.6743    0.0000 C   0  0  0  0  0  0  0  0  0  0  0  0
   -2.7161  -12.3882    0.0000 C   0  0  0  0  0  0  0  0  0  0  0  0
   -1.4382  -11.6027    0.0000 C   0  0  0  0  0  0  0  0  0  0  0  0
   -1.4795  -10.1033    0.0000 C   0  0  0  0  0  0  0  0  0  0  0  0
   -0.0000  -10.3502    0.0000 C   0  0  0  0  0  0  0  0  0  0  0  0
   -0.5260  -11.7550    0.0000 C   0  0  0  0  0  0  0  0  0  0  0  0
    0.4276  -12.9128    0.0000 C   0  0  0  0  0  0  0  0  0  0  0  0
    1.9072  -12.6659    0.0000 C   0  0  0  0  0  0  0  0  0  0  0  0
    2.4331  -11.2612    0.0000 C   0  0  0  0  0  0  0  0  0  0  0  0
    1.4795  -10.1033    0.0000 C   0  0  0  0  0  0  0  0  0  0  0  0
    2.7988   -9.3894    0.0000 C   0  0  0  0  0  0  0  0  0  0  0  0
    3.2465  -10.8210    0.0000 C   0  0  0  0  0  0  0  0  0  0  0  0
    4.7102  -11.1490    0.0000 C   0  0  0  0  0  0  0  0  0  0  0  0
    5.7261  -10.0454    0.0000 C   0  0  0  0  0  0  0  0  0  0  0  0
    5.2784   -8.6138    0.0000 C   0  0  0  0  0  0  0  0  0  0  0  0
    3.8147   -8.2858    0.0000 C   0  0  0  0  0  0  0  0  0  0  0  0
    4.4172   -6.9121    0.0000 C   0  0  0  0  0  0  0  0  0  0  0  0
    5.6499   -7.7668    0.0000 C   0  0  0  0  0  0  0  0  0  0  0  0
    7.0064   -7.1267    0.0000 C   0  0  0  0  0  0  0  0  0  0  0  0
    7.1303   -5.6318    0.0000 C   0  0  0  0  0  0  0  0  0  0  0  0
    5.8976   -4.7771    0.0000 C   0  0  0  0  0  0  0  0  0  0  0  0
    4.5411   -5.4173    0.0000 C   0  0  0  0  0  0  0  0  0  0  0  0
  1  2  1  0
  2  3  1  0
  3  4  1  0
  4  5  2  0
  5  6  1  0
  6  7  1  0
  7  8  2  0
  7  9  1  0
  9 10  1  0
 10 11  2  0
 11 12  1  0
 12 13  2  0
 13 14  1  0
 14 15  2  0
  6 16  1  0
 16 17  2  0
 17 18  1  0
 18 19  2  0
 19 20  1  0
 20 21  2  0
 21 22  1  0
 22 23  2  0
 23 24  1  0
 24 25  2  0
 25 26  1  0
 26 27  2  0
 27 28  1  0
 28 29  2  0
 29 30  1  0
 30 31  2  0
 31 32  1  0
 32 33  2  0
 33 34  1  0
 34 35  2  0
 35 36  1  0
 36 37  2  0
 37 38  1  0
 38 39  2  0
 39 40  1  0
 40 41  2  0
 41 42  1  0
 42 43  2  0
 43 44  1  0
 44 45  2  0
 45 46  1  0
 46 47  2  0
 47 48  1  0
 48 49  2  0
 49 50  1  0
 50 51  2  0
 51 52  1  0
 52 53  2  0
 53 54  1  0
 54 55  2  0
 55 56  1  0
 56 57  2  0
 57 58  1  0
 58 59  2  0
 59 60  1  0
 60 61  2  0
 61 62  1  0
 62 63  2  0
 63  4  1  0
 15 10  1  0
 21 16  1  0
 27 22  1  0
 33 28  1  0
 39 34  1  0
 45 40  1  0
 51 46  1  0
 57 52  1  0
 63 58  1  0
M  END
>  <Title>  (680) 
idAAYFgen8

$$$$

     RDKit          2D

 12 12  0  0  0  0  0  0  0  0999 V2000
    5.0260   -2.7990    0.0000 C   0  0  0  0  0  0  0  0  0  0  0  0
    5.0260   -1.2990    0.0000 C   0  0  0  0  0  0  0  0  0  0  0  0
    5.0260    0.2010    0.0000 C   0  0  0  0  0  0  0  0  0  0  0  0
    6.5260   -1.2990    0.0000 C   0  0  0  0  0  0  0  0  0  0  0  0
    3.5260   -1.2990    0.0000 C   0  0  0  0  0  0  0  0  0  0  0  0
    2.7760   -2.5981    0.0000 O   0  0  0  0  0  0  0  0  0  0  0  0
    2.7760    0.0000    0.0000 N   0  0  0  0  0  0  0  0  0  0  0  0
    1.2760    0.0000    0.0000 C   0  0  0  0  0  0  0  0  0  0  0  0
    0.3943    1.2135    0.0000 N   0  0  0  0  0  0  0  0  0  0  0  0
   -1.0323    0.7500    0.0000 N   0  0  0  0  0  0  0  0  0  0  0  0
   -1.0323   -0.7500    0.0000 C   0  0  0  0  0  0  0  0  0  0  0  0
    0.3943   -1.2135    0.0000 C   0  0  0  0  0  0  0  0  0  0  0  0
  1  2  1  0
  2  3  1  0
  2  4  1  0
  2  5  1  0
  5  6  2  0
  5  7  1  0
  7  8  1  0
  8  9  2  0
  9 10  1  0
 10 11  2  0
 11 12  1  0
 12  8  1  0
M  END
>  <Title>  (681) 
idAAYGgen8

$$$$

     RDKit          2D

  8  8  0  0  0  0  0  0  0  0999 V2000
    4.2760   -0.0000    0.0000 C   0  0  0  0  0  0  0  0  0  0  0  0
    2.7760    0.0000    0.0000 C   0  0  0  0  0  0  0  0  0  0  0  0
    1.2760    0.0000    0.0000 C   0  0  0  0  0  0  0  0  0  0  0  0
    0.3943    1.2135    0.0000 C   0  0  0  0  0  0  0  0  0  0  0  0
   -1.0323    0.7500    0.0000 C   0  0  0  0  0  0  0  0  0  0  0  0
   -1.0323   -0.7500    0.0000 C   0  0  0  0  0  0  0  0  0  0  0  0
   -2.2458   -1.6317    0.0000 O   0  0  0  0  0  0  0  0  0  0  0  0
    0.3943   -1.2135    0.0000 C   0  0  0  0  0  0  0  0  0  0  0  0
  1  2  3  0
  2  3  1  0
  3  4  2  0
  4  5  1  0
  5  6  1  0
  6  7  1  0
  6  8  2  0
  8  3  1  0
M  END
>  <Title>  (682) 
idAAYHgen8

$$$$

     RDKit          2D

 92 92  0  0  0  0  0  0  0  0999 V2000
   22.7516    0.0000    0.0000 C   0  0  0  0  0  0  0  0  0  0  0  0
   21.2516    0.0000    0.0000 C   0  0  0  0  0  0  0  0  0  0  0  0
   21.1987    1.4991    0.0000 C   0  0  0  0  0  0  0  0  0  0  0  0
   21.0401    2.9907    0.0000 C   0  0  0  0  0  0  0  0  0  0  0  0
   20.7767    4.4674    0.0000 C   0  0  0  0  0  0  0  0  0  0  0  0
   20.4099    5.9218    0.0000 C   0  0  0  0  0  0  0  0  0  0  0  0
   19.9413    7.3467    0.0000 C   0  0  0  0  0  0  0  0  0  0  0  0
   19.3734    8.7351    0.0000 C   0  0  0  0  0  0  0  0  0  0  0  0
   18.7090   10.0799    0.0000 C   0  0  0  0  0  0  0  0  0  0  0  0
   17.9514   11.3745    0.0000 C   0  0  0  0  0  0  0  0  0  0  0  0
   17.1043   12.6124    0.0000 C   0  0  0  0  0  0  0  0  0  0  0  0
   16.1720   13.7875    0.0000 C   0  0  0  0  0  0  0  0  0  0  0  0
   15.1592   14.8940    0.0000 C   0  0  0  0  0  0  0  0  0  0  0  0
   14.0708   15.9262    0.0000 C   0  0  0  0  0  0  0  0  0  0  0  0
   12.9123   16.8790    0.0000 C   0  0  0  0  0  0  0  0  0  0  0  0
   11.6895   17.7478    0.0000 C   0  0  0  0  0  0  0  0  0  0  0  0
   10.4085   18.5282    0.0000 C   0  0  0  0  0  0  0  0  0  0  0  0
    9.0756   19.2162    0.0000 C   0  0  0  0  0  0  0  0  0  0  0  0
    7.6975   19.8085    0.0000 C   0  0  0  0  0  0  0  0  0  0  0  0
    6.2811   20.3022    0.0000 C   0  0  0  0  0  0  0  0  0  0  0  0
    4.8333   20.6947    0.0000 C   0  0  0  0  0  0  0  0  0  0  0  0
    3.3615   20.9841    0.0000 C   0  0  0  0  0  0  0  0  0  0  0  0
    1.8730   21.1689    0.0000 C   0  0  0  0  0  0  0  0  0  0  0  0
    0.3751   21.2483    0.0000 C   0  0  0  0  0  0  0  0  0  0  0  0
   -1.1247   21.2218    0.0000 C   0  0  0  0  0  0  0  0  0  0  0  0
   -2.6189   21.0896    0.0000 C   0  0  0  0  0  0  0  0  0  0  0  0
   -4.1000   20.8524    0.0000 C   0  0  0  0  0  0  0  0  0  0  0  0
   -5.5607   20.5112    0.0000 C   0  0  0  0  0  0  0  0  0  0  0  0
   -6.9937   20.0679    0.0000 C   0  0  0  0  0  0  0  0  0  0  0  0
   -8.3918   19.5245    0.0000 C   0  0  0  0  0  0  0  0  0  0  0  0
   -9.7481   18.8840    0.0000 C   0  0  0  0  0  0  0  0  0  0  0  0
  -11.0559   18.1493    0.0000 C   0  0  0  0  0  0  0  0  0  0  0  0
  -12.3086   17.3242    0.0000 C   0  0  0  0  0  0  0  0  0  0  0  0
  -13.5000   16.4128    0.0000 C   0  0  0  0  0  0  0  0  0  0  0  0
  -14.6241   15.4197    0.0000 C   0  0  0  0  0  0  0  0  0  0  0  0
  -15.6754   14.3497    0.0000 C   0  0  0  0  0  0  0  0  0  0  0  0
  -16.6485   13.2082    0.0000 C   0  0  0  0  0  0  0  0  0  0  0  0
  -17.5387   12.0009    0.0000 C   0  0  0  0  0  0  0  0  0  0  0  0
  -18.3416   10.7339    0.0000 C   0  0  0  0  0  0  0  0  0  0  0  0
  -19.0531    9.4134    0.0000 C   0  0  0  0  0  0  0  0  0  0  0  0
  -19.6696    8.0459    0.0000 N   0  0  0  0  0  0  0  0  0  0  0  0
  -20.1882    6.6384    0.0000 C   0  0  0  0  0  0  0  0  0  0  0  0
  -20.6061    5.1978    0.0000 C   0  0  0  0  0  0  0  0  0  0  0  0
  -20.9215    3.7313    0.0000 C   0  0  0  0  0  0  0  0  0  0  0  0
  -21.1326    2.2463    0.0000 C   0  0  0  0  0  0  0  0  0  0  0  0
  -21.2384    0.7500    0.0000 C   0  0  0  0  0  0  0  0  0  0  0  0
  -21.2384   -0.7500    0.0000 C   0  0  0  0  0  0  0  0  0  0  0  0
  -21.1326   -2.2463    0.0000 C   0  0  0  0  0  0  0  0  0  0  0  0
  -20.9215   -3.7313    0.0000 C   0  0  0  0  0  0  0  0  0  0  0  0
  -20.6061   -5.1978    0.0000 C   0  0  0  0  0  0  0  0  0  0  0  0
  -20.1882   -6.6384    0.0000 C   0  0  0  0  0  0  0  0  0  0  0  0
  -19.6696   -8.0459    0.0000 C   0  0  0  0  0  0  0  0  0  0  0  0
  -19.0531   -9.4134    0.0000 C   0  0  0  0  0  0  0  0  0  0  0  0
  -18.3416  -10.7339    0.0000 C   0  0  0  0  0  0  0  0  0  0  0  0
  -17.5387  -12.0009    0.0000 C   0  0  0  0  0  0  0  0  0  0  0  0
  -16.6485  -13.2082    0.0000 C   0  0  0  0  0  0  0  0  0  0  0  0
  -15.6754  -14.3497    0.0000 C   0  0  0  0  0  0  0  0  0  0  0  0
  -14.6241  -15.4197    0.0000 C   0  0  0  0  0  0  0  0  0  0  0  0
  -13.5000  -16.4128    0.0000 C   0  0  0  0  0  0  0  0  0  0  0  0
  -12.3086  -17.3242    0.0000 C   0  0  0  0  0  0  0  0  0  0  0  0
  -11.0559  -18.1493    0.0000 C   0  0  0  0  0  0  0  0  0  0  0  0
   -9.7481  -18.8840    0.0000 C   0  0  0  0  0  0  0  0  0  0  0  0
   -8.3918  -19.5245    0.0000 C   0  0  0  0  0  0  0  0  0  0  0  0
   -6.9937  -20.0679    0.0000 C   0  0  0  0  0  0  0  0  0  0  0  0
   -5.5607  -20.5112    0.0000 C   0  0  0  0  0  0  0  0  0  0  0  0
   -4.1000  -20.8524    0.0000 C   0  0  0  0  0  0  0  0  0  0  0  0
   -2.6189  -21.0896    0.0000 C   0  0  0  0  0  0  0  0  0  0  0  0
   -1.1247  -21.2218    0.0000 C   0  0  0  0  0  0  0  0  0  0  0  0
    0.3751  -21.2483    0.0000 C   0  0  0  0  0  0  0  0  0  0  0  0
    1.8730  -21.1689    0.0000 C   0  0  0  0  0  0  0  0  0  0  0  0
    3.3615  -20.9841    0.0000 C   0  0  0  0  0  0  0  0  0  0  0  0
    4.8333  -20.6947    0.0000 C   0  0  0  0  0  0  0  0  0  0  0  0
    6.2811  -20.3022    0.0000 C   0  0  0  0  0  0  0  0  0  0  0  0
    7.6975  -19.8085    0.0000 C   0  0  0  0  0  0  0  0  0  0  0  0
    9.0756  -19.2162    0.0000 C   0  0  0  0  0  0  0  0  0  0  0  0
   10.4085  -18.5282    0.0000 C   0  0  0  0  0  0  0  0  0  0  0  0
   11.6895  -17.7478    0.0000 C   0  0  0  0  0  0  0  0  0  0  0  0
   12.9123  -16.8790    0.0000 C   0  0  0  0  0  0  0  0  0  0  0  0
   14.0708  -15.9262    0.0000 C   0  0  0  0  0  0  0  0  0  0  0  0
   15.1592  -14.8940    0.0000 C   0  0  0  0  0  0  0  0  0  0  0  0
   16.1720  -13.7875    0.0000 C   0  0  0  0  0  0  0  0  0  0  0  0
   17.1043  -12.6124    0.0000 C   0  0  0  0  0  0  0  0  0  0  0  0
   17.9514  -11.3745    0.0000 C   0  0  0  0  0  0  0  0  0  0  0  0
   18.7090  -10.0799    0.0000 C   0  0  0  0  0  0  0  0  0  0  0  0
   19.3734   -8.7351    0.0000 C   0  0  0  0  0  0  0  0  0  0  0  0
   19.9413   -7.3467    0.0000 C   0  0  0  0  0  0  0  0  0  0  0  0
   20.4099   -5.9218    0.0000 C   0  0  0  0  0  0  0  0  0  0  0  0
   20.7767   -4.4674    0.0000 C   0  0  0  0  0  0  0  0  0  0  0  0
   22.2432   -4.7827    0.0000 C   0  0  0  0  0  0  0  0  0  0  0  0
   21.0401   -2.9907    0.0000 C   0  0  0  0  0  0  0  0  0  0  0  0
   22.5252   -3.2018    0.0000 O   0  0  0  0  0  0  0  0  0  0  0  0
   21.1987   -1.4991    0.0000 N   0  0  0  0  0  0  0  0  0  0  0  0
  1  2  1  0
  2  3  1  0
  3  4  1  0
  4  5  1  0
  5  6  1  0
  6  7  1  0
  7  8  1  0
  8  9  1  0
  9 10  1  0
 10 11  1  0
 11 12  1  0
 12 13  1  0
 13 14  1  0
 14 15  1  0
 15 16  1  0
 16 17  1  0
 17 18  1  0
 18 19  1  0
 19 20  1  0
 20 21  1  0
 21 22  1  0
 22 23  1  0
 23 24  1  0
 24 25  1  0
 25 26  1  0
 26 27  1  0
 27 28  1  0
 28 29  1  0
 29 30  1  0
 30 31  1  0
 31 32  1  0
 32 33  1  0
 33 34  1  0
 34 35  1  0
 35 36  1  0
 36 37  1  0
 37 38  1  0
 38 39  1  0
 39 40  1  0
 40 41  1  0
 41 42  1  0
 42 43  1  0
 43 44  1  0
 44 45  1  0
 45 46  1  0
 46 47  1  0
 47 48  1  0
 48 49  1  0
 49 50  1  0
 50 51  1  0
 51 52  1  0
 52 53  1  0
 53 54  1  0
 54 55  1  0
 55 56  1  0
 56 57  1  0
 57 58  1  0
 58 59  1  0
 59 60  1  0
 60 61  1  0
 61 62  1  0
 62 63  1  0
 63 64  1  0
 64 65  1  0
 65 66  1  0
 66 67  1  0
 67 68  1  0
 68 69  1  0
 69 70  1  0
 70 71  1  0
 71 72  1  0
 72 73  1  0
 73 74  1  0
 74 75  1  0
 75 76  1  0
 76 77  1  0
 77 78  1  0
 78 79  1  0
 79 80  1  0
 80 81  1  0
 81 82  1  0
 82 83  1  0
 83 84  1  0
 84 85  1  0
 85 86  1  0
 86 87  1  0
 87 88  1  0
 88 89  1  0
 88 90  1  0
 90 91  2  0
 90 92  1  0
 92  2  1  0
M  END
>  <Title>  (683) 
idAAYIgen8

$$$$

     RDKit          2D

114114  0  0  0  0  0  0  0  0999 V2000
   28.4802    0.0000    0.0000 C   0  0  0  0  0  0  0  0  0  0  0  0
   26.9802    0.0000    0.0000 C   0  0  0  0  0  0  0  0  0  0  0  0
   26.9385    1.4994    0.0000 C   0  0  0  0  0  0  0  0  0  0  0  0
   26.8136    2.9942    0.0000 C   0  0  0  0  0  0  0  0  0  0  0  0
   26.6057    4.4797    0.0000 C   0  0  0  0  0  0  0  0  0  0  0  0
   26.3157    5.9514    0.0000 C   0  0  0  0  0  0  0  0  0  0  0  0
   25.9442    7.4047    0.0000 C   0  0  0  0  0  0  0  0  0  0  0  0
   25.4926    8.8351    0.0000 C   0  0  0  0  0  0  0  0  0  0  0  0
   24.9622   10.2382    0.0000 C   0  0  0  0  0  0  0  0  0  0  0  0
   24.3547   11.6096    0.0000 C   0  0  0  0  0  0  0  0  0  0  0  0
   23.6718   12.9452    0.0000 C   0  0  0  0  0  0  0  0  0  0  0  0
   22.9158   14.2408    0.0000 C   0  0  0  0  0  0  0  0  0  0  0  0
   22.0890   15.4923    0.0000 C   0  0  0  0  0  0  0  0  0  0  0  0
   21.1938   16.6959    0.0000 C   0  0  0  0  0  0  0  0  0  0  0  0
   20.2332   17.8480    0.0000 C   0  0  0  0  0  0  0  0  0  0  0  0
   19.2100   18.9449    0.0000 C   0  0  0  0  0  0  0  0  0  0  0  0
   18.1275   19.9832    0.0000 C   0  0  0  0  0  0  0  0  0  0  0  0
   16.9889   20.9597    0.0000 C   0  0  0  0  0  0  0  0  0  0  0  0
   15.7978   21.8715    0.0000 C   0  0  0  0  0  0  0  0  0  0  0  0
   14.5579   22.7156    0.0000 C   0  0  0  0  0  0  0  0  0  0  0  0
   13.2730   23.4896    0.0000 C   0  0  0  0  0  0  0  0  0  0  0  0
   11.9471   24.1909    0.0000 C   0  0  0  0  0  0  0  0  0  0  0  0
   10.5842   24.8175    0.0000 C   0  0  0  0  0  0  0  0  0  0  0  0
    9.1886   25.3674    0.0000 C   0  0  0  0  0  0  0  0  0  0  0  0
    7.7646   25.8388    0.0000 C   0  0  0  0  0  0  0  0  0  0  0  0
    6.3166   26.2304    0.0000 C   0  0  0  0  0  0  0  0  0  0  0  0
    4.8491   26.5409    0.0000 C   0  0  0  0  0  0  0  0  0  0  0  0
    3.3666   26.7694    0.0000 C   0  0  0  0  0  0  0  0  0  0  0  0
    1.8737   26.9151    0.0000 C   0  0  0  0  0  0  0  0  0  0  0  0
    0.3750   26.9776    0.0000 C   0  0  0  0  0  0  0  0  0  0  0  0
   -1.1248   26.9568    0.0000 C   0  0  0  0  0  0  0  0  0  0  0  0
   -2.6212   26.8526    0.0000 C   0  0  0  0  0  0  0  0  0  0  0  0
   -4.1095   26.6654    0.0000 C   0  0  0  0  0  0  0  0  0  0  0  0
   -5.5850   26.3958    0.0000 C   0  0  0  0  0  0  0  0  0  0  0  0
   -7.0434   26.0447    0.0000 C   0  0  0  0  0  0  0  0  0  0  0  0
   -8.4799   25.6130    0.0000 C   0  0  0  0  0  0  0  0  0  0  0  0
   -9.8902   25.1021    0.0000 C   0  0  0  0  0  0  0  0  0  0  0  0
  -11.2700   24.5137    0.0000 C   0  0  0  0  0  0  0  0  0  0  0  0
  -12.6149   23.8495    0.0000 C   0  0  0  0  0  0  0  0  0  0  0  0
  -13.9208   23.1115    0.0000 C   0  0  0  0  0  0  0  0  0  0  0  0
  -15.1837   22.3022    0.0000 C   0  0  0  0  0  0  0  0  0  0  0  0
  -16.3997   21.4239    0.0000 C   0  0  0  0  0  0  0  0  0  0  0  0
  -17.5650   20.4794    0.0000 C   0  0  0  0  0  0  0  0  0  0  0  0
  -18.6760   19.4715    0.0000 C   0  0  0  0  0  0  0  0  0  0  0  0
  -19.7293   18.4035    0.0000 C   0  0  0  0  0  0  0  0  0  0  0  0
  -20.7215   17.2786    0.0000 C   0  0  0  0  0  0  0  0  0  0  0  0
  -21.6498   16.1003    0.0000 C   0  0  0  0  0  0  0  0  0  0  0  0
  -22.5111   14.8723    0.0000 C   0  0  0  0  0  0  0  0  0  0  0  0
  -23.3028   13.5982    0.0000 C   0  0  0  0  0  0  0  0  0  0  0  0
  -24.0225   12.2822    0.0000 C   0  0  0  0  0  0  0  0  0  0  0  0
  -24.6680   10.9281    0.0000 C   0  0  0  0  0  0  0  0  0  0  0  0
  -25.2372    9.5403    0.0000 C   0  0  0  0  0  0  0  0  0  0  0  0
  -25.7284    8.1230    0.0000 C   0  0  0  0  0  0  0  0  0  0  0  0
  -26.1401    6.6806    0.0000 C   0  0  0  0  0  0  0  0  0  0  0  0
  -26.4709    5.2176    0.0000 C   0  0  0  0  0  0  0  0  0  0  0  0
  -26.7200    3.7384    0.0000 C   0  0  0  0  0  0  0  0  0  0  0  0
  -26.8864    2.2477    0.0000 C   0  0  0  0  0  0  0  0  0  0  0  0
  -26.9698    0.7500    0.0000 C   0  0  0  0  0  0  0  0  0  0  0  0
  -26.9698   -0.7500    0.0000 C   0  0  0  0  0  0  0  0  0  0  0  0
  -26.8864   -2.2477    0.0000 C   0  0  0  0  0  0  0  0  0  0  0  0
  -26.7200   -3.7384    0.0000 C   0  0  0  0  0  0  0  0  0  0  0  0
  -26.4709   -5.2176    0.0000 C   0  0  0  0  0  0  0  0  0  0  0  0
  -26.1401   -6.6806    0.0000 C   0  0  0  0  0  0  0  0  0  0  0  0
  -25.7284   -8.1230    0.0000 C   0  0  0  0  0  0  0  0  0  0  0  0
  -25.2372   -9.5403    0.0000 C   0  0  0  0  0  0  0  0  0  0  0  0
  -24.6680  -10.9281    0.0000 C   0  0  0  0  0  0  0  0  0  0  0  0
  -24.0225  -12.2822    0.0000 C   0  0  0  0  0  0  0  0  0  0  0  0
  -23.3028  -13.5982    0.0000 C   0  0  0  0  0  0  0  0  0  0  0  0
  -22.5111  -14.8723    0.0000 C   0  0  0  0  0  0  0  0  0  0  0  0
  -21.6498  -16.1003    0.0000 C   0  0  0  0  0  0  0  0  0  0  0  0
  -20.7215  -17.2786    0.0000 C   0  0  0  0  0  0  0  0  0  0  0  0
  -19.7293  -18.4035    0.0000 C   0  0  0  0  0  0  0  0  0  0  0  0
  -18.6760  -19.4715    0.0000 C   0  0  0  0  0  0  0  0  0  0  0  0
  -17.5650  -20.4794    0.0000 C   0  0  0  0  0  0  0  0  0  0  0  0
  -16.3997  -21.4239    0.0000 C   0  0  0  0  0  0  0  0  0  0  0  0
  -15.1837  -22.3022    0.0000 C   0  0  0  0  0  0  0  0  0  0  0  0
  -13.9208  -23.1115    0.0000 C   0  0  0  0  0  0  0  0  0  0  0  0
  -12.6149  -23.8495    0.0000 C   0  0  0  0  0  0  0  0  0  0  0  0
  -11.2700  -24.5137    0.0000 C   0  0  0  0  0  0  0  0  0  0  0  0
   -9.8902  -25.1021    0.0000 C   0  0  0  0  0  0  0  0  0  0  0  0
   -8.4799  -25.6130    0.0000 C   0  0  0  0  0  0  0  0  0  0  0  0
   -7.0434  -26.0447    0.0000 C   0  0  0  0  0  0  0  0  0  0  0  0
   -5.5850  -26.3958    0.0000 C   0  0  0  0  0  0  0  0  0  0  0  0
   -4.1095  -26.6654    0.0000 C   0  0  0  0  0  0  0  0  0  0  0  0
   -2.6212  -26.8526    0.0000 C   0  0  0  0  0  0  0  0  0  0  0  0
   -1.1248  -26.9568    0.0000 C   0  0  0  0  0  0  0  0  0  0  0  0
    0.3750  -26.9776    0.0000 C   0  0  0  0  0  0  0  0  0  0  0  0
    1.8737  -26.9151    0.0000 C   0  0  0  0  0  0  0  0  0  0  0  0
    3.3666  -26.7694    0.0000 C   0  0  0  0  0  0  0  0  0  0  0  0
    4.8491  -26.5409    0.0000 C   0  0  0  0  0  0  0  0  0  0  0  0
    6.3166  -26.2304    0.0000 C   0  0  0  0  0  0  0  0  0  0  0  0
    7.7646  -25.8388    0.0000 C   0  0  0  0  0  0  0  0  0  0  0  0
    9.1886  -25.3674    0.0000 C   0  0  0  0  0  0  0  0  0  0  0  0
   10.5842  -24.8175    0.0000 C   0  0  0  0  0  0  0  0  0  0  0  0
   11.9471  -24.1909    0.0000 C   0  0  0  0  0  0  0  0  0  0  0  0
   13.2730  -23.4896    0.0000 C   0  0  0  0  0  0  0  0  0  0  0  0
   14.5579  -22.7156    0.0000 C   0  0  0  0  0  0  0  0  0  0  0  0
   15.7978  -21.8715    0.0000 C   0  0  0  0  0  0  0  0  0  0  0  0
   16.9889  -20.9597    0.0000 C   0  0  0  0  0  0  0  0  0  0  0  0
   18.1275  -19.9832    0.0000 C   0  0  0  0  0  0  0  0  0  0  0  0
   19.2100  -18.9449    0.0000 C   0  0  0  0  0  0  0  0  0  0  0  0
   20.2332  -17.8480    0.0000 C   0  0  0  0  0  0  0  0  0  0  0  0
   21.1938  -16.6959    0.0000 C   0  0  0  0  0  0  0  0  0  0  0  0
   22.0890  -15.4923    0.0000 C   0  0  0  0  0  0  0  0  0  0  0  0
   22.9158  -14.2408    0.0000 C   0  0  0  0  0  0  0  0  0  0  0  0
   23.6718  -12.9452    0.0000 C   0  0  0  0  0  0  0  0  0  0  0  0
   24.3547  -11.6096    0.0000 C   0  0  0  0  0  0  0  0  0  0  0  0
   24.9622  -10.2382    0.0000 C   0  0  0  0  0  0  0  0  0  0  0  0
   25.4926   -8.8351    0.0000 C   0  0  0  0  0  0  0  0  0  0  0  0
   25.9442   -7.4047    0.0000 C   0  0  0  0  0  0  0  0  0  0  0  0
   26.3157   -5.9514    0.0000 C   0  0  0  0  0  0  0  0  0  0  0  0
   26.6057   -4.4797    0.0000 C   0  0  0  0  0  0  0  0  0  0  0  0
   26.8136   -2.9942    0.0000 C   0  0  0  0  0  0  0  0  0  0  0  0
   26.9385   -1.4994    0.0000 C   0  0  0  0  0  0  0  0  0  0  0  0
  1  2  1  0
  2  3  1  0
  3  4  2  0
  4  5  1  0
  5  6  2  0
  6  7  1  0
  7  8  2  0
  8  9  1  0
  9 10  2  0
 10 11  1  0
 11 12  2  0
 12 13  1  0
 13 14  2  0
 14 15  1  0
 15 16  2  0
 16 17  1  0
 17 18  1  0
 18 19  1  0
 19 20  1  0
 20 21  1  0
 21 22  1  0
 22 23  1  0
 23 24  1  0
 24 25  1  0
 25 26  1  0
 26 27  1  0
 27 28  1  0
 28 29  1  0
 29 30  1  0
 30 31  1  0
 31 32  1  0
 32 33  1  0
 33 34  1  0
 34 35  1  0
 35 36  1  0
 36 37  1  0
 37 38  1  0
 38 39  1  0
 39 40  1  0
 40 41  1  0
 41 42  1  0
 42 43  1  0
 43 44  1  0
 44 45  1  0
 45 46  1  0
 46 47  1  0
 47 48  1  0
 48 49  1  0
 49 50  1  0
 50 51  1  0
 51 52  1  0
 52 53  1  0
 53 54  1  0
 54 55  1  0
 55 56  1  0
 56 57  1  0
 57 58  1  0
 58 59  1  0
 59 60  1  0
 60 61  1  0
 61 62  1  0
 62 63  1  0
 63 64  1  0
 64 65  1  0
 65 66  1  0
 66 67  1  0
 67 68  1  0
 68 69  1  0
 69 70  1  0
 70 71  1  0
 71 72  1  0
 72 73  1  0
 73 74  1  0
 74 75  1  0
 75 76  1  0
 76 77  1  0
 77 78  1  0
 78 79  1  0
 79 80  1  0
 80 81  1  0
 81 82  1  0
 82 83  1  0
 83 84  1  0
 84 85  1  0
 85 86  1  0
 86 87  1  0
 87 88  1  0
 88 89  1  0
 89 90  1  0
 90 91  1  0
 91 92  1  0
 92 93  1  0
 93 94  1  0
 94 95  1  0
 95 96  1  0
 96 97  1  0
 97 98  1  0
 98 99  1  0
 99100  1  0
100101  1  0
101102  1  0
102103  1  0
103104  1  0
104105  1  0
105106  1  0
106107  1  0
107108  1  0
108109  1  0
109110  1  0
110111  1  0
111112  1  0
112113  1  0
113114  1  0
114  2  1  0
M  END
>  <Title>  (684) 
idAAYJgen8

$$$$

     RDKit          2D

 84 84  0  0  0  0  0  0  0  0999 V2000
   20.0582    0.0000    0.0000 C   0  0  0  0  0  0  0  0  0  0  0  0
   20.0021   -1.4990    0.0000 C   0  0  0  0  0  0  0  0  0  0  0  0
   19.8342   -2.9895    0.0000 C   0  0  0  0  0  0  0  0  0  0  0  0
   19.5553   -4.4634    0.0000 C   0  0  0  0  0  0  0  0  0  0  0  0
   19.1671   -5.9123    0.0000 C   0  0  0  0  0  0  0  0  0  0  0  0
   18.6717   -7.3281    0.0000 C   0  0  0  0  0  0  0  0  0  0  0  0
   18.0718   -8.7029    0.0000 C   0  0  0  0  0  0  0  0  0  0  0  0
   17.3709  -10.0291    0.0000 C   0  0  0  0  0  0  0  0  0  0  0  0
   16.5729  -11.2992    0.0000 C   0  0  0  0  0  0  0  0  0  0  0  0
   15.6821  -12.5061    0.0000 C   0  0  0  0  0  0  0  0  0  0  0  0
   14.7037  -13.6430    0.0000 C   0  0  0  0  0  0  0  0  0  0  0  0
   13.6430  -14.7037    0.0000 C   0  0  0  0  0  0  0  0  0  0  0  0
   12.5061  -15.6821    0.0000 C   0  0  0  0  0  0  0  0  0  0  0  0
   11.2992  -16.5729    0.0000 C   0  0  0  0  0  0  0  0  0  0  0  0
   10.0291  -17.3709    0.0000 C   0  0  0  0  0  0  0  0  0  0  0  0
    8.7029  -18.0718    0.0000 C   0  0  0  0  0  0  0  0  0  0  0  0
    7.3281  -18.6717    0.0000 C   0  0  0  0  0  0  0  0  0  0  0  0
    5.9123  -19.1671    0.0000 C   0  0  0  0  0  0  0  0  0  0  0  0
    4.4634  -19.5553    0.0000 C   0  0  0  0  0  0  0  0  0  0  0  0
    2.9895  -19.8342    0.0000 C   0  0  0  0  0  0  0  0  0  0  0  0
    1.4990  -20.0021    0.0000 C   0  0  0  0  0  0  0  0  0  0  0  0
   -0.0000  -20.0582    0.0000 C   0  0  0  0  0  0  0  0  0  0  0  0
   -1.4990  -20.0021    0.0000 C   0  0  0  0  0  0  0  0  0  0  0  0
   -2.9895  -19.8342    0.0000 C   0  0  0  0  0  0  0  0  0  0  0  0
   -4.4634  -19.5553    0.0000 C   0  0  0  0  0  0  0  0  0  0  0  0
   -5.9123  -19.1671    0.0000 C   0  0  0  0  0  0  0  0  0  0  0  0
   -7.3281  -18.6717    0.0000 C   0  0  0  0  0  0  0  0  0  0  0  0
   -8.7029  -18.0718    0.0000 C   0  0  0  0  0  0  0  0  0  0  0  0
  -10.0291  -17.3709    0.0000 C   0  0  0  0  0  0  0  0  0  0  0  0
  -11.2992  -16.5729    0.0000 C   0  0  0  0  0  0  0  0  0  0  0  0
  -12.5061  -15.6821    0.0000 C   0  0  0  0  0  0  0  0  0  0  0  0
  -13.6430  -14.7037    0.0000 C   0  0  0  0  0  0  0  0  0  0  0  0
  -14.7037  -13.6430    0.0000 C   0  0  0  0  0  0  0  0  0  0  0  0
  -15.6821  -12.5061    0.0000 C   0  0  0  0  0  0  0  0  0  0  0  0
  -16.5729  -11.2992    0.0000 C   0  0  0  0  0  0  0  0  0  0  0  0
  -17.3709  -10.0291    0.0000 C   0  0  0  0  0  0  0  0  0  0  0  0
  -18.0718   -8.7029    0.0000 C   0  0  0  0  0  0  0  0  0  0  0  0
  -18.6717   -7.3281    0.0000 C   0  0  0  0  0  0  0  0  0  0  0  0
  -19.1671   -5.9123    0.0000 C   0  0  0  0  0  0  0  0  0  0  0  0
  -19.5553   -4.4634    0.0000 C   0  0  0  0  0  0  0  0  0  0  0  0
  -19.8342   -2.9895    0.0000 C   0  0  0  0  0  0  0  0  0  0  0  0
  -20.0021   -1.4990    0.0000 C   0  0  0  0  0  0  0  0  0  0  0  0
  -20.0582    0.0000    0.0000 C   0  0  0  0  0  0  0  0  0  0  0  0
  -20.0021    1.4990    0.0000 C   0  0  0  0  0  0  0  0  0  0  0  0
  -19.8342    2.9895    0.0000 C   0  0  0  0  0  0  0  0  0  0  0  0
  -19.5553    4.4634    0.0000 C   0  0  0  0  0  0  0  0  0  0  0  0
  -19.1671    5.9123    0.0000 C   0  0  0  0  0  0  0  0  0  0  0  0
  -18.6717    7.3281    0.0000 C   0  0  0  0  0  0  0  0  0  0  0  0
  -18.0718    8.7029    0.0000 C   0  0  0  0  0  0  0  0  0  0  0  0
  -17.3709   10.0291    0.0000 C   0  0  0  0  0  0  0  0  0  0  0  0
  -16.5729   11.2992    0.0000 C   0  0  0  0  0  0  0  0  0  0  0  0
  -15.6821   12.5061    0.0000 C   0  0  0  0  0  0  0  0  0  0  0  0
  -14.7037   13.6430    0.0000 C   0  0  0  0  0  0  0  0  0  0  0  0
  -13.6430   14.7037    0.0000 C   0  0  0  0  0  0  0  0  0  0  0  0
  -12.5061   15.6821    0.0000 C   0  0  0  0  0  0  0  0  0  0  0  0
  -11.2992   16.5729    0.0000 C   0  0  0  0  0  0  0  0  0  0  0  0
  -10.0291   17.3709    0.0000 C   0  0  0  0  0  0  0  0  0  0  0  0
   -8.7029   18.0718    0.0000 C   0  0  0  0  0  0  0  0  0  0  0  0
   -7.3281   18.6717    0.0000 C   0  0  0  0  0  0  0  0  0  0  0  0
   -5.9123   19.1671    0.0000 C   0  0  0  0  0  0  0  0  0  0  0  0
   -4.4634   19.5553    0.0000 C   0  0  0  0  0  0  0  0  0  0  0  0
   -2.9895   19.8342    0.0000 C   0  0  0  0  0  0  0  0  0  0  0  0
   -1.4990   20.0021    0.0000 C   0  0  0  0  0  0  0  0  0  0  0  0
    0.0000   20.0582    0.0000 C   0  0  0  0  0  0  0  0  0  0  0  0
    1.4990   20.0021    0.0000 C   0  0  0  0  0  0  0  0  0  0  0  0
    2.9895   19.8342    0.0000 C   0  0  0  0  0  0  0  0  0  0  0  0
    4.4634   19.5553    0.0000 C   0  0  0  0  0  0  0  0  0  0  0  0
    5.9123   19.1671    0.0000 C   0  0  0  0  0  0  0  0  0  0  0  0
    7.3281   18.6717    0.0000 C   0  0  0  0  0  0  0  0  0  0  0  0
    8.7029   18.0718    0.0000 C   0  0  0  0  0  0  0  0  0  0  0  0
   10.0291   17.3709    0.0000 C   0  0  0  0  0  0  0  0  0  0  0  0
   11.2992   16.5729    0.0000 C   0  0  0  0  0  0  0  0  0  0  0  0
   12.5061   15.6821    0.0000 C   0  0  0  0  0  0  0  0  0  0  0  0
   13.6430   14.7037    0.0000 C   0  0  0  0  0  0  0  0  0  0  0  0
   14.7037   13.6430    0.0000 C   0  0  0  0  0  0  0  0  0  0  0  0
   15.6821   12.5061    0.0000 C   0  0  0  0  0  0  0  0  0  0  0  0
   16.5729   11.2992    0.0000 C   0  0  0  0  0  0  0  0  0  0  0  0
   17.3709   10.0291    0.0000 C   0  0  0  0  0  0  0  0  0  0  0  0
   18.0718    8.7029    0.0000 C   0  0  0  0  0  0  0  0  0  0  0  0
   18.6717    7.3281    0.0000 C   0  0  0  0  0  0  0  0  0  0  0  0
   19.1671    5.9123    0.0000 C   0  0  0  0  0  0  0  0  0  0  0  0
   19.5553    4.4634    0.0000 C   0  0  0  0  0  0  0  0  0  0  0  0
   19.8342    2.9895    0.0000 C   0  0  0  0  0  0  0  0  0  0  0  0
   20.0021    1.4990    0.0000 C   0  0  0  0  0  0  0  0  0  0  0  0
  1  2  2  0
  2  3  1  0
  3  4  2  0
  4  5  1  0
  5  6  2  0
  6  7  1  0
  7  8  2  0
  8  9  1  0
  9 10  1  0
 10 11  1  0
 11 12  1  0
 12 13  1  0
 13 14  1  0
 14 15  1  0
 15 16  1  0
 16 17  1  0
 17 18  1  0
 18 19  1  0
 19 20  1  0
 20 21  1  0
 21 22  1  0
 22 23  1  0
 23 24  1  0
 24 25  1  0
 25 26  1  0
 26 27  1  0
 27 28  1  0
 28 29  1  0
 29 30  1  0
 30 31  1  0
 31 32  1  0
 32 33  1  0
 33 34  1  0
 34 35  1  0
 35 36  1  0
 36 37  1  0
 37 38  1  0
 38 39  1  0
 39 40  1  0
 40 41  1  0
 41 42  1  0
 42 43  1  0
 43 44  1  0
 44 45  1  0
 45 46  1  0
 46 47  1  0
 47 48  1  0
 48 49  1  0
 49 50  1  0
 50 51  1  0
 51 52  1  0
 52 53  1  0
 53 54  1  0
 54 55  1  0
 55 56  1  0
 56 57  1  0
 57 58  1  0
 58 59  1  0
 59 60  1  0
 60 61  1  0
 61 62  1  0
 62 63  1  0
 63 64  1  0
 64 65  1  0
 65 66  1  0
 66 67  1  0
 67 68  1  0
 68 69  1  0
 69 70  1  0
 70 71  1  0
 71 72  1  0
 72 73  1  0
 73 74  1  0
 74 75  1  0
 75 76  1  0
 76 77  1  0
 77 78  2  0
 78 79  1  0
 79 80  2  0
 80 81  1  0
 81 82  2  0
 82 83  1  0
 83 84  2  0
 84  1  1  0
M  END
>  <Title>  (685) 
idAAYKgen8

$$$$

     RDKit          2D

119119  0  0  0  0  0  0  0  0999 V2000
   29.6738    0.0000    0.0000 C   0  0  0  0  0  0  0  0  0  0  0  0
   28.1738    0.0000    0.0000 C   0  0  0  0  0  0  0  0  0  0  0  0
   28.1338   -1.4995    0.0000 C   0  0  0  0  0  0  0  0  0  0  0  0
   28.0141   -2.9947    0.0000 C   0  0  0  0  0  0  0  0  0  0  0  0
   27.8151   -4.4814    0.0000 C   0  0  0  0  0  0  0  0  0  0  0  0
   27.5371   -5.9554    0.0000 C   0  0  0  0  0  0  0  0  0  0  0  0
   27.1811   -7.4126    0.0000 C   0  0  0  0  0  0  0  0  0  0  0  0
   26.7481   -8.8487    0.0000 C   0  0  0  0  0  0  0  0  0  0  0  0
   26.2392  -10.2598    0.0000 C   0  0  0  0  0  0  0  0  0  0  0  0
   25.6560  -11.6417    0.0000 C   0  0  0  0  0  0  0  0  0  0  0  0
   25.0000  -12.9907    0.0000 C   0  0  0  0  0  0  0  0  0  0  0  0
   24.2732  -14.3029    0.0000 C   0  0  0  0  0  0  0  0  0  0  0  0
   23.4776  -15.5745    0.0000 C   0  0  0  0  0  0  0  0  0  0  0  0
   22.6154  -16.8019    0.0000 C   0  0  0  0  0  0  0  0  0  0  0  0
   21.6891  -17.9817    0.0000 C   0  0  0  0  0  0  0  0  0  0  0  0
   20.7013  -19.1106    0.0000 C   0  0  0  0  0  0  0  0  0  0  0  0
   19.6549  -20.1853    0.0000 C   0  0  0  0  0  0  0  0  0  0  0  0
   18.5527  -21.2027    0.0000 C   0  0  0  0  0  0  0  0  0  0  0  0
   17.3980  -22.1601    0.0000 C   0  0  0  0  0  0  0  0  0  0  0  0
   16.1939  -23.0547    0.0000 C   0  0  0  0  0  0  0  0  0  0  0  0
   14.9439  -23.8839    0.0000 C   0  0  0  0  0  0  0  0  0  0  0  0
   13.6516  -24.6454    0.0000 C   0  0  0  0  0  0  0  0  0  0  0  0
   12.3206  -25.3370    0.0000 C   0  0  0  0  0  0  0  0  0  0  0  0
   10.9546  -25.9568    0.0000 C   0  0  0  0  0  0  0  0  0  0  0  0
    9.5576  -26.5031    0.0000 C   0  0  0  0  0  0  0  0  0  0  0  0
    8.1335  -26.9742    0.0000 C   0  0  0  0  0  0  0  0  0  0  0  0
    6.6864  -27.3688    0.0000 C   0  0  0  0  0  0  0  0  0  0  0  0
    5.2203  -27.6859    0.0000 C   0  0  0  0  0  0  0  0  0  0  0  0
    3.7394  -27.9245    0.0000 C   0  0  0  0  0  0  0  0  0  0  0  0
    2.2479  -28.0839    0.0000 C   0  0  0  0  0  0  0  0  0  0  0  0
    0.7500  -28.1638    0.0000 C   0  0  0  0  0  0  0  0  0  0  0  0
   -0.7500  -28.1638    0.0000 C   0  0  0  0  0  0  0  0  0  0  0  0
   -2.2479  -28.0839    0.0000 C   0  0  0  0  0  0  0  0  0  0  0  0
   -3.7394  -27.9245    0.0000 C   0  0  0  0  0  0  0  0  0  0  0  0
   -5.2203  -27.6859    0.0000 C   0  0  0  0  0  0  0  0  0  0  0  0
   -6.6864  -27.3688    0.0000 C   0  0  0  0  0  0  0  0  0  0  0  0
   -8.1335  -26.9742    0.0000 C   0  0  0  0  0  0  0  0  0  0  0  0
   -9.5576  -26.5031    0.0000 C   0  0  0  0  0  0  0  0  0  0  0  0
  -10.9546  -25.9568    0.0000 C   0  0  0  0  0  0  0  0  0  0  0  0
  -12.3206  -25.3370    0.0000 C   0  0  0  0  0  0  0  0  0  0  0  0
  -13.6516  -24.6454    0.0000 C   0  0  0  0  0  0  0  0  0  0  0  0
  -14.9439  -23.8839    0.0000 C   0  0  0  0  0  0  0  0  0  0  0  0
  -16.1939  -23.0547    0.0000 C   0  0  0  0  0  0  0  0  0  0  0  0
  -17.3980  -22.1601    0.0000 C   0  0  0  0  0  0  0  0  0  0  0  0
  -18.5527  -21.2027    0.0000 C   0  0  0  0  0  0  0  0  0  0  0  0
  -19.6549  -20.1853    0.0000 C   0  0  0  0  0  0  0  0  0  0  0  0
  -20.7013  -19.1106    0.0000 C   0  0  0  0  0  0  0  0  0  0  0  0
  -21.6891  -17.9817    0.0000 C   0  0  0  0  0  0  0  0  0  0  0  0
  -22.6154  -16.8019    0.0000 C   0  0  0  0  0  0  0  0  0  0  0  0
  -23.4776  -15.5745    0.0000 C   0  0  0  0  0  0  0  0  0  0  0  0
  -24.2732  -14.3029    0.0000 C   0  0  0  0  0  0  0  0  0  0  0  0
  -25.0000  -12.9907    0.0000 C   0  0  0  0  0  0  0  0  0  0  0  0
  -25.6560  -11.6417    0.0000 C   0  0  0  0  0  0  0  0  0  0  0  0
  -26.2392  -10.2598    0.0000 C   0  0  0  0  0  0  0  0  0  0  0  0
  -26.7481   -8.8487    0.0000 C   0  0  0  0  0  0  0  0  0  0  0  0
  -27.1811   -7.4126    0.0000 C   0  0  0  0  0  0  0  0  0  0  0  0
  -27.5371   -5.9554    0.0000 C   0  0  0  0  0  0  0  0  0  0  0  0
  -27.8151   -4.4814    0.0000 C   0  0  0  0  0  0  0  0  0  0  0  0
  -28.0141   -2.9947    0.0000 C   0  0  0  0  0  0  0  0  0  0  0  0
  -28.1338   -1.4995    0.0000 C   0  0  0  0  0  0  0  0  0  0  0  0
  -28.1738    0.0000    0.0000 C   0  0  0  0  0  0  0  0  0  0  0  0
  -28.1338    1.4995    0.0000 C   0  0  0  0  0  0  0  0  0  0  0  0
  -28.0141    2.9947    0.0000 C   0  0  0  0  0  0  0  0  0  0  0  0
  -27.8151    4.4814    0.0000 C   0  0  0  0  0  0  0  0  0  0  0  0
  -27.5371    5.9554    0.0000 C   0  0  0  0  0  0  0  0  0  0  0  0
  -27.1811    7.4126    0.0000 C   0  0  0  0  0  0  0  0  0  0  0  0
  -26.7481    8.8487    0.0000 C   0  0  0  0  0  0  0  0  0  0  0  0
  -26.2392   10.2598    0.0000 C   0  0  0  0  0  0  0  0  0  0  0  0
  -25.6560   11.6417    0.0000 C   0  0  0  0  0  0  0  0  0  0  0  0
  -25.0000   12.9907    0.0000 C   0  0  0  0  0  0  0  0  0  0  0  0
  -24.2732   14.3029    0.0000 C   0  0  0  0  0  0  0  0  0  0  0  0
  -23.4776   15.5745    0.0000 C   0  0  0  0  0  0  0  0  0  0  0  0
  -22.6154   16.8019    0.0000 C   0  0  0  0  0  0  0  0  0  0  0  0
  -21.6891   17.9817    0.0000 C   0  0  0  0  0  0  0  0  0  0  0  0
  -20.7013   19.1106    0.0000 C   0  0  0  0  0  0  0  0  0  0  0  0
  -19.6549   20.1853    0.0000 C   0  0  0  0  0  0  0  0  0  0  0  0
  -18.5527   21.2027    0.0000 C   0  0  0  0  0  0  0  0  0  0  0  0
  -17.3980   22.1601    0.0000 C   0  0  0  0  0  0  0  0  0  0  0  0
  -16.1939   23.0547    0.0000 C   0  0  0  0  0  0  0  0  0  0  0  0
  -14.9439   23.8839    0.0000 C   0  0  0  0  0  0  0  0  0  0  0  0
  -13.6516   24.6454    0.0000 C   0  0  0  0  0  0  0  0  0  0  0  0
  -12.3206   25.3370    0.0000 C   0  0  0  0  0  0  0  0  0  0  0  0
  -10.9546   25.9568    0.0000 C   0  0  0  0  0  0  0  0  0  0  0  0
   -9.5576   26.5031    0.0000 C   0  0  0  0  0  0  0  0  0  0  0  0
   -8.1335   26.9742    0.0000 C   0  0  0  0  0  0  0  0  0  0  0  0
   -6.6864   27.3688    0.0000 C   0  0  0  0  0  0  0  0  0  0  0  0
   -5.2203   27.6859    0.0000 C   0  0  0  0  0  0  0  0  0  0  0  0
   -3.7394   27.9245    0.0000 C   0  0  0  0  0  0  0  0  0  0  0  0
   -2.2479   28.0839    0.0000 C   0  0  0  0  0  0  0  0  0  0  0  0
   -0.7500   28.1638    0.0000 C   0  0  0  0  0  0  0  0  0  0  0  0
    0.7500   28.1638    0.0000 C   0  0  0  0  0  0  0  0  0  0  0  0
    2.2479   28.0839    0.0000 C   0  0  0  0  0  0  0  0  0  0  0  0
    3.7394   27.9245    0.0000 C   0  0  0  0  0  0  0  0  0  0  0  0
    5.2203   27.6859    0.0000 C   0  0  0  0  0  0  0  0  0  0  0  0
    6.6864   27.3688    0.0000 C   0  0  0  0  0  0  0  0  0  0  0  0
    8.1335   26.9742    0.0000 C   0  0  0  0  0  0  0  0  0  0  0  0
    9.5576   26.5031    0.0000 C   0  0  0  0  0  0  0  0  0  0  0  0
   10.9546   25.9568    0.0000 C   0  0  0  0  0  0  0  0  0  0  0  0
   12.3206   25.3370    0.0000 C   0  0  0  0  0  0  0  0  0  0  0  0
   13.6516   24.6454    0.0000 C   0  0  0  0  0  0  0  0  0  0  0  0
   14.9439   23.8839    0.0000 C   0  0  0  0  0  0  0  0  0  0  0  0
   16.1939   23.0547    0.0000 C   0  0  0  0  0  0  0  0  0  0  0  0
   17.3980   22.1601    0.0000 C   0  0  0  0  0  0  0  0  0  0  0  0
   18.5527   21.2027    0.0000 C   0  0  0  0  0  0  0  0  0  0  0  0
   19.6549   20.1853    0.0000 C   0  0  0  0  0  0  0  0  0  0  0  0
   20.7013   19.1106    0.0000 C   0  0  0  0  0  0  0  0  0  0  0  0
   21.6891   17.9817    0.0000 C   0  0  0  0  0  0  0  0  0  0  0  0
   22.6154   16.8019    0.0000 C   0  0  0  0  0  0  0  0  0  0  0  0
   23.4776   15.5745    0.0000 C   0  0  0  0  0  0  0  0  0  0  0  0
   24.2732   14.3029    0.0000 C   0  0  0  0  0  0  0  0  0  0  0  0
   25.0000   12.9907    0.0000 C   0  0  0  0  0  0  0  0  0  0  0  0
   25.6560   11.6417    0.0000 C   0  0  0  0  0  0  0  0  0  0  0  0
   26.2392   10.2598    0.0000 C   0  0  0  0  0  0  0  0  0  0  0  0
   26.7481    8.8487    0.0000 C   0  0  0  0  0  0  0  0  0  0  0  0
   27.1811    7.4126    0.0000 C   0  0  0  0  0  0  0  0  0  0  0  0
   27.5371    5.9554    0.0000 C   0  0  0  0  0  0  0  0  0  0  0  0
   27.8151    4.4814    0.0000 C   0  0  0  0  0  0  0  0  0  0  0  0
   28.0141    2.9947    0.0000 C   0  0  0  0  0  0  0  0  0  0  0  0
   28.1338    1.4995    0.0000 C   0  0  0  0  0  0  0  0  0  0  0  0
  1  2  1  0
  2  3  1  0
  3  4  1  0
  4  5  1  0
  5  6  1  0
  6  7  1  0
  7  8  1  0
  8  9  1  0
  9 10  1  0
 10 11  1  0
 11 12  1  0
 12 13  1  0
 13 14  1  0
 14 15  1  0
 15 16  1  0
 16 17  1  0
 17 18  1  0
 18 19  1  0
 19 20  1  0
 20 21  1  0
 21 22  1  0
 22 23  1  0
 23 24  1  0
 24 25  1  0
 25 26  1  0
 26 27  1  0
 27 28  1  0
 28 29  1  0
 29 30  1  0
 30 31  1  0
 31 32  1  0
 32 33  1  0
 33 34  1  0
 34 35  1  0
 35 36  1  0
 36 37  1  0
 37 38  1  0
 38 39  1  0
 39 40  1  0
 40 41  1  0
 41 42  1  0
 42 43  1  0
 43 44  1  0
 44 45  1  0
 45 46  1  0
 46 47  1  0
 47 48  1  0
 48 49  1  0
 49 50  1  0
 50 51  1  0
 51 52  1  0
 52 53  1  0
 53 54  1  0
 54 55  1  0
 55 56  1  0
 56 57  1  0
 57 58  1  0
 58 59  1  0
 59 60  1  0
 60 61  1  0
 61 62  1  0
 62 63  1  0
 63 64  1  0
 64 65  1  0
 65 66  1  0
 66 67  1  0
 67 68  1  0
 68 69  1  0
 69 70  1  0
 70 71  1  0
 71 72  1  0
 72 73  1  0
 73 74  1  0
 74 75  1  0
 75 76  1  0
 76 77  1  0
 77 78  1  0
 78 79  1  0
 79 80  1  0
 80 81  1  0
 81 82  1  0
 82 83  1  0
 83 84  1  0
 84 85  1  0
 85 86  1  0
 86 87  1  0
 87 88  1  0
 88 89  1  0
 89 90  1  0
 90 91  1  0
 91 92  1  0
 92 93  1  0
 93 94  1  0
 94 95  1  0
 95 96  1  0
 96 97  1  0
 97 98  1  0
 98 99  1  0
 99100  1  0
100101  1  0
101102  1  0
102103  1  0
103104  1  0
104105  1  0
105106  1  0
106107  1  0
107108  1  0
108109  1  0
109110  1  0
110111  1  0
111112  1  0
112113  1  0
113114  1  0
114115  1  0
115116  1  0
116117  1  0
117118  1  0
118119  1  0
119  2  1  0
M  END
>  <Title>  (686) 
idAAYLgen8

$$$$

     RDKit          2D

 68 71  0  0  0  0  0  0  0  0999 V2000
   -5.7244   -1.0550    0.0000 C   0  0  0  0  0  0  0  0  0  0  0  0
   -5.0857   -2.4123    0.0000 C   0  0  0  0  0  0  0  0  0  0  0  0
   -6.4002   -3.1349    0.0000 C   0  0  0  0  0  0  0  0  0  0  0  0
   -7.6137   -4.0166    0.0000 C   0  0  0  0  0  0  0  0  0  0  0  0
   -8.7071   -5.0434    0.0000 C   0  0  0  0  0  0  0  0  0  0  0  0
   -9.6633   -6.1992    0.0000 C   0  0  0  0  0  0  0  0  0  0  0  0
  -10.4670   -7.4657    0.0000 C   0  0  0  0  0  0  0  0  0  0  0  0
  -11.1057   -8.8229    0.0000 C   0  0  0  0  0  0  0  0  0  0  0  0
  -11.5692  -10.2495    0.0000 C   0  0  0  0  0  0  0  0  0  0  0  0
  -11.8503  -11.7229    0.0000 C   0  0  0  0  0  0  0  0  0  0  0  0
  -11.9445  -13.2199    0.0000 C   0  0  0  0  0  0  0  0  0  0  0  0
  -11.8503  -14.7170    0.0000 C   0  0  0  0  0  0  0  0  0  0  0  0
  -11.5692  -16.1904    0.0000 C   0  0  0  0  0  0  0  0  0  0  0  0
  -11.1057  -17.6170    0.0000 C   0  0  0  0  0  0  0  0  0  0  0  0
  -10.4670  -18.9742    0.0000 C   0  0  0  0  0  0  0  0  0  0  0  0
   -9.6633  -20.2407    0.0000 C   0  0  0  0  0  0  0  0  0  0  0  0
   -8.7071  -21.3965    0.0000 C   0  0  0  0  0  0  0  0  0  0  0  0
   -7.6137  -22.4233    0.0000 C   0  0  0  0  0  0  0  0  0  0  0  0
   -6.4002  -23.3050    0.0000 C   0  0  0  0  0  0  0  0  0  0  0  0
   -5.0857  -24.0276    0.0000 C   0  0  0  0  0  0  0  0  0  0  0  0
   -3.6910  -24.5798    0.0000 C   0  0  0  0  0  0  0  0  0  0  0  0
   -2.2382  -24.9529    0.0000 C   0  0  0  0  0  0  0  0  0  0  0  0
   -0.7500  -25.1409    0.0000 C   0  0  0  0  0  0  0  0  0  0  0  0
    0.7500  -25.1409    0.0000 C   0  0  0  0  0  0  0  0  0  0  0  0
    2.2382  -24.9529    0.0000 C   0  0  0  0  0  0  0  0  0  0  0  0
    3.6910  -24.5798    0.0000 C   0  0  0  0  0  0  0  0  0  0  0  0
    5.0857  -24.0276    0.0000 C   0  0  0  0  0  0  0  0  0  0  0  0
    6.4002  -23.3050    0.0000 C   0  0  0  0  0  0  0  0  0  0  0  0
    7.6137  -22.4233    0.0000 C   0  0  0  0  0  0  0  0  0  0  0  0
    8.7071  -21.3965    0.0000 C   0  0  0  0  0  0  0  0  0  0  0  0
    9.6633  -20.2407    0.0000 C   0  0  0  0  0  0  0  0  0  0  0  0
   10.4670  -18.9742    0.0000 C   0  0  0  0  0  0  0  0  0  0  0  0
   11.1057  -17.6170    0.0000 C   0  0  0  0  0  0  0  0  0  0  0  0
   11.5692  -16.1904    0.0000 C   0  0  0  0  0  0  0  0  0  0  0  0
   11.8503  -14.7170    0.0000 C   0  0  0  0  0  0  0  0  0  0  0  0
   11.9445  -13.2199    0.0000 C   0  0  0  0  0  0  0  0  0  0  0  0
   11.8503  -11.7229    0.0000 C   0  0  0  0  0  0  0  0  0  0  0  0
   11.5692  -10.2495    0.0000 C   0  0  0  0  0  0  0  0  0  0  0  0
   11.1057   -8.8229    0.0000 C   0  0  0  0  0  0  0  0  0  0  0  0
   10.4670   -7.4657    0.0000 C   0  0  0  0  0  0  0  0  0  0  0  0
    9.6633   -6.1992    0.0000 C   0  0  0  0  0  0  0  0  0  0  0  0
    8.7071   -5.0434    0.0000 C   0  0  0  0  0  0  0  0  0  0  0  0
    7.6137   -4.0166    0.0000 C   0  0  0  0  0  0  0  0  0  0  0  0
    6.4002   -3.1349    0.0000 C   0  0  0  0  0  0  0  0  0  0  0  0
    5.0857   -2.4123    0.0000 C   0  0  0  0  0  0  0  0  0  0  0  0
    3.6910   -1.8601    0.0000 C   0  0  0  0  0  0  0  0  0  0  0  0
    2.2382   -1.4870    0.0000 C   0  0  0  0  0  0  0  0  0  0  0  0
    2.5192   -0.0136    0.0000 C   0  0  0  0  0  0  0  0  0  0  0  0
    1.6547    1.2122    0.0000 O   0  0  0  0  0  0  0  0  0  0  0  0
    3.9358    0.4797    0.0000 N   0  0  0  0  0  0  0  0  0  0  0  0
    4.2169    1.9531    0.0000 C   0  0  0  0  0  0  0  0  0  0  0  0
    5.6334    2.4464    0.0000 N   0  0  0  0  0  0  0  0  0  0  0  0
    5.9145    3.9199    0.0000 N   0  0  0  0  0  0  0  0  0  0  0  0
    4.7790    4.9000    0.0000 N   0  0  0  0  0  0  0  0  0  0  0  0
    3.3625    4.4067    0.0000 N   0  0  0  0  0  0  0  0  0  0  0  0
    3.0814    2.9333    0.0000 N   0  0  0  0  0  0  0  0  0  0  0  0
    0.7500   -1.2990    0.0000 C   0  0  0  0  0  0  0  0  0  0  0  0
    1.5000    0.0000    0.0000 C   0  0  0  0  0  0  0  0  0  0  0  0
    0.7500    1.2990    0.0000 C   0  0  0  0  0  0  0  0  0  0  0  0
   -0.7500    1.2990    0.0000 C   0  0  0  0  0  0  0  0  0  0  0  0
   -1.5000    0.0000    0.0000 C   0  0  0  0  0  0  0  0  0  0  0  0
   -0.7500   -1.2990    0.0000 C   0  0  0  0  0  0  0  0  0  0  0  0
   -2.2382   -1.4870    0.0000 C   0  0  0  0  0  0  0  0  0  0  0  0
   -1.1887   -2.5587    0.0000 C   0  0  0  0  0  0  0  0  0  0  0  0
   -1.5921   -4.0035    0.0000 C   0  0  0  0  0  0  0  0  0  0  0  0
   -3.0449   -4.3765    0.0000 C   0  0  0  0  0  0  0  0  0  0  0  0
   -4.0944   -3.3048    0.0000 C   0  0  0  0  0  0  0  0  0  0  0  0
   -3.6910   -1.8601    0.0000 C   0  0  0  0  0  0  0  0  0  0  0  0
  1  2  1  0
  2  3  1  0
  3  4  1  0
  4  5  1  0
  5  6  1  0
  6  7  1  0
  7  8  1  0
  8  9  1  0
  9 10  1  0
 10 11  1  0
 11 12  1  0
 12 13  1  0
 13 14  1  0
 14 15  1  0
 15 16  1  0
 16 17  1  0
 17 18  1  0
 18 19  1  0
 19 20  1  0
 20 21  1  0
 21 22  1  0
 22 23  1  0
 23 24  1  0
 24 25  1  0
 25 26  1  0
 26 27  1  0
 27 28  1  0
 28 29  1  0
 29 30  1  0
 30 31  1  0
 31 32  1  0
 32 33  1  0
 33 34  1  0
 34 35  1  0
 35 36  1  0
 36 37  1  0
 37 38  1  0
 38 39  1  0
 39 40  1  0
 40 41  1  0
 41 42  1  0
 42 43  1  0
 43 44  1  0
 44 45  1  0
 45 46  1  0
 46 47  1  0
 47 48  1  0
 48 49  2  0
 48 50  1  0
 50 51  1  0
 51 52  2  0
 52 53  1  0
 53 54  2  0
 54 55  1  0
 55 56  2  0
 47 57  1  0
 57 58  2  0
 58 59  1  0
 59 60  2  0
 60 61  1  0
 61 62  2  0
 62 63  1  0
 63 64  2  0
 64 65  1  0
 65 66  2  0
 66 67  1  0
 67 68  2  0
 68  2  1  0
 56 51  1  0
 62 57  1  0
 68 63  1  0
M  END
>  <Title>  (687) 
idAAYMgen8

$$$$

     RDKit          2D

 10  9  0  0  0  0  0  0  0  0999 V2000
    0.0000    0.0000    0.0000 C   0  0  0  0  0  0  0  0  0  0  0  0
    1.2990    0.7500    0.0000 C   0  0  0  0  0  0  0  0  0  0  0  0
    2.5981    1.5000    0.0000 C   0  0  0  0  0  0  0  0  0  0  0  0
    3.8971    2.2500    0.0000 C   0  0  0  0  0  0  0  0  0  0  0  0
    5.1962    1.5000    0.0000 C   0  0  0  0  0  0  0  0  0  0  0  0
    6.4952    2.2500    0.0000 C   0  0  0  0  0  0  0  0  0  0  0  0
    6.4952    3.7500    0.0000 O   0  0  0  0  0  0  0  0  0  0  0  0
    7.7942    1.5000    0.0000 C   0  0  0  0  0  0  0  0  0  0  0  0
    9.0933    0.7500    0.0000 C   0  0  0  0  0  0  0  0  0  0  0  0
   10.3923   -0.0000    0.0000 C   0  0  0  0  0  0  0  0  0  0  0  0
  1  2  1  0
  2  3  3  0
  3  4  1  0
  4  5  2  3
  5  6  1  0
  6  7  2  0
  6  8  1  0
  8  9  3  0
  9 10  1  0
M  END
>  <Title>  (688) 
idAAYNgen8

$$$$

     RDKit          2D

  8  8  0  0  0  0  0  0  0  0999 V2000
    2.7760    0.0000    0.0000 C   0  0  0  0  0  0  0  0  0  0  0  0
    1.2760    0.0000    0.0000 C   0  0  0  0  0  0  0  0  0  0  0  0
    0.3943    1.2135    0.0000 N   0  0  0  0  0  0  0  0  0  0  0  0
   -1.0323    0.7500    0.0000 C   0  0  0  0  0  0  0  0  0  0  0  0
   -2.2458    1.6317    0.0000 O   0  0  0  0  0  0  0  0  0  0  0  0
   -1.0323   -0.7500    0.0000 C   0  0  0  0  0  0  0  0  0  0  0  0
    0.3943   -1.2135    0.0000 C   0  0  0  0  0  0  0  0  0  0  0  0
    0.8578   -2.6401    0.0000 O   0  0  0  0  0  0  0  0  0  0  0  0
  1  2  1  0
  2  3  1  0
  3  4  1  0
  4  5  2  0
  4  6  1  0
  6  7  2  0
  7  8  1  0
  7  2  1  0
M  END
>  <Title>  (689) 
idAAYOgen8

$$$$

     RDKit          2D

 45 51  0  0  0  0  0  0  0  0999 V2000
    3.7955   -8.2450    0.0000 C   0  0  0  0  0  0  0  0  0  0  0  0
    2.6807   -7.2413    0.0000 C   0  0  0  0  0  0  0  0  0  0  0  0
    3.4307   -5.9422    0.0000 C   0  0  0  0  0  0  0  0  0  0  0  0
    3.5875   -4.4504    0.0000 C   0  0  0  0  0  0  0  0  0  0  0  0
    3.1240   -3.0239    0.0000 C   0  0  0  0  0  0  0  0  0  0  0  0
    2.1203   -1.9091    0.0000 C   0  0  0  0  0  0  0  0  0  0  0  0
    3.0020   -0.6956    0.0000 C   0  0  0  0  0  0  0  0  0  0  0  0
    2.3919    0.6747    0.0000 O   0  0  0  0  0  0  0  0  0  0  0  0
    4.4938   -0.8524    0.0000 N   0  0  0  0  0  0  0  0  0  0  0  0
    5.3755    0.3611    0.0000 C   0  0  0  0  0  0  0  0  0  0  0  0
    6.8672    0.2043    0.0000 N   0  0  0  0  0  0  0  0  0  0  0  0
    7.7489    1.4178    0.0000 N   0  0  0  0  0  0  0  0  0  0  0  0
    7.1388    2.7882    0.0000 N   0  0  0  0  0  0  0  0  0  0  0  0
    5.6470    2.9450    0.0000 N   0  0  0  0  0  0  0  0  0  0  0  0
    4.7654    1.7314    0.0000 N   0  0  0  0  0  0  0  0  0  0  0  0
    0.7500   -1.2990    0.0000 C   0  0  0  0  0  0  0  0  0  0  0  0
    1.5000    0.0000    0.0000 C   0  0  0  0  0  0  0  0  0  0  0  0
    0.7500    1.2990    0.0000 C   0  0  0  0  0  0  0  0  0  0  0  0
   -0.7500    1.2990    0.0000 C   0  0  0  0  0  0  0  0  0  0  0  0
   -1.5000    0.0000    0.0000 C   0  0  0  0  0  0  0  0  0  0  0  0
   -0.7500   -1.2990    0.0000 C   0  0  0  0  0  0  0  0  0  0  0  0
   -2.1203   -1.9091    0.0000 C   0  0  0  0  0  0  0  0  0  0  0  0
   -2.5838   -0.4826    0.0000 C   0  0  0  0  0  0  0  0  0  0  0  0
   -4.0511   -0.1707    0.0000 C   0  0  0  0  0  0  0  0  0  0  0  0
   -5.0548   -1.2854    0.0000 C   0  0  0  0  0  0  0  0  0  0  0  0
   -4.5912   -2.7120    0.0000 C   0  0  0  0  0  0  0  0  0  0  0  0
   -3.1240   -3.0239    0.0000 C   0  0  0  0  0  0  0  0  0  0  0  0
   -3.5875   -4.4504    0.0000 C   0  0  0  0  0  0  0  0  0  0  0  0
   -4.9579   -3.8403    0.0000 C   0  0  0  0  0  0  0  0  0  0  0  0
   -6.1714   -4.7220    0.0000 C   0  0  0  0  0  0  0  0  0  0  0  0
   -6.0146   -6.2138    0.0000 C   0  0  0  0  0  0  0  0  0  0  0  0
   -4.6443   -6.8239    0.0000 C   0  0  0  0  0  0  0  0  0  0  0  0
   -3.4307   -5.9422    0.0000 C   0  0  0  0  0  0  0  0  0  0  0  0
   -2.6807   -7.2413    0.0000 C   0  0  0  0  0  0  0  0  0  0  0  0
   -4.0511   -7.8514    0.0000 C   0  0  0  0  0  0  0  0  0  0  0  0
   -4.2079   -9.3432    0.0000 C   0  0  0  0  0  0  0  0  0  0  0  0
   -2.9943  -10.2248    0.0000 C   0  0  0  0  0  0  0  0  0  0  0  0
   -1.6240   -9.6147    0.0000 C   0  0  0  0  0  0  0  0  0  0  0  0
   -1.4672   -8.1229    0.0000 C   0  0  0  0  0  0  0  0  0  0  0  0
   -0.0000   -8.4348    0.0000 C   0  0  0  0  0  0  0  0  0  0  0  0
   -0.4635   -9.8614    0.0000 C   0  0  0  0  0  0  0  0  0  0  0  0
    0.5402  -10.9761    0.0000 C   0  0  0  0  0  0  0  0  0  0  0  0
    2.0074  -10.6642    0.0000 C   0  0  0  0  0  0  0  0  0  0  0  0
    2.4709   -9.2377    0.0000 C   0  0  0  0  0  0  0  0  0  0  0  0
    1.4672   -8.1229    0.0000 C   0  0  0  0  0  0  0  0  0  0  0  0
  1  2  1  0
  2  3  1  0
  3  4  2  0
  4  5  1  0
  5  6  1  0
  6  7  1  0
  7  8  2  0
  7  9  1  0
  9 10  1  0
 10 11  2  0
 11 12  1  0
 12 13  2  0
 13 14  1  0
 14 15  2  0
  6 16  1  0
 16 17  2  0
 17 18  1  0
 18 19  2  0
 19 20  1  0
 20 21  2  0
 21 22  1  0
 22 23  2  0
 23 24  1  0
 24 25  2  0
 25 26  1  0
 26 27  2  0
 27 28  1  0
 28 29  2  0
 29 30  1  0
 30 31  2  0
 31 32  1  0
 32 33  2  0
 33 34  1  0
 34 35  2  0
 35 36  1  0
 36 37  2  0
 37 38  1  0
 38 39  2  0
 39 40  1  0
 40 41  2  0
 41 42  1  0
 42 43  2  0
 43 44  1  0
 44 45  2  0
 45  2  1  0
 15 10  1  0
 21 16  1  0
 27 22  1  0
 33 28  1  0
 39 34  1  0
 45 40  1  0
M  END
>  <Title>  (690) 
idAAYPgen8

$$$$

     RDKit          2D

 46 52  0  0  0  0  0  0  0  0999 V2000
    4.1640   -3.7066    0.0000 O   0  0  0  0  0  0  0  0  0  0  0  0
    5.5154   -4.3574    0.0000 C   0  0  0  0  0  0  0  0  0  0  0  0
    6.7548   -3.5125    0.0000 O   0  0  0  0  0  0  0  0  0  0  0  0
    5.6275   -5.8532    0.0000 C   0  0  0  0  0  0  0  0  0  0  0  0
    4.3881   -6.6982    0.0000 O   0  0  0  0  0  0  0  0  0  0  0  0
    3.0367   -6.0474    0.0000 C   0  0  0  0  0  0  0  0  0  0  0  0
    3.3705   -4.5850    0.0000 C   0  0  0  0  0  0  0  0  0  0  0  0
    3.0367   -3.1226    0.0000 C   0  0  0  0  0  0  0  0  0  0  0  0
    2.1015   -1.9499    0.0000 C   0  0  0  0  0  0  0  0  0  0  0  0
    3.0367   -0.7771    0.0000 O   0  0  0  0  0  0  0  0  0  0  0  0
    0.7500   -1.2990    0.0000 C   0  0  0  0  0  0  0  0  0  0  0  0
    1.5000    0.0000    0.0000 C   0  0  0  0  0  0  0  0  0  0  0  0
    0.7500    1.2990    0.0000 C   0  0  0  0  0  0  0  0  0  0  0  0
   -0.7500    1.2990    0.0000 C   0  0  0  0  0  0  0  0  0  0  0  0
   -1.5000    0.0000    0.0000 C   0  0  0  0  0  0  0  0  0  0  0  0
   -0.7500   -1.2990    0.0000 C   0  0  0  0  0  0  0  0  0  0  0  0
   -2.1015   -1.9499    0.0000 C   0  0  0  0  0  0  0  0  0  0  0  0
   -2.6495   -0.5536    0.0000 C   0  0  0  0  0  0  0  0  0  0  0  0
   -4.1327   -0.3300    0.0000 C   0  0  0  0  0  0  0  0  0  0  0  0
   -5.0679   -1.5027    0.0000 C   0  0  0  0  0  0  0  0  0  0  0  0
   -4.5199   -2.8990    0.0000 C   0  0  0  0  0  0  0  0  0  0  0  0
   -3.0367   -3.1226    0.0000 C   0  0  0  0  0  0  0  0  0  0  0  0
   -3.3705   -4.5850    0.0000 C   0  0  0  0  0  0  0  0  0  0  0  0
   -4.8038   -4.1429    0.0000 C   0  0  0  0  0  0  0  0  0  0  0  0
   -5.9034   -5.1631    0.0000 C   0  0  0  0  0  0  0  0  0  0  0  0
   -5.5696   -6.6255    0.0000 C   0  0  0  0  0  0  0  0  0  0  0  0
   -4.1363   -7.0677    0.0000 C   0  0  0  0  0  0  0  0  0  0  0  0
   -3.0367   -6.0474    0.0000 C   0  0  0  0  0  0  0  0  0  0  0  0
   -2.1015   -7.2201    0.0000 C   0  0  0  0  0  0  0  0  0  0  0  0
   -3.3408   -8.0651    0.0000 C   0  0  0  0  0  0  0  0  0  0  0  0
   -3.2287   -9.5609    0.0000 C   0  0  0  0  0  0  0  0  0  0  0  0
   -1.8773  -10.2118    0.0000 C   0  0  0  0  0  0  0  0  0  0  0  0
   -0.6379   -9.3668    0.0000 C   0  0  0  0  0  0  0  0  0  0  0  0
   -0.7500   -7.8710    0.0000 C   0  0  0  0  0  0  0  0  0  0  0  0
    0.7500   -7.8710    0.0000 C   0  0  0  0  0  0  0  0  0  0  0  0
    0.6379   -9.3668    0.0000 C   0  0  0  0  0  0  0  0  0  0  0  0
    1.8773  -10.2118    0.0000 C   0  0  0  0  0  0  0  0  0  0  0  0
    3.2287   -9.5609    0.0000 C   0  0  0  0  0  0  0  0  0  0  0  0
    3.3408   -8.0651    0.0000 C   0  0  0  0  0  0  0  0  0  0  0  0
    2.1015   -7.2201    0.0000 C   0  0  0  0  0  0  0  0  0  0  0  0
    6.9790   -6.5041    0.0000 C   0  0  0  0  0  0  0  0  0  0  0  0
    7.0910   -7.9999    0.0000 N   0  0  0  0  0  0  0  0  0  0  0  0
    8.4425   -8.6507    0.0000 N   0  0  0  0  0  0  0  0  0  0  0  0
    9.6819   -7.8057    0.0000 N   0  0  0  0  0  0  0  0  0  0  0  0
    9.5698   -6.3099    0.0000 N   0  0  0  0  0  0  0  0  0  0  0  0
    8.2183   -5.6591    0.0000 N   0  0  0  0  0  0  0  0  0  0  0  0
  1  2  2  0
  2  3  1  0
  2  4  1  0
  4  5  1  0
  5  6  1  0
  6  7  2  0
  7  8  1  0
  8  9  2  0
  9 10  1  0
  9 11  1  0
 11 12  2  0
 12 13  1  0
 13 14  2  0
 14 15  1  0
 15 16  2  0
 16 17  1  0
 17 18  2  0
 18 19  1  0
 19 20  2  0
 20 21  1  0
 21 22  2  0
 22 23  1  0
 23 24  2  0
 24 25  1  0
 25 26  2  0
 26 27  1  0
 27 28  2  0
 28 29  1  0
 29 30  2  0
 30 31  1  0
 31 32  2  0
 32 33  1  0
 33 34  2  0
 34 35  1  0
 35 36  2  0
 36 37  1  0
 37 38  2  0
 38 39  1  0
 39 40  2  0
  4 41  1  0
 41 42  2  0
 42 43  1  0
 43 44  2  0
 44 45  1  0
 45 46  2  0
 40  6  1  0
 46 41  1  0
 16 11  1  0
 22 17  1  0
 28 23  1  0
 34 29  1  0
 40 35  1  0
M  END
>  <Title>  (691) 
idAAYQgen8

$$$$

     RDKit          2D

 10 10  0  0  0  0  0  0  0  0999 V2000
    4.5000    0.0000    0.0000 C   0  0  0  0  0  0  0  0  0  0  0  0
    3.0000    0.0000    0.0000 C   0  0  0  0  0  0  0  0  0  0  0  0
    1.5000    0.0000    0.0000 C   0  0  0  0  0  0  0  0  0  0  0  0
    0.7500   -1.2990    0.0000 C   0  0  0  0  0  0  0  0  0  0  0  0
   -0.7500   -1.2990    0.0000 C   0  0  0  0  0  0  0  0  0  0  0  0
   -1.5000    0.0000    0.0000 C   0  0  0  0  0  0  0  0  0  0  0  0
   -3.0000    0.0000    0.0000 C   0  0  0  0  0  0  0  0  0  0  0  0
   -4.5000    0.0000    0.0000 N   0  0  0  0  0  0  0  0  0  0  0  0
   -0.7500    1.2990    0.0000 C   0  0  0  0  0  0  0  0  0  0  0  0
    0.7500    1.2990    0.0000 C   0  0  0  0  0  0  0  0  0  0  0  0
  1  2  3  0
  2  3  1  0
  3  4  2  0
  4  5  1  0
  5  6  1  0
  6  7  1  0
  7  8  3  0
  6  9  1  0
  9 10  2  0
 10  3  1  0
M  END
>  <Title>  (692) 
idAAYRgen8

$$$$

     RDKit          2D

 39 44  0  0  0  0  0  0  0  0999 V2000
    2.1535   -8.4451    0.0000 C   0  0  0  0  0  0  0  0  0  0  0  0
    1.4564   -7.1169    0.0000 C   0  0  0  0  0  0  0  0  0  0  0  0
    2.5792   -6.1222    0.0000 C   0  0  0  0  0  0  0  0  0  0  0  0
    3.1111   -4.7197    0.0000 C   0  0  0  0  0  0  0  0  0  0  0  0
    2.9303   -3.2306    0.0000 C   0  0  0  0  0  0  0  0  0  0  0  0
    2.0782   -1.9961    0.0000 C   0  0  0  0  0  0  0  0  0  0  0  0
    3.0729   -0.8734    0.0000 C   0  0  0  0  0  0  0  0  0  0  0  0
    2.5979    0.5494    0.0000 O   0  0  0  0  0  0  0  0  0  0  0  0
    4.5426   -1.1734    0.0000 N   0  0  0  0  0  0  0  0  0  0  0  0
    5.5372   -0.0506    0.0000 C   0  0  0  0  0  0  0  0  0  0  0  0
    7.0069   -0.3507    0.0000 N   0  0  0  0  0  0  0  0  0  0  0  0
    8.0016    0.7721    0.0000 N   0  0  0  0  0  0  0  0  0  0  0  0
    7.5266    2.1949    0.0000 N   0  0  0  0  0  0  0  0  0  0  0  0
    6.0569    2.4949    0.0000 N   0  0  0  0  0  0  0  0  0  0  0  0
    5.0622    1.3722    0.0000 N   0  0  0  0  0  0  0  0  0  0  0  0
    0.7500   -1.2990    0.0000 C   0  0  0  0  0  0  0  0  0  0  0  0
    1.5000    0.0000    0.0000 C   0  0  0  0  0  0  0  0  0  0  0  0
    0.7500    1.2990    0.0000 C   0  0  0  0  0  0  0  0  0  0  0  0
   -0.7500    1.2990    0.0000 C   0  0  0  0  0  0  0  0  0  0  0  0
   -1.5000    0.0000    0.0000 C   0  0  0  0  0  0  0  0  0  0  0  0
   -0.7500   -1.2990    0.0000 C   0  0  0  0  0  0  0  0  0  0  0  0
   -2.0782   -1.9961    0.0000 C   0  0  0  0  0  0  0  0  0  0  0  0
   -2.7212   -0.6409    0.0000 C   0  0  0  0  0  0  0  0  0  0  0  0
   -4.2164   -0.5202    0.0000 C   0  0  0  0  0  0  0  0  0  0  0  0
   -5.0685   -1.7547    0.0000 C   0  0  0  0  0  0  0  0  0  0  0  0
   -4.4254   -3.1099    0.0000 C   0  0  0  0  0  0  0  0  0  0  0  0
   -2.9303   -3.2306    0.0000 C   0  0  0  0  0  0  0  0  0  0  0  0
   -3.1111   -4.7197    0.0000 C   0  0  0  0  0  0  0  0  0  0  0  0
   -4.5917   -4.4790    0.0000 C   0  0  0  0  0  0  0  0  0  0  0  0
   -5.5403   -5.6410    0.0000 C   0  0  0  0  0  0  0  0  0  0  0  0
   -5.0084   -7.0435    0.0000 C   0  0  0  0  0  0  0  0  0  0  0  0
   -3.5278   -7.2841    0.0000 C   0  0  0  0  0  0  0  0  0  0  0  0
   -2.5792   -6.1222    0.0000 C   0  0  0  0  0  0  0  0  0  0  0  0
   -1.4564   -7.1169    0.0000 C   0  0  0  0  0  0  0  0  0  0  0  0
   -2.4955   -8.1987    0.0000 C   0  0  0  0  0  0  0  0  0  0  0  0
   -2.0782   -9.6395    0.0000 C   0  0  0  0  0  0  0  0  0  0  0  0
   -0.6218   -9.9984    0.0000 C   0  0  0  0  0  0  0  0  0  0  0  0
    0.4173   -8.9166    0.0000 C   0  0  0  0  0  0  0  0  0  0  0  0
   -0.0000   -7.4758    0.0000 C   0  0  0  0  0  0  0  0  0  0  0  0
  1  2  1  0
  2  3  1  0
  3  4  1  0
  4  5  1  0
  5  6  1  0
  6  7  1  0
  7  8  2  0
  7  9  1  0
  9 10  1  0
 10 11  2  0
 11 12  1  0
 12 13  2  0
 13 14  1  0
 14 15  2  0
  6 16  1  0
 16 17  2  0
 17 18  1  0
 18 19  2  0
 19 20  1  0
 20 21  2  0
 21 22  1  0
 22 23  2  0
 23 24  1  0
 24 25  2  0
 25 26  1  0
 26 27  2  0
 27 28  1  0
 28 29  2  0
 29 30  1  0
 30 31  2  0
 31 32  1  0
 32 33  2  0
 33 34  1  0
 34 35  2  0
 35 36  1  0
 36 37  2  0
 37 38  1  0
 38 39  2  0
 39  2  1  0
 15 10  1  0
 21 16  1  0
 27 22  1  0
 33 28  1  0
 39 34  1  0
M  END
>  <Title>  (693) 
idAAYSgen8

$$$$

     RDKit          2D

 11 11  0  0  0  0  0  0  0  0999 V2000
    3.2286   -0.0000    0.0000 C   0  0  0  0  0  0  0  0  0  0  0  0
    1.7286    0.0000    0.0000 C   0  0  0  0  0  0  0  0  0  0  0  0
    1.0777    1.3515    0.0000 C   0  0  0  0  0  0  0  0  0  0  0  0
   -0.3846    1.6852    0.0000 C   0  0  0  0  0  0  0  0  0  0  0  0
   -0.7184    3.1476    0.0000 O   0  0  0  0  0  0  0  0  0  0  0  0
   -1.5574    0.7500    0.0000 C   0  0  0  0  0  0  0  0  0  0  0  0
   -2.9088    1.4008    0.0000 O   0  0  0  0  0  0  0  0  0  0  0  0
   -1.5574   -0.7500    0.0000 C   0  0  0  0  0  0  0  0  0  0  0  0
   -2.9088   -1.4008    0.0000 O   0  0  0  0  0  0  0  0  0  0  0  0
   -0.3846   -1.6852    0.0000 C   0  0  0  0  0  0  0  0  0  0  0  0
    1.0777   -1.3515    0.0000 C   0  0  0  0  0  0  0  0  0  0  0  0
  1  2  1  0
  2  3  2  0
  3  4  1  0
  4  5  1  0
  4  6  2  0
  6  7  1  0
  6  8  1  0
  8  9  1  0
  8 10  2  0
 10 11  1  0
 11  2  1  0
M  END
>  <Title>  (694) 
idAAYTgen8

$$$$

     RDKit          2D

 69 79  0  0  0  0  0  0  0  0999 V2000
   -5.0930    8.1104    0.0000 C   0  0  0  0  0  0  0  0  0  0  0  0
   -3.6306    7.7766    0.0000 C   0  0  0  0  0  0  0  0  0  0  0  0
   -3.0921    9.1766    0.0000 C   0  0  0  0  0  0  0  0  0  0  0  0
   -2.1810   10.3682    0.0000 C   0  0  0  0  0  0  0  0  0  0  0  0
   -0.9710   11.2548    0.0000 C   0  0  0  0  0  0  0  0  0  0  0  0
   -1.6764   12.5786    0.0000 C   0  0  0  0  0  0  0  0  0  0  0  0
   -0.8827   13.8514    0.0000 O   0  0  0  0  0  0  0  0  0  0  0  0
   -3.1756   12.6296    0.0000 N   0  0  0  0  0  0  0  0  0  0  0  0
   -3.8810   13.9534    0.0000 C   0  0  0  0  0  0  0  0  0  0  0  0
   -3.0873   15.2262    0.0000 N   0  0  0  0  0  0  0  0  0  0  0  0
   -3.7927   16.5499    0.0000 N   0  0  0  0  0  0  0  0  0  0  0  0
   -5.2918   16.6009    0.0000 N   0  0  0  0  0  0  0  0  0  0  0  0
   -6.0855   15.3281    0.0000 N   0  0  0  0  0  0  0  0  0  0  0  0
   -5.3801   14.0044    0.0000 N   0  0  0  0  0  0  0  0  0  0  0  0
    0.4397   11.7647    0.0000 C   0  0  0  0  0  0  0  0  0  0  0  0
   -0.3884   13.0154    0.0000 C   0  0  0  0  0  0  0  0  0  0  0  0
    0.2808   14.3579    0.0000 C   0  0  0  0  0  0  0  0  0  0  0  0
    1.7780   14.4496    0.0000 C   0  0  0  0  0  0  0  0  0  0  0  0
    2.6060   13.1989    0.0000 C   0  0  0  0  0  0  0  0  0  0  0  0
    1.9369   11.8564    0.0000 C   0  0  0  0  0  0  0  0  0  0  0  0
    3.3992   11.5226    0.0000 C   0  0  0  0  0  0  0  0  0  0  0  0
    3.3788   13.0225    0.0000 C   0  0  0  0  0  0  0  0  0  0  0  0
    4.6676   13.7901    0.0000 C   0  0  0  0  0  0  0  0  0  0  0  0
    5.9767   13.0578    0.0000 C   0  0  0  0  0  0  0  0  0  0  0  0
    5.9971   11.5579    0.0000 C   0  0  0  0  0  0  0  0  0  0  0  0
    4.7084   10.7903    0.0000 C   0  0  0  0  0  0  0  0  0  0  0  0
    5.7582    9.7189    0.0000 C   0  0  0  0  0  0  0  0  0  0  0  0
    6.5519   10.9917    0.0000 C   0  0  0  0  0  0  0  0  0  0  0  0
    8.0510   10.9407    0.0000 C   0  0  0  0  0  0  0  0  0  0  0  0
    8.7564    9.6169    0.0000 C   0  0  0  0  0  0  0  0  0  0  0  0
    7.9627    8.3442    0.0000 C   0  0  0  0  0  0  0  0  0  0  0  0
    6.4636    8.3951    0.0000 C   0  0  0  0  0  0  0  0  0  0  0  0
    6.7674    6.9262    0.0000 C   0  0  0  0  0  0  0  0  0  0  0  0
    8.1233    7.5679    0.0000 C   0  0  0  0  0  0  0  0  0  0  0  0
    9.3569    6.7145    0.0000 C   0  0  0  0  0  0  0  0  0  0  0  0
    9.2346    5.2195    0.0000 C   0  0  0  0  0  0  0  0  0  0  0  0
    7.8788    4.5778    0.0000 C   0  0  0  0  0  0  0  0  0  0  0  0
    6.6452    5.4312    0.0000 C   0  0  0  0  0  0  0  0  0  0  0  0
    6.1067    4.0312    0.0000 C   0  0  0  0  0  0  0  0  0  0  0  0
    7.5942    3.8380    0.0000 C   0  0  0  0  0  0  0  0  0  0  0  0
    8.1706    2.4531    0.0000 C   0  0  0  0  0  0  0  0  0  0  0  0
    7.2594    1.2615    0.0000 C   0  0  0  0  0  0  0  0  0  0  0  0
    5.7719    1.4548    0.0000 C   0  0  0  0  0  0  0  0  0  0  0  0
    5.1956    2.8397    0.0000 C   0  0  0  0  0  0  0  0  0  0  0  0
    3.9856    1.9530    0.0000 C   0  0  0  0  0  0  0  0  0  0  0  0
    5.1325    0.9862    0.0000 C   0  0  0  0  0  0  0  0  0  0  0  0
    4.8687   -0.4904    0.0000 C   0  0  0  0  0  0  0  0  0  0  0  0
    3.4580   -1.0002    0.0000 C   0  0  0  0  0  0  0  0  0  0  0  0
    2.3111   -0.0334    0.0000 C   0  0  0  0  0  0  0  0  0  0  0  0
    2.5749    1.4432    0.0000 C   0  0  0  0  0  0  0  0  0  0  0  0
    1.0777    1.3515    0.0000 C   0  0  0  0  0  0  0  0  0  0  0  0
    1.0286   -0.0000    0.0000 C   0  0  0  0  0  0  0  0  0  0  0  0
    0.6413   -0.8042    0.0000 C   0  0  0  0  0  0  0  0  0  0  0  0
   -0.2289   -1.0028    0.0000 C   0  0  0  0  0  0  0  0  0  0  0  0
   -0.9267   -0.4463    0.0000 C   0  0  0  0  0  0  0  0  0  0  0  0
   -0.9267    0.4463    0.0000 C   0  0  0  0  0  0  0  0  0  0  0  0
   -0.3846    1.6852    0.0000 C   0  0  0  0  0  0  0  0  0  0  0  0
   -1.6938    2.4175    0.0000 C   0  0  0  0  0  0  0  0  0  0  0  0
   -2.0967    0.9726    0.0000 C   0  0  0  0  0  0  0  0  0  0  0  0
   -3.5495    0.5992    0.0000 C   0  0  0  0  0  0  0  0  0  0  0  0
   -4.5993    1.6706    0.0000 C   0  0  0  0  0  0  0  0  0  0  0  0
   -4.1963    3.1155    0.0000 C   0  0  0  0  0  0  0  0  0  0  0  0
   -2.7435    3.4889    0.0000 C   0  0  0  0  0  0  0  0  0  0  0  0
   -3.4490    4.8127    0.0000 C   0  0  0  0  0  0  0  0  0  0  0  0
   -4.5691    3.8151    0.0000 C   0  0  0  0  0  0  0  0  0  0  0  0
   -5.9932    4.2864    0.0000 C   0  0  0  0  0  0  0  0  0  0  0  0
   -6.2970    5.7553    0.0000 C   0  0  0  0  0  0  0  0  0  0  0  0
   -5.1769    6.7529    0.0000 C   0  0  0  0  0  0  0  0  0  0  0  0
   -3.7528    6.2816    0.0000 C   0  0  0  0  0  0  0  0  0  0  0  0
  1  2  1  0
  2  3  1  0
  3  4  1  0
  4  5  1  0
  5  6  1  0
  6  7  2  0
  6  8  1  0
  8  9  1  0
  9 10  2  0
 10 11  1  0
 11 12  2  0
 12 13  1  0
 13 14  2  0
  5 15  1  0
 15 16  2  0
 16 17  1  0
 17 18  2  0
 18 19  1  0
 19 20  2  0
 20 21  1  0
 21 22  2  0
 22 23  1  0
 23 24  2  0
 24 25  1  0
 25 26  2  0
 26 27  1  0
 27 28  2  0
 28 29  1  0
 29 30  2  0
 30 31  1  0
 31 32  2  0
 32 33  1  0
 33 34  2  0
 34 35  1  0
 35 36  2  0
 36 37  1  0
 37 38  2  0
 38 39  1  0
 39 40  2  0
 40 41  1  0
 41 42  2  0
 42 43  1  0
 43 44  2  0
 44 45  1  0
 45 46  2  0
 46 47  1  0
 47 48  2  0
 48 49  1  0
 49 50  2  0
 50 51  1  0
 51 52  2  0
 52 53  1  0
 53 54  1  0
 54 55  1  0
 55 56  1  0
 56 57  2  0
 57 58  1  0
 58 59  2  0
 59 60  1  0
 60 61  2  0
 61 62  1  0
 62 63  2  0
 63 64  1  0
 64 65  2  0
 65 66  1  0
 66 67  2  0
 67 68  1  0
 68 69  2  0
 69  2  1  0
 14  9  1  0
 20 15  1  0
 26 21  1  0
 32 27  1  0
 38 33  1  0
 44 39  1  0
 50 45  1  0
 57 51  1  0
 63 58  1  0
 69 64  1  0
M  END
>  <Title>  (695) 
idAAYUgen8

$$$$

     RDKit          2D

 11 11  0  0  0  0  0  0  0  0999 V2000
    5.2500   -1.2990    0.0000 C   0  0  0  0  0  0  0  0  0  0  0  0
    3.7500   -1.2990    0.0000 C   0  0  0  0  0  0  0  0  0  0  0  0
    3.0000    0.0000    0.0000 C   0  0  0  0  0  0  0  0  0  0  0  0
    1.5000    0.0000    0.0000 C   0  0  0  0  0  0  0  0  0  0  0  0
    0.7500   -1.2990    0.0000 C   0  0  0  0  0  0  0  0  0  0  0  0
   -0.7500   -1.2990    0.0000 C   0  0  0  0  0  0  0  0  0  0  0  0
   -1.5000   -2.5981    0.0000 O   0  0  0  0  0  0  0  0  0  0  0  0
   -1.5000    0.0000    0.0000 C   0  0  0  0  0  0  0  0  0  0  0  0
   -3.0000    0.0000    0.0000 O   0  0  0  0  0  0  0  0  0  0  0  0
   -0.7500    1.2990    0.0000 C   0  0  0  0  0  0  0  0  0  0  0  0
    0.7500    1.2990    0.0000 C   0  0  0  0  0  0  0  0  0  0  0  0
  1  2  1  0
  2  3  1  0
  3  4  1  0
  4  5  2  0
  5  6  1  0
  6  7  1  0
  6  8  1  0
  8  9  1  0
  8 10  1  0
 10 11  1  0
 11  4  1  0
M  END
>  <Title>  (696) 
idAAYVgen8

$$$$

     RDKit          2D

 55 63  0  0  0  0  0  0  0  0999 V2000
    5.3686   -3.7837    0.0000 C   0  0  0  0  0  0  0  0  0  0  0  0
    3.9258   -4.1942    0.0000 C   0  0  0  0  0  0  0  0  0  0  0  0
    3.2572   -2.8514    0.0000 C   0  0  0  0  0  0  0  0  0  0  0  0
    2.1487   -1.8409    0.0000 C   0  0  0  0  0  0  0  0  0  0  0  0
    2.9384   -0.5656    0.0000 C   0  0  0  0  0  0  0  0  0  0  0  0
    2.2287    0.7559    0.0000 O   0  0  0  0  0  0  0  0  0  0  0  0
    4.4376   -0.6118    0.0000 N   0  0  0  0  0  0  0  0  0  0  0  0
    5.2273    0.6636    0.0000 C   0  0  0  0  0  0  0  0  0  0  0  0
    6.7266    0.6174    0.0000 N   0  0  0  0  0  0  0  0  0  0  0  0
    7.5162    1.8927    0.0000 N   0  0  0  0  0  0  0  0  0  0  0  0
    6.8066    3.2142    0.0000 N   0  0  0  0  0  0  0  0  0  0  0  0
    5.3073    3.2604    0.0000 N   0  0  0  0  0  0  0  0  0  0  0  0
    4.5177    1.9851    0.0000 N   0  0  0  0  0  0  0  0  0  0  0  0
    0.7500   -1.2990    0.0000 C   0  0  0  0  0  0  0  0  0  0  0  0
    1.5000    0.0000    0.0000 C   0  0  0  0  0  0  0  0  0  0  0  0
    0.7500    1.2990    0.0000 C   0  0  0  0  0  0  0  0  0  0  0  0
   -0.7500    1.2990    0.0000 C   0  0  0  0  0  0  0  0  0  0  0  0
   -1.5000    0.0000    0.0000 C   0  0  0  0  0  0  0  0  0  0  0  0
   -0.7500   -1.2990    0.0000 C   0  0  0  0  0  0  0  0  0  0  0  0
   -2.1487   -1.8409    0.0000 C   0  0  0  0  0  0  0  0  0  0  0  0
   -2.4696   -0.3756    0.0000 C   0  0  0  0  0  0  0  0  0  0  0  0
   -3.8990    0.0791    0.0000 C   0  0  0  0  0  0  0  0  0  0  0  0
   -5.0075   -0.9314    0.0000 C   0  0  0  0  0  0  0  0  0  0  0  0
   -4.6866   -2.3967    0.0000 C   0  0  0  0  0  0  0  0  0  0  0  0
   -3.2572   -2.8514    0.0000 C   0  0  0  0  0  0  0  0  0  0  0  0
   -3.9258   -4.1942    0.0000 C   0  0  0  0  0  0  0  0  0  0  0  0
   -5.1501   -3.3275    0.0000 C   0  0  0  0  0  0  0  0  0  0  0  0
   -6.5128   -3.9545    0.0000 C   0  0  0  0  0  0  0  0  0  0  0  0
   -6.6512   -5.4481    0.0000 C   0  0  0  0  0  0  0  0  0  0  0  0
   -5.4269   -6.3147    0.0000 C   0  0  0  0  0  0  0  0  0  0  0  0
   -4.0642   -5.6878    0.0000 C   0  0  0  0  0  0  0  0  0  0  0  0
   -3.6537   -7.1305    0.0000 C   0  0  0  0  0  0  0  0  0  0  0  0
   -5.1424   -7.3149    0.0000 C   0  0  0  0  0  0  0  0  0  0  0  0
   -5.7270   -8.6962    0.0000 C   0  0  0  0  0  0  0  0  0  0  0  0
   -4.8231   -9.8932    0.0000 C   0  0  0  0  0  0  0  0  0  0  0  0
   -3.3345   -9.7089    0.0000 C   0  0  0  0  0  0  0  0  0  0  0  0
   -2.7498   -8.3276    0.0000 C   0  0  0  0  0  0  0  0  0  0  0  0
   -1.4745   -9.1172    0.0000 C   0  0  0  0  0  0  0  0  0  0  0  0
   -2.4504  -10.2563    0.0000 C   0  0  0  0  0  0  0  0  0  0  0  0
   -1.9519  -11.6710    0.0000 C   0  0  0  0  0  0  0  0  0  0  0  0
   -0.4774  -11.9467    0.0000 C   0  0  0  0  0  0  0  0  0  0  0  0
    0.4985  -10.8076    0.0000 C   0  0  0  0  0  0  0  0  0  0  0  0
   -0.0000   -9.3928    0.0000 C   0  0  0  0  0  0  0  0  0  0  0  0
    1.4745   -9.1172    0.0000 C   0  0  0  0  0  0  0  0  0  0  0  0
    1.5207  -10.6165    0.0000 C   0  0  0  0  0  0  0  0  0  0  0  0
    2.8422  -11.3261    0.0000 C   0  0  0  0  0  0  0  0  0  0  0  0
    4.1175  -10.5365    0.0000 C   0  0  0  0  0  0  0  0  0  0  0  0
    4.0713   -9.0372    0.0000 C   0  0  0  0  0  0  0  0  0  0  0  0
    2.7498   -8.3276    0.0000 C   0  0  0  0  0  0  0  0  0  0  0  0
    3.6537   -7.1305    0.0000 C   0  0  0  0  0  0  0  0  0  0  0  0
    4.8990   -7.9668    0.0000 C   0  0  0  0  0  0  0  0  0  0  0  0
    6.0791   -7.0408    0.0000 C   0  0  0  0  0  0  0  0  0  0  0  0
    7.5219   -7.4513    0.0000 O   0  0  0  0  0  0  0  0  0  0  0  0
    5.5632   -5.6324    0.0000 C   0  0  0  0  0  0  0  0  0  0  0  0
    4.0642   -5.6878    0.0000 C   0  0  0  0  0  0  0  0  0  0  0  0
  1  2  1  0
  2  3  2  0
  3  4  1  0
  4  5  1  0
  5  6  2  0
  5  7  1  0
  7  8  1  0
  8  9  2  0
  9 10  1  0
 10 11  2  0
 11 12  1  0
 12 13  2  0
  4 14  1  0
 14 15  2  0
 15 16  1  0
 16 17  2  0
 17 18  1  0
 18 19  2  0
 19 20  1  0
 20 21  2  0
 21 22  1  0
 22 23  2  0
 23 24  1  0
 24 25  2  0
 25 26  1  0
 26 27  2  0
 27 28  1  0
 28 29  2  0
 29 30  1  0
 30 31  2  0
 31 32  1  0
 32 33  2  0
 33 34  1  0
 34 35  2  0
 35 36  1  0
 36 37  2  0
 37 38  1  0
 38 39  2  0
 39 40  1  0
 40 41  2  0
 41 42  1  0
 42 43  2  0
 43 44  1  0
 44 45  2  0
 45 46  1  0
 46 47  2  0
 47 48  1  0
 48 49  2  0
 49 50  1  0
 50 51  2  0
 51 52  1  0
 52 53  1  0
 52 54  1  0
 54 55  2  0
 55  2  1  0
 13  8  1  0
 19 14  1  0
 25 20  1  0
 31 26  1  0
 37 32  1  0
 43 38  1  0
 49 44  1  0
 55 50  1  0
M  END
>  <Title>  (697) 
idAAYWgen8

$$$$

     RDKit          2D

 64 64  0  0  0  0  0  0  0  0999 V2000
   16.5464    0.0000    0.0000 C   0  0  0  0  0  0  0  0  0  0  0  0
   15.0464    0.0000    0.0000 N   0  0  0  0  0  0  0  0  0  0  0  0
   14.9716    1.4981    0.0000 C   0  0  0  0  0  0  0  0  0  0  0  0
   14.7480    2.9814    0.0000 C   0  0  0  0  0  0  0  0  0  0  0  0
   14.3779    4.4350    0.0000 C   0  0  0  0  0  0  0  0  0  0  0  0
   13.8649    5.8445    0.0000 C   0  0  0  0  0  0  0  0  0  0  0  0
   13.2141    7.1960    0.0000 C   0  0  0  0  0  0  0  0  0  0  0  0
   12.4319    8.4759    0.0000 C   0  0  0  0  0  0  0  0  0  0  0  0
   11.5262    9.6716    0.0000 C   0  0  0  0  0  0  0  0  0  0  0  0
   10.5059   10.7712    0.0000 C   0  0  0  0  0  0  0  0  0  0  0  0
    9.3813   11.7637    0.0000 C   0  0  0  0  0  0  0  0  0  0  0  0
    8.1634   12.6393    0.0000 C   0  0  0  0  0  0  0  0  0  0  0  0
    6.8643   13.3893    0.0000 C   0  0  0  0  0  0  0  0  0  0  0  0
    5.4971   14.0063    0.0000 C   0  0  0  0  0  0  0  0  0  0  0  0
    4.0752   14.4840    0.0000 C   0  0  0  0  0  0  0  0  0  0  0  0
    2.6128   14.8178    0.0000 C   0  0  0  0  0  0  0  0  0  0  0  0
    1.1244   15.0043    0.0000 C   0  0  0  0  0  0  0  0  0  0  0  0
   -0.3751   15.0417    0.0000 C   0  0  0  0  0  0  0  0  0  0  0  0
   -1.8709   14.9296    0.0000 C   0  0  0  0  0  0  0  0  0  0  0  0
   -3.3481   14.6691    0.0000 C   0  0  0  0  0  0  0  0  0  0  0  0
   -4.7921   14.2629    0.0000 C   0  0  0  0  0  0  0  0  0  0  0  0
   -6.1884   13.7149    0.0000 C   0  0  0  0  0  0  0  0  0  0  0  0
   -7.5232   13.0305    0.0000 C   0  0  0  0  0  0  0  0  0  0  0  0
   -8.7832   12.2167    0.0000 C   0  0  0  0  0  0  0  0  0  0  0  0
   -9.9560   11.2815    0.0000 C   0  0  0  0  0  0  0  0  0  0  0  0
  -11.0298   10.2341    0.0000 C   0  0  0  0  0  0  0  0  0  0  0  0
  -11.9940    9.0851    0.0000 C   0  0  0  0  0  0  0  0  0  0  0  0
  -12.8389    7.8457    0.0000 C   0  0  0  0  0  0  0  0  0  0  0  0
  -13.5563    6.5284    0.0000 C   0  0  0  0  0  0  0  0  0  0  0  0
  -14.1390    5.1462    0.0000 C   0  0  0  0  0  0  0  0  0  0  0  0
  -14.5811    3.7128    0.0000 C   0  0  0  0  0  0  0  0  0  0  0  0
  -14.8783    2.2425    0.0000 C   0  0  0  0  0  0  0  0  0  0  0  0
  -15.0277    0.7500    0.0000 C   0  0  0  0  0  0  0  0  0  0  0  0
  -15.0277   -0.7500    0.0000 C   0  0  0  0  0  0  0  0  0  0  0  0
  -14.8783   -2.2425    0.0000 C   0  0  0  0  0  0  0  0  0  0  0  0
  -14.5811   -3.7128    0.0000 C   0  0  0  0  0  0  0  0  0  0  0  0
  -14.1390   -5.1462    0.0000 C   0  0  0  0  0  0  0  0  0  0  0  0
  -13.5563   -6.5284    0.0000 C   0  0  0  0  0  0  0  0  0  0  0  0
  -12.8389   -7.8457    0.0000 C   0  0  0  0  0  0  0  0  0  0  0  0
  -11.9940   -9.0851    0.0000 C   0  0  0  0  0  0  0  0  0  0  0  0
  -11.0298  -10.2341    0.0000 C   0  0  0  0  0  0  0  0  0  0  0  0
   -9.9560  -11.2815    0.0000 C   0  0  0  0  0  0  0  0  0  0  0  0
   -8.7832  -12.2167    0.0000 C   0  0  0  0  0  0  0  0  0  0  0  0
   -7.5232  -13.0305    0.0000 C   0  0  0  0  0  0  0  0  0  0  0  0
   -6.1884  -13.7149    0.0000 C   0  0  0  0  0  0  0  0  0  0  0  0
   -4.7921  -14.2629    0.0000 C   0  0  0  0  0  0  0  0  0  0  0  0
   -3.3481  -14.6691    0.0000 C   0  0  0  0  0  0  0  0  0  0  0  0
   -1.8709  -14.9296    0.0000 C   0  0  0  0  0  0  0  0  0  0  0  0
   -0.3751  -15.0417    0.0000 C   0  0  0  0  0  0  0  0  0  0  0  0
    1.1244  -15.0043    0.0000 C   0  0  0  0  0  0  0  0  0  0  0  0
    2.6128  -14.8178    0.0000 C   0  0  0  0  0  0  0  0  0  0  0  0
    4.0752  -14.4840    0.0000 C   0  0  0  0  0  0  0  0  0  0  0  0
    5.4971  -14.0063    0.0000 C   0  0  0  0  0  0  0  0  0  0  0  0
    6.8643  -13.3893    0.0000 C   0  0  0  0  0  0  0  0  0  0  0  0
    8.1634  -12.6393    0.0000 C   0  0  0  0  0  0  0  0  0  0  0  0
    9.3813  -11.7637    0.0000 C   0  0  0  0  0  0  0  0  0  0  0  0
   10.5059  -10.7712    0.0000 C   0  0  0  0  0  0  0  0  0  0  0  0
   11.5262   -9.6716    0.0000 C   0  0  0  0  0  0  0  0  0  0  0  0
   12.4319   -8.4759    0.0000 C   0  0  0  0  0  0  0  0  0  0  0  0
   13.2141   -7.1960    0.0000 C   0  0  0  0  0  0  0  0  0  0  0  0
   13.8649   -5.8445    0.0000 C   0  0  0  0  0  0  0  0  0  0  0  0
   14.3779   -4.4350    0.0000 C   0  0  0  0  0  0  0  0  0  0  0  0
   14.7480   -2.9814    0.0000 C   0  0  0  0  0  0  0  0  0  0  0  0
   14.9716   -1.4981    0.0000 C   0  0  0  0  0  0  0  0  0  0  0  0
  1  2  1  0
  2  3  1  0
  3  4  2  0
  4  5  1  0
  5  6  1  0
  6  7  1  0
  7  8  1  0
  8  9  1  0
  9 10  1  0
 10 11  1  0
 11 12  1  0
 12 13  1  0
 13 14  1  0
 14 15  1  0
 15 16  1  0
 16 17  1  0
 17 18  1  0
 18 19  1  0
 19 20  1  0
 20 21  1  0
 21 22  1  0
 22 23  1  0
 23 24  1  0
 24 25  1  0
 25 26  1  0
 26 27  1  0
 27 28  1  0
 28 29  1  0
 29 30  1  0
 30 31  1  0
 31 32  1  0
 32 33  1  0
 33 34  1  0
 34 35  1  0
 35 36  1  0
 36 37  1  0
 37 38  1  0
 38 39  1  0
 39 40  1  0
 40 41  1  0
 41 42  1  0
 42 43  1  0
 43 44  1  0
 44 45  1  0
 45 46  1  0
 46 47  1  0
 47 48  1  0
 48 49  1  0
 49 50  1  0
 50 51  1  0
 51 52  1  0
 52 53  1  0
 53 54  1  0
 54 55  1  0
 55 56  1  0
 56 57  1  0
 57 58  1  0
 58 59  1  0
 59 60  1  0
 60 61  1  0
 61 62  1  0
 62 63  1  0
 63 64  1  0
 64  2  1  0
M  END
>  <Title>  (698) 
idAAYXgen8

$$$$

     RDKit          2D

 95 97  0  0  0  0  0  0  0  0999 V2000
   -5.5766   -0.5106    0.0000 C   0  0  0  0  0  0  0  0  0  0  0  0
   -5.1928   -1.9607    0.0000 C   0  0  0  0  0  0  0  0  0  0  0  0
   -6.6277   -2.3978    0.0000 C   0  0  0  0  0  0  0  0  0  0  0  0
   -8.0264   -2.9396    0.0000 C   0  0  0  0  0  0  0  0  0  0  0  0
   -9.3813   -3.5833    0.0000 C   0  0  0  0  0  0  0  0  0  0  0  0
  -10.6849   -4.3253    0.0000 C   0  0  0  0  0  0  0  0  0  0  0  0
  -11.9302   -5.1615    0.0000 C   0  0  0  0  0  0  0  0  0  0  0  0
  -13.1103   -6.0875    0.0000 C   0  0  0  0  0  0  0  0  0  0  0  0
  -14.2188   -7.0980    0.0000 C   0  0  0  0  0  0  0  0  0  0  0  0
  -15.2497   -8.1876    0.0000 C   0  0  0  0  0  0  0  0  0  0  0  0
  -16.1973   -9.3505    0.0000 C   0  0  0  0  0  0  0  0  0  0  0  0
  -17.0564  -10.5801    0.0000 C   0  0  0  0  0  0  0  0  0  0  0  0
  -17.8223  -11.8698    0.0000 C   0  0  0  0  0  0  0  0  0  0  0  0
  -18.4909  -13.2125    0.0000 C   0  0  0  0  0  0  0  0  0  0  0  0
  -19.0585  -14.6010    0.0000 C   0  0  0  0  0  0  0  0  0  0  0  0
  -19.5221  -16.0275    0.0000 C   0  0  0  0  0  0  0  0  0  0  0  0
  -19.8790  -17.4845    0.0000 C   0  0  0  0  0  0  0  0  0  0  0  0
  -20.1273  -18.9638    0.0000 C   0  0  0  0  0  0  0  0  0  0  0  0
  -20.2657  -20.4574    0.0000 C   0  0  0  0  0  0  0  0  0  0  0  0
  -20.2934  -21.9571    0.0000 C   0  0  0  0  0  0  0  0  0  0  0  0
  -20.2103  -23.4548    0.0000 C   0  0  0  0  0  0  0  0  0  0  0  0
  -20.0168  -24.9423    0.0000 C   0  0  0  0  0  0  0  0  0  0  0  0
  -19.7140  -26.4114    0.0000 C   0  0  0  0  0  0  0  0  0  0  0  0
  -19.3035  -27.8541    0.0000 C   0  0  0  0  0  0  0  0  0  0  0  0
  -18.7876  -29.2626    0.0000 C   0  0  0  0  0  0  0  0  0  0  0  0
  -18.1690  -30.6291    0.0000 C   0  0  0  0  0  0  0  0  0  0  0  0
  -17.4513  -31.9463    0.0000 C   0  0  0  0  0  0  0  0  0  0  0  0
  -16.6382  -33.2068    0.0000 C   0  0  0  0  0  0  0  0  0  0  0  0
  -15.7342  -34.4038    0.0000 C   0  0  0  0  0  0  0  0  0  0  0  0
  -14.7443  -35.5308    0.0000 C   0  0  0  0  0  0  0  0  0  0  0  0
  -13.6739  -36.5816    0.0000 C   0  0  0  0  0  0  0  0  0  0  0  0
  -12.5288  -37.5505    0.0000 C   0  0  0  0  0  0  0  0  0  0  0  0
  -11.3153  -38.4322    0.0000 C   0  0  0  0  0  0  0  0  0  0  0  0
  -10.0400  -39.2218    0.0000 C   0  0  0  0  0  0  0  0  0  0  0  0
   -8.7098  -39.9151    0.0000 C   0  0  0  0  0  0  0  0  0  0  0  0
   -7.3321  -40.5083    0.0000 C   0  0  0  0  0  0  0  0  0  0  0  0
   -5.9143  -40.9981    0.0000 C   0  0  0  0  0  0  0  0  0  0  0  0
   -4.4642  -41.3819    0.0000 C   0  0  0  0  0  0  0  0  0  0  0  0
   -2.9898  -41.6575    0.0000 C   0  0  0  0  0  0  0  0  0  0  0  0
   -1.4990  -41.8235    0.0000 C   0  0  0  0  0  0  0  0  0  0  0  0
   -0.0000  -41.8789    0.0000 C   0  0  0  0  0  0  0  0  0  0  0  0
    1.4990  -41.8235    0.0000 C   0  0  0  0  0  0  0  0  0  0  0  0
    2.9898  -41.6575    0.0000 C   0  0  0  0  0  0  0  0  0  0  0  0
    4.4642  -41.3819    0.0000 C   0  0  0  0  0  0  0  0  0  0  0  0
    5.9143  -40.9981    0.0000 C   0  0  0  0  0  0  0  0  0  0  0  0
    7.3321  -40.5083    0.0000 C   0  0  0  0  0  0  0  0  0  0  0  0
    8.7098  -39.9151    0.0000 C   0  0  0  0  0  0  0  0  0  0  0  0
   10.0400  -39.2218    0.0000 C   0  0  0  0  0  0  0  0  0  0  0  0
   11.3153  -38.4322    0.0000 C   0  0  0  0  0  0  0  0  0  0  0  0
   12.5288  -37.5505    0.0000 C   0  0  0  0  0  0  0  0  0  0  0  0
   13.6739  -36.5816    0.0000 C   0  0  0  0  0  0  0  0  0  0  0  0
   14.7443  -35.5308    0.0000 C   0  0  0  0  0  0  0  0  0  0  0  0
   15.7342  -34.4038    0.0000 C   0  0  0  0  0  0  0  0  0  0  0  0
   16.6382  -33.2068    0.0000 C   0  0  0  0  0  0  0  0  0  0  0  0
   17.4513  -31.9463    0.0000 C   0  0  0  0  0  0  0  0  0  0  0  0
   18.1690  -30.6291    0.0000 C   0  0  0  0  0  0  0  0  0  0  0  0
   18.7876  -29.2626    0.0000 C   0  0  0  0  0  0  0  0  0  0  0  0
   19.3035  -27.8541    0.0000 C   0  0  0  0  0  0  0  0  0  0  0  0
   19.7140  -26.4114    0.0000 C   0  0  0  0  0  0  0  0  0  0  0  0
   20.0168  -24.9423    0.0000 C   0  0  0  0  0  0  0  0  0  0  0  0
   20.2103  -23.4548    0.0000 C   0  0  0  0  0  0  0  0  0  0  0  0
   20.2934  -21.9571    0.0000 C   0  0  0  0  0  0  0  0  0  0  0  0
   20.2657  -20.4574    0.0000 C   0  0  0  0  0  0  0  0  0  0  0  0
   20.1273  -18.9638    0.0000 C   0  0  0  0  0  0  0  0  0  0  0  0
   19.8790  -17.4845    0.0000 C   0  0  0  0  0  0  0  0  0  0  0  0
   19.5221  -16.0275    0.0000 C   0  0  0  0  0  0  0  0  0  0  0  0
   19.0585  -14.6010    0.0000 C   0  0  0  0  0  0  0  0  0  0  0  0
   18.4909  -13.2125    0.0000 C   0  0  0  0  0  0  0  0  0  0  0  0
   17.8223  -11.8698    0.0000 C   0  0  0  0  0  0  0  0  0  0  0  0
   17.0564  -10.5801    0.0000 C   0  0  0  0  0  0  0  0  0  0  0  0
   16.1973   -9.3505    0.0000 C   0  0  0  0  0  0  0  0  0  0  0  0
   15.2497   -8.1876    0.0000 C   0  0  0  0  0  0  0  0  0  0  0  0
   14.2188   -7.0980    0.0000 C   0  0  0  0  0  0  0  0  0  0  0  0
   13.1103   -6.0875    0.0000 C   0  0  0  0  0  0  0  0  0  0  0  0
   11.9302   -5.1615    0.0000 C   0  0  0  0  0  0  0  0  0  0  0  0
   10.6849   -4.3253    0.0000 C   0  0  0  0  0  0  0  0  0  0  0  0
    9.3813   -3.5833    0.0000 C   0  0  0  0  0  0  0  0  0  0  0  0
    8.0264   -2.9396    0.0000 C   0  0  0  0  0  0  0  0  0  0  0  0
    6.6277   -2.3978    0.0000 C   0  0  0  0  0  0  0  0  0  0  0  0
    5.1928   -1.9607    0.0000 C   0  0  0  0  0  0  0  0  0  0  0  0
    3.7295   -1.6308    0.0000 C   0  0  0  0  0  0  0  0  0  0  0  0
    2.2459   -1.4098    0.0000 C   0  0  0  0  0  0  0  0  0  0  0  0
    0.7500   -1.2990    0.0000 C   0  0  0  0  0  0  0  0  0  0  0  0
    1.5000    0.0000    0.0000 C   0  0  0  0  0  0  0  0  0  0  0  0
    0.7500    1.2990    0.0000 C   0  0  0  0  0  0  0  0  0  0  0  0
   -0.7500    1.2990    0.0000 C   0  0  0  0  0  0  0  0  0  0  0  0
   -1.5000    0.0000    0.0000 C   0  0  0  0  0  0  0  0  0  0  0  0
   -0.7500   -1.2990    0.0000 C   0  0  0  0  0  0  0  0  0  0  0  0
   -2.2459   -1.4098    0.0000 C   0  0  0  0  0  0  0  0  0  0  0  0
   -1.3127   -2.5842    0.0000 C   0  0  0  0  0  0  0  0  0  0  0  0
   -1.8632   -3.9796    0.0000 C   0  0  0  0  0  0  0  0  0  0  0  0
   -3.3468   -4.2005    0.0000 C   0  0  0  0  0  0  0  0  0  0  0  0
   -3.8973   -5.5958    0.0000 O   0  0  0  0  0  0  0  0  0  0  0  0
   -4.2800   -3.0261    0.0000 C   0  0  0  0  0  0  0  0  0  0  0  0
   -3.7295   -1.6308    0.0000 C   0  0  0  0  0  0  0  0  0  0  0  0
  1  2  1  0
  2  3  1  0
  3  4  1  0
  4  5  1  0
  5  6  1  0
  6  7  1  0
  7  8  1  0
  8  9  1  0
  9 10  1  0
 10 11  1  0
 11 12  1  0
 12 13  1  0
 13 14  1  0
 14 15  1  0
 15 16  1  0
 16 17  1  0
 17 18  1  0
 18 19  1  0
 19 20  1  0
 20 21  1  0
 21 22  1  0
 22 23  1  0
 23 24  1  0
 24 25  1  0
 25 26  1  0
 26 27  1  0
 27 28  1  0
 28 29  1  0
 29 30  1  0
 30 31  1  0
 31 32  1  0
 32 33  1  0
 33 34  1  0
 34 35  1  0
 35 36  1  0
 36 37  1  0
 37 38  1  0
 38 39  1  0
 39 40  1  0
 40 41  1  0
 41 42  1  0
 42 43  1  0
 43 44  1  0
 44 45  1  0
 45 46  1  0
 46 47  1  0
 47 48  1  0
 48 49  1  0
 49 50  1  0
 50 51  1  0
 51 52  1  0
 52 53  1  0
 53 54  1  0
 54 55  1  0
 55 56  1  0
 56 57  1  0
 57 58  1  0
 58 59  1  0
 59 60  1  0
 60 61  1  0
 61 62  1  0
 62 63  1  0
 63 64  1  0
 64 65  1  0
 65 66  1  0
 66 67  1  0
 67 68  1  0
 68 69  1  0
 69 70  1  0
 70 71  1  0
 71 72  1  0
 72 73  1  0
 73 74  1  0
 74 75  1  0
 75 76  1  0
 76 77  1  0
 77 78  1  0
 78 79  1  0
 79 80  1  0
 80 81  1  0
 81 82  1  0
 82 83  1  0
 83 84  2  0
 84 85  1  0
 85 86  2  0
 86 87  1  0
 87 88  2  0
 88 89  1  0
 89 90  2  0
 90 91  1  0
 91 92  2  0
 92 93  1  0
 92 94  1  0
 94 95  2  0
 95  2  1  0
 88 83  1  0
 95 89  1  0
M  END
>  <Title>  (699) 
idAAYYgen8

$$$$

     RDKit          2D

 96 97  0  0  0  0  0  0  0  0999 V2000
   -2.4015    0.0894    0.0000 C   0  0  0  0  0  0  0  0  0  0  0  0
   -2.2464   -1.4025    0.0000 C   0  0  0  0  0  0  0  0  0  0  0  0
   -3.7321   -1.6090    0.0000 C   0  0  0  0  0  0  0  0  0  0  0  0
   -5.2001   -1.9175    0.0000 C   0  0  0  0  0  0  0  0  0  0  0  0
   -6.6432   -2.3265    0.0000 C   0  0  0  0  0  0  0  0  0  0  0  0
   -8.0547   -2.8341    0.0000 C   0  0  0  0  0  0  0  0  0  0  0  0
   -9.4278   -3.4379    0.0000 C   0  0  0  0  0  0  0  0  0  0  0  0
  -10.7560   -4.1350    0.0000 C   0  0  0  0  0  0  0  0  0  0  0  0
  -12.0330   -4.9221    0.0000 C   0  0  0  0  0  0  0  0  0  0  0  0
  -13.2525   -5.7954    0.0000 C   0  0  0  0  0  0  0  0  0  0  0  0
  -14.4090   -6.7507    0.0000 C   0  0  0  0  0  0  0  0  0  0  0  0
  -15.4967   -7.7835    0.0000 C   0  0  0  0  0  0  0  0  0  0  0  0
  -16.5106   -8.8890    0.0000 C   0  0  0  0  0  0  0  0  0  0  0  0
  -17.4459  -10.0617    0.0000 C   0  0  0  0  0  0  0  0  0  0  0  0
  -18.2980  -11.2962    0.0000 C   0  0  0  0  0  0  0  0  0  0  0  0
  -19.0629  -12.5865    0.0000 C   0  0  0  0  0  0  0  0  0  0  0  0
  -19.7369  -13.9265    0.0000 C   0  0  0  0  0  0  0  0  0  0  0  0
  -20.3169  -15.3099    0.0000 C   0  0  0  0  0  0  0  0  0  0  0  0
  -20.8001  -16.7299    0.0000 C   0  0  0  0  0  0  0  0  0  0  0  0
  -21.1842  -18.1799    0.0000 C   0  0  0  0  0  0  0  0  0  0  0  0
  -21.4673  -19.6529    0.0000 C   0  0  0  0  0  0  0  0  0  0  0  0
  -21.6481  -21.1420    0.0000 C   0  0  0  0  0  0  0  0  0  0  0  0
  -21.7257  -22.6400    0.0000 C   0  0  0  0  0  0  0  0  0  0  0  0
  -21.6998  -24.1398    0.0000 C   0  0  0  0  0  0  0  0  0  0  0  0
  -21.5705  -25.6342    0.0000 C   0  0  0  0  0  0  0  0  0  0  0  0
  -21.3384  -27.1161    0.0000 C   0  0  0  0  0  0  0  0  0  0  0  0
  -21.0047  -28.5785    0.0000 C   0  0  0  0  0  0  0  0  0  0  0  0
  -20.5708  -30.0144    0.0000 C   0  0  0  0  0  0  0  0  0  0  0  0
  -20.0389  -31.4169    0.0000 C   0  0  0  0  0  0  0  0  0  0  0  0
  -19.4115  -32.7794    0.0000 C   0  0  0  0  0  0  0  0  0  0  0  0
  -18.6916  -34.0954    0.0000 C   0  0  0  0  0  0  0  0  0  0  0  0
  -17.8826  -35.3585    0.0000 C   0  0  0  0  0  0  0  0  0  0  0  0
  -16.9884  -36.5628    0.0000 C   0  0  0  0  0  0  0  0  0  0  0  0
  -16.0132  -37.7026    0.0000 C   0  0  0  0  0  0  0  0  0  0  0  0
  -14.9618  -38.7724    0.0000 C   0  0  0  0  0  0  0  0  0  0  0  0
  -13.8390  -39.7671    0.0000 C   0  0  0  0  0  0  0  0  0  0  0  0
  -12.6503  -40.6819    0.0000 C   0  0  0  0  0  0  0  0  0  0  0  0
  -11.4013  -41.5126    0.0000 C   0  0  0  0  0  0  0  0  0  0  0  0
  -10.0980  -42.2551    0.0000 C   0  0  0  0  0  0  0  0  0  0  0  0
   -8.7465  -42.9059    0.0000 C   0  0  0  0  0  0  0  0  0  0  0  0
   -7.3534  -43.4620    0.0000 C   0  0  0  0  0  0  0  0  0  0  0  0
   -5.9252  -43.9206    0.0000 C   0  0  0  0  0  0  0  0  0  0  0  0
   -4.4688  -44.2795    0.0000 C   0  0  0  0  0  0  0  0  0  0  0  0
   -2.9911  -44.5372    0.0000 C   0  0  0  0  0  0  0  0  0  0  0  0
   -1.4991  -44.6922    0.0000 C   0  0  0  0  0  0  0  0  0  0  0  0
   -0.0000  -44.7440    0.0000 C   0  0  0  0  0  0  0  0  0  0  0  0
    1.4991  -44.6922    0.0000 C   0  0  0  0  0  0  0  0  0  0  0  0
    2.9911  -44.5372    0.0000 C   0  0  0  0  0  0  0  0  0  0  0  0
    4.4688  -44.2795    0.0000 C   0  0  0  0  0  0  0  0  0  0  0  0
    5.9252  -43.9206    0.0000 C   0  0  0  0  0  0  0  0  0  0  0  0
    7.3534  -43.4620    0.0000 C   0  0  0  0  0  0  0  0  0  0  0  0
    8.7465  -42.9059    0.0000 C   0  0  0  0  0  0  0  0  0  0  0  0
   10.0980  -42.2551    0.0000 C   0  0  0  0  0  0  0  0  0  0  0  0
   11.4013  -41.5126    0.0000 C   0  0  0  0  0  0  0  0  0  0  0  0
   12.6503  -40.6819    0.0000 C   0  0  0  0  0  0  0  0  0  0  0  0
   13.8390  -39.7671    0.0000 C   0  0  0  0  0  0  0  0  0  0  0  0
   14.9618  -38.7724    0.0000 C   0  0  0  0  0  0  0  0  0  0  0  0
   16.0132  -37.7026    0.0000 C   0  0  0  0  0  0  0  0  0  0  0  0
   16.9884  -36.5628    0.0000 C   0  0  0  0  0  0  0  0  0  0  0  0
   17.8826  -35.3585    0.0000 C   0  0  0  0  0  0  0  0  0  0  0  0
   18.6916  -34.0954    0.0000 C   0  0  0  0  0  0  0  0  0  0  0  0
   19.4115  -32.7794    0.0000 C   0  0  0  0  0  0  0  0  0  0  0  0
   20.0389  -31.4169    0.0000 C   0  0  0  0  0  0  0  0  0  0  0  0
   20.5708  -30.0144    0.0000 C   0  0  0  0  0  0  0  0  0  0  0  0
   21.0047  -28.5785    0.0000 C   0  0  0  0  0  0  0  0  0  0  0  0
   21.3384  -27.1161    0.0000 C   0  0  0  0  0  0  0  0  0  0  0  0
   21.5705  -25.6342    0.0000 C   0  0  0  0  0  0  0  0  0  0  0  0
   21.6998  -24.1398    0.0000 C   0  0  0  0  0  0  0  0  0  0  0  0
   21.7257  -22.6400    0.0000 C   0  0  0  0  0  0  0  0  0  0  0  0
   21.6481  -21.1420    0.0000 C   0  0  0  0  0  0  0  0  0  0  0  0
   21.4673  -19.6529    0.0000 C   0  0  0  0  0  0  0  0  0  0  0  0
   21.1842  -18.1799    0.0000 C   0  0  0  0  0  0  0  0  0  0  0  0
   20.8001  -16.7299    0.0000 C   0  0  0  0  0  0  0  0  0  0  0  0
   20.3169  -15.3099    0.0000 C   0  0  0  0  0  0  0  0  0  0  0  0
   19.7369  -13.9265    0.0000 C   0  0  0  0  0  0  0  0  0  0  0  0
   19.0629  -12.5865    0.0000 C   0  0  0  0  0  0  0  0  0  0  0  0
   18.2980  -11.2962    0.0000 C   0  0  0  0  0  0  0  0  0  0  0  0
   17.4459  -10.0617    0.0000 C   0  0  0  0  0  0  0  0  0  0  0  0
   16.5106   -8.8890    0.0000 C   0  0  0  0  0  0  0  0  0  0  0  0
   15.4967   -7.7835    0.0000 C   0  0  0  0  0  0  0  0  0  0  0  0
   14.4090   -6.7507    0.0000 C   0  0  0  0  0  0  0  0  0  0  0  0
   13.2525   -5.7954    0.0000 C   0  0  0  0  0  0  0  0  0  0  0  0
   12.0330   -4.9221    0.0000 C   0  0  0  0  0  0  0  0  0  0  0  0
   10.7560   -4.1350    0.0000 C   0  0  0  0  0  0  0  0  0  0  0  0
    9.4278   -3.4379    0.0000 C   0  0  0  0  0  0  0  0  0  0  0  0
    8.0547   -2.8341    0.0000 C   0  0  0  0  0  0  0  0  0  0  0  0
    6.6432   -2.3265    0.0000 C   0  0  0  0  0  0  0  0  0  0  0  0
    5.2001   -1.9175    0.0000 C   0  0  0  0  0  0  0  0  0  0  0  0
    3.7321   -1.6090    0.0000 C   0  0  0  0  0  0  0  0  0  0  0  0
    2.2464   -1.4025    0.0000 C   0  0  0  0  0  0  0  0  0  0  0  0
    0.7500   -1.2990    0.0000 C   0  0  0  0  0  0  0  0  0  0  0  0
    1.5000    0.0000    0.0000 C   0  0  0  0  0  0  0  0  0  0  0  0
    0.7500    1.2990    0.0000 C   0  0  0  0  0  0  0  0  0  0  0  0
   -0.7500    1.2990    0.0000 C   0  0  0  0  0  0  0  0  0  0  0  0
   -1.5000    0.0000    0.0000 C   0  0  0  0  0  0  0  0  0  0  0  0
   -0.7500   -1.2990    0.0000 C   0  0  0  0  0  0  0  0  0  0  0  0
  1  2  1  0
  2  3  2  0
  3  4  1  0
  4  5  1  0
  5  6  1  0
  6  7  1  0
  7  8  1  0
  8  9  1  0
  9 10  1  0
 10 11  1  0
 11 12  1  0
 12 13  1  0
 13 14  1  0
 14 15  1  0
 15 16  1  0
 16 17  1  0
 17 18  1  0
 18 19  1  0
 19 20  1  0
 20 21  1  0
 21 22  1  0
 22 23  1  0
 23 24  1  0
 24 25  1  0
 25 26  1  0
 26 27  1  0
 27 28  1  0
 28 29  1  0
 29 30  1  0
 30 31  1  0
 31 32  1  0
 32 33  1  0
 33 34  1  0
 34 35  1  0
 35 36  1  0
 36 37  1  0
 37 38  1  0
 38 39  1  0
 39 40  1  0
 40 41  1  0
 41 42  1  0
 42 43  1  0
 43 44  1  0
 44 45  1  0
 45 46  1  0
 46 47  1  0
 47 48  1  0
 48 49  1  0
 49 50  1  0
 50 51  1  0
 51 52  1  0
 52 53  1  0
 53 54  1  0
 54 55  1  0
 55 56  1  0
 56 57  1  0
 57 58  1  0
 58 59  1  0
 59 60  1  0
 60 61  1  0
 61 62  1  0
 62 63  1  0
 63 64  1  0
 64 65  1  0
 65 66  1  0
 66 67  1  0
 67 68  1  0
 68 69  1  0
 69 70  1  0
 70 71  1  0
 71 72  1  0
 72 73  1  0
 73 74  1  0
 74 75  1  0
 75 76  1  0
 76 77  1  0
 77 78  1  0
 78 79  1  0
 79 80  1  0
 80 81  1  0
 81 82  1  0
 82 83  1  0
 83 84  1  0
 84 85  1  0
 85 86  1  0
 86 87  1  0
 87 88  1  0
 88 89  1  0
 89 90  1  0
 90 91  1  0
 91 92  2  0
 92 93  1  0
 93 94  2  0
 94 95  1  0
 95 96  2  0
 96  2  1  0
 96 91  1  0
M  END
>  <Title>  (700) 
idAAYZgen8

$$$$

     RDKit          2D

 13 13  0  0  0  0  0  0  0  0999 V2000
    2.7760    0.0000    0.0000 C   0  0  0  0  0  0  0  0  0  0  0  0
    1.2760    0.0000    0.0000 C   0  0  0  0  0  0  0  0  0  0  0  0
    0.3943    1.2135    0.0000 C   0  0  0  0  0  0  0  0  0  0  0  0
   -1.0323    0.7500    0.0000 C   0  0  0  0  0  0  0  0  0  0  0  0
   -2.2458    1.6317    0.0000 C   0  0  0  0  0  0  0  0  0  0  0  0
   -1.0323   -0.7500    0.0000 C   0  0  0  0  0  0  0  0  0  0  0  0
   -2.2458   -1.6317    0.0000 N   0  0  0  0  0  0  0  0  0  0  0  0
   -2.0890   -3.1235    0.0000 N   0  0  0  0  0  0  0  0  0  0  0  0
   -3.3025   -4.0051    0.0000 N   0  0  0  0  0  0  0  0  0  0  0  0
   -3.1458   -5.4969    0.0000 N   0  0  0  0  0  0  0  0  0  0  0  0
   -4.3593   -6.3786    0.0000 N   0  0  0  0  0  0  0  0  0  0  0  0
   -4.2025   -7.8704    0.0000 N   0  0  0  0  0  0  0  0  0  0  0  0
    0.3943   -1.2135    0.0000 N   0  0  0  0  0  0  0  0  0  0  0  0
  1  2  1  0
  2  3  1  0
  3  4  1  0
  4  5  1  0
  4  6  1  0
  6  7  2  3
  7  8  1  0
  8  9  2  3
  9 10  1  0
 10 11  2  3
 11 12  1  0
  6 13  1  0
 13  2  1  0
M  END
>  <Title>  (701) 
idAAZAgen8

$$$$

     RDKit          2D

 46 52  0  0  0  0  0  0  0  0999 V2000
    2.9692   -9.5132    0.0000 C   0  0  0  0  0  0  0  0  0  0  0  0
    2.1358   -8.2660    0.0000 C   0  0  0  0  0  0  0  0  0  0  0  0
    3.1965   -7.2054    0.0000 C   0  0  0  0  0  0  0  0  0  0  0  0
    3.7705   -5.8195    0.0000 C   0  0  0  0  0  0  0  0  0  0  0  0
    3.7705   -4.3195    0.0000 C   0  0  0  0  0  0  0  0  0  0  0  0
    3.1965   -2.9337    0.0000 C   0  0  0  0  0  0  0  0  0  0  0  0
    2.1358   -1.8731    0.0000 C   0  0  0  0  0  0  0  0  0  0  0  0
    2.9692   -0.6259    0.0000 C   0  0  0  0  0  0  0  0  0  0  0  0
    2.3057    0.7195    0.0000 O   0  0  0  0  0  0  0  0  0  0  0  0
    4.4660   -0.7240    0.0000 N   0  0  0  0  0  0  0  0  0  0  0  0
    5.2993    0.5232    0.0000 C   0  0  0  0  0  0  0  0  0  0  0  0
    6.7961    0.4251    0.0000 N   0  0  0  0  0  0  0  0  0  0  0  0
    7.6295    1.6723    0.0000 N   0  0  0  0  0  0  0  0  0  0  0  0
    6.9660    3.0176    0.0000 N   0  0  0  0  0  0  0  0  0  0  0  0
    5.4692    3.1158    0.0000 N   0  0  0  0  0  0  0  0  0  0  0  0
    4.6359    1.8686    0.0000 N   0  0  0  0  0  0  0  0  0  0  0  0
    0.7500   -1.2990    0.0000 C   0  0  0  0  0  0  0  0  0  0  0  0
    1.5000    0.0000    0.0000 C   0  0  0  0  0  0  0  0  0  0  0  0
    0.7500    1.2990    0.0000 C   0  0  0  0  0  0  0  0  0  0  0  0
   -0.7500    1.2990    0.0000 C   0  0  0  0  0  0  0  0  0  0  0  0
   -1.5000    0.0000    0.0000 C   0  0  0  0  0  0  0  0  0  0  0  0
   -0.7500   -1.2990    0.0000 C   0  0  0  0  0  0  0  0  0  0  0  0
   -2.1358   -1.8731    0.0000 C   0  0  0  0  0  0  0  0  0  0  0  0
   -2.5240   -0.4242    0.0000 C   0  0  0  0  0  0  0  0  0  0  0  0
   -3.9729   -0.0359    0.0000 C   0  0  0  0  0  0  0  0  0  0  0  0
   -5.0336   -1.0966    0.0000 C   0  0  0  0  0  0  0  0  0  0  0  0
   -4.6454   -2.5455    0.0000 C   0  0  0  0  0  0  0  0  0  0  0  0
   -3.1965   -2.9337    0.0000 C   0  0  0  0  0  0  0  0  0  0  0  0
   -3.7705   -4.3195    0.0000 C   0  0  0  0  0  0  0  0  0  0  0  0
   -5.0695   -3.5695    0.0000 C   0  0  0  0  0  0  0  0  0  0  0  0
   -6.3686   -4.3195    0.0000 C   0  0  0  0  0  0  0  0  0  0  0  0
   -6.3686   -5.8195    0.0000 C   0  0  0  0  0  0  0  0  0  0  0  0
   -5.0695   -6.5695    0.0000 C   0  0  0  0  0  0  0  0  0  0  0  0
   -3.7705   -5.8195    0.0000 C   0  0  0  0  0  0  0  0  0  0  0  0
   -3.1965   -7.2054    0.0000 C   0  0  0  0  0  0  0  0  0  0  0  0
   -4.6454   -7.5936    0.0000 C   0  0  0  0  0  0  0  0  0  0  0  0
   -5.0336   -9.0425    0.0000 C   0  0  0  0  0  0  0  0  0  0  0  0
   -3.9729  -10.1031    0.0000 C   0  0  0  0  0  0  0  0  0  0  0  0
   -2.5240   -9.7149    0.0000 C   0  0  0  0  0  0  0  0  0  0  0  0
   -2.1358   -8.2660    0.0000 C   0  0  0  0  0  0  0  0  0  0  0  0
   -0.7500   -8.8400    0.0000 C   0  0  0  0  0  0  0  0  0  0  0  0
   -1.5000  -10.1391    0.0000 C   0  0  0  0  0  0  0  0  0  0  0  0
   -0.7500  -11.4381    0.0000 C   0  0  0  0  0  0  0  0  0  0  0  0
    0.7500  -11.4381    0.0000 C   0  0  0  0  0  0  0  0  0  0  0  0
    1.5000  -10.1391    0.0000 C   0  0  0  0  0  0  0  0  0  0  0  0
    0.7500   -8.8400    0.0000 C   0  0  0  0  0  0  0  0  0  0  0  0
  1  2  1  0
  2  3  2  0
  3  4  1  0
  4  5  1  0
  5  6  1  0
  6  7  1  0
  7  8  1  0
  8  9  2  0
  8 10  1  0
 10 11  1  0
 11 12  2  0
 12 13  1  0
 13 14  2  0
 14 15  1  0
 15 16  2  0
  7 17  1  0
 17 18  2  0
 18 19  1  0
 19 20  2  0
 20 21  1  0
 21 22  2  0
 22 23  1  0
 23 24  2  0
 24 25  1  0
 25 26  2  0
 26 27  1  0
 27 28  2  0
 28 29  1  0
 29 30  2  0
 30 31  1  0
 31 32  2  0
 32 33  1  0
 33 34  2  0
 34 35  1  0
 35 36  2  0
 36 37  1  0
 37 38  2  0
 38 39  1  0
 39 40  2  0
 40 41  1  0
 41 42  2  0
 42 43  1  0
 43 44  2  0
 44 45  1  0
 45 46  2  0
 46  2  1  0
 16 11  1  0
 22 17  1  0
 28 23  1  0
 34 29  1  0
 40 35  1  0
 46 41  1  0
M  END
>  <Title>  (702) 
idAAZBgen8

$$$$

     RDKit          2D

 75 80  0  0  0  0  0  0  0  0999 V2000
  -10.8311   -5.4256    0.0000 C   0  0  0  0  0  0  0  0  0  0  0  0
   -9.6009   -6.2837    0.0000 C   0  0  0  0  0  0  0  0  0  0  0  0
  -10.3784   -7.5665    0.0000 C   0  0  0  0  0  0  0  0  0  0  0  0
  -10.9856   -8.9381    0.0000 C   0  0  0  0  0  0  0  0  0  0  0  0
  -11.4124  -10.3761    0.0000 C   0  0  0  0  0  0  0  0  0  0  0  0
  -11.6518  -11.8569    0.0000 C   0  0  0  0  0  0  0  0  0  0  0  0
  -11.6999  -13.3561    0.0000 C   0  0  0  0  0  0  0  0  0  0  0  0
  -11.5559  -14.8492    0.0000 C   0  0  0  0  0  0  0  0  0  0  0  0
  -11.2221  -16.3115    0.0000 C   0  0  0  0  0  0  0  0  0  0  0  0
  -10.7040  -17.7192    0.0000 C   0  0  0  0  0  0  0  0  0  0  0  0
  -10.0102  -19.0491    0.0000 C   0  0  0  0  0  0  0  0  0  0  0  0
   -9.1520  -20.2794    0.0000 C   0  0  0  0  0  0  0  0  0  0  0  0
   -8.1436  -21.3898    0.0000 C   0  0  0  0  0  0  0  0  0  0  0  0
   -7.0014  -22.3622    0.0000 C   0  0  0  0  0  0  0  0  0  0  0  0
   -5.7443  -23.1805    0.0000 C   0  0  0  0  0  0  0  0  0  0  0  0
   -4.3928  -23.8313    0.0000 C   0  0  0  0  0  0  0  0  0  0  0  0
   -2.9693  -24.3040    0.0000 C   0  0  0  0  0  0  0  0  0  0  0  0
   -1.4969  -24.5907    0.0000 C   0  0  0  0  0  0  0  0  0  0  0  0
   -0.0000  -24.6868    0.0000 C   0  0  0  0  0  0  0  0  0  0  0  0
    1.4969  -24.5907    0.0000 C   0  0  0  0  0  0  0  0  0  0  0  0
    2.9693  -24.3040    0.0000 C   0  0  0  0  0  0  0  0  0  0  0  0
    4.3928  -23.8313    0.0000 C   0  0  0  0  0  0  0  0  0  0  0  0
    5.7443  -23.1805    0.0000 C   0  0  0  0  0  0  0  0  0  0  0  0
    7.0014  -22.3622    0.0000 C   0  0  0  0  0  0  0  0  0  0  0  0
    8.1436  -21.3898    0.0000 C   0  0  0  0  0  0  0  0  0  0  0  0
    9.1520  -20.2794    0.0000 C   0  0  0  0  0  0  0  0  0  0  0  0
   10.0102  -19.0491    0.0000 C   0  0  0  0  0  0  0  0  0  0  0  0
   10.7040  -17.7192    0.0000 C   0  0  0  0  0  0  0  0  0  0  0  0
   11.2221  -16.3115    0.0000 C   0  0  0  0  0  0  0  0  0  0  0  0
   11.5559  -14.8492    0.0000 C   0  0  0  0  0  0  0  0  0  0  0  0
   11.6999  -13.3561    0.0000 C   0  0  0  0  0  0  0  0  0  0  0  0
   11.6518  -11.8569    0.0000 C   0  0  0  0  0  0  0  0  0  0  0  0
   11.4124  -10.3761    0.0000 C   0  0  0  0  0  0  0  0  0  0  0  0
   10.9856   -8.9381    0.0000 C   0  0  0  0  0  0  0  0  0  0  0  0
   10.3784   -7.5665    0.0000 C   0  0  0  0  0  0  0  0  0  0  0  0
    9.6009   -6.2837    0.0000 C   0  0  0  0  0  0  0  0  0  0  0  0
    8.6656   -5.1110    0.0000 C   0  0  0  0  0  0  0  0  0  0  0  0
    7.5881   -4.0675    0.0000 C   0  0  0  0  0  0  0  0  0  0  0  0
    6.3860   -3.1703    0.0000 C   0  0  0  0  0  0  0  0  0  0  0  0
    5.0790   -2.4342    0.0000 C   0  0  0  0  0  0  0  0  0  0  0  0
    3.6886   -1.8713    0.0000 C   0  0  0  0  0  0  0  0  0  0  0  0
    2.2377   -1.4909    0.0000 C   0  0  0  0  0  0  0  0  0  0  0  0
    2.5244   -0.0185    0.0000 C   0  0  0  0  0  0  0  0  0  0  0  0
    1.3927    0.9660    0.0000 C   0  0  0  0  0  0  0  0  0  0  0  0
    3.9429    0.4693    0.0000 N   0  0  0  0  0  0  0  0  0  0  0  0
    4.2296    1.9417    0.0000 C   0  0  0  0  0  0  0  0  0  0  0  0
    3.0979    2.9262    0.0000 N   0  0  0  0  0  0  0  0  0  0  0  0
    3.3846    4.3985    0.0000 N   0  0  0  0  0  0  0  0  0  0  0  0
    4.8031    4.8863    0.0000 N   0  0  0  0  0  0  0  0  0  0  0  0
    5.9348    3.9019    0.0000 N   0  0  0  0  0  0  0  0  0  0  0  0
    5.6481    2.4295    0.0000 N   0  0  0  0  0  0  0  0  0  0  0  0
    0.7500   -1.2990    0.0000 C   0  0  0  0  0  0  0  0  0  0  0  0
    1.5000    0.0000    0.0000 C   0  0  0  0  0  0  0  0  0  0  0  0
    0.7500    1.2990    0.0000 C   0  0  0  0  0  0  0  0  0  0  0  0
   -0.7500    1.2990    0.0000 C   0  0  0  0  0  0  0  0  0  0  0  0
   -1.5000    0.0000    0.0000 C   0  0  0  0  0  0  0  0  0  0  0  0
   -0.7500   -1.2990    0.0000 C   0  0  0  0  0  0  0  0  0  0  0  0
   -2.2377   -1.4909    0.0000 C   0  0  0  0  0  0  0  0  0  0  0  0
   -1.1827   -2.5572    0.0000 C   0  0  0  0  0  0  0  0  0  0  0  0
   -1.5787   -4.0040    0.0000 C   0  0  0  0  0  0  0  0  0  0  0  0
   -3.0296   -4.3844    0.0000 C   0  0  0  0  0  0  0  0  0  0  0  0
   -4.0846   -3.3181    0.0000 C   0  0  0  0  0  0  0  0  0  0  0  0
   -3.6886   -1.8713    0.0000 C   0  0  0  0  0  0  0  0  0  0  0  0
   -5.0790   -2.4342    0.0000 C   0  0  0  0  0  0  0  0  0  0  0  0
   -5.0630   -0.9343    0.0000 C   0  0  0  0  0  0  0  0  0  0  0  0
   -6.3539   -0.1705    0.0000 C   0  0  0  0  0  0  0  0  0  0  0  0
   -7.6609   -0.9066    0.0000 C   0  0  0  0  0  0  0  0  0  0  0  0
   -7.6769   -2.4065    0.0000 C   0  0  0  0  0  0  0  0  0  0  0  0
   -6.3860   -3.1703    0.0000 C   0  0  0  0  0  0  0  0  0  0  0  0
   -7.5881   -4.0675    0.0000 C   0  0  0  0  0  0  0  0  0  0  0  0
   -6.1456   -4.4789    0.0000 C   0  0  0  0  0  0  0  0  0  0  0  0
   -5.7807   -5.9338    0.0000 C   0  0  0  0  0  0  0  0  0  0  0  0
   -6.8582   -6.9773    0.0000 C   0  0  0  0  0  0  0  0  0  0  0  0
   -8.3007   -6.5659    0.0000 C   0  0  0  0  0  0  0  0  0  0  0  0
   -8.6656   -5.1110    0.0000 C   0  0  0  0  0  0  0  0  0  0  0  0
  1  2  1  0
  2  3  1  0
  3  4  1  0
  4  5  1  0
  5  6  1  0
  6  7  1  0
  7  8  1  0
  8  9  1  0
  9 10  1  0
 10 11  1  0
 11 12  1  0
 12 13  1  0
 13 14  1  0
 14 15  1  0
 15 16  1  0
 16 17  1  0
 17 18  1  0
 18 19  1  0
 19 20  1  0
 20 21  1  0
 21 22  1  0
 22 23  1  0
 23 24  1  0
 24 25  1  0
 25 26  1  0
 26 27  1  0
 27 28  1  0
 28 29  1  0
 29 30  1  0
 30 31  1  0
 31 32  1  0
 32 33  1  0
 33 34  1  0
 34 35  1  0
 35 36  1  0
 36 37  1  0
 37 38  1  0
 38 39  1  0
 39 40  1  0
 40 41  1  0
 41 42  1  0
 42 43  1  0
 43 44  1  0
 43 45  1  0
 45 46  1  0
 46 47  2  0
 47 48  1  0
 48 49  2  0
 49 50  1  0
 50 51  2  0
 42 52  1  0
 52 53  2  0
 53 54  1  0
 54 55  2  0
 55 56  1  0
 56 57  2  0
 57 58  1  0
 58 59  2  0
 59 60  1  0
 60 61  2  0
 61 62  1  0
 62 63  2  0
 63 64  1  0
 64 65  2  0
 65 66  1  0
 66 67  2  0
 67 68  1  0
 68 69  2  0
 69 70  1  0
 70 71  2  0
 71 72  1  0
 72 73  2  0
 73 74  1  0
 74 75  2  0
 75  2  1  0
 51 46  1  0
 57 52  1  0
 63 58  1  0
 69 64  1  0
 75 70  1  0
M  END
>  <Title>  (703) 
idAAZCgen8

$$$$

     RDKit          2D

  9  9  0  0  0  0  0  0  0  0999 V2000
    4.5000    0.0000    0.0000 C   0  0  0  0  0  0  0  0  0  0  0  0
    3.0000    0.0000    0.0000 C   0  0  0  0  0  0  0  0  0  0  0  0
    1.5000    0.0000    0.0000 C   0  0  0  0  0  0  0  0  0  0  0  0
    0.7500   -1.2990    0.0000 C   0  0  0  0  0  0  0  0  0  0  0  0
   -0.7500   -1.2990    0.0000 C   0  0  0  0  0  0  0  0  0  0  0  0
   -1.5000    0.0000    0.0000 C   0  0  0  0  0  0  0  0  0  0  0  0
   -3.0000    0.0000    0.0000 O   0  0  0  0  0  0  0  0  0  0  0  0
   -0.7500    1.2990    0.0000 C   0  0  0  0  0  0  0  0  0  0  0  0
    0.7500    1.2990    0.0000 C   0  0  0  0  0  0  0  0  0  0  0  0
  1  2  3  0
  2  3  1  0
  3  4  2  0
  4  5  1  0
  5  6  1  0
  6  7  1  0
  6  8  2  0
  8  9  1  0
  9  3  1  0
M  END
>  <Title>  (704) 
idAAZDgen8

$$$$

     RDKit          2D

125124  0  0  0  0  0  0  0  0999 V2000
    0.0000    0.0000    0.0000 C   0  0  0  0  0  0  0  0  0  0  0  0
    1.2990    0.7500    0.0000 C   0  0  0  0  0  0  0  0  0  0  0  0
    2.5981   -0.0000    0.0000 C   0  0  0  0  0  0  0  0  0  0  0  0
    3.8971    0.7500    0.0000 C   0  0  0  0  0  0  0  0  0  0  0  0
    5.1962   -0.0000    0.0000 C   0  0  0  0  0  0  0  0  0  0  0  0
    6.4952    0.7500    0.0000 C   0  0  0  0  0  0  0  0  0  0  0  0
    7.7942   -0.0000    0.0000 C   0  0  0  0  0  0  0  0  0  0  0  0
    9.0933    0.7500    0.0000 C   0  0  0  0  0  0  0  0  0  0  0  0
   10.3923   -0.0000    0.0000 C   0  0  0  0  0  0  0  0  0  0  0  0
   11.6913    0.7500    0.0000 C   0  0  0  0  0  0  0  0  0  0  0  0
   12.9904   -0.0000    0.0000 C   0  0  0  0  0  0  0  0  0  0  0  0
   14.2894    0.7500    0.0000 C   0  0  0  0  0  0  0  0  0  0  0  0
   15.5885   -0.0000    0.0000 C   0  0  0  0  0  0  0  0  0  0  0  0
   16.8875    0.7500    0.0000 C   0  0  0  0  0  0  0  0  0  0  0  0
   18.1865   -0.0000    0.0000 C   0  0  0  0  0  0  0  0  0  0  0  0
   19.4856    0.7500    0.0000 C   0  0  0  0  0  0  0  0  0  0  0  0
   20.7846   -0.0000    0.0000 C   0  0  0  0  0  0  0  0  0  0  0  0
   22.0836    0.7500    0.0000 C   0  0  0  0  0  0  0  0  0  0  0  0
   23.3827   -0.0000    0.0000 C   0  0  0  0  0  0  0  0  0  0  0  0
   24.6817    0.7500    0.0000 C   0  0  0  0  0  0  0  0  0  0  0  0
   25.9808   -0.0000    0.0000 C   0  0  0  0  0  0  0  0  0  0  0  0
   27.2798    0.7500    0.0000 C   0  0  0  0  0  0  0  0  0  0  0  0
   28.5788   -0.0000    0.0000 C   0  0  0  0  0  0  0  0  0  0  0  0
   29.8779    0.7500    0.0000 C   0  0  0  0  0  0  0  0  0  0  0  0
   31.1769   -0.0000    0.0000 C   0  0  0  0  0  0  0  0  0  0  0  0
   32.4760    0.7500    0.0000 C   0  0  0  0  0  0  0  0  0  0  0  0
   33.7750   -0.0000    0.0000 C   0  0  0  0  0  0  0  0  0  0  0  0
   35.0740    0.7500    0.0000 C   0  0  0  0  0  0  0  0  0  0  0  0
   36.3731   -0.0000    0.0000 C   0  0  0  0  0  0  0  0  0  0  0  0
   37.6721    0.7500    0.0000 C   0  0  0  0  0  0  0  0  0  0  0  0
   38.9711   -0.0000    0.0000 C   0  0  0  0  0  0  0  0  0  0  0  0
   40.2702    0.7500    0.0000 C   0  0  0  0  0  0  0  0  0  0  0  0
   41.5692   -0.0000    0.0000 C   0  0  0  0  0  0  0  0  0  0  0  0
   42.8683    0.7500    0.0000 C   0  0  0  0  0  0  0  0  0  0  0  0
   44.1673   -0.0000    0.0000 C   0  0  0  0  0  0  0  0  0  0  0  0
   45.4663    0.7500    0.0000 C   0  0  0  0  0  0  0  0  0  0  0  0
   46.7654   -0.0000    0.0000 C   0  0  0  0  0  0  0  0  0  0  0  0
   48.0644    0.7500    0.0000 C   0  0  0  0  0  0  0  0  0  0  0  0
   49.3634   -0.0000    0.0000 C   0  0  0  0  0  0  0  0  0  0  0  0
   50.6625    0.7500    0.0000 C   0  0  0  0  0  0  0  0  0  0  0  0
   51.9615   -0.0000    0.0000 C   0  0  0  0  0  0  0  0  0  0  0  0
   53.2606    0.7500    0.0000 C   0  0  0  0  0  0  0  0  0  0  0  0
   54.5596   -0.0000    0.0000 C   0  0  0  0  0  0  0  0  0  0  0  0
   55.8586    0.7500    0.0000 C   0  0  0  0  0  0  0  0  0  0  0  0
   57.1577   -0.0000    0.0000 C   0  0  0  0  0  0  0  0  0  0  0  0
   58.4567    0.7500    0.0000 C   0  0  0  0  0  0  0  0  0  0  0  0
   59.7558   -0.0000    0.0000 C   0  0  0  0  0  0  0  0  0  0  0  0
   61.0548    0.7500    0.0000 C   0  0  0  0  0  0  0  0  0  0  0  0
   62.3538   -0.0000    0.0000 C   0  0  0  0  0  0  0  0  0  0  0  0
   63.6529    0.7500    0.0000 C   0  0  0  0  0  0  0  0  0  0  0  0
   64.9519   -0.0000    0.0000 C   0  0  0  0  0  0  0  0  0  0  0  0
   66.2509    0.7500    0.0000 C   0  0  0  0  0  0  0  0  0  0  0  0
   67.5500   -0.0000    0.0000 C   0  0  0  0  0  0  0  0  0  0  0  0
   68.8490    0.7500    0.0000 C   0  0  0  0  0  0  0  0  0  0  0  0
   70.1481   -0.0000    0.0000 C   0  0  0  0  0  0  0  0  0  0  0  0
   71.4471    0.7500    0.0000 C   0  0  0  0  0  0  0  0  0  0  0  0
   72.7461   -0.0000    0.0000 C   0  0  0  0  0  0  0  0  0  0  0  0
   74.0452    0.7500    0.0000 C   0  0  0  0  0  0  0  0  0  0  0  0
   75.3442   -0.0000    0.0000 C   0  0  0  0  0  0  0  0  0  0  0  0
   76.6432    0.7500    0.0000 C   0  0  0  0  0  0  0  0  0  0  0  0
   77.9423   -0.0000    0.0000 C   0  0  0  0  0  0  0  0  0  0  0  0
   79.2413    0.7500    0.0000 C   0  0  0  0  0  0  0  0  0  0  0  0
   80.5404   -0.0000    0.0000 C   0  0  0  0  0  0  0  0  0  0  0  0
   81.8394    0.7500    0.0000 C   0  0  0  0  0  0  0  0  0  0  0  0
   83.1384   -0.0000    0.0000 C   0  0  0  0  0  0  0  0  0  0  0  0
   84.4375    0.7500    0.0000 C   0  0  0  0  0  0  0  0  0  0  0  0
   85.7365   -0.0000    0.0000 C   0  0  0  0  0  0  0  0  0  0  0  0
   87.0356    0.7500    0.0000 C   0  0  0  0  0  0  0  0  0  0  0  0
   88.3346   -0.0000    0.0000 C   0  0  0  0  0  0  0  0  0  0  0  0
   89.6336    0.7500    0.0000 C   0  0  0  0  0  0  0  0  0  0  0  0
   90.9327   -0.0000    0.0000 C   0  0  0  0  0  0  0  0  0  0  0  0
   92.2317    0.7500    0.0000 C   0  0  0  0  0  0  0  0  0  0  0  0
   93.5307   -0.0000    0.0000 C   0  0  0  0  0  0  0  0  0  0  0  0
   94.8298    0.7500    0.0000 C   0  0  0  0  0  0  0  0  0  0  0  0
   96.1288   -0.0000    0.0000 C   0  0  0  0  0  0  0  0  0  0  0  0
   97.4279    0.7500    0.0000 C   0  0  0  0  0  0  0  0  0  0  0  0
   98.7269   -0.0000    0.0000 C   0  0  0  0  0  0  0  0  0  0  0  0
  100.0259    0.7500    0.0000 C   0  0  0  0  0  0  0  0  0  0  0  0
  101.3250   -0.0000    0.0000 C   0  0  0  0  0  0  0  0  0  0  0  0
  102.6240    0.7500    0.0000 C   0  0  0  0  0  0  0  0  0  0  0  0
  103.9230   -0.0000    0.0000 C   0  0  0  0  0  0  0  0  0  0  0  0
  105.2221    0.7500    0.0000 C   0  0  0  0  0  0  0  0  0  0  0  0
  106.5211   -0.0000    0.0000 C   0  0  0  0  0  0  0  0  0  0  0  0
  107.8202    0.7500    0.0000 C   0  0  0  0  0  0  0  0  0  0  0  0
  109.1192   -0.0000    0.0000 C   0  0  0  0  0  0  0  0  0  0  0  0
  110.4182    0.7500    0.0000 C   0  0  0  0  0  0  0  0  0  0  0  0
  111.7173   -0.0000    0.0000 C   0  0  0  0  0  0  0  0  0  0  0  0
  113.0163    0.7500    0.0000 C   0  0  0  0  0  0  0  0  0  0  0  0
  114.3154   -0.0000    0.0000 C   0  0  0  0  0  0  0  0  0  0  0  0
  115.6144    0.7500    0.0000 C   0  0  0  0  0  0  0  0  0  0  0  0
  116.9134   -0.0000    0.0000 C   0  0  0  0  0  0  0  0  0  0  0  0
  118.2125    0.7500    0.0000 C   0  0  0  0  0  0  0  0  0  0  0  0
  119.5115   -0.0000    0.0000 C   0  0  0  0  0  0  0  0  0  0  0  0
  120.8105    0.7500    0.0000 C   0  0  0  0  0  0  0  0  0  0  0  0
  122.1096   -0.0000    0.0000 C   0  0  0  0  0  0  0  0  0  0  0  0
  123.4086    0.7500    0.0000 C   0  0  0  0  0  0  0  0  0  0  0  0
  124.7077   -0.0000    0.0000 C   0  0  0  0  0  0  0  0  0  0  0  0
  126.0067    0.7500    0.0000 C   0  0  0  0  0  0  0  0  0  0  0  0
  127.3057   -0.0000    0.0000 C   0  0  0  0  0  0  0  0  0  0  0  0
  128.6048    0.7500    0.0000 C   0  0  0  0  0  0  0  0  0  0  0  0
  129.9038   -0.0000    0.0000 C   0  0  0  0  0  0  0  0  0  0  0  0
  131.2028    0.7500    0.0000 C   0  0  0  0  0  0  0  0  0  0  0  0
  132.5019   -0.0000    0.0000 C   0  0  0  0  0  0  0  0  0  0  0  0
  133.8009    0.7500    0.0000 C   0  0  0  0  0  0  0  0  0  0  0  0
  135.1000   -0.0000    0.0000 C   0  0  0  0  0  0  0  0  0  0  0  0
  136.3990    0.7500    0.0000 C   0  0  0  0  0  0  0  0  0  0  0  0
  137.6980   -0.0000    0.0000 C   0  0  0  0  0  0  0  0  0  0  0  0
  138.9971    0.7500    0.0000 C   0  0  0  0  0  0  0  0  0  0  0  0
  140.2961   -0.0000    0.0000 C   0  0  0  0  0  0  0  0  0  0  0  0
  141.5952    0.7500    0.0000 C   0  0  0  0  0  0  0  0  0  0  0  0
  142.8942   -0.0000    0.0000 C   0  0  0  0  0  0  0  0  0  0  0  0
  144.1932    0.7500    0.0000 C   0  0  0  0  0  0  0  0  0  0  0  0
  145.4923   -0.0000    0.0000 C   0  0  0  0  0  0  0  0  0  0  0  0
  146.7913    0.7500    0.0000 C   0  0  0  0  0  0  0  0  0  0  0  0
  148.0903   -0.0000    0.0000 C   0  0  0  0  0  0  0  0  0  0  0  0
  149.3894    0.7500    0.0000 C   0  0  0  0  0  0  0  0  0  0  0  0
  150.6884   -0.0000    0.0000 C   0  0  0  0  0  0  0  0  0  0  0  0
  151.9875    0.7500    0.0000 C   0  0  0  0  0  0  0  0  0  0  0  0
  153.2865   -0.0000    0.0000 C   0  0  0  0  0  0  0  0  0  0  0  0
  154.5855    0.7500    0.0000 C   0  0  0  0  0  0  0  0  0  0  0  0
  155.8846   -0.0000    0.0000 C   0  0  0  0  0  0  0  0  0  0  0  0
  157.1836    0.7500    0.0000 C   0  0  0  0  0  0  0  0  0  0  0  0
  158.4826   -0.0000    0.0000 C   0  0  0  0  0  0  0  0  0  0  0  0
  159.7817    0.7500    0.0000 C   0  0  0  0  0  0  0  0  0  0  0  0
  161.0807   -0.0000    0.0000 C   0  0  0  0  0  0  0  0  0  0  0  0
  1  2  1  0
  2  3  1  0
  3  4  1  0
  4  5  1  0
  5  6  1  0
  6  7  1  0
  7  8  1  0
  8  9  1  0
  9 10  1  0
 10 11  1  0
 11 12  1  0
 12 13  1  0
 13 14  1  0
 14 15  1  0
 15 16  1  0
 16 17  1  0
 17 18  1  0
 18 19  1  0
 19 20  1  0
 20 21  1  0
 21 22  1  0
 22 23  1  0
 23 24  2  3
 24 25  1  0
 25 26  2  3
 26 27  1  0
 27 28  2  3
 28 29  1  0
 29 30  1  0
 30 31  1  0
 31 32  1  0
 32 33  1  0
 33 34  1  0
 34 35  1  0
 35 36  1  0
 36 37  1  0
 37 38  1  0
 38 39  1  0
 39 40  1  0
 40 41  1  0
 41 42  1  0
 42 43  1  0
 43 44  1  0
 44 45  1  0
 45 46  1  0
 46 47  1  0
 47 48  1  0
 48 49  1  0
 49 50  1  0
 50 51  1  0
 51 52  1  0
 52 53  1  0
 53 54  1  0
 54 55  1  0
 55 56  1  0
 56 57  1  0
 57 58  1  0
 58 59  1  0
 59 60  1  0
 60 61  1  0
 61 62  1  0
 62 63  1  0
 63 64  1  0
 64 65  1  0
 65 66  1  0
 66 67  1  0
 67 68  1  0
 68 69  1  0
 69 70  1  0
 70 71  1  0
 71 72  1  0
 72 73  1  0
 73 74  1  0
 74 75  1  0
 75 76  1  0
 76 77  1  0
 77 78  1  0
 78 79  1  0
 79 80  1  0
 80 81  1  0
 81 82  1  0
 82 83  1  0
 83 84  1  0
 84 85  1  0
 85 86  1  0
 86 87  1  0
 87 88  1  0
 88 89  1  0
 89 90  1  0
 90 91  1  0
 91 92  1  0
 92 93  1  0
 93 94  1  0
 94 95  1  0
 95 96  1  0
 96 97  1  0
 97 98  1  0
 98 99  1  0
 99100  1  0
100101  1  0
101102  1  0
102103  1  0
103104  1  0
104105  1  0
105106  1  0
106107  1  0
107108  1  0
108109  1  0
109110  1  0
110111  1  0
111112  1  0
112113  1  0
113114  1  0
114115  1  0
115116  1  0
116117  1  0
117118  1  0
118119  1  0
119120  1  0
120121  1  0
121122  1  0
122123  1  0
123124  1  0
124125  1  0
M  END
>  <Title>  (705) 
idAAZEgen8

$$$$

     RDKit          2D

 90 95  0  0  0  0  0  0  0  0999 V2000
  -11.2721   -4.1288    0.0000 C   0  0  0  0  0  0  0  0  0  0  0  0
  -10.2648   -5.2402    0.0000 C   0  0  0  0  0  0  0  0  0  0  0  0
  -11.3254   -6.3009    0.0000 C   0  0  0  0  0  0  0  0  0  0  0  0
  -12.2770   -7.4604    0.0000 C   0  0  0  0  0  0  0  0  0  0  0  0
  -13.1104   -8.7076    0.0000 C   0  0  0  0  0  0  0  0  0  0  0  0
  -13.8175  -10.0305    0.0000 C   0  0  0  0  0  0  0  0  0  0  0  0
  -14.3915  -11.4163    0.0000 C   0  0  0  0  0  0  0  0  0  0  0  0
  -14.8269  -12.8517    0.0000 C   0  0  0  0  0  0  0  0  0  0  0  0
  -15.1196  -14.3229    0.0000 C   0  0  0  0  0  0  0  0  0  0  0  0
  -15.2666  -15.8156    0.0000 C   0  0  0  0  0  0  0  0  0  0  0  0
  -15.2666  -17.3156    0.0000 C   0  0  0  0  0  0  0  0  0  0  0  0
  -15.1196  -18.8084    0.0000 C   0  0  0  0  0  0  0  0  0  0  0  0
  -14.8269  -20.2796    0.0000 C   0  0  0  0  0  0  0  0  0  0  0  0
  -14.3915  -21.7150    0.0000 C   0  0  0  0  0  0  0  0  0  0  0  0
  -13.8175  -23.1008    0.0000 C   0  0  0  0  0  0  0  0  0  0  0  0
  -13.1104  -24.4237    0.0000 C   0  0  0  0  0  0  0  0  0  0  0  0
  -12.2770  -25.6709    0.0000 C   0  0  0  0  0  0  0  0  0  0  0  0
  -11.3254  -26.8304    0.0000 C   0  0  0  0  0  0  0  0  0  0  0  0
  -10.2648  -27.8911    0.0000 C   0  0  0  0  0  0  0  0  0  0  0  0
   -9.1053  -28.8427    0.0000 C   0  0  0  0  0  0  0  0  0  0  0  0
   -7.8581  -29.6760    0.0000 C   0  0  0  0  0  0  0  0  0  0  0  0
   -6.5352  -30.3831    0.0000 C   0  0  0  0  0  0  0  0  0  0  0  0
   -5.1494  -30.9572    0.0000 C   0  0  0  0  0  0  0  0  0  0  0  0
   -3.7140  -31.3926    0.0000 C   0  0  0  0  0  0  0  0  0  0  0  0
   -2.2428  -31.6852    0.0000 C   0  0  0  0  0  0  0  0  0  0  0  0
   -0.7500  -31.8322    0.0000 C   0  0  0  0  0  0  0  0  0  0  0  0
    0.7500  -31.8322    0.0000 C   0  0  0  0  0  0  0  0  0  0  0  0
    2.2428  -31.6852    0.0000 C   0  0  0  0  0  0  0  0  0  0  0  0
    3.7140  -31.3926    0.0000 C   0  0  0  0  0  0  0  0  0  0  0  0
    5.1494  -30.9572    0.0000 C   0  0  0  0  0  0  0  0  0  0  0  0
    6.5352  -30.3831    0.0000 C   0  0  0  0  0  0  0  0  0  0  0  0
    7.8581  -29.6760    0.0000 C   0  0  0  0  0  0  0  0  0  0  0  0
    9.1053  -28.8427    0.0000 C   0  0  0  0  0  0  0  0  0  0  0  0
   10.2648  -27.8911    0.0000 C   0  0  0  0  0  0  0  0  0  0  0  0
   11.3254  -26.8304    0.0000 C   0  0  0  0  0  0  0  0  0  0  0  0
   12.2770  -25.6709    0.0000 C   0  0  0  0  0  0  0  0  0  0  0  0
   13.1104  -24.4237    0.0000 C   0  0  0  0  0  0  0  0  0  0  0  0
   13.8175  -23.1008    0.0000 C   0  0  0  0  0  0  0  0  0  0  0  0
   14.3915  -21.7150    0.0000 C   0  0  0  0  0  0  0  0  0  0  0  0
   14.8269  -20.2796    0.0000 C   0  0  0  0  0  0  0  0  0  0  0  0
   15.1196  -18.8084    0.0000 C   0  0  0  0  0  0  0  0  0  0  0  0
   15.2666  -17.3156    0.0000 C   0  0  0  0  0  0  0  0  0  0  0  0
   15.2666  -15.8156    0.0000 C   0  0  0  0  0  0  0  0  0  0  0  0
   15.1196  -14.3229    0.0000 C   0  0  0  0  0  0  0  0  0  0  0  0
   14.8269  -12.8517    0.0000 C   0  0  0  0  0  0  0  0  0  0  0  0
   14.3915  -11.4163    0.0000 C   0  0  0  0  0  0  0  0  0  0  0  0
   13.8175  -10.0305    0.0000 C   0  0  0  0  0  0  0  0  0  0  0  0
   13.1104   -8.7076    0.0000 C   0  0  0  0  0  0  0  0  0  0  0  0
   12.2770   -7.4604    0.0000 C   0  0  0  0  0  0  0  0  0  0  0  0
   11.3254   -6.3009    0.0000 C   0  0  0  0  0  0  0  0  0  0  0  0
   10.2648   -5.2402    0.0000 C   0  0  0  0  0  0  0  0  0  0  0  0
    9.1053   -4.2886    0.0000 C   0  0  0  0  0  0  0  0  0  0  0  0
    7.8581   -3.4552    0.0000 C   0  0  0  0  0  0  0  0  0  0  0  0
    6.5352   -2.7482    0.0000 C   0  0  0  0  0  0  0  0  0  0  0  0
    5.1494   -2.1741    0.0000 C   0  0  0  0  0  0  0  0  0  0  0  0
    3.7140   -1.7387    0.0000 C   0  0  0  0  0  0  0  0  0  0  0  0
    2.2428   -1.4461    0.0000 C   0  0  0  0  0  0  0  0  0  0  0  0
    2.4629    0.0377    0.0000 C   0  0  0  0  0  0  0  0  0  0  0  0
    1.5485    1.2268    0.0000 O   0  0  0  0  0  0  0  0  0  0  0  0
    3.8579    0.5890    0.0000 N   0  0  0  0  0  0  0  0  0  0  0  0
    4.0780    2.0727    0.0000 C   0  0  0  0  0  0  0  0  0  0  0  0
    5.4730    2.6240    0.0000 N   0  0  0  0  0  0  0  0  0  0  0  0
    5.6931    4.1078    0.0000 N   0  0  0  0  0  0  0  0  0  0  0  0
    4.5182    5.0403    0.0000 N   0  0  0  0  0  0  0  0  0  0  0  0
    3.1232    4.4890    0.0000 N   0  0  0  0  0  0  0  0  0  0  0  0
    2.9031    3.0052    0.0000 N   0  0  0  0  0  0  0  0  0  0  0  0
    0.7500   -1.2990    0.0000 C   0  0  0  0  0  0  0  0  0  0  0  0
    1.5000    0.0000    0.0000 C   0  0  0  0  0  0  0  0  0  0  0  0
    0.7500    1.2990    0.0000 C   0  0  0  0  0  0  0  0  0  0  0  0
   -0.7500    1.2990    0.0000 C   0  0  0  0  0  0  0  0  0  0  0  0
   -1.5000    0.0000    0.0000 C   0  0  0  0  0  0  0  0  0  0  0  0
   -0.7500   -1.2990    0.0000 C   0  0  0  0  0  0  0  0  0  0  0  0
   -2.2428   -1.4461    0.0000 C   0  0  0  0  0  0  0  0  0  0  0  0
   -1.2538   -2.5738    0.0000 C   0  0  0  0  0  0  0  0  0  0  0  0
   -1.7359   -3.9942    0.0000 C   0  0  0  0  0  0  0  0  0  0  0  0
   -3.2071   -4.2869    0.0000 C   0  0  0  0  0  0  0  0  0  0  0  0
   -4.1961   -3.1591    0.0000 C   0  0  0  0  0  0  0  0  0  0  0  0
   -3.7140   -1.7387    0.0000 C   0  0  0  0  0  0  0  0  0  0  0  0
   -5.1494   -2.1741    0.0000 C   0  0  0  0  0  0  0  0  0  0  0  0
   -4.9536   -0.6870    0.0000 C   0  0  0  0  0  0  0  0  0  0  0  0
   -6.1436    0.2262    0.0000 C   0  0  0  0  0  0  0  0  0  0  0  0
   -7.5294   -0.3478    0.0000 C   0  0  0  0  0  0  0  0  0  0  0  0
   -7.7252   -1.8350    0.0000 C   0  0  0  0  0  0  0  0  0  0  0  0
   -6.5352   -2.7482    0.0000 C   0  0  0  0  0  0  0  0  0  0  0  0
   -7.8581   -3.4552    0.0000 C   0  0  0  0  0  0  0  0  0  0  0  0
   -6.5128   -4.1187    0.0000 C   0  0  0  0  0  0  0  0  0  0  0  0
   -6.4147   -5.6155    0.0000 C   0  0  0  0  0  0  0  0  0  0  0  0
   -7.6619   -6.4488    0.0000 C   0  0  0  0  0  0  0  0  0  0  0  0
   -9.0072   -5.7854    0.0000 C   0  0  0  0  0  0  0  0  0  0  0  0
   -9.1053   -4.2886    0.0000 C   0  0  0  0  0  0  0  0  0  0  0  0
  1  2  1  0
  2  3  1  0
  3  4  1  0
  4  5  1  0
  5  6  1  0
  6  7  1  0
  7  8  1  0
  8  9  1  0
  9 10  1  0
 10 11  1  0
 11 12  1  0
 12 13  1  0
 13 14  1  0
 14 15  1  0
 15 16  1  0
 16 17  1  0
 17 18  1  0
 18 19  1  0
 19 20  1  0
 20 21  1  0
 21 22  1  0
 22 23  1  0
 23 24  1  0
 24 25  1  0
 25 26  1  0
 26 27  1  0
 27 28  1  0
 28 29  1  0
 29 30  1  0
 30 31  1  0
 31 32  1  0
 32 33  1  0
 33 34  1  0
 34 35  1  0
 35 36  1  0
 36 37  1  0
 37 38  1  0
 38 39  1  0
 39 40  1  0
 40 41  1  0
 41 42  1  0
 42 43  1  0
 43 44  1  0
 44 45  1  0
 45 46  1  0
 46 47  1  0
 47 48  1  0
 48 49  1  0
 49 50  1  0
 50 51  1  0
 51 52  1  0
 52 53  1  0
 53 54  1  0
 54 55  1  0
 55 56  1  0
 56 57  1  0
 57 58  1  0
 58 59  2  0
 58 60  1  0
 60 61  1  0
 61 62  2  0
 62 63  1  0
 63 64  2  0
 64 65  1  0
 65 66  2  0
 57 67  1  0
 67 68  2  0
 68 69  1  0
 69 70  2  0
 70 71  1  0
 71 72  2  0
 72 73  1  0
 73 74  2  0
 74 75  1  0
 75 76  2  0
 76 77  1  0
 77 78  2  0
 78 79  1  0
 79 80  2  0
 80 81  1  0
 81 82  2  0
 82 83  1  0
 83 84  2  0
 84 85  1  0
 85 86  2  0
 86 87  1  0
 87 88  2  0
 88 89  1  0
 89 90  2  0
 90  2  1  0
 66 61  1  0
 72 67  1  0
 78 73  1  0
 84 79  1  0
 90 85  1  0
M  END
>  <Title>  (706) 
idAAZFgen8

$$$$

     RDKit          2D

106106  0  0  0  0  0  0  0  0999 V2000
   26.5706    0.0000    0.0000 C   0  0  0  0  0  0  0  0  0  0  0  0
   25.0706    0.0000    0.0000 C   0  0  0  0  0  0  0  0  0  0  0  0
   25.0258    1.4993    0.0000 C   0  0  0  0  0  0  0  0  0  0  0  0
   24.8913    2.9933    0.0000 C   0  0  0  0  0  0  0  0  0  0  0  0
   24.6677    4.4765    0.0000 C   0  0  0  0  0  0  0  0  0  0  0  0
   24.3559    5.9438    0.0000 C   0  0  0  0  0  0  0  0  0  0  0  0
   23.9568    7.3897    0.0000 C   0  0  0  0  0  0  0  0  0  0  0  0
   23.4720    8.8092    0.0000 C   0  0  0  0  0  0  0  0  0  0  0  0
   22.9032   10.1971    0.0000 C   0  0  0  0  0  0  0  0  0  0  0  0
   22.2523   11.5486    0.0000 C   0  0  0  0  0  0  0  0  0  0  0  0
   21.5219   12.8587    0.0000 C   0  0  0  0  0  0  0  0  0  0  0  0
   20.7143   14.1228    0.0000 C   0  0  0  0  0  0  0  0  0  0  0  0
   19.8327   15.3363    0.0000 C   0  0  0  0  0  0  0  0  0  0  0  0
   18.8800   16.4949    0.0000 C   0  0  0  0  0  0  0  0  0  0  0  0
   17.8597   17.5945    0.0000 C   0  0  0  0  0  0  0  0  0  0  0  0
   16.7755   18.6311    0.0000 C   0  0  0  0  0  0  0  0  0  0  0  0
   15.6313   19.6010    0.0000 C   0  0  0  0  0  0  0  0  0  0  0  0
   14.4311   20.5008    0.0000 C   0  0  0  0  0  0  0  0  0  0  0  0
   13.1792   21.3271    0.0000 C   0  0  0  0  0  0  0  0  0  0  0  0
   11.8802   22.0771    0.0000 C   0  0  0  0  0  0  0  0  0  0  0  0
   10.5386   22.7481    0.0000 C   0  0  0  0  0  0  0  0  0  0  0  0
    9.1593   23.3376    0.0000 C   0  0  0  0  0  0  0  0  0  0  0  0
    7.7473   23.8436    0.0000 C   0  0  0  0  0  0  0  0  0  0  0  0
    6.3074   24.2642    0.0000 C   0  0  0  0  0  0  0  0  0  0  0  0
    4.8451   24.5980    0.0000 C   0  0  0  0  0  0  0  0  0  0  0  0
    3.3653   24.8437    0.0000 C   0  0  0  0  0  0  0  0  0  0  0  0
    1.8735   25.0005    0.0000 C   0  0  0  0  0  0  0  0  0  0  0  0
    0.3750   25.0678    0.0000 C   0  0  0  0  0  0  0  0  0  0  0  0
   -1.1248   25.0454    0.0000 C   0  0  0  0  0  0  0  0  0  0  0  0
   -2.6206   24.9333    0.0000 C   0  0  0  0  0  0  0  0  0  0  0  0
   -4.1070   24.7320    0.0000 C   0  0  0  0  0  0  0  0  0  0  0  0
   -5.5787   24.4421    0.0000 C   0  0  0  0  0  0  0  0  0  0  0  0
   -7.0305   24.0647    0.0000 C   0  0  0  0  0  0  0  0  0  0  0  0
   -8.4571   23.6012    0.0000 C   0  0  0  0  0  0  0  0  0  0  0  0
   -9.8534   23.0532    0.0000 C   0  0  0  0  0  0  0  0  0  0  0  0
  -11.2144   22.4226    0.0000 C   0  0  0  0  0  0  0  0  0  0  0  0
  -12.5353   21.7118    0.0000 C   0  0  0  0  0  0  0  0  0  0  0  0
  -13.8113   20.9233    0.0000 C   0  0  0  0  0  0  0  0  0  0  0  0
  -15.0379   20.0599    0.0000 C   0  0  0  0  0  0  0  0  0  0  0  0
  -16.2107   19.1246    0.0000 C   0  0  0  0  0  0  0  0  0  0  0  0
  -17.3254   18.1209    0.0000 C   0  0  0  0  0  0  0  0  0  0  0  0
  -18.3781   17.0524    0.0000 C   0  0  0  0  0  0  0  0  0  0  0  0
  -19.3650   15.9228    0.0000 C   0  0  0  0  0  0  0  0  0  0  0  0
  -20.2826   14.7362    0.0000 C   0  0  0  0  0  0  0  0  0  0  0  0
  -21.1276   13.4968    0.0000 C   0  0  0  0  0  0  0  0  0  0  0  0
  -21.8969   12.2091    0.0000 C   0  0  0  0  0  0  0  0  0  0  0  0
  -22.5879   10.8777    0.0000 C   0  0  0  0  0  0  0  0  0  0  0  0
  -23.1980    9.5074    0.0000 C   0  0  0  0  0  0  0  0  0  0  0  0
  -23.7250    8.1031    0.0000 C   0  0  0  0  0  0  0  0  0  0  0  0
  -24.1672    6.6697    0.0000 C   0  0  0  0  0  0  0  0  0  0  0  0
  -24.5228    5.2125    0.0000 C   0  0  0  0  0  0  0  0  0  0  0  0
  -24.7906    3.7366    0.0000 C   0  0  0  0  0  0  0  0  0  0  0  0
  -24.9697    2.2473    0.0000 C   0  0  0  0  0  0  0  0  0  0  0  0
  -25.0594    0.7500    0.0000 C   0  0  0  0  0  0  0  0  0  0  0  0
  -25.0594   -0.7500    0.0000 C   0  0  0  0  0  0  0  0  0  0  0  0
  -24.9697   -2.2473    0.0000 C   0  0  0  0  0  0  0  0  0  0  0  0
  -24.7906   -3.7366    0.0000 C   0  0  0  0  0  0  0  0  0  0  0  0
  -24.5228   -5.2125    0.0000 C   0  0  0  0  0  0  0  0  0  0  0  0
  -24.1672   -6.6697    0.0000 C   0  0  0  0  0  0  0  0  0  0  0  0
  -23.7250   -8.1031    0.0000 C   0  0  0  0  0  0  0  0  0  0  0  0
  -23.1980   -9.5074    0.0000 C   0  0  0  0  0  0  0  0  0  0  0  0
  -22.5879  -10.8777    0.0000 C   0  0  0  0  0  0  0  0  0  0  0  0
  -21.8969  -12.2091    0.0000 C   0  0  0  0  0  0  0  0  0  0  0  0
  -21.1276  -13.4968    0.0000 C   0  0  0  0  0  0  0  0  0  0  0  0
  -20.2826  -14.7362    0.0000 C   0  0  0  0  0  0  0  0  0  0  0  0
  -19.3650  -15.9228    0.0000 C   0  0  0  0  0  0  0  0  0  0  0  0
  -18.3781  -17.0524    0.0000 C   0  0  0  0  0  0  0  0  0  0  0  0
  -17.3254  -18.1209    0.0000 C   0  0  0  0  0  0  0  0  0  0  0  0
  -16.2107  -19.1246    0.0000 C   0  0  0  0  0  0  0  0  0  0  0  0
  -15.0379  -20.0599    0.0000 C   0  0  0  0  0  0  0  0  0  0  0  0
  -13.8113  -20.9233    0.0000 C   0  0  0  0  0  0  0  0  0  0  0  0
  -12.5353  -21.7118    0.0000 C   0  0  0  0  0  0  0  0  0  0  0  0
  -11.2144  -22.4226    0.0000 C   0  0  0  0  0  0  0  0  0  0  0  0
   -9.8534  -23.0532    0.0000 C   0  0  0  0  0  0  0  0  0  0  0  0
   -8.4571  -23.6012    0.0000 C   0  0  0  0  0  0  0  0  0  0  0  0
   -7.0305  -24.0647    0.0000 C   0  0  0  0  0  0  0  0  0  0  0  0
   -5.5787  -24.4421    0.0000 C   0  0  0  0  0  0  0  0  0  0  0  0
   -4.1070  -24.7320    0.0000 C   0  0  0  0  0  0  0  0  0  0  0  0
   -2.6206  -24.9333    0.0000 C   0  0  0  0  0  0  0  0  0  0  0  0
   -1.1248  -25.0454    0.0000 C   0  0  0  0  0  0  0  0  0  0  0  0
    0.3750  -25.0678    0.0000 C   0  0  0  0  0  0  0  0  0  0  0  0
    1.8735  -25.0005    0.0000 C   0  0  0  0  0  0  0  0  0  0  0  0
    3.3653  -24.8437    0.0000 C   0  0  0  0  0  0  0  0  0  0  0  0
    4.8451  -24.5980    0.0000 C   0  0  0  0  0  0  0  0  0  0  0  0
    6.3074  -24.2642    0.0000 C   0  0  0  0  0  0  0  0  0  0  0  0
    7.7473  -23.8436    0.0000 C   0  0  0  0  0  0  0  0  0  0  0  0
    9.1593  -23.3376    0.0000 C   0  0  0  0  0  0  0  0  0  0  0  0
   10.5386  -22.7481    0.0000 C   0  0  0  0  0  0  0  0  0  0  0  0
   11.8802  -22.0771    0.0000 C   0  0  0  0  0  0  0  0  0  0  0  0
   13.1792  -21.3271    0.0000 C   0  0  0  0  0  0  0  0  0  0  0  0
   14.4311  -20.5008    0.0000 C   0  0  0  0  0  0  0  0  0  0  0  0
   15.6313  -19.6010    0.0000 C   0  0  0  0  0  0  0  0  0  0  0  0
   16.7755  -18.6311    0.0000 C   0  0  0  0  0  0  0  0  0  0  0  0
   17.8597  -17.5945    0.0000 C   0  0  0  0  0  0  0  0  0  0  0  0
   18.8800  -16.4949    0.0000 C   0  0  0  0  0  0  0  0  0  0  0  0
   19.8327  -15.3363    0.0000 C   0  0  0  0  0  0  0  0  0  0  0  0
   20.7143  -14.1228    0.0000 C   0  0  0  0  0  0  0  0  0  0  0  0
   21.5219  -12.8587    0.0000 C   0  0  0  0  0  0  0  0  0  0  0  0
   22.2523  -11.5486    0.0000 C   0  0  0  0  0  0  0  0  0  0  0  0
   22.9032  -10.1971    0.0000 C   0  0  0  0  0  0  0  0  0  0  0  0
   23.4720   -8.8092    0.0000 C   0  0  0  0  0  0  0  0  0  0  0  0
   23.9568   -7.3897    0.0000 C   0  0  0  0  0  0  0  0  0  0  0  0
   24.3559   -5.9438    0.0000 C   0  0  0  0  0  0  0  0  0  0  0  0
   24.6677   -4.4765    0.0000 C   0  0  0  0  0  0  0  0  0  0  0  0
   24.8913   -2.9933    0.0000 C   0  0  0  0  0  0  0  0  0  0  0  0
   25.0258   -1.4993    0.0000 C   0  0  0  0  0  0  0  0  0  0  0  0
  1  2  1  0
  2  3  1  0
  3  4  2  0
  4  5  1  0
  5  6  2  0
  6  7  1  0
  7  8  2  0
  8  9  1  0
  9 10  2  0
 10 11  1  0
 11 12  2  0
 12 13  1  0
 13 14  1  0
 14 15  1  0
 15 16  1  0
 16 17  1  0
 17 18  1  0
 18 19  1  0
 19 20  1  0
 20 21  1  0
 21 22  1  0
 22 23  1  0
 23 24  1  0
 24 25  1  0
 25 26  1  0
 26 27  1  0
 27 28  1  0
 28 29  1  0
 29 30  1  0
 30 31  1  0
 31 32  1  0
 32 33  1  0
 33 34  1  0
 34 35  1  0
 35 36  1  0
 36 37  1  0
 37 38  1  0
 38 39  1  0
 39 40  1  0
 40 41  1  0
 41 42  1  0
 42 43  1  0
 43 44  1  0
 44 45  1  0
 45 46  1  0
 46 47  1  0
 47 48  1  0
 48 49  1  0
 49 50  1  0
 50 51  1  0
 51 52  1  0
 52 53  1  0
 53 54  1  0
 54 55  1  0
 55 56  1  0
 56 57  1  0
 57 58  1  0
 58 59  1  0
 59 60  1  0
 60 61  1  0
 61 62  1  0
 62 63  1  0
 63 64  1  0
 64 65  1  0
 65 66  1  0
 66 67  1  0
 67 68  1  0
 68 69  1  0
 69 70  1  0
 70 71  1  0
 71 72  1  0
 72 73  1  0
 73 74  1  0
 74 75  1  0
 75 76  1  0
 76 77  1  0
 77 78  1  0
 78 79  1  0
 79 80  1  0
 80 81  1  0
 81 82  1  0
 82 83  1  0
 83 84  1  0
 84 85  1  0
 85 86  1  0
 86 87  1  0
 87 88  1  0
 88 89  1  0
 89 90  1  0
 90 91  1  0
 91 92  1  0
 92 93  1  0
 93 94  1  0
 94 95  1  0
 95 96  1  0
 96 97  1  0
 97 98  1  0
 98 99  1  0
 99100  1  0
100101  1  0
101102  1  0
102103  1  0
103104  1  0
104105  1  0
105106  1  0
106  2  1  0
M  END
>  <Title>  (707) 
idAAZGgen8

$$$$

     RDKit          2D

 99 99  0  0  0  0  0  0  0  0999 V2000
   24.8998    0.0000    0.0000 C   0  0  0  0  0  0  0  0  0  0  0  0
   23.3998    0.0000    0.0000 C   0  0  0  0  0  0  0  0  0  0  0  0
   23.3517   -1.4992    0.0000 C   0  0  0  0  0  0  0  0  0  0  0  0
   23.2077   -2.9923    0.0000 C   0  0  0  0  0  0  0  0  0  0  0  0
   22.9683   -4.4731    0.0000 C   0  0  0  0  0  0  0  0  0  0  0  0
   22.6345   -5.9355    0.0000 C   0  0  0  0  0  0  0  0  0  0  0  0
   22.2077   -7.3735    0.0000 C   0  0  0  0  0  0  0  0  0  0  0  0
   21.6897   -8.7812    0.0000 C   0  0  0  0  0  0  0  0  0  0  0  0
   21.0825  -10.1528    0.0000 C   0  0  0  0  0  0  0  0  0  0  0  0
   20.3887  -11.4827    0.0000 C   0  0  0  0  0  0  0  0  0  0  0  0
   19.6111  -12.7654    0.0000 C   0  0  0  0  0  0  0  0  0  0  0  0
   18.7529  -13.9957    0.0000 C   0  0  0  0  0  0  0  0  0  0  0  0
   17.8177  -15.1684    0.0000 C   0  0  0  0  0  0  0  0  0  0  0  0
   16.8092  -16.2788    0.0000 C   0  0  0  0  0  0  0  0  0  0  0  0
   15.7317  -17.3223    0.0000 C   0  0  0  0  0  0  0  0  0  0  0  0
   14.5895  -18.2947    0.0000 C   0  0  0  0  0  0  0  0  0  0  0  0
   13.3874  -19.1919    0.0000 C   0  0  0  0  0  0  0  0  0  0  0  0
   12.1303  -20.0102    0.0000 C   0  0  0  0  0  0  0  0  0  0  0  0
   10.8233  -20.7462    0.0000 C   0  0  0  0  0  0  0  0  0  0  0  0
    9.4718  -21.3971    0.0000 C   0  0  0  0  0  0  0  0  0  0  0  0
    8.0815  -21.9600    0.0000 C   0  0  0  0  0  0  0  0  0  0  0  0
    6.6579  -22.4326    0.0000 C   0  0  0  0  0  0  0  0  0  0  0  0
    5.2069  -22.8131    0.0000 C   0  0  0  0  0  0  0  0  0  0  0  0
    3.7346  -23.0998    0.0000 C   0  0  0  0  0  0  0  0  0  0  0  0
    2.2469  -23.2917    0.0000 C   0  0  0  0  0  0  0  0  0  0  0  0
    0.7500  -23.3878    0.0000 C   0  0  0  0  0  0  0  0  0  0  0  0
   -0.7500  -23.3878    0.0000 C   0  0  0  0  0  0  0  0  0  0  0  0
   -2.2469  -23.2917    0.0000 C   0  0  0  0  0  0  0  0  0  0  0  0
   -3.7346  -23.0998    0.0000 C   0  0  0  0  0  0  0  0  0  0  0  0
   -5.2069  -22.8131    0.0000 C   0  0  0  0  0  0  0  0  0  0  0  0
   -6.6579  -22.4326    0.0000 C   0  0  0  0  0  0  0  0  0  0  0  0
   -8.0815  -21.9600    0.0000 C   0  0  0  0  0  0  0  0  0  0  0  0
   -9.4718  -21.3971    0.0000 C   0  0  0  0  0  0  0  0  0  0  0  0
  -10.8233  -20.7462    0.0000 C   0  0  0  0  0  0  0  0  0  0  0  0
  -12.1303  -20.0102    0.0000 C   0  0  0  0  0  0  0  0  0  0  0  0
  -13.3874  -19.1919    0.0000 C   0  0  0  0  0  0  0  0  0  0  0  0
  -14.5895  -18.2947    0.0000 C   0  0  0  0  0  0  0  0  0  0  0  0
  -15.7317  -17.3223    0.0000 C   0  0  0  0  0  0  0  0  0  0  0  0
  -16.8092  -16.2788    0.0000 C   0  0  0  0  0  0  0  0  0  0  0  0
  -17.8177  -15.1684    0.0000 C   0  0  0  0  0  0  0  0  0  0  0  0
  -18.7529  -13.9957    0.0000 C   0  0  0  0  0  0  0  0  0  0  0  0
  -19.6111  -12.7654    0.0000 C   0  0  0  0  0  0  0  0  0  0  0  0
  -20.3887  -11.4827    0.0000 C   0  0  0  0  0  0  0  0  0  0  0  0
  -21.0825  -10.1528    0.0000 C   0  0  0  0  0  0  0  0  0  0  0  0
  -21.6897   -8.7812    0.0000 C   0  0  0  0  0  0  0  0  0  0  0  0
  -22.2077   -7.3735    0.0000 C   0  0  0  0  0  0  0  0  0  0  0  0
  -22.6345   -5.9355    0.0000 C   0  0  0  0  0  0  0  0  0  0  0  0
  -22.9683   -4.4731    0.0000 C   0  0  0  0  0  0  0  0  0  0  0  0
  -23.2077   -2.9923    0.0000 C   0  0  0  0  0  0  0  0  0  0  0  0
  -23.3517   -1.4992    0.0000 C   0  0  0  0  0  0  0  0  0  0  0  0
  -23.3998    0.0000    0.0000 C   0  0  0  0  0  0  0  0  0  0  0  0
  -23.3517    1.4992    0.0000 C   0  0  0  0  0  0  0  0  0  0  0  0
  -23.2077    2.9923    0.0000 C   0  0  0  0  0  0  0  0  0  0  0  0
  -22.9683    4.4731    0.0000 C   0  0  0  0  0  0  0  0  0  0  0  0
  -22.6345    5.9355    0.0000 C   0  0  0  0  0  0  0  0  0  0  0  0
  -22.2077    7.3735    0.0000 C   0  0  0  0  0  0  0  0  0  0  0  0
  -21.6897    8.7812    0.0000 C   0  0  0  0  0  0  0  0  0  0  0  0
  -21.0825   10.1528    0.0000 C   0  0  0  0  0  0  0  0  0  0  0  0
  -20.3887   11.4827    0.0000 C   0  0  0  0  0  0  0  0  0  0  0  0
  -19.6111   12.7654    0.0000 C   0  0  0  0  0  0  0  0  0  0  0  0
  -18.7529   13.9957    0.0000 C   0  0  0  0  0  0  0  0  0  0  0  0
  -17.8177   15.1684    0.0000 C   0  0  0  0  0  0  0  0  0  0  0  0
  -16.8092   16.2788    0.0000 C   0  0  0  0  0  0  0  0  0  0  0  0
  -15.7317   17.3223    0.0000 C   0  0  0  0  0  0  0  0  0  0  0  0
  -14.5895   18.2947    0.0000 C   0  0  0  0  0  0  0  0  0  0  0  0
  -13.3874   19.1919    0.0000 C   0  0  0  0  0  0  0  0  0  0  0  0
  -12.1303   20.0102    0.0000 C   0  0  0  0  0  0  0  0  0  0  0  0
  -10.8233   20.7462    0.0000 C   0  0  0  0  0  0  0  0  0  0  0  0
   -9.4718   21.3971    0.0000 C   0  0  0  0  0  0  0  0  0  0  0  0
   -8.0815   21.9600    0.0000 C   0  0  0  0  0  0  0  0  0  0  0  0
   -6.6579   22.4326    0.0000 C   0  0  0  0  0  0  0  0  0  0  0  0
   -5.2069   22.8131    0.0000 C   0  0  0  0  0  0  0  0  0  0  0  0
   -3.7346   23.0998    0.0000 C   0  0  0  0  0  0  0  0  0  0  0  0
   -2.2469   23.2917    0.0000 C   0  0  0  0  0  0  0  0  0  0  0  0
   -0.7500   23.3878    0.0000 C   0  0  0  0  0  0  0  0  0  0  0  0
    0.7500   23.3878    0.0000 C   0  0  0  0  0  0  0  0  0  0  0  0
    2.2469   23.2917    0.0000 C   0  0  0  0  0  0  0  0  0  0  0  0
    3.7346   23.0998    0.0000 C   0  0  0  0  0  0  0  0  0  0  0  0
    5.2069   22.8131    0.0000 C   0  0  0  0  0  0  0  0  0  0  0  0
    6.6579   22.4326    0.0000 C   0  0  0  0  0  0  0  0  0  0  0  0
    8.0815   21.9600    0.0000 C   0  0  0  0  0  0  0  0  0  0  0  0
    9.4718   21.3971    0.0000 C   0  0  0  0  0  0  0  0  0  0  0  0
   10.8233   20.7462    0.0000 C   0  0  0  0  0  0  0  0  0  0  0  0
   12.1303   20.0102    0.0000 C   0  0  0  0  0  0  0  0  0  0  0  0
   13.3874   19.1919    0.0000 C   0  0  0  0  0  0  0  0  0  0  0  0
   14.5895   18.2947    0.0000 C   0  0  0  0  0  0  0  0  0  0  0  0
   15.7317   17.3223    0.0000 C   0  0  0  0  0  0  0  0  0  0  0  0
   16.8092   16.2788    0.0000 C   0  0  0  0  0  0  0  0  0  0  0  0
   17.8177   15.1684    0.0000 C   0  0  0  0  0  0  0  0  0  0  0  0
   18.7529   13.9957    0.0000 C   0  0  0  0  0  0  0  0  0  0  0  0
   19.6111   12.7654    0.0000 C   0  0  0  0  0  0  0  0  0  0  0  0
   20.3887   11.4827    0.0000 C   0  0  0  0  0  0  0  0  0  0  0  0
   21.0825   10.1528    0.0000 C   0  0  0  0  0  0  0  0  0  0  0  0
   21.6897    8.7812    0.0000 C   0  0  0  0  0  0  0  0  0  0  0  0
   22.2077    7.3735    0.0000 C   0  0  0  0  0  0  0  0  0  0  0  0
   22.6345    5.9355    0.0000 C   0  0  0  0  0  0  0  0  0  0  0  0
   22.9683    4.4731    0.0000 C   0  0  0  0  0  0  0  0  0  0  0  0
   23.2077    2.9923    0.0000 C   0  0  0  0  0  0  0  0  0  0  0  0
   23.3517    1.4992    0.0000 C   0  0  0  0  0  0  0  0  0  0  0  0
  1  2  1  0
  2  3  1  0
  3  4  1  0
  4  5  1  0
  5  6  1  0
  6  7  1  0
  7  8  1  0
  8  9  1  0
  9 10  1  0
 10 11  1  0
 11 12  1  0
 12 13  1  0
 13 14  1  0
 14 15  1  0
 15 16  1  0
 16 17  1  0
 17 18  1  0
 18 19  1  0
 19 20  1  0
 20 21  1  0
 21 22  1  0
 22 23  1  0
 23 24  1  0
 24 25  1  0
 25 26  1  0
 26 27  1  0
 27 28  1  0
 28 29  1  0
 29 30  1  0
 30 31  1  0
 31 32  1  0
 32 33  1  0
 33 34  1  0
 34 35  1  0
 35 36  1  0
 36 37  1  0
 37 38  1  0
 38 39  1  0
 39 40  1  0
 40 41  1  0
 41 42  1  0
 42 43  1  0
 43 44  1  0
 44 45  1  0
 45 46  1  0
 46 47  1  0
 47 48  1  0
 48 49  1  0
 49 50  1  0
 50 51  1  0
 51 52  1  0
 52 53  1  0
 53 54  1  0
 54 55  1  0
 55 56  1  0
 56 57  1  0
 57 58  1  0
 58 59  1  0
 59 60  1  0
 60 61  1  0
 61 62  1  0
 62 63  1  0
 63 64  1  0
 64 65  1  0
 65 66  1  0
 66 67  1  0
 67 68  1  0
 68 69  1  0
 69 70  1  0
 70 71  1  0
 71 72  1  0
 72 73  1  0
 73 74  1  0
 74 75  1  0
 75 76  1  0
 76 77  1  0
 77 78  1  0
 78 79  1  0
 79 80  1  0
 80 81  1  0
 81 82  1  0
 82 83  1  0
 83 84  1  0
 84 85  1  0
 85 86  1  0
 86 87  1  0
 87 88  1  0
 88 89  1  0
 89 90  1  0
 90 91  1  0
 91 92  1  0
 92 93  1  0
 93 94  1  0
 94 95  1  0
 95 96  1  0
 96 97  1  0
 97 98  1  0
 98 99  1  0
 99  2  1  0
M  END
>  <Title>  (708) 
idAAZHgen8

$$$$

     RDKit          2D

  8  8  0  0  0  0  0  0  0  0999 V2000
    3.0000    0.0000    0.0000 C   0  0  0  0  0  0  0  0  0  0  0  0
    1.5000    0.0000    0.0000 C   0  0  0  0  0  0  0  0  0  0  0  0
    0.7500   -1.2990    0.0000 C   0  0  0  0  0  0  0  0  0  0  0  0
   -0.7500   -1.2990    0.0000 C   0  0  0  0  0  0  0  0  0  0  0  0
   -1.5000   -2.5981    0.0000 O   0  0  0  0  0  0  0  0  0  0  0  0
   -1.5000    0.0000    0.0000 O   0  0  0  0  0  0  0  0  0  0  0  0
   -0.7500    1.2990    0.0000 C   0  0  0  0  0  0  0  0  0  0  0  0
    0.7500    1.2990    0.0000 C   0  0  0  0  0  0  0  0  0  0  0  0
  1  2  1  0
  2  3  2  0
  3  4  1  0
  4  5  1  0
  4  6  1  0
  6  7  1  0
  7  8  1  0
  8  2  1  0
M  END
>  <Title>  (709) 
idAAZIgen8

$$$$

     RDKit          2D

 31 35  0  0  0  0  0  0  0  0999 V2000
    2.1535   -8.4451    0.0000 C   0  0  0  0  0  0  0  0  0  0  0  0
    1.4564   -7.1169    0.0000 C   0  0  0  0  0  0  0  0  0  0  0  0
    2.5792   -6.1222    0.0000 C   0  0  0  0  0  0  0  0  0  0  0  0
    3.1111   -4.7197    0.0000 C   0  0  0  0  0  0  0  0  0  0  0  0
    2.9303   -3.2306    0.0000 C   0  0  0  0  0  0  0  0  0  0  0  0
    4.3328   -2.6987    0.0000 O   0  0  0  0  0  0  0  0  0  0  0  0
    2.0782   -1.9961    0.0000 C   0  0  0  0  0  0  0  0  0  0  0  0
    0.7500   -1.2990    0.0000 C   0  0  0  0  0  0  0  0  0  0  0  0
    1.5000    0.0000    0.0000 N   0  0  0  0  0  0  0  0  0  0  0  0
    0.7500    1.2990    0.0000 N   0  0  0  0  0  0  0  0  0  0  0  0
   -0.7500    1.2990    0.0000 C   0  0  0  0  0  0  0  0  0  0  0  0
   -1.5000    0.0000    0.0000 N   0  0  0  0  0  0  0  0  0  0  0  0
   -0.7500   -1.2990    0.0000 C   0  0  0  0  0  0  0  0  0  0  0  0
   -2.0782   -1.9961    0.0000 C   0  0  0  0  0  0  0  0  0  0  0  0
   -2.7212   -0.6409    0.0000 C   0  0  0  0  0  0  0  0  0  0  0  0
   -4.2164   -0.5202    0.0000 C   0  0  0  0  0  0  0  0  0  0  0  0
   -5.0685   -1.7547    0.0000 C   0  0  0  0  0  0  0  0  0  0  0  0
   -4.4254   -3.1099    0.0000 C   0  0  0  0  0  0  0  0  0  0  0  0
   -2.9303   -3.2306    0.0000 C   0  0  0  0  0  0  0  0  0  0  0  0
   -3.1111   -4.7197    0.0000 C   0  0  0  0  0  0  0  0  0  0  0  0
   -4.5917   -4.4790    0.0000 C   0  0  0  0  0  0  0  0  0  0  0  0
   -5.5403   -5.6410    0.0000 C   0  0  0  0  0  0  0  0  0  0  0  0
   -5.0084   -7.0435    0.0000 C   0  0  0  0  0  0  0  0  0  0  0  0
   -3.5278   -7.2841    0.0000 C   0  0  0  0  0  0  0  0  0  0  0  0
   -2.5792   -6.1222    0.0000 C   0  0  0  0  0  0  0  0  0  0  0  0
   -1.4564   -7.1169    0.0000 C   0  0  0  0  0  0  0  0  0  0  0  0
   -2.4955   -8.1987    0.0000 C   0  0  0  0  0  0  0  0  0  0  0  0
   -2.0782   -9.6395    0.0000 C   0  0  0  0  0  0  0  0  0  0  0  0
   -0.6218   -9.9984    0.0000 C   0  0  0  0  0  0  0  0  0  0  0  0
    0.4173   -8.9166    0.0000 C   0  0  0  0  0  0  0  0  0  0  0  0
   -0.0000   -7.4758    0.0000 C   0  0  0  0  0  0  0  0  0  0  0  0
  1  2  1  0
  2  3  1  0
  3  4  2  0
  4  5  1  0
  5  6  2  0
  5  7  1  0
  7  8  1  0
  8  9  2  0
  9 10  1  0
 10 11  2  0
 11 12  1  0
 12 13  2  0
 13 14  1  0
 14 15  2  0
 15 16  1  0
 16 17  2  0
 17 18  1  0
 18 19  2  0
 19 20  1  0
 20 21  2  0
 21 22  1  0
 22 23  2  0
 23 24  1  0
 24 25  2  0
 25 26  1  0
 26 27  2  0
 27 28  1  0
 28 29  2  0
 29 30  1  0
 30 31  2  0
 31  2  1  0
 13  8  1  0
 19 14  1  0
 25 20  1  0
 31 26  1  0
M  END
>  <Title>  (710) 
idAAZJgen8

$$$$

     RDKit          2D

 11 11  0  0  0  0  0  0  0  0999 V2000
    8.0260   -1.2990    0.0000 C   0  0  0  0  0  0  0  0  0  0  0  0
    6.5260   -1.2990    0.0000 C   0  0  0  0  0  0  0  0  0  0  0  0
    5.0260   -1.2990    0.0000 C   0  0  0  0  0  0  0  0  0  0  0  0
    3.5260   -1.2990    0.0000 C   0  0  0  0  0  0  0  0  0  0  0  0
    2.7760   -2.5981    0.0000 O   0  0  0  0  0  0  0  0  0  0  0  0
    2.7760    0.0000    0.0000 N   0  0  0  0  0  0  0  0  0  0  0  0
    1.2760    0.0000    0.0000 C   0  0  0  0  0  0  0  0  0  0  0  0
    0.3943    1.2135    0.0000 N   0  0  0  0  0  0  0  0  0  0  0  0
   -1.0323    0.7500    0.0000 N   0  0  0  0  0  0  0  0  0  0  0  0
   -1.0323   -0.7500    0.0000 C   0  0  0  0  0  0  0  0  0  0  0  0
    0.3943   -1.2135    0.0000 N   0  0  0  0  0  0  0  0  0  0  0  0
  1  2  1  0
  2  3  3  0
  3  4  1  0
  4  5  2  0
  4  6  1  0
  6  7  1  0
  7  8  2  0
  8  9  1  0
  9 10  2  0
 10 11  1  0
 11  7  1  0
M  END
>  <Title>  (711) 
idAAZKgen8

$$$$

     RDKit          2D

 92 94  0  0  0  0  0  0  0  0999 V2000
   -2.4138    0.0794    0.0000 C   0  0  0  0  0  0  0  0  0  0  0  0
   -2.2458   -1.4111    0.0000 C   0  0  0  0  0  0  0  0  0  0  0  0
   -3.7291   -1.6347    0.0000 C   0  0  0  0  0  0  0  0  0  0  0  0
   -5.1914   -1.9685    0.0000 C   0  0  0  0  0  0  0  0  0  0  0  0
   -6.6248   -2.4106    0.0000 C   0  0  0  0  0  0  0  0  0  0  0  0
   -8.0211   -2.9586    0.0000 C   0  0  0  0  0  0  0  0  0  0  0  0
   -9.3726   -3.6094    0.0000 C   0  0  0  0  0  0  0  0  0  0  0  0
  -10.6716   -4.3594    0.0000 C   0  0  0  0  0  0  0  0  0  0  0  0
  -11.9110   -5.2044    0.0000 C   0  0  0  0  0  0  0  0  0  0  0  0
  -13.0837   -6.1397    0.0000 C   0  0  0  0  0  0  0  0  0  0  0  0
  -14.1833   -7.1599    0.0000 C   0  0  0  0  0  0  0  0  0  0  0  0
  -15.2035   -8.2595    0.0000 C   0  0  0  0  0  0  0  0  0  0  0  0
  -16.1388   -9.4322    0.0000 C   0  0  0  0  0  0  0  0  0  0  0  0
  -16.9838  -10.6716    0.0000 C   0  0  0  0  0  0  0  0  0  0  0  0
  -17.7338  -11.9706    0.0000 C   0  0  0  0  0  0  0  0  0  0  0  0
  -18.3846  -13.3221    0.0000 C   0  0  0  0  0  0  0  0  0  0  0  0
  -18.9326  -14.7184    0.0000 C   0  0  0  0  0  0  0  0  0  0  0  0
  -19.3747  -16.1518    0.0000 C   0  0  0  0  0  0  0  0  0  0  0  0
  -19.7085  -17.6142    0.0000 C   0  0  0  0  0  0  0  0  0  0  0  0
  -19.9321  -19.0974    0.0000 C   0  0  0  0  0  0  0  0  0  0  0  0
  -20.0442  -20.5932    0.0000 C   0  0  0  0  0  0  0  0  0  0  0  0
  -20.0442  -22.0932    0.0000 C   0  0  0  0  0  0  0  0  0  0  0  0
  -19.9321  -23.5890    0.0000 C   0  0  0  0  0  0  0  0  0  0  0  0
  -19.7085  -25.0723    0.0000 C   0  0  0  0  0  0  0  0  0  0  0  0
  -19.3747  -26.5347    0.0000 C   0  0  0  0  0  0  0  0  0  0  0  0
  -18.9326  -27.9680    0.0000 C   0  0  0  0  0  0  0  0  0  0  0  0
  -18.3846  -29.3643    0.0000 C   0  0  0  0  0  0  0  0  0  0  0  0
  -17.7338  -30.7158    0.0000 C   0  0  0  0  0  0  0  0  0  0  0  0
  -16.9838  -32.0148    0.0000 C   0  0  0  0  0  0  0  0  0  0  0  0
  -16.1388  -33.2542    0.0000 C   0  0  0  0  0  0  0  0  0  0  0  0
  -15.2035  -34.4269    0.0000 C   0  0  0  0  0  0  0  0  0  0  0  0
  -14.1833  -35.5265    0.0000 C   0  0  0  0  0  0  0  0  0  0  0  0
  -13.0837  -36.5468    0.0000 C   0  0  0  0  0  0  0  0  0  0  0  0
  -11.9110  -37.4820    0.0000 C   0  0  0  0  0  0  0  0  0  0  0  0
  -10.6716  -38.3270    0.0000 C   0  0  0  0  0  0  0  0  0  0  0  0
   -9.3726  -39.0770    0.0000 C   0  0  0  0  0  0  0  0  0  0  0  0
   -8.0211  -39.7278    0.0000 C   0  0  0  0  0  0  0  0  0  0  0  0
   -6.6248  -40.2758    0.0000 C   0  0  0  0  0  0  0  0  0  0  0  0
   -5.1914  -40.7179    0.0000 C   0  0  0  0  0  0  0  0  0  0  0  0
   -3.7291  -41.0517    0.0000 C   0  0  0  0  0  0  0  0  0  0  0  0
   -2.2458  -41.2753    0.0000 C   0  0  0  0  0  0  0  0  0  0  0  0
   -0.7500  -41.3874    0.0000 C   0  0  0  0  0  0  0  0  0  0  0  0
    0.7500  -41.3874    0.0000 C   0  0  0  0  0  0  0  0  0  0  0  0
    2.2458  -41.2753    0.0000 C   0  0  0  0  0  0  0  0  0  0  0  0
    3.7291  -41.0517    0.0000 C   0  0  0  0  0  0  0  0  0  0  0  0
    5.1914  -40.7179    0.0000 C   0  0  0  0  0  0  0  0  0  0  0  0
    6.6248  -40.2758    0.0000 C   0  0  0  0  0  0  0  0  0  0  0  0
    8.0211  -39.7278    0.0000 C   0  0  0  0  0  0  0  0  0  0  0  0
    9.3726  -39.0770    0.0000 C   0  0  0  0  0  0  0  0  0  0  0  0
   10.6716  -38.3270    0.0000 C   0  0  0  0  0  0  0  0  0  0  0  0
   11.9110  -37.4820    0.0000 C   0  0  0  0  0  0  0  0  0  0  0  0
   13.0837  -36.5468    0.0000 C   0  0  0  0  0  0  0  0  0  0  0  0
   14.1833  -35.5265    0.0000 C   0  0  0  0  0  0  0  0  0  0  0  0
   15.2035  -34.4269    0.0000 C   0  0  0  0  0  0  0  0  0  0  0  0
   16.1388  -33.2542    0.0000 C   0  0  0  0  0  0  0  0  0  0  0  0
   16.9838  -32.0148    0.0000 C   0  0  0  0  0  0  0  0  0  0  0  0
   17.7338  -30.7158    0.0000 C   0  0  0  0  0  0  0  0  0  0  0  0
   18.3846  -29.3643    0.0000 C   0  0  0  0  0  0  0  0  0  0  0  0
   18.9326  -27.9680    0.0000 C   0  0  0  0  0  0  0  0  0  0  0  0
   19.3747  -26.5347    0.0000 C   0  0  0  0  0  0  0  0  0  0  0  0
   19.7085  -25.0723    0.0000 C   0  0  0  0  0  0  0  0  0  0  0  0
   19.9321  -23.5890    0.0000 C   0  0  0  0  0  0  0  0  0  0  0  0
   20.0442  -22.0932    0.0000 C   0  0  0  0  0  0  0  0  0  0  0  0
   20.0442  -20.5932    0.0000 C   0  0  0  0  0  0  0  0  0  0  0  0
   19.9321  -19.0974    0.0000 C   0  0  0  0  0  0  0  0  0  0  0  0
   19.7085  -17.6142    0.0000 C   0  0  0  0  0  0  0  0  0  0  0  0
   19.3747  -16.1518    0.0000 C   0  0  0  0  0  0  0  0  0  0  0  0
   18.9326  -14.7184    0.0000 C   0  0  0  0  0  0  0  0  0  0  0  0
   18.3846  -13.3221    0.0000 C   0  0  0  0  0  0  0  0  0  0  0  0
   17.7338  -11.9706    0.0000 C   0  0  0  0  0  0  0  0  0  0  0  0
   16.9838  -10.6716    0.0000 C   0  0  0  0  0  0  0  0  0  0  0  0
   16.1388   -9.4322    0.0000 C   0  0  0  0  0  0  0  0  0  0  0  0
   15.2035   -8.2595    0.0000 C   0  0  0  0  0  0  0  0  0  0  0  0
   14.1833   -7.1599    0.0000 C   0  0  0  0  0  0  0  0  0  0  0  0
   13.0837   -6.1397    0.0000 C   0  0  0  0  0  0  0  0  0  0  0  0
   11.9110   -5.2044    0.0000 C   0  0  0  0  0  0  0  0  0  0  0  0
   10.6716   -4.3594    0.0000 C   0  0  0  0  0  0  0  0  0  0  0  0
    9.3726   -3.6094    0.0000 C   0  0  0  0  0  0  0  0  0  0  0  0
    8.0211   -2.9586    0.0000 C   0  0  0  0  0  0  0  0  0  0  0  0
    6.6248   -2.4106    0.0000 C   0  0  0  0  0  0  0  0  0  0  0  0
    5.1914   -1.9685    0.0000 C   0  0  0  0  0  0  0  0  0  0  0  0
    3.7291   -1.6347    0.0000 C   0  0  0  0  0  0  0  0  0  0  0  0
    3.9748   -3.1144    0.0000 C   0  0  0  0  0  0  0  0  0  0  0  0
    2.6434   -3.8054    0.0000 C   0  0  0  0  0  0  0  0  0  0  0  0
    1.5748   -2.7527    0.0000 C   0  0  0  0  0  0  0  0  0  0  0  0
    2.2458   -1.4111    0.0000 C   0  0  0  0  0  0  0  0  0  0  0  0
    0.7500   -1.2990    0.0000 C   0  0  0  0  0  0  0  0  0  0  0  0
    1.5000    0.0000    0.0000 C   0  0  0  0  0  0  0  0  0  0  0  0
    0.7500    1.2990    0.0000 C   0  0  0  0  0  0  0  0  0  0  0  0
   -0.7500    1.2990    0.0000 C   0  0  0  0  0  0  0  0  0  0  0  0
   -1.5000    0.0000    0.0000 C   0  0  0  0  0  0  0  0  0  0  0  0
   -0.7500   -1.2990    0.0000 C   0  0  0  0  0  0  0  0  0  0  0  0
  1  2  1  0
  2  3  1  0
  3  4  1  0
  4  5  1  0
  5  6  1  0
  6  7  1  0
  7  8  1  0
  8  9  1  0
  9 10  1  0
 10 11  1  0
 11 12  1  0
 12 13  1  0
 13 14  1  0
 14 15  1  0
 15 16  1  0
 16 17  1  0
 17 18  1  0
 18 19  1  0
 19 20  1  0
 20 21  1  0
 21 22  1  0
 22 23  1  0
 23 24  1  0
 24 25  1  0
 25 26  1  0
 26 27  1  0
 27 28  1  0
 28 29  1  0
 29 30  1  0
 30 31  1  0
 31 32  1  0
 32 33  1  0
 33 34  1  0
 34 35  1  0
 35 36  1  0
 36 37  1  0
 37 38  1  0
 38 39  1  0
 39 40  1  0
 40 41  1  0
 41 42  1  0
 42 43  1  0
 43 44  1  0
 44 45  1  0
 45 46  1  0
 46 47  1  0
 47 48  1  0
 48 49  1  0
 49 50  1  0
 50 51  1  0
 51 52  1  0
 52 53  1  0
 53 54  1  0
 54 55  1  0
 55 56  1  0
 56 57  1  0
 57 58  1  0
 58 59  1  0
 59 60  2  0
 60 61  1  0
 61 62  2  0
 62 63  1  0
 63 64  2  0
 64 65  1  0
 65 66  2  0
 66 67  1  0
 67 68  2  0
 68 69  1  0
 69 70  2  0
 70 71  1  0
 71 72  2  0
 72 73  1  0
 73 74  2  0
 74 75  1  0
 75 76  2  0
 76 77  1  0
 77 78  2  0
 78 79  1  0
 79 80  2  0
 80 81  1  0
 81 82  2  0
 82 83  1  0
 83 84  2  0
 84 85  1  0
 85 86  2  0
 86 87  1  0
 87 88  2  0
 88 89  1  0
 89 90  2  0
 90 91  1  0
 91 92  2  0
 92  2  1  0
 86 82  1  0
 92 87  1  0
M  END
>  <Title>  (712) 
idAAZLgen8

$$$$

     RDKit          2D

  9  9  0  0  0  0  0  0  0  0999 V2000
    4.2760   -0.0000    0.0000 N   0  0  0  0  0  0  0  0  0  0  0  0
    2.7760    0.0000    0.0000 C   0  0  0  0  0  0  0  0  0  0  0  0
    1.2760    0.0000    0.0000 C   0  0  0  0  0  0  0  0  0  0  0  0
    0.3943    1.2135    0.0000 C   0  0  0  0  0  0  0  0  0  0  0  0
   -1.0323    0.7500    0.0000 C   0  0  0  0  0  0  0  0  0  0  0  0
   -1.0323   -0.7500    0.0000 C   0  0  0  0  0  0  0  0  0  0  0  0
   -2.2458   -1.6317    0.0000 C   0  0  0  0  0  0  0  0  0  0  0  0
   -3.4593   -2.5134    0.0000 N   0  0  0  0  0  0  0  0  0  0  0  0
    0.3943   -1.2135    0.0000 C   0  0  0  0  0  0  0  0  0  0  0  0
  1  2  3  0
  2  3  1  0
  3  4  2  0
  4  5  1  0
  5  6  1  0
  6  7  1  0
  7  8  3  0
  6  9  1  0
  9  3  1  0
M  END
>  <Title>  (713) 
idAAZMgen8

$$$$

     RDKit          2D

  8  8  0  0  0  0  0  0  0  0999 V2000
    4.5000    0.0000    0.0000 C   0  0  0  0  0  0  0  0  0  0  0  0
    3.0000    0.0000    0.0000 C   0  0  0  0  0  0  0  0  0  0  0  0
    1.5000    0.0000    0.0000 C   0  0  0  0  0  0  0  0  0  0  0  0
    0.7500   -1.2990    0.0000 C   0  0  0  0  0  0  0  0  0  0  0  0
   -0.7500   -1.2990    0.0000 C   0  0  0  0  0  0  0  0  0  0  0  0
   -1.5000    0.0000    0.0000 C   0  0  0  0  0  0  0  0  0  0  0  0
   -0.7500    1.2990    0.0000 C   0  0  0  0  0  0  0  0  0  0  0  0
    0.7500    1.2990    0.0000 C   0  0  0  0  0  0  0  0  0  0  0  0
  1  2  3  0
  2  3  1  0
  3  4  1  0
  4  5  1  0
  5  6  1  0
  6  7  1  0
  7  8  1  0
  8  3  1  0
M  END
>  <Title>  (714) 
idAAZNgen8

$$$$

     RDKit          2D

 57 65  0  0  0  0  0  0  0  0999 V2000
    5.8713   -7.2804    0.0000 C   0  0  0  0  0  0  0  0  0  0  0  0
    4.4172   -6.9121    0.0000 C   0  0  0  0  0  0  0  0  0  0  0  0
    4.5411   -5.4173    0.0000 C   0  0  0  0  0  0  0  0  0  0  0  0
    4.1729   -3.9632    0.0000 C   0  0  0  0  0  0  0  0  0  0  0  0
    3.3524   -2.7074    0.0000 C   0  0  0  0  0  0  0  0  0  0  0  0
    2.1687   -1.7861    0.0000 C   0  0  0  0  0  0  0  0  0  0  0  0
    2.8826   -0.4669    0.0000 C   0  0  0  0  0  0  0  0  0  0  0  0
    2.0971    0.8110    0.0000 O   0  0  0  0  0  0  0  0  0  0  0  0
    4.3821   -0.4255    0.0000 N   0  0  0  0  0  0  0  0  0  0  0  0
    5.0960    0.8937    0.0000 C   0  0  0  0  0  0  0  0  0  0  0  0
    6.5954    0.9350    0.0000 N   0  0  0  0  0  0  0  0  0  0  0  0
    7.3094    2.2542    0.0000 N   0  0  0  0  0  0  0  0  0  0  0  0
    6.5238    3.5321    0.0000 N   0  0  0  0  0  0  0  0  0  0  0  0
    5.0244    3.4908    0.0000 N   0  0  0  0  0  0  0  0  0  0  0  0
    4.3105    2.1715    0.0000 N   0  0  0  0  0  0  0  0  0  0  0  0
    0.7500   -1.2990    0.0000 C   0  0  0  0  0  0  0  0  0  0  0  0
    1.5000    0.0000    0.0000 C   0  0  0  0  0  0  0  0  0  0  0  0
    0.7500    1.2990    0.0000 C   0  0  0  0  0  0  0  0  0  0  0  0
   -0.7500    1.2990    0.0000 C   0  0  0  0  0  0  0  0  0  0  0  0
   -1.5000    0.0000    0.0000 C   0  0  0  0  0  0  0  0  0  0  0  0
   -0.7500   -1.2990    0.0000 C   0  0  0  0  0  0  0  0  0  0  0  0
   -2.1687   -1.7861    0.0000 C   0  0  0  0  0  0  0  0  0  0  0  0
   -2.3748   -0.3003    0.0000 C   0  0  0  0  0  0  0  0  0  0  0  0
   -3.7645    0.2642    0.0000 C   0  0  0  0  0  0  0  0  0  0  0  0
   -4.9482   -0.6572    0.0000 C   0  0  0  0  0  0  0  0  0  0  0  0
   -4.7422   -2.1429    0.0000 C   0  0  0  0  0  0  0  0  0  0  0  0
   -3.3524   -2.7074    0.0000 C   0  0  0  0  0  0  0  0  0  0  0  0
   -4.1729   -3.9632    0.0000 C   0  0  0  0  0  0  0  0  0  0  0  0
   -5.2480   -2.9172    0.0000 C   0  0  0  0  0  0  0  0  0  0  0  0
   -6.6914   -3.3254    0.0000 C   0  0  0  0  0  0  0  0  0  0  0  0
   -7.0597   -4.7795    0.0000 C   0  0  0  0  0  0  0  0  0  0  0  0
   -5.9845   -5.8254    0.0000 C   0  0  0  0  0  0  0  0  0  0  0  0
   -4.5411   -5.4173    0.0000 C   0  0  0  0  0  0  0  0  0  0  0  0
   -4.4172   -6.9121    0.0000 C   0  0  0  0  0  0  0  0  0  0  0  0
   -5.9081   -6.7471    0.0000 C   0  0  0  0  0  0  0  0  0  0  0  0
   -6.7965   -7.9558    0.0000 C   0  0  0  0  0  0  0  0  0  0  0  0
   -6.1939   -9.3294    0.0000 C   0  0  0  0  0  0  0  0  0  0  0  0
   -4.7030   -9.4944    0.0000 C   0  0  0  0  0  0  0  0  0  0  0  0
   -3.8147   -8.2858    0.0000 C   0  0  0  0  0  0  0  0  0  0  0  0
   -2.7988   -9.3894    0.0000 C   0  0  0  0  0  0  0  0  0  0  0  0
   -4.0766  -10.1749    0.0000 C   0  0  0  0  0  0  0  0  0  0  0  0
   -4.0353  -11.6743    0.0000 C   0  0  0  0  0  0  0  0  0  0  0  0
   -2.7161  -12.3882    0.0000 C   0  0  0  0  0  0  0  0  0  0  0  0
   -1.4382  -11.6027    0.0000 C   0  0  0  0  0  0  0  0  0  0  0  0
   -1.4795  -10.1033    0.0000 C   0  0  0  0  0  0  0  0  0  0  0  0
   -0.0000  -10.3502    0.0000 C   0  0  0  0  0  0  0  0  0  0  0  0
   -0.5260  -11.7550    0.0000 C   0  0  0  0  0  0  0  0  0  0  0  0
    0.4276  -12.9128    0.0000 C   0  0  0  0  0  0  0  0  0  0  0  0
    1.9072  -12.6659    0.0000 C   0  0  0  0  0  0  0  0  0  0  0  0
    2.4331  -11.2612    0.0000 C   0  0  0  0  0  0  0  0  0  0  0  0
    1.4795  -10.1033    0.0000 C   0  0  0  0  0  0  0  0  0  0  0  0
    2.7988   -9.3894    0.0000 C   0  0  0  0  0  0  0  0  0  0  0  0
    3.2465  -10.8210    0.0000 C   0  0  0  0  0  0  0  0  0  0  0  0
    4.7102  -11.1490    0.0000 C   0  0  0  0  0  0  0  0  0  0  0  0
    5.7261  -10.0454    0.0000 C   0  0  0  0  0  0  0  0  0  0  0  0
    5.2784   -8.6138    0.0000 C   0  0  0  0  0  0  0  0  0  0  0  0
    3.8147   -8.2858    0.0000 C   0  0  0  0  0  0  0  0  0  0  0  0
  1  2  1  0
  2  3  1  0
  3  4  1  0
  4  5  1  0
  5  6  1  0
  6  7  1  0
  7  8  2  0
  7  9  1  0
  9 10  1  0
 10 11  2  0
 11 12  1  0
 12 13  2  0
 13 14  1  0
 14 15  2  0
  6 16  1  0
 16 17  2  0
 17 18  1  0
 18 19  2  0
 19 20  1  0
 20 21  2  0
 21 22  1  0
 22 23  2  0
 23 24  1  0
 24 25  2  0
 25 26  1  0
 26 27  2  0
 27 28  1  0
 28 29  2  0
 29 30  1  0
 30 31  2  0
 31 32  1  0
 32 33  2  0
 33 34  1  0
 34 35  2  0
 35 36  1  0
 36 37  2  0
 37 38  1  0
 38 39  2  0
 39 40  1  0
 40 41  2  0
 41 42  1  0
 42 43  2  0
 43 44  1  0
 44 45  2  0
 45 46  1  0
 46 47  2  0
 47 48  1  0
 48 49  2  0
 49 50  1  0
 50 51  2  0
 51 52  1  0
 52 53  2  0
 53 54  1  0
 54 55  2  0
 55 56  1  0
 56 57  2  0
 57  2  1  0
 15 10  1  0
 21 16  1  0
 27 22  1  0
 33 28  1  0
 39 34  1  0
 45 40  1  0
 51 46  1  0
 57 52  1  0
M  END
>  <Title>  (715) 
idAAZOgen8

$$$$

     RDKit          2D

109109  0  0  0  0  0  0  0  0999 V2000
   27.0480   -0.0000    0.0000 C   0  0  0  0  0  0  0  0  0  0  0  0
   25.5480    0.0000    0.0000 C   0  0  0  0  0  0  0  0  0  0  0  0
   25.5040    1.4994    0.0000 C   0  0  0  0  0  0  0  0  0  0  0  0
   25.3721    2.9935    0.0000 C   0  0  0  0  0  0  0  0  0  0  0  0
   25.1526    4.4774    0.0000 C   0  0  0  0  0  0  0  0  0  0  0  0
   24.8465    5.9458    0.0000 C   0  0  0  0  0  0  0  0  0  0  0  0
   24.4547    7.3938    0.0000 C   0  0  0  0  0  0  0  0  0  0  0  0
   23.9787    8.8162    0.0000 C   0  0  0  0  0  0  0  0  0  0  0  0
   23.4199   10.2083    0.0000 C   0  0  0  0  0  0  0  0  0  0  0  0
   22.7805   11.5651    0.0000 C   0  0  0  0  0  0  0  0  0  0  0  0
   22.0625   12.8821    0.0000 C   0  0  0  0  0  0  0  0  0  0  0  0
   21.2684   14.1547    0.0000 C   0  0  0  0  0  0  0  0  0  0  0  0
   20.4011   15.3785    0.0000 C   0  0  0  0  0  0  0  0  0  0  0  0
   19.4634   16.5493    0.0000 C   0  0  0  0  0  0  0  0  0  0  0  0
   18.4586   17.6630    0.0000 C   0  0  0  0  0  0  0  0  0  0  0  0
   17.3902   18.7159    0.0000 C   0  0  0  0  0  0  0  0  0  0  0  0
   16.2618   19.7042    0.0000 C   0  0  0  0  0  0  0  0  0  0  0  0
   15.0774   20.6246    0.0000 C   0  0  0  0  0  0  0  0  0  0  0  0
   13.8410   21.4739    0.0000 C   0  0  0  0  0  0  0  0  0  0  0  0
   12.5569   22.2492    0.0000 C   0  0  0  0  0  0  0  0  0  0  0  0
   11.2295   22.9478    0.0000 C   0  0  0  0  0  0  0  0  0  0  0  0
    9.8634   23.5673    0.0000 C   0  0  0  0  0  0  0  0  0  0  0  0
    8.4633   24.1055    0.0000 C   0  0  0  0  0  0  0  0  0  0  0  0
    7.0340   24.5606    0.0000 C   0  0  0  0  0  0  0  0  0  0  0  0
    5.5805   24.9311    0.0000 C   0  0  0  0  0  0  0  0  0  0  0  0
    4.1077   25.2157    0.0000 C   0  0  0  0  0  0  0  0  0  0  0  0
    2.6208   25.4133    0.0000 C   0  0  0  0  0  0  0  0  0  0  0  0
    1.1248   25.5233    0.0000 C   0  0  0  0  0  0  0  0  0  0  0  0
   -0.3750   25.5453    0.0000 C   0  0  0  0  0  0  0  0  0  0  0  0
   -1.8736   25.4792    0.0000 C   0  0  0  0  0  0  0  0  0  0  0  0
   -3.3657   25.3254    0.0000 C   0  0  0  0  0  0  0  0  0  0  0  0
   -4.8462   25.0842    0.0000 C   0  0  0  0  0  0  0  0  0  0  0  0
   -6.3099   24.7566    0.0000 C   0  0  0  0  0  0  0  0  0  0  0  0
   -7.7520   24.3436    0.0000 C   0  0  0  0  0  0  0  0  0  0  0  0
   -9.1673   23.8467    0.0000 C   0  0  0  0  0  0  0  0  0  0  0  0
  -10.5510   23.2676    0.0000 C   0  0  0  0  0  0  0  0  0  0  0  0
  -11.8983   22.6082    0.0000 C   0  0  0  0  0  0  0  0  0  0  0  0
  -13.2046   21.8710    0.0000 C   0  0  0  0  0  0  0  0  0  0  0  0
  -14.4654   21.0583    0.0000 C   0  0  0  0  0  0  0  0  0  0  0  0
  -15.6763   20.1731    0.0000 C   0  0  0  0  0  0  0  0  0  0  0  0
  -16.8332   19.2183    0.0000 C   0  0  0  0  0  0  0  0  0  0  0  0
  -17.9321   18.1973    0.0000 C   0  0  0  0  0  0  0  0  0  0  0  0
  -18.9692   17.1135    0.0000 C   0  0  0  0  0  0  0  0  0  0  0  0
  -19.9408   15.9708    0.0000 C   0  0  0  0  0  0  0  0  0  0  0  0
  -20.8437   14.7730    0.0000 C   0  0  0  0  0  0  0  0  0  0  0  0
  -21.6748   13.5243    0.0000 C   0  0  0  0  0  0  0  0  0  0  0  0
  -22.4311   12.2289    0.0000 C   0  0  0  0  0  0  0  0  0  0  0  0
  -23.1102   10.8914    0.0000 C   0  0  0  0  0  0  0  0  0  0  0  0
  -23.7095    9.5163    0.0000 C   0  0  0  0  0  0  0  0  0  0  0  0
  -24.2271    8.1085    0.0000 C   0  0  0  0  0  0  0  0  0  0  0  0
  -24.6613    6.6727    0.0000 C   0  0  0  0  0  0  0  0  0  0  0  0
  -25.0104    5.2139    0.0000 C   0  0  0  0  0  0  0  0  0  0  0  0
  -25.2732    3.7371    0.0000 C   0  0  0  0  0  0  0  0  0  0  0  0
  -25.4490    2.2474    0.0000 C   0  0  0  0  0  0  0  0  0  0  0  0
  -25.5370    0.7500    0.0000 C   0  0  0  0  0  0  0  0  0  0  0  0
  -25.5370   -0.7500    0.0000 C   0  0  0  0  0  0  0  0  0  0  0  0
  -25.4490   -2.2474    0.0000 C   0  0  0  0  0  0  0  0  0  0  0  0
  -25.2732   -3.7371    0.0000 C   0  0  0  0  0  0  0  0  0  0  0  0
  -25.0104   -5.2139    0.0000 C   0  0  0  0  0  0  0  0  0  0  0  0
  -24.6613   -6.6727    0.0000 C   0  0  0  0  0  0  0  0  0  0  0  0
  -24.2271   -8.1085    0.0000 C   0  0  0  0  0  0  0  0  0  0  0  0
  -23.7095   -9.5163    0.0000 C   0  0  0  0  0  0  0  0  0  0  0  0
  -23.1102  -10.8914    0.0000 C   0  0  0  0  0  0  0  0  0  0  0  0
  -22.4311  -12.2289    0.0000 C   0  0  0  0  0  0  0  0  0  0  0  0
  -21.6748  -13.5243    0.0000 C   0  0  0  0  0  0  0  0  0  0  0  0
  -20.8437  -14.7730    0.0000 C   0  0  0  0  0  0  0  0  0  0  0  0
  -19.9408  -15.9708    0.0000 C   0  0  0  0  0  0  0  0  0  0  0  0
  -18.9692  -17.1135    0.0000 C   0  0  0  0  0  0  0  0  0  0  0  0
  -17.9321  -18.1973    0.0000 C   0  0  0  0  0  0  0  0  0  0  0  0
  -16.8332  -19.2183    0.0000 C   0  0  0  0  0  0  0  0  0  0  0  0
  -15.6763  -20.1731    0.0000 C   0  0  0  0  0  0  0  0  0  0  0  0
  -14.4654  -21.0583    0.0000 C   0  0  0  0  0  0  0  0  0  0  0  0
  -13.2046  -21.8710    0.0000 C   0  0  0  0  0  0  0  0  0  0  0  0
  -11.8983  -22.6082    0.0000 C   0  0  0  0  0  0  0  0  0  0  0  0
  -10.5510  -23.2676    0.0000 C   0  0  0  0  0  0  0  0  0  0  0  0
   -9.1673  -23.8467    0.0000 C   0  0  0  0  0  0  0  0  0  0  0  0
   -7.7520  -24.3436    0.0000 C   0  0  0  0  0  0  0  0  0  0  0  0
   -6.3099  -24.7566    0.0000 C   0  0  0  0  0  0  0  0  0  0  0  0
   -4.8462  -25.0842    0.0000 C   0  0  0  0  0  0  0  0  0  0  0  0
   -3.3657  -25.3254    0.0000 C   0  0  0  0  0  0  0  0  0  0  0  0
   -1.8736  -25.4792    0.0000 C   0  0  0  0  0  0  0  0  0  0  0  0
   -0.3750  -25.5453    0.0000 C   0  0  0  0  0  0  0  0  0  0  0  0
    1.1248  -25.5233    0.0000 C   0  0  0  0  0  0  0  0  0  0  0  0
    2.6208  -25.4133    0.0000 C   0  0  0  0  0  0  0  0  0  0  0  0
    4.1077  -25.2157    0.0000 C   0  0  0  0  0  0  0  0  0  0  0  0
    5.5805  -24.9311    0.0000 C   0  0  0  0  0  0  0  0  0  0  0  0
    7.0340  -24.5606    0.0000 C   0  0  0  0  0  0  0  0  0  0  0  0
    8.4633  -24.1055    0.0000 C   0  0  0  0  0  0  0  0  0  0  0  0
    9.8634  -23.5673    0.0000 C   0  0  0  0  0  0  0  0  0  0  0  0
   11.2295  -22.9478    0.0000 C   0  0  0  0  0  0  0  0  0  0  0  0
   12.5569  -22.2492    0.0000 C   0  0  0  0  0  0  0  0  0  0  0  0
   13.8410  -21.4739    0.0000 C   0  0  0  0  0  0  0  0  0  0  0  0
   15.0774  -20.6246    0.0000 C   0  0  0  0  0  0  0  0  0  0  0  0
   16.2618  -19.7042    0.0000 C   0  0  0  0  0  0  0  0  0  0  0  0
   17.3902  -18.7159    0.0000 C   0  0  0  0  0  0  0  0  0  0  0  0
   18.4586  -17.6630    0.0000 C   0  0  0  0  0  0  0  0  0  0  0  0
   19.4634  -16.5493    0.0000 C   0  0  0  0  0  0  0  0  0  0  0  0
   20.4011  -15.3785    0.0000 C   0  0  0  0  0  0  0  0  0  0  0  0
   21.2684  -14.1547    0.0000 C   0  0  0  0  0  0  0  0  0  0  0  0
   22.0625  -12.8821    0.0000 C   0  0  0  0  0  0  0  0  0  0  0  0
   22.7805  -11.5651    0.0000 C   0  0  0  0  0  0  0  0  0  0  0  0
   23.4199  -10.2083    0.0000 C   0  0  0  0  0  0  0  0  0  0  0  0
   23.9787   -8.8162    0.0000 C   0  0  0  0  0  0  0  0  0  0  0  0
   24.4547   -7.3938    0.0000 C   0  0  0  0  0  0  0  0  0  0  0  0
   24.8465   -5.9458    0.0000 C   0  0  0  0  0  0  0  0  0  0  0  0
   25.1526   -4.4774    0.0000 C   0  0  0  0  0  0  0  0  0  0  0  0
   25.3721   -2.9935    0.0000 C   0  0  0  0  0  0  0  0  0  0  0  0
   25.5040   -1.4994    0.0000 C   0  0  0  0  0  0  0  0  0  0  0  0
   27.0014   -1.5874    0.0000 O   0  0  0  0  0  0  0  0  0  0  0  0
  1  2  1  0
  2  3  1  0
  3  4  1  0
  4  5  1  0
  5  6  1  0
  6  7  1  0
  7  8  1  0
  8  9  1  0
  9 10  1  0
 10 11  1  0
 11 12  1  0
 12 13  1  0
 13 14  1  0
 14 15  1  0
 15 16  1  0
 16 17  1  0
 17 18  1  0
 18 19  1  0
 19 20  1  0
 20 21  1  0
 21 22  1  0
 22 23  1  0
 23 24  1  0
 24 25  1  0
 25 26  1  0
 26 27  1  0
 27 28  1  0
 28 29  1  0
 29 30  1  0
 30 31  1  0
 31 32  1  0
 32 33  1  0
 33 34  1  0
 34 35  1  0
 35 36  1  0
 36 37  1  0
 37 38  1  0
 38 39  1  0
 39 40  1  0
 40 41  1  0
 41 42  1  0
 42 43  1  0
 43 44  1  0
 44 45  1  0
 45 46  1  0
 46 47  1  0
 47 48  1  0
 48 49  1  0
 49 50  1  0
 50 51  1  0
 51 52  1  0
 52 53  1  0
 53 54  1  0
 54 55  1  0
 55 56  1  0
 56 57  1  0
 57 58  1  0
 58 59  1  0
 59 60  1  0
 60 61  1  0
 61 62  1  0
 62 63  1  0
 63 64  1  0
 64 65  1  0
 65 66  1  0
 66 67  1  0
 67 68  1  0
 68 69  1  0
 69 70  1  0
 70 71  1  0
 71 72  1  0
 72 73  1  0
 73 74  1  0
 74 75  1  0
 75 76  1  0
 76 77  1  0
 77 78  1  0
 78 79  1  0
 79 80  1  0
 80 81  1  0
 81 82  1  0
 82 83  1  0
 83 84  1  0
 84 85  1  0
 85 86  1  0
 86 87  1  0
 87 88  1  0
 88 89  1  0
 89 90  1  0
 90 91  1  0
 91 92  1  0
 92 93  1  0
 93 94  1  0
 94 95  1  0
 95 96  1  0
 96 97  1  0
 97 98  1  0
 98 99  1  0
 99100  1  0
100101  1  0
101102  1  0
102103  1  0
103104  2  0
104105  1  0
105106  2  0
106107  1  0
107108  2  0
108109  1  0
108  2  1  0
M  END
>  <Title>  (716) 
idAAZPgen8

$$$$

     RDKit          2D

 14 14  0  0  0  0  0  0  0  0999 V2000
    7.2760    2.5981    0.0000 C   0  0  0  0  0  0  0  0  0  0  0  0
    6.5260    1.2990    0.0000 C   0  0  0  0  0  0  0  0  0  0  0  0
    5.7760    0.0000    0.0000 C   0  0  0  0  0  0  0  0  0  0  0  0
    5.0260   -1.2990    0.0000 C   0  0  0  0  0  0  0  0  0  0  0  0
    5.7760   -2.5981    0.0000 C   0  0  0  0  0  0  0  0  0  0  0  0
    7.2760   -2.5981    0.0000 C   0  0  0  0  0  0  0  0  0  0  0  0
    3.5260   -1.2990    0.0000 C   0  0  0  0  0  0  0  0  0  0  0  0
    2.7760   -2.5981    0.0000 O   0  0  0  0  0  0  0  0  0  0  0  0
    2.7760    0.0000    0.0000 N   0  0  0  0  0  0  0  0  0  0  0  0
    1.2760    0.0000    0.0000 C   0  0  0  0  0  0  0  0  0  0  0  0
    0.3943    1.2135    0.0000 C   0  0  0  0  0  0  0  0  0  0  0  0
   -1.0323    0.7500    0.0000 C   0  0  0  0  0  0  0  0  0  0  0  0
   -1.0323   -0.7500    0.0000 C   0  0  0  0  0  0  0  0  0  0  0  0
    0.3943   -1.2135    0.0000 C   0  0  0  0  0  0  0  0  0  0  0  0
  1  2  1  0
  2  3  3  0
  3  4  1  0
  4  5  1  0
  5  6  1  0
  4  7  1  0
  7  8  2  0
  7  9  1  0
  9 10  1  0
 10 11  2  0
 11 12  1  0
 12 13  2  0
 13 14  1  0
 14 10  1  0
M  END
>  <Title>  (717) 
idAAZQgen8

$$$$

     RDKit          2D

 46 52  0  0  0  0  0  0  0  0999 V2000
    4.3881   -6.6982    0.0000 C   0  0  0  0  0  0  0  0  0  0  0  0
    3.0367   -6.0474    0.0000 C   0  0  0  0  0  0  0  0  0  0  0  0
    3.3705   -4.5850    0.0000 C   0  0  0  0  0  0  0  0  0  0  0  0
    3.0367   -3.1226    0.0000 C   0  0  0  0  0  0  0  0  0  0  0  0
    2.1015   -1.9499    0.0000 C   0  0  0  0  0  0  0  0  0  0  0  0
    3.0367   -0.7771    0.0000 C   0  0  0  0  0  0  0  0  0  0  0  0
    2.4887    0.6192    0.0000 O   0  0  0  0  0  0  0  0  0  0  0  0
    4.5199   -1.0007    0.0000 N   0  0  0  0  0  0  0  0  0  0  0  0
    5.4552    0.1721    0.0000 C   0  0  0  0  0  0  0  0  0  0  0  0
    6.9384   -0.0515    0.0000 N   0  0  0  0  0  0  0  0  0  0  0  0
    7.8736    1.1213    0.0000 N   0  0  0  0  0  0  0  0  0  0  0  0
    7.3256    2.5176    0.0000 N   0  0  0  0  0  0  0  0  0  0  0  0
    5.8424    2.7411    0.0000 N   0  0  0  0  0  0  0  0  0  0  0  0
    4.9072    1.5684    0.0000 N   0  0  0  0  0  0  0  0  0  0  0  0
    0.7500   -1.2990    0.0000 C   0  0  0  0  0  0  0  0  0  0  0  0
    1.5000    0.0000    0.0000 C   0  0  0  0  0  0  0  0  0  0  0  0
    0.7500    1.2990    0.0000 C   0  0  0  0  0  0  0  0  0  0  0  0
   -0.7500    1.2990    0.0000 C   0  0  0  0  0  0  0  0  0  0  0  0
   -1.5000    0.0000    0.0000 C   0  0  0  0  0  0  0  0  0  0  0  0
   -0.7500   -1.2990    0.0000 C   0  0  0  0  0  0  0  0  0  0  0  0
   -2.1015   -1.9499    0.0000 C   0  0  0  0  0  0  0  0  0  0  0  0
   -2.6495   -0.5536    0.0000 C   0  0  0  0  0  0  0  0  0  0  0  0
   -4.1327   -0.3300    0.0000 C   0  0  0  0  0  0  0  0  0  0  0  0
   -5.0679   -1.5027    0.0000 C   0  0  0  0  0  0  0  0  0  0  0  0
   -4.5199   -2.8990    0.0000 C   0  0  0  0  0  0  0  0  0  0  0  0
   -3.0367   -3.1226    0.0000 C   0  0  0  0  0  0  0  0  0  0  0  0
   -3.3705   -4.5850    0.0000 C   0  0  0  0  0  0  0  0  0  0  0  0
   -4.8038   -4.1429    0.0000 C   0  0  0  0  0  0  0  0  0  0  0  0
   -5.9034   -5.1631    0.0000 C   0  0  0  0  0  0  0  0  0  0  0  0
   -5.5696   -6.6255    0.0000 C   0  0  0  0  0  0  0  0  0  0  0  0
   -4.1363   -7.0677    0.0000 C   0  0  0  0  0  0  0  0  0  0  0  0
   -3.0367   -6.0474    0.0000 C   0  0  0  0  0  0  0  0  0  0  0  0
   -2.1015   -7.2201    0.0000 C   0  0  0  0  0  0  0  0  0  0  0  0
   -3.3408   -8.0651    0.0000 C   0  0  0  0  0  0  0  0  0  0  0  0
   -3.2287   -9.5609    0.0000 C   0  0  0  0  0  0  0  0  0  0  0  0
   -1.8773  -10.2118    0.0000 C   0  0  0  0  0  0  0  0  0  0  0  0
   -0.6379   -9.3668    0.0000 C   0  0  0  0  0  0  0  0  0  0  0  0
   -0.7500   -7.8710    0.0000 C   0  0  0  0  0  0  0  0  0  0  0  0
    0.7500   -7.8710    0.0000 C   0  0  0  0  0  0  0  0  0  0  0  0
    0.6379   -9.3668    0.0000 C   0  0  0  0  0  0  0  0  0  0  0  0
    1.8773  -10.2118    0.0000 C   0  0  0  0  0  0  0  0  0  0  0  0
    3.2287   -9.5609    0.0000 C   0  0  0  0  0  0  0  0  0  0  0  0
    4.4681  -10.4059    0.0000 C   0  0  0  0  0  0  0  0  0  0  0  0
    5.7074  -11.2509    0.0000 N   0  0  0  0  0  0  0  0  0  0  0  0
    3.3408   -8.0651    0.0000 C   0  0  0  0  0  0  0  0  0  0  0  0
    2.1015   -7.2201    0.0000 C   0  0  0  0  0  0  0  0  0  0  0  0
  1  2  1  0
  2  3  1  0
  3  4  2  0
  4  5  1  0
  5  6  1  0
  6  7  2  0
  6  8  1  0
  8  9  1  0
  9 10  2  0
 10 11  1  0
 11 12  2  0
 12 13  1  0
 13 14  2  0
  5 15  1  0
 15 16  2  0
 16 17  1  0
 17 18  2  0
 18 19  1  0
 19 20  2  0
 20 21  1  0
 21 22  2  0
 22 23  1  0
 23 24  2  0
 24 25  1  0
 25 26  2  0
 26 27  1  0
 27 28  2  0
 28 29  1  0
 29 30  2  0
 30 31  1  0
 31 32  2  0
 32 33  1  0
 33 34  2  0
 34 35  1  0
 35 36  2  0
 36 37  1  0
 37 38  2  0
 38 39  1  0
 39 40  2  0
 40 41  1  0
 41 42  2  0
 42 43  1  0
 43 44  3  0
 42 45  1  0
 45 46  2  0
 46  2  1  0
 14  9  1  0
 20 15  1  0
 26 21  1  0
 32 27  1  0
 38 33  1  0
 46 39  1  0
M  END
>  <Title>  (718) 
idAAZRgen8

$$$$

     RDKit          2D

 13 13  0  0  0  0  0  0  0  0999 V2000
    7.2760    2.5981    0.0000 C   0  0  0  0  0  0  0  0  0  0  0  0
    6.5260    1.2990    0.0000 C   0  0  0  0  0  0  0  0  0  0  0  0
    5.7760    0.0000    0.0000 C   0  0  0  0  0  0  0  0  0  0  0  0
    5.0260   -1.2990    0.0000 C   0  0  0  0  0  0  0  0  0  0  0  0
    5.7760   -2.5981    0.0000 C   0  0  0  0  0  0  0  0  0  0  0  0
    3.5260   -1.2990    0.0000 O   0  0  0  0  0  0  0  0  0  0  0  0
    2.7760    0.0000    0.0000 C   0  0  0  0  0  0  0  0  0  0  0  0
    3.5260    1.2990    0.0000 O   0  0  0  0  0  0  0  0  0  0  0  0
    1.2760    0.0000    0.0000 C   0  0  0  0  0  0  0  0  0  0  0  0
    0.3943    1.2135    0.0000 C   0  0  0  0  0  0  0  0  0  0  0  0
   -1.0323    0.7500    0.0000 C   0  0  0  0  0  0  0  0  0  0  0  0
   -1.0323   -0.7500    0.0000 C   0  0  0  0  0  0  0  0  0  0  0  0
    0.3943   -1.2135    0.0000 C   0  0  0  0  0  0  0  0  0  0  0  0
  1  2  1  0
  2  3  3  0
  3  4  1  0
  4  5  1  0
  4  6  1  0
  6  7  1  0
  7  8  2  0
  7  9  1  0
  9 10  2  0
 10 11  1  0
 11 12  2  0
 12 13  1  0
 13  9  1  0
M  END
>  <Title>  (719) 
idAAZSgen8

$$$$

     RDKit          2D

 12 12  0  0  0  0  0  0  0  0999 V2000
    7.2760   -2.5981    0.0000 C   0  0  0  0  0  0  0  0  0  0  0  0
    5.7760   -2.5981    0.0000 C   0  0  0  0  0  0  0  0  0  0  0  0
    5.0260   -1.2990    0.0000 C   0  0  0  0  0  0  0  0  0  0  0  0
    3.5260   -1.2990    0.0000 C   0  0  0  0  0  0  0  0  0  0  0  0
    2.7760   -2.5981    0.0000 O   0  0  0  0  0  0  0  0  0  0  0  0
    2.7760    0.0000    0.0000 N   0  0  0  0  0  0  0  0  0  0  0  0
    1.2760    0.0000    0.0000 C   0  0  0  0  0  0  0  0  0  0  0  0
    0.3943    1.2135    0.0000 C   0  0  0  0  0  0  0  0  0  0  0  0
   -1.0323    0.7500    0.0000 C   0  0  0  0  0  0  0  0  0  0  0  0
   -2.2458    1.6317    0.0000 C   0  0  0  0  0  0  0  0  0  0  0  0
   -1.0323   -0.7500    0.0000 C   0  0  0  0  0  0  0  0  0  0  0  0
    0.3943   -1.2135    0.0000 C   0  0  0  0  0  0  0  0  0  0  0  0
  1  2  1  0
  2  3  2  3
  3  4  1  0
  4  5  2  0
  4  6  1  0
  6  7  1  0
  7  8  2  0
  8  9  1  0
  9 10  1  0
  9 11  2  0
 11 12  1  0
 12  7  1  0
M  END
>  <Title>  (720) 
idAAZTgen8

$$$$

     RDKit          2D

 64 64  0  0  0  0  0  0  0  0999 V2000
   16.5464    0.0000    0.0000 C   0  0  0  0  0  0  0  0  0  0  0  0
   15.0464    0.0000    0.0000 C   0  0  0  0  0  0  0  0  0  0  0  0
   14.9716    1.4981    0.0000 C   0  0  0  0  0  0  0  0  0  0  0  0
   14.7480    2.9814    0.0000 C   0  0  0  0  0  0  0  0  0  0  0  0
   14.3779    4.4350    0.0000 C   0  0  0  0  0  0  0  0  0  0  0  0
   13.8649    5.8445    0.0000 C   0  0  0  0  0  0  0  0  0  0  0  0
   13.2141    7.1960    0.0000 C   0  0  0  0  0  0  0  0  0  0  0  0
   12.4319    8.4759    0.0000 C   0  0  0  0  0  0  0  0  0  0  0  0
   11.5262    9.6716    0.0000 C   0  0  0  0  0  0  0  0  0  0  0  0
   10.5059   10.7712    0.0000 C   0  0  0  0  0  0  0  0  0  0  0  0
    9.3813   11.7637    0.0000 C   0  0  0  0  0  0  0  0  0  0  0  0
    8.1634   12.6393    0.0000 C   0  0  0  0  0  0  0  0  0  0  0  0
    6.8643   13.3893    0.0000 C   0  0  0  0  0  0  0  0  0  0  0  0
    5.4971   14.0063    0.0000 C   0  0  0  0  0  0  0  0  0  0  0  0
    4.0752   14.4840    0.0000 C   0  0  0  0  0  0  0  0  0  0  0  0
    2.6128   14.8178    0.0000 C   0  0  0  0  0  0  0  0  0  0  0  0
    1.1244   15.0043    0.0000 C   0  0  0  0  0  0  0  0  0  0  0  0
   -0.3751   15.0417    0.0000 C   0  0  0  0  0  0  0  0  0  0  0  0
   -1.8709   14.9296    0.0000 C   0  0  0  0  0  0  0  0  0  0  0  0
   -3.3481   14.6691    0.0000 C   0  0  0  0  0  0  0  0  0  0  0  0
   -4.7921   14.2629    0.0000 C   0  0  0  0  0  0  0  0  0  0  0  0
   -6.1884   13.7149    0.0000 C   0  0  0  0  0  0  0  0  0  0  0  0
   -7.5232   13.0305    0.0000 C   0  0  0  0  0  0  0  0  0  0  0  0
   -8.7832   12.2167    0.0000 C   0  0  0  0  0  0  0  0  0  0  0  0
   -9.9560   11.2815    0.0000 C   0  0  0  0  0  0  0  0  0  0  0  0
  -11.0298   10.2341    0.0000 C   0  0  0  0  0  0  0  0  0  0  0  0
  -11.9940    9.0851    0.0000 C   0  0  0  0  0  0  0  0  0  0  0  0
  -12.8389    7.8457    0.0000 C   0  0  0  0  0  0  0  0  0  0  0  0
  -13.5563    6.5284    0.0000 C   0  0  0  0  0  0  0  0  0  0  0  0
  -14.1390    5.1462    0.0000 C   0  0  0  0  0  0  0  0  0  0  0  0
  -14.5811    3.7128    0.0000 C   0  0  0  0  0  0  0  0  0  0  0  0
  -14.8783    2.2425    0.0000 C   0  0  0  0  0  0  0  0  0  0  0  0
  -15.0277    0.7500    0.0000 C   0  0  0  0  0  0  0  0  0  0  0  0
  -15.0277   -0.7500    0.0000 C   0  0  0  0  0  0  0  0  0  0  0  0
  -14.8783   -2.2425    0.0000 C   0  0  0  0  0  0  0  0  0  0  0  0
  -14.5811   -3.7128    0.0000 C   0  0  0  0  0  0  0  0  0  0  0  0
  -14.1390   -5.1462    0.0000 C   0  0  0  0  0  0  0  0  0  0  0  0
  -13.5563   -6.5284    0.0000 C   0  0  0  0  0  0  0  0  0  0  0  0
  -12.8389   -7.8457    0.0000 C   0  0  0  0  0  0  0  0  0  0  0  0
  -11.9940   -9.0851    0.0000 C   0  0  0  0  0  0  0  0  0  0  0  0
  -11.0298  -10.2341    0.0000 C   0  0  0  0  0  0  0  0  0  0  0  0
   -9.9560  -11.2815    0.0000 C   0  0  0  0  0  0  0  0  0  0  0  0
   -8.7832  -12.2167    0.0000 C   0  0  0  0  0  0  0  0  0  0  0  0
   -7.5232  -13.0305    0.0000 C   0  0  0  0  0  0  0  0  0  0  0  0
   -6.1884  -13.7149    0.0000 C   0  0  0  0  0  0  0  0  0  0  0  0
   -4.7921  -14.2629    0.0000 C   0  0  0  0  0  0  0  0  0  0  0  0
   -3.3481  -14.6691    0.0000 C   0  0  0  0  0  0  0  0  0  0  0  0
   -1.8709  -14.9296    0.0000 C   0  0  0  0  0  0  0  0  0  0  0  0
   -0.3751  -15.0417    0.0000 C   0  0  0  0  0  0  0  0  0  0  0  0
    1.1244  -15.0043    0.0000 C   0  0  0  0  0  0  0  0  0  0  0  0
    2.6128  -14.8178    0.0000 C   0  0  0  0  0  0  0  0  0  0  0  0
    4.0752  -14.4840    0.0000 C   0  0  0  0  0  0  0  0  0  0  0  0
    5.4971  -14.0063    0.0000 C   0  0  0  0  0  0  0  0  0  0  0  0
    6.8643  -13.3893    0.0000 C   0  0  0  0  0  0  0  0  0  0  0  0
    8.1634  -12.6393    0.0000 C   0  0  0  0  0  0  0  0  0  0  0  0
    9.3813  -11.7637    0.0000 C   0  0  0  0  0  0  0  0  0  0  0  0
   10.5059  -10.7712    0.0000 C   0  0  0  0  0  0  0  0  0  0  0  0
   11.5262   -9.6716    0.0000 C   0  0  0  0  0  0  0  0  0  0  0  0
   12.4319   -8.4759    0.0000 C   0  0  0  0  0  0  0  0  0  0  0  0
   13.2141   -7.1960    0.0000 C   0  0  0  0  0  0  0  0  0  0  0  0
   13.8649   -5.8445    0.0000 C   0  0  0  0  0  0  0  0  0  0  0  0
   14.3779   -4.4350    0.0000 C   0  0  0  0  0  0  0  0  0  0  0  0
   14.7480   -2.9814    0.0000 C   0  0  0  0  0  0  0  0  0  0  0  0
   14.9716   -1.4981    0.0000 C   0  0  0  0  0  0  0  0  0  0  0  0
  1  2  1  0
  2  3  1  0
  3  4  1  0
  4  5  2  0
  5  6  1  0
  6  7  2  0
  7  8  1  0
  8  9  1  0
  9 10  1  0
 10 11  1  0
 11 12  1  0
 12 13  1  0
 13 14  1  0
 14 15  1  0
 15 16  1  0
 16 17  1  0
 17 18  1  0
 18 19  1  0
 19 20  1  0
 20 21  1  0
 21 22  1  0
 22 23  1  0
 23 24  1  0
 24 25  1  0
 25 26  1  0
 26 27  1  0
 27 28  1  0
 28 29  1  0
 29 30  1  0
 30 31  1  0
 31 32  1  0
 32 33  1  0
 33 34  1  0
 34 35  1  0
 35 36  1  0
 36 37  1  0
 37 38  1  0
 38 39  1  0
 39 40  1  0
 40 41  1  0
 41 42  1  0
 42 43  1  0
 43 44  1  0
 44 45  1  0
 45 46  1  0
 46 47  1  0
 47 48  1  0
 48 49  1  0
 49 50  1  0
 50 51  1  0
 51 52  1  0
 52 53  1  0
 53 54  1  0
 54 55  1  0
 55 56  1  0
 56 57  1  0
 57 58  1  0
 58 59  1  0
 59 60  1  0
 60 61  1  0
 61 62  1  0
 62 63  1  0
 63 64  1  0
 64  2  1  0
M  END
>  <Title>  (721) 
idAAZUgen8

$$$$

     RDKit          2D

 17 17  0  0  0  0  0  0  0  0999 V2000
    5.3444    0.0000    0.0000 C   0  0  0  0  0  0  0  0  0  0  0  0
    3.8444    0.0000    0.0000 C   0  0  0  0  0  0  0  0  0  0  0  0
    3.5517   -1.4712    0.0000 C   0  0  0  0  0  0  0  0  0  0  0  0
    2.7184   -2.7184    0.0000 C   0  0  0  0  0  0  0  0  0  0  0  0
    1.4712   -3.5517    0.0000 C   0  0  0  0  0  0  0  0  0  0  0  0
   -0.0000   -3.8444    0.0000 C   0  0  0  0  0  0  0  0  0  0  0  0
   -1.4712   -3.5517    0.0000 C   0  0  0  0  0  0  0  0  0  0  0  0
   -2.7184   -2.7184    0.0000 C   0  0  0  0  0  0  0  0  0  0  0  0
   -3.5517   -1.4712    0.0000 C   0  0  0  0  0  0  0  0  0  0  0  0
   -3.8444    0.0000    0.0000 C   0  0  0  0  0  0  0  0  0  0  0  0
   -3.5517    1.4712    0.0000 C   0  0  0  0  0  0  0  0  0  0  0  0
   -2.7184    2.7184    0.0000 C   0  0  0  0  0  0  0  0  0  0  0  0
   -1.4712    3.5517    0.0000 C   0  0  0  0  0  0  0  0  0  0  0  0
    0.0000    3.8444    0.0000 C   0  0  0  0  0  0  0  0  0  0  0  0
    1.4712    3.5517    0.0000 C   0  0  0  0  0  0  0  0  0  0  0  0
    2.7184    2.7184    0.0000 C   0  0  0  0  0  0  0  0  0  0  0  0
    3.5517    1.4712    0.0000 C   0  0  0  0  0  0  0  0  0  0  0  0
  1  2  1  0
  2  3  2  0
  3  4  1  0
  4  5  1  0
  5  6  1  0
  6  7  1  0
  7  8  2  0
  8  9  1  0
  9 10  2  0
 10 11  1  0
 11 12  2  0
 12 13  1  0
 13 14  2  0
 14 15  1  0
 15 16  2  0
 16 17  1  0
 17  2  1  0
M  END
>  <Title>  (722) 
idAAZVgen8

$$$$

     RDKit          2D

  8  8  0  0  0  0  0  0  0  0999 V2000
    2.7760    0.0000    0.0000 C   0  0  0  0  0  0  0  0  0  0  0  0
    1.2760    0.0000    0.0000 C   0  0  0  0  0  0  0  0  0  0  0  0
    0.3943    1.2135    0.0000 C   0  0  0  0  0  0  0  0  0  0  0  0
   -1.0323    0.7500    0.0000 C   0  0  0  0  0  0  0  0  0  0  0  0
   -2.2458    1.6317    0.0000 O   0  0  0  0  0  0  0  0  0  0  0  0
   -1.0323   -0.7500    0.0000 C   0  0  0  0  0  0  0  0  0  0  0  0
    0.3943   -1.2135    0.0000 C   0  0  0  0  0  0  0  0  0  0  0  0
    0.8578   -2.6401    0.0000 F   0  0  0  0  0  0  0  0  0  0  0  0
  1  2  1  0
  2  3  2  0
  3  4  1  0
  4  5  1  0
  4  6  1  0
  6  7  1  0
  7  8  1  0
  7  2  1  0
M  END
>  <Title>  (723) 
idAAZWgen8

$$$$

     RDKit          2D

  8  8  0  0  0  0  0  0  0  0999 V2000
    3.7500   -1.2990    0.0000 C   0  0  0  0  0  0  0  0  0  0  0  0
    3.0000    0.0000    0.0000 O   0  0  0  0  0  0  0  0  0  0  0  0
    1.5000    0.0000    0.0000 C   0  0  0  0  0  0  0  0  0  0  0  0
    0.7500   -1.2990    0.0000 C   0  0  0  0  0  0  0  0  0  0  0  0
   -0.7500   -1.2990    0.0000 C   0  0  0  0  0  0  0  0  0  0  0  0
   -1.5000    0.0000    0.0000 C   0  0  0  0  0  0  0  0  0  0  0  0
   -0.7500    1.2990    0.0000 C   0  0  0  0  0  0  0  0  0  0  0  0
    0.7500    1.2990    0.0000 C   0  0  0  0  0  0  0  0  0  0  0  0
  1  2  1  0
  2  3  1  0
  3  4  2  0
  4  5  1  0
  5  6  1  0
  6  7  1  0
  7  8  2  0
  8  3  1  0
M  END
>  <Title>  (724) 
idAAZXgen8

$$$$

     RDKit          2D

 37 40  0  0  0  0  0  0  0  0999 V2000
   -2.9384   -0.5656    0.0000 C   0  0  0  0  0  0  0  0  0  0  0  0
   -2.1487   -1.8409    0.0000 C   0  0  0  0  0  0  0  0  0  0  0  0
   -3.2572   -2.8514    0.0000 C   0  0  0  0  0  0  0  0  0  0  0  0
   -3.9258   -4.1942    0.0000 C   0  0  0  0  0  0  0  0  0  0  0  0
   -4.0642   -5.6878    0.0000 C   0  0  0  0  0  0  0  0  0  0  0  0
   -3.6537   -7.1305    0.0000 C   0  0  0  0  0  0  0  0  0  0  0  0
   -2.7498   -8.3276    0.0000 C   0  0  0  0  0  0  0  0  0  0  0  0
   -1.4745   -9.1172    0.0000 C   0  0  0  0  0  0  0  0  0  0  0  0
   -0.0000   -9.3928    0.0000 C   0  0  0  0  0  0  0  0  0  0  0  0
    1.4745   -9.1172    0.0000 C   0  0  0  0  0  0  0  0  0  0  0  0
    2.7498   -8.3276    0.0000 C   0  0  0  0  0  0  0  0  0  0  0  0
    3.7603   -9.4361    0.0000 O   0  0  0  0  0  0  0  0  0  0  0  0
    3.6537   -7.1305    0.0000 N   0  0  0  0  0  0  0  0  0  0  0  0
    4.0642   -5.6878    0.0000 C   0  0  0  0  0  0  0  0  0  0  0  0
    3.9258   -4.1942    0.0000 C   0  0  0  0  0  0  0  0  0  0  0  0
    5.3686   -3.7837    0.0000 C   0  0  0  0  0  0  0  0  0  0  0  0
    5.7344   -2.3290    0.0000 O   0  0  0  0  0  0  0  0  0  0  0  0
    6.4454   -4.8279    0.0000 N   0  0  0  0  0  0  0  0  0  0  0  0
    7.8882   -4.4174    0.0000 C   0  0  0  0  0  0  0  0  0  0  0  0
    8.9650   -5.4616    0.0000 N   0  0  0  0  0  0  0  0  0  0  0  0
   10.4078   -5.0511    0.0000 N   0  0  0  0  0  0  0  0  0  0  0  0
   10.7737   -3.5964    0.0000 N   0  0  0  0  0  0  0  0  0  0  0  0
    9.6968   -2.5522    0.0000 N   0  0  0  0  0  0  0  0  0  0  0  0
    8.2540   -2.9627    0.0000 N   0  0  0  0  0  0  0  0  0  0  0  0
    3.2572   -2.8514    0.0000 C   0  0  0  0  0  0  0  0  0  0  0  0
    4.6866   -2.3967    0.0000 C   0  0  0  0  0  0  0  0  0  0  0  0
    5.0075   -0.9314    0.0000 C   0  0  0  0  0  0  0  0  0  0  0  0
    3.8990    0.0791    0.0000 C   0  0  0  0  0  0  0  0  0  0  0  0
    4.2199    1.5444    0.0000 O   0  0  0  0  0  0  0  0  0  0  0  0
    2.4696   -0.3756    0.0000 C   0  0  0  0  0  0  0  0  0  0  0  0
    2.1487   -1.8409    0.0000 C   0  0  0  0  0  0  0  0  0  0  0  0
    0.7500   -1.2990    0.0000 C   0  0  0  0  0  0  0  0  0  0  0  0
    1.5000    0.0000    0.0000 C   0  0  0  0  0  0  0  0  0  0  0  0
    0.7500    1.2990    0.0000 C   0  0  0  0  0  0  0  0  0  0  0  0
   -0.7500    1.2990    0.0000 C   0  0  0  0  0  0  0  0  0  0  0  0
   -1.5000    0.0000    0.0000 C   0  0  0  0  0  0  0  0  0  0  0  0
   -0.7500   -1.2990    0.0000 C   0  0  0  0  0  0  0  0  0  0  0  0
  1  2  1  0
  2  3  1  0
  3  4  1  0
  4  5  1  0
  5  6  1  0
  6  7  1  0
  7  8  1  0
  8  9  1  0
  9 10  1  0
 10 11  1  0
 11 12  1  0
 11 13  1  0
 13 14  1  0
 14 15  1  0
 15 16  1  0
 16 17  2  0
 16 18  1  0
 18 19  1  0
 19 20  2  0
 20 21  1  0
 21 22  2  0
 22 23  1  0
 23 24  2  0
 15 25  1  0
 25 26  2  0
 26 27  1  0
 27 28  2  0
 28 29  1  0
 28 30  1  0
 30 31  2  0
 31 32  1  0
 32 33  2  0
 33 34  1  0
 34 35  2  0
 35 36  1  0
 36 37  2  0
 37  2  1  0
 24 19  1  0
 31 25  1  0
 37 32  1  0
M  END
>  <Title>  (725) 
idAAZYgen8

$$$$

     RDKit          2D

 92 92  0  0  0  0  0  0  0  0999 V2000
   25.0016   -1.2990    0.0000 C   0  0  0  0  0  0  0  0  0  0  0  0
   23.5016   -1.2990    0.0000 C   0  0  0  0  0  0  0  0  0  0  0  0
   22.7516    0.0000    0.0000 C   0  0  0  0  0  0  0  0  0  0  0  0
   21.2516    0.0000    0.0000 C   0  0  0  0  0  0  0  0  0  0  0  0
   21.1987    1.4991    0.0000 C   0  0  0  0  0  0  0  0  0  0  0  0
   21.0401    2.9907    0.0000 C   0  0  0  0  0  0  0  0  0  0  0  0
   20.7767    4.4674    0.0000 C   0  0  0  0  0  0  0  0  0  0  0  0
   20.4099    5.9218    0.0000 C   0  0  0  0  0  0  0  0  0  0  0  0
   19.9413    7.3467    0.0000 C   0  0  0  0  0  0  0  0  0  0  0  0
   19.3734    8.7351    0.0000 C   0  0  0  0  0  0  0  0  0  0  0  0
   18.7090   10.0799    0.0000 C   0  0  0  0  0  0  0  0  0  0  0  0
   17.9514   11.3745    0.0000 C   0  0  0  0  0  0  0  0  0  0  0  0
   17.1043   12.6124    0.0000 C   0  0  0  0  0  0  0  0  0  0  0  0
   16.1720   13.7875    0.0000 C   0  0  0  0  0  0  0  0  0  0  0  0
   15.1592   14.8940    0.0000 C   0  0  0  0  0  0  0  0  0  0  0  0
   14.0708   15.9262    0.0000 C   0  0  0  0  0  0  0  0  0  0  0  0
   12.9123   16.8790    0.0000 C   0  0  0  0  0  0  0  0  0  0  0  0
   11.6895   17.7478    0.0000 C   0  0  0  0  0  0  0  0  0  0  0  0
   10.4085   18.5282    0.0000 C   0  0  0  0  0  0  0  0  0  0  0  0
    9.0756   19.2162    0.0000 C   0  0  0  0  0  0  0  0  0  0  0  0
    7.6975   19.8085    0.0000 C   0  0  0  0  0  0  0  0  0  0  0  0
    6.2811   20.3022    0.0000 C   0  0  0  0  0  0  0  0  0  0  0  0
    4.8333   20.6947    0.0000 C   0  0  0  0  0  0  0  0  0  0  0  0
    3.3615   20.9841    0.0000 C   0  0  0  0  0  0  0  0  0  0  0  0
    1.8730   21.1689    0.0000 C   0  0  0  0  0  0  0  0  0  0  0  0
    0.3751   21.2483    0.0000 C   0  0  0  0  0  0  0  0  0  0  0  0
   -1.1247   21.2218    0.0000 C   0  0  0  0  0  0  0  0  0  0  0  0
   -2.6189   21.0896    0.0000 C   0  0  0  0  0  0  0  0  0  0  0  0
   -4.1000   20.8524    0.0000 C   0  0  0  0  0  0  0  0  0  0  0  0
   -5.5607   20.5112    0.0000 C   0  0  0  0  0  0  0  0  0  0  0  0
   -6.9937   20.0679    0.0000 C   0  0  0  0  0  0  0  0  0  0  0  0
   -8.3918   19.5245    0.0000 C   0  0  0  0  0  0  0  0  0  0  0  0
   -9.7481   18.8840    0.0000 C   0  0  0  0  0  0  0  0  0  0  0  0
  -11.0559   18.1493    0.0000 C   0  0  0  0  0  0  0  0  0  0  0  0
  -12.3086   17.3242    0.0000 C   0  0  0  0  0  0  0  0  0  0  0  0
  -13.5000   16.4128    0.0000 C   0  0  0  0  0  0  0  0  0  0  0  0
  -14.6241   15.4197    0.0000 C   0  0  0  0  0  0  0  0  0  0  0  0
  -15.6754   14.3497    0.0000 C   0  0  0  0  0  0  0  0  0  0  0  0
  -16.6485   13.2082    0.0000 C   0  0  0  0  0  0  0  0  0  0  0  0
  -17.5387   12.0009    0.0000 C   0  0  0  0  0  0  0  0  0  0  0  0
  -18.3416   10.7339    0.0000 C   0  0  0  0  0  0  0  0  0  0  0  0
  -19.0531    9.4134    0.0000 C   0  0  0  0  0  0  0  0  0  0  0  0
  -19.6696    8.0459    0.0000 C   0  0  0  0  0  0  0  0  0  0  0  0
  -20.1882    6.6384    0.0000 C   0  0  0  0  0  0  0  0  0  0  0  0
  -20.6061    5.1978    0.0000 C   0  0  0  0  0  0  0  0  0  0  0  0
  -20.9215    3.7313    0.0000 C   0  0  0  0  0  0  0  0  0  0  0  0
  -21.1326    2.2463    0.0000 C   0  0  0  0  0  0  0  0  0  0  0  0
  -21.2384    0.7500    0.0000 C   0  0  0  0  0  0  0  0  0  0  0  0
  -21.2384   -0.7500    0.0000 C   0  0  0  0  0  0  0  0  0  0  0  0
  -21.1326   -2.2463    0.0000 C   0  0  0  0  0  0  0  0  0  0  0  0
  -20.9215   -3.7313    0.0000 C   0  0  0  0  0  0  0  0  0  0  0  0
  -20.6061   -5.1978    0.0000 C   0  0  0  0  0  0  0  0  0  0  0  0
  -20.1882   -6.6384    0.0000 C   0  0  0  0  0  0  0  0  0  0  0  0
  -19.6696   -8.0459    0.0000 C   0  0  0  0  0  0  0  0  0  0  0  0
  -19.0531   -9.4134    0.0000 C   0  0  0  0  0  0  0  0  0  0  0  0
  -18.3416  -10.7339    0.0000 C   0  0  0  0  0  0  0  0  0  0  0  0
  -17.5387  -12.0009    0.0000 C   0  0  0  0  0  0  0  0  0  0  0  0
  -16.6485  -13.2082    0.0000 C   0  0  0  0  0  0  0  0  0  0  0  0
  -15.6754  -14.3497    0.0000 C   0  0  0  0  0  0  0  0  0  0  0  0
  -14.6241  -15.4197    0.0000 C   0  0  0  0  0  0  0  0  0  0  0  0
  -13.5000  -16.4128    0.0000 C   0  0  0  0  0  0  0  0  0  0  0  0
  -12.3086  -17.3242    0.0000 C   0  0  0  0  0  0  0  0  0  0  0  0
  -11.0559  -18.1493    0.0000 C   0  0  0  0  0  0  0  0  0  0  0  0
   -9.7481  -18.8840    0.0000 C   0  0  0  0  0  0  0  0  0  0  0  0
   -8.3918  -19.5245    0.0000 C   0  0  0  0  0  0  0  0  0  0  0  0
   -6.9937  -20.0679    0.0000 C   0  0  0  0  0  0  0  0  0  0  0  0
   -5.5607  -20.5112    0.0000 C   0  0  0  0  0  0  0  0  0  0  0  0
   -4.1000  -20.8524    0.0000 C   0  0  0  0  0  0  0  0  0  0  0  0
   -2.6189  -21.0896    0.0000 C   0  0  0  0  0  0  0  0  0  0  0  0
   -1.1247  -21.2218    0.0000 C   0  0  0  0  0  0  0  0  0  0  0  0
    0.3751  -21.2483    0.0000 C   0  0  0  0  0  0  0  0  0  0  0  0
    1.8730  -21.1689    0.0000 C   0  0  0  0  0  0  0  0  0  0  0  0
    3.3615  -20.9841    0.0000 C   0  0  0  0  0  0  0  0  0  0  0  0
    4.8333  -20.6947    0.0000 C   0  0  0  0  0  0  0  0  0  0  0  0
    6.2811  -20.3022    0.0000 C   0  0  0  0  0  0  0  0  0  0  0  0
    7.6975  -19.8085    0.0000 C   0  0  0  0  0  0  0  0  0  0  0  0
    9.0756  -19.2162    0.0000 C   0  0  0  0  0  0  0  0  0  0  0  0
   10.4085  -18.5282    0.0000 C   0  0  0  0  0  0  0  0  0  0  0  0
   11.6895  -17.7478    0.0000 C   0  0  0  0  0  0  0  0  0  0  0  0
   12.9123  -16.8790    0.0000 C   0  0  0  0  0  0  0  0  0  0  0  0
   14.0708  -15.9262    0.0000 C   0  0  0  0  0  0  0  0  0  0  0  0
   15.1592  -14.8940    0.0000 C   0  0  0  0  0  0  0  0  0  0  0  0
   16.1720  -13.7875    0.0000 C   0  0  0  0  0  0  0  0  0  0  0  0
   17.1043  -12.6124    0.0000 C   0  0  0  0  0  0  0  0  0  0  0  0
   17.9514  -11.3745    0.0000 C   0  0  0  0  0  0  0  0  0  0  0  0
   18.7090  -10.0799    0.0000 C   0  0  0  0  0  0  0  0  0  0  0  0
   19.3734   -8.7351    0.0000 C   0  0  0  0  0  0  0  0  0  0  0  0
   19.9413   -7.3467    0.0000 C   0  0  0  0  0  0  0  0  0  0  0  0
   20.4099   -5.9218    0.0000 C   0  0  0  0  0  0  0  0  0  0  0  0
   20.7767   -4.4674    0.0000 C   0  0  0  0  0  0  0  0  0  0  0  0
   21.0401   -2.9907    0.0000 C   0  0  0  0  0  0  0  0  0  0  0  0
   21.1987   -1.4991    0.0000 C   0  0  0  0  0  0  0  0  0  0  0  0
  1  2  1  0
  2  3  1  0
  3  4  1  0
  4  5  1  0
  5  6  1  0
  6  7  1  0
  7  8  1  0
  8  9  2  0
  9 10  1  0
 10 11  1  0
 11 12  1  0
 12 13  1  0
 13 14  1  0
 14 15  1  0
 15 16  1  0
 16 17  1  0
 17 18  1  0
 18 19  1  0
 19 20  1  0
 20 21  1  0
 21 22  1  0
 22 23  1  0
 23 24  1  0
 24 25  1  0
 25 26  1  0
 26 27  1  0
 27 28  1  0
 28 29  1  0
 29 30  1  0
 30 31  1  0
 31 32  1  0
 32 33  1  0
 33 34  1  0
 34 35  1  0
 35 36  1  0
 36 37  1  0
 37 38  1  0
 38 39  1  0
 39 40  1  0
 40 41  1  0
 41 42  1  0
 42 43  1  0
 43 44  1  0
 44 45  1  0
 45 46  1  0
 46 47  1  0
 47 48  1  0
 48 49  1  0
 49 50  1  0
 50 51  1  0
 51 52  1  0
 52 53  1  0
 53 54  1  0
 54 55  1  0
 55 56  1  0
 56 57  1  0
 57 58  1  0
 58 59  1  0
 59 60  1  0
 60 61  1  0
 61 62  1  0
 62 63  1  0
 63 64  1  0
 64 65  1  0
 65 66  1  0
 66 67  1  0
 67 68  1  0
 68 69  1  0
 69 70  1  0
 70 71  1  0
 71 72  1  0
 72 73  1  0
 73 74  1  0
 74 75  1  0
 75 76  1  0
 76 77  1  0
 77 78  1  0
 78 79  1  0
 79 80  1  0
 80 81  1  0
 81 82  1  0
 82 83  1  0
 83 84  1  0
 84 85  1  0
 85 86  1  0
 86 87  1  0
 87 88  1  0
 88 89  1  0
 89 90  1  0
 90 91  1  0
 91 92  1  0
 92  4  1  0
M  END
>  <Title>  (726) 
idAAZZgen8

$$$$

     RDKit          2D

123123  0  0  0  0  0  0  0  0999 V2000
   30.6286    0.0000    0.0000 C   0  0  0  0  0  0  0  0  0  0  0  0
   29.1286    0.0000    0.0000 C   0  0  0  0  0  0  0  0  0  0  0  0
   29.0900   -1.4995    0.0000 C   0  0  0  0  0  0  0  0  0  0  0  0
   28.9742   -2.9950    0.0000 C   0  0  0  0  0  0  0  0  0  0  0  0
   28.7816   -4.4826    0.0000 C   0  0  0  0  0  0  0  0  0  0  0  0
   28.5127   -5.9583    0.0000 C   0  0  0  0  0  0  0  0  0  0  0  0
   28.1681   -7.4182    0.0000 C   0  0  0  0  0  0  0  0  0  0  0  0
   27.7489   -8.8584    0.0000 C   0  0  0  0  0  0  0  0  0  0  0  0
   27.2561  -10.2752    0.0000 C   0  0  0  0  0  0  0  0  0  0  0  0
   26.6910  -11.6647    0.0000 C   0  0  0  0  0  0  0  0  0  0  0  0
   26.0551  -13.0232    0.0000 C   0  0  0  0  0  0  0  0  0  0  0  0
   25.3502  -14.3472    0.0000 C   0  0  0  0  0  0  0  0  0  0  0  0
   24.5780  -15.6332    0.0000 C   0  0  0  0  0  0  0  0  0  0  0  0
   23.7406  -16.8777    0.0000 C   0  0  0  0  0  0  0  0  0  0  0  0
   22.8403  -18.0775    0.0000 C   0  0  0  0  0  0  0  0  0  0  0  0
   21.8794  -19.2293    0.0000 C   0  0  0  0  0  0  0  0  0  0  0  0
   20.8605  -20.3301    0.0000 C   0  0  0  0  0  0  0  0  0  0  0  0
   19.7863  -21.3770    0.0000 C   0  0  0  0  0  0  0  0  0  0  0  0
   18.6596  -22.3673    0.0000 C   0  0  0  0  0  0  0  0  0  0  0  0
   17.4834  -23.2982    0.0000 C   0  0  0  0  0  0  0  0  0  0  0  0
   16.2608  -24.1673    0.0000 C   0  0  0  0  0  0  0  0  0  0  0  0
   14.9952  -24.9724    0.0000 C   0  0  0  0  0  0  0  0  0  0  0  0
   13.6898  -25.7112    0.0000 C   0  0  0  0  0  0  0  0  0  0  0  0
   12.3480  -26.3818    0.0000 C   0  0  0  0  0  0  0  0  0  0  0  0
   10.9735  -26.9825    0.0000 C   0  0  0  0  0  0  0  0  0  0  0  0
    9.5700  -27.5116    0.0000 C   0  0  0  0  0  0  0  0  0  0  0  0
    8.1410  -27.9678    0.0000 C   0  0  0  0  0  0  0  0  0  0  0  0
    6.6905  -28.3498    0.0000 C   0  0  0  0  0  0  0  0  0  0  0  0
    5.2222  -28.6566    0.0000 C   0  0  0  0  0  0  0  0  0  0  0  0
    3.7401  -28.8875    0.0000 C   0  0  0  0  0  0  0  0  0  0  0  0
    2.2480  -29.0417    0.0000 C   0  0  0  0  0  0  0  0  0  0  0  0
    0.7500  -29.1189    0.0000 C   0  0  0  0  0  0  0  0  0  0  0  0
   -0.7500  -29.1189    0.0000 C   0  0  0  0  0  0  0  0  0  0  0  0
   -2.2480  -29.0417    0.0000 C   0  0  0  0  0  0  0  0  0  0  0  0
   -3.7401  -28.8875    0.0000 C   0  0  0  0  0  0  0  0  0  0  0  0
   -5.2222  -28.6566    0.0000 C   0  0  0  0  0  0  0  0  0  0  0  0
   -6.6905  -28.3498    0.0000 C   0  0  0  0  0  0  0  0  0  0  0  0
   -8.1410  -27.9678    0.0000 C   0  0  0  0  0  0  0  0  0  0  0  0
   -9.5700  -27.5116    0.0000 C   0  0  0  0  0  0  0  0  0  0  0  0
  -10.9735  -26.9825    0.0000 C   0  0  0  0  0  0  0  0  0  0  0  0
  -12.3480  -26.3818    0.0000 C   0  0  0  0  0  0  0  0  0  0  0  0
  -13.6898  -25.7112    0.0000 C   0  0  0  0  0  0  0  0  0  0  0  0
  -14.9952  -24.9724    0.0000 C   0  0  0  0  0  0  0  0  0  0  0  0
  -16.2608  -24.1673    0.0000 C   0  0  0  0  0  0  0  0  0  0  0  0
  -17.4834  -23.2982    0.0000 C   0  0  0  0  0  0  0  0  0  0  0  0
  -18.6596  -22.3673    0.0000 C   0  0  0  0  0  0  0  0  0  0  0  0
  -19.7863  -21.3770    0.0000 C   0  0  0  0  0  0  0  0  0  0  0  0
  -20.8605  -20.3301    0.0000 C   0  0  0  0  0  0  0  0  0  0  0  0
  -21.8794  -19.2293    0.0000 C   0  0  0  0  0  0  0  0  0  0  0  0
  -22.8403  -18.0775    0.0000 C   0  0  0  0  0  0  0  0  0  0  0  0
  -23.7406  -16.8777    0.0000 C   0  0  0  0  0  0  0  0  0  0  0  0
  -24.5780  -15.6332    0.0000 C   0  0  0  0  0  0  0  0  0  0  0  0
  -25.3502  -14.3472    0.0000 C   0  0  0  0  0  0  0  0  0  0  0  0
  -26.0551  -13.0232    0.0000 C   0  0  0  0  0  0  0  0  0  0  0  0
  -26.6910  -11.6647    0.0000 C   0  0  0  0  0  0  0  0  0  0  0  0
  -27.2561  -10.2752    0.0000 C   0  0  0  0  0  0  0  0  0  0  0  0
  -27.7489   -8.8584    0.0000 C   0  0  0  0  0  0  0  0  0  0  0  0
  -28.1681   -7.4182    0.0000 C   0  0  0  0  0  0  0  0  0  0  0  0
  -28.5127   -5.9583    0.0000 C   0  0  0  0  0  0  0  0  0  0  0  0
  -28.7816   -4.4826    0.0000 C   0  0  0  0  0  0  0  0  0  0  0  0
  -28.9742   -2.9950    0.0000 C   0  0  0  0  0  0  0  0  0  0  0  0
  -29.0900   -1.4995    0.0000 C   0  0  0  0  0  0  0  0  0  0  0  0
  -29.1286    0.0000    0.0000 C   0  0  0  0  0  0  0  0  0  0  0  0
  -29.0900    1.4995    0.0000 C   0  0  0  0  0  0  0  0  0  0  0  0
  -28.9742    2.9950    0.0000 C   0  0  0  0  0  0  0  0  0  0  0  0
  -28.7816    4.4826    0.0000 C   0  0  0  0  0  0  0  0  0  0  0  0
  -28.5127    5.9583    0.0000 C   0  0  0  0  0  0  0  0  0  0  0  0
  -28.1681    7.4182    0.0000 C   0  0  0  0  0  0  0  0  0  0  0  0
  -27.7489    8.8584    0.0000 C   0  0  0  0  0  0  0  0  0  0  0  0
  -27.2561   10.2752    0.0000 C   0  0  0  0  0  0  0  0  0  0  0  0
  -26.6910   11.6647    0.0000 C   0  0  0  0  0  0  0  0  0  0  0  0
  -26.0551   13.0232    0.0000 C   0  0  0  0  0  0  0  0  0  0  0  0
  -25.3502   14.3472    0.0000 C   0  0  0  0  0  0  0  0  0  0  0  0
  -24.5780   15.6332    0.0000 C   0  0  0  0  0  0  0  0  0  0  0  0
  -23.7406   16.8777    0.0000 C   0  0  0  0  0  0  0  0  0  0  0  0
  -22.8403   18.0775    0.0000 C   0  0  0  0  0  0  0  0  0  0  0  0
  -21.8794   19.2293    0.0000 C   0  0  0  0  0  0  0  0  0  0  0  0
  -20.8605   20.3301    0.0000 C   0  0  0  0  0  0  0  0  0  0  0  0
  -19.7863   21.3770    0.0000 C   0  0  0  0  0  0  0  0  0  0  0  0
  -18.6596   22.3673    0.0000 C   0  0  0  0  0  0  0  0  0  0  0  0
  -17.4834   23.2982    0.0000 C   0  0  0  0  0  0  0  0  0  0  0  0
  -16.2608   24.1673    0.0000 C   0  0  0  0  0  0  0  0  0  0  0  0
  -14.9952   24.9724    0.0000 C   0  0  0  0  0  0  0  0  0  0  0  0
  -13.6898   25.7112    0.0000 C   0  0  0  0  0  0  0  0  0  0  0  0
  -12.3480   26.3818    0.0000 C   0  0  0  0  0  0  0  0  0  0  0  0
  -10.9735   26.9825    0.0000 C   0  0  0  0  0  0  0  0  0  0  0  0
   -9.5700   27.5116    0.0000 C   0  0  0  0  0  0  0  0  0  0  0  0
   -8.1410   27.9678    0.0000 C   0  0  0  0  0  0  0  0  0  0  0  0
   -6.6905   28.3498    0.0000 C   0  0  0  0  0  0  0  0  0  0  0  0
   -5.2222   28.6566    0.0000 C   0  0  0  0  0  0  0  0  0  0  0  0
   -3.7401   28.8875    0.0000 C   0  0  0  0  0  0  0  0  0  0  0  0
   -2.2480   29.0417    0.0000 C   0  0  0  0  0  0  0  0  0  0  0  0
   -0.7500   29.1189    0.0000 C   0  0  0  0  0  0  0  0  0  0  0  0
    0.7500   29.1189    0.0000 C   0  0  0  0  0  0  0  0  0  0  0  0
    2.2480   29.0417    0.0000 C   0  0  0  0  0  0  0  0  0  0  0  0
    3.7401   28.8875    0.0000 C   0  0  0  0  0  0  0  0  0  0  0  0
    5.2222   28.6566    0.0000 C   0  0  0  0  0  0  0  0  0  0  0  0
    6.6905   28.3498    0.0000 C   0  0  0  0  0  0  0  0  0  0  0  0
    8.1410   27.9678    0.0000 C   0  0  0  0  0  0  0  0  0  0  0  0
    9.5700   27.5116    0.0000 C   0  0  0  0  0  0  0  0  0  0  0  0
   10.9735   26.9825    0.0000 C   0  0  0  0  0  0  0  0  0  0  0  0
   12.3480   26.3818    0.0000 C   0  0  0  0  0  0  0  0  0  0  0  0
   13.6898   25.7112    0.0000 C   0  0  0  0  0  0  0  0  0  0  0  0
   14.9952   24.9724    0.0000 C   0  0  0  0  0  0  0  0  0  0  0  0
   16.2608   24.1673    0.0000 C   0  0  0  0  0  0  0  0  0  0  0  0
   17.4834   23.2982    0.0000 C   0  0  0  0  0  0  0  0  0  0  0  0
   18.6596   22.3673    0.0000 C   0  0  0  0  0  0  0  0  0  0  0  0
   19.7863   21.3770    0.0000 C   0  0  0  0  0  0  0  0  0  0  0  0
   20.8605   20.3301    0.0000 C   0  0  0  0  0  0  0  0  0  0  0  0
   21.8794   19.2293    0.0000 C   0  0  0  0  0  0  0  0  0  0  0  0
   22.8403   18.0775    0.0000 C   0  0  0  0  0  0  0  0  0  0  0  0
   23.7406   16.8777    0.0000 C   0  0  0  0  0  0  0  0  0  0  0  0
   24.5780   15.6332    0.0000 C   0  0  0  0  0  0  0  0  0  0  0  0
   25.3502   14.3472    0.0000 C   0  0  0  0  0  0  0  0  0  0  0  0
   26.0551   13.0232    0.0000 C   0  0  0  0  0  0  0  0  0  0  0  0
   26.6910   11.6647    0.0000 C   0  0  0  0  0  0  0  0  0  0  0  0
   27.2561   10.2752    0.0000 C   0  0  0  0  0  0  0  0  0  0  0  0
   27.7489    8.8584    0.0000 C   0  0  0  0  0  0  0  0  0  0  0  0
   28.1681    7.4182    0.0000 C   0  0  0  0  0  0  0  0  0  0  0  0
   28.5127    5.9583    0.0000 C   0  0  0  0  0  0  0  0  0  0  0  0
   28.7816    4.4826    0.0000 C   0  0  0  0  0  0  0  0  0  0  0  0
   28.9742    2.9950    0.0000 C   0  0  0  0  0  0  0  0  0  0  0  0
   29.0900    1.4995    0.0000 C   0  0  0  0  0  0  0  0  0  0  0  0
  1  2  1  0
  2  3  1  0
  3  4  1  0
  4  5  1  0
  5  6  1  0
  6  7  1  0
  7  8  1  0
  8  9  1  0
  9 10  1  0
 10 11  1  0
 11 12  1  0
 12 13  1  0
 13 14  1  0
 14 15  1  0
 15 16  1  0
 16 17  1  0
 17 18  1  0
 18 19  1  0
 19 20  1  0
 20 21  1  0
 21 22  1  0
 22 23  1  0
 23 24  1  0
 24 25  1  0
 25 26  1  0
 26 27  1  0
 27 28  2  0
 28 29  1  0
 29 30  1  0
 30 31  1  0
 31 32  1  0
 32 33  1  0
 33 34  1  0
 34 35  1  0
 35 36  1  0
 36 37  1  0
 37 38  1  0
 38 39  1  0
 39 40  1  0
 40 41  1  0
 41 42  1  0
 42 43  1  0
 43 44  1  0
 44 45  1  0
 45 46  1  0
 46 47  1  0
 47 48  1  0
 48 49  1  0
 49 50  1  0
 50 51  1  0
 51 52  1  0
 52 53  1  0
 53 54  1  0
 54 55  1  0
 55 56  1  0
 56 57  1  0
 57 58  1  0
 58 59  1  0
 59 60  1  0
 60 61  1  0
 61 62  1  0
 62 63  1  0
 63 64  1  0
 64 65  1  0
 65 66  1  0
 66 67  1  0
 67 68  1  0
 68 69  1  0
 69 70  1  0
 70 71  1  0
 71 72  1  0
 72 73  1  0
 73 74  1  0
 74 75  1  0
 75 76  1  0
 76 77  1  0
 77 78  1  0
 78 79  1  0
 79 80  1  0
 80 81  1  0
 81 82  1  0
 82 83  1  0
 83 84  1  0
 84 85  1  0
 85 86  1  0
 86 87  1  0
 87 88  1  0
 88 89  1  0
 89 90  1  0
 90 91  1  0
 91 92  1  0
 92 93  1  0
 93 94  1  0
 94 95  1  0
 95 96  1  0
 96 97  1  0
 97 98  1  0
 98 99  1  0
 99100  1  0
100101  1  0
101102  1  0
102103  1  0
103104  1  0
104105  1  0
105106  1  0
106107  1  0
107108  1  0
108109  1  0
109110  1  0
110111  1  0
111112  1  0
112113  1  0
113114  1  0
114115  1  0
115116  1  0
116117  1  0
117118  1  0
118119  1  0
119120  1  0
120121  1  0
121122  1  0
122123  1  0
123  2  1  0
M  END
>  <Title>  (727) 
idABAAgen8

$$$$

     RDKit          2D

 52 59  0  0  0  0  0  0  0  0999 V2000
    5.2417   -6.1122    0.0000 C   0  0  0  0  0  0  0  0  0  0  0  0
    3.7705   -5.8195    0.0000 C   0  0  0  0  0  0  0  0  0  0  0  0
    3.7705   -4.3195    0.0000 C   0  0  0  0  0  0  0  0  0  0  0  0
    3.1965   -2.9337    0.0000 C   0  0  0  0  0  0  0  0  0  0  0  0
    2.1358   -1.8731    0.0000 C   0  0  0  0  0  0  0  0  0  0  0  0
    2.9692   -0.6259    0.0000 O   0  0  0  0  0  0  0  0  0  0  0  0
    4.4660   -0.7240    0.0000 C   0  0  0  0  0  0  0  0  0  0  0  0
    5.1294   -2.0693    0.0000 C   0  0  0  0  0  0  0  0  0  0  0  0
    4.2960   -3.3165    0.0000 O   0  0  0  0  0  0  0  0  0  0  0  0
    6.6262   -2.1674    0.0000 O   0  0  0  0  0  0  0  0  0  0  0  0
    5.2993    0.5232    0.0000 C   0  0  0  0  0  0  0  0  0  0  0  0
    6.7961    0.4251    0.0000 N   0  0  0  0  0  0  0  0  0  0  0  0
    7.6295    1.6723    0.0000 N   0  0  0  0  0  0  0  0  0  0  0  0
    6.9660    3.0176    0.0000 N   0  0  0  0  0  0  0  0  0  0  0  0
    5.4692    3.1158    0.0000 N   0  0  0  0  0  0  0  0  0  0  0  0
    4.6359    1.8686    0.0000 N   0  0  0  0  0  0  0  0  0  0  0  0
    0.7500   -1.2990    0.0000 C   0  0  0  0  0  0  0  0  0  0  0  0
    1.5000    0.0000    0.0000 C   0  0  0  0  0  0  0  0  0  0  0  0
    0.7500    1.2990    0.0000 C   0  0  0  0  0  0  0  0  0  0  0  0
   -0.7500    1.2990    0.0000 C   0  0  0  0  0  0  0  0  0  0  0  0
   -1.5000    0.0000    0.0000 C   0  0  0  0  0  0  0  0  0  0  0  0
   -0.7500   -1.2990    0.0000 C   0  0  0  0  0  0  0  0  0  0  0  0
   -2.1358   -1.8731    0.0000 C   0  0  0  0  0  0  0  0  0  0  0  0
   -2.5240   -0.4242    0.0000 C   0  0  0  0  0  0  0  0  0  0  0  0
   -3.9729   -0.0359    0.0000 C   0  0  0  0  0  0  0  0  0  0  0  0
   -5.0336   -1.0966    0.0000 C   0  0  0  0  0  0  0  0  0  0  0  0
   -4.6454   -2.5455    0.0000 C   0  0  0  0  0  0  0  0  0  0  0  0
   -3.1965   -2.9337    0.0000 C   0  0  0  0  0  0  0  0  0  0  0  0
   -3.7705   -4.3195    0.0000 C   0  0  0  0  0  0  0  0  0  0  0  0
   -5.0695   -3.5695    0.0000 C   0  0  0  0  0  0  0  0  0  0  0  0
   -6.3686   -4.3195    0.0000 C   0  0  0  0  0  0  0  0  0  0  0  0
   -6.3686   -5.8195    0.0000 C   0  0  0  0  0  0  0  0  0  0  0  0
   -5.0695   -6.5695    0.0000 C   0  0  0  0  0  0  0  0  0  0  0  0
   -3.7705   -5.8195    0.0000 C   0  0  0  0  0  0  0  0  0  0  0  0
   -3.1965   -7.2054    0.0000 C   0  0  0  0  0  0  0  0  0  0  0  0
   -4.6454   -7.5936    0.0000 C   0  0  0  0  0  0  0  0  0  0  0  0
   -5.0336   -9.0425    0.0000 C   0  0  0  0  0  0  0  0  0  0  0  0
   -3.9729  -10.1031    0.0000 C   0  0  0  0  0  0  0  0  0  0  0  0
   -2.5240   -9.7149    0.0000 C   0  0  0  0  0  0  0  0  0  0  0  0
   -2.1358   -8.2660    0.0000 C   0  0  0  0  0  0  0  0  0  0  0  0
   -0.7500   -8.8400    0.0000 C   0  0  0  0  0  0  0  0  0  0  0  0
   -1.5000  -10.1391    0.0000 C   0  0  0  0  0  0  0  0  0  0  0  0
   -0.7500  -11.4381    0.0000 C   0  0  0  0  0  0  0  0  0  0  0  0
    0.7500  -11.4381    0.0000 C   0  0  0  0  0  0  0  0  0  0  0  0
    1.5000  -10.1391    0.0000 C   0  0  0  0  0  0  0  0  0  0  0  0
    0.7500   -8.8400    0.0000 C   0  0  0  0  0  0  0  0  0  0  0  0
    2.1358   -8.2660    0.0000 C   0  0  0  0  0  0  0  0  0  0  0  0
    2.5240   -9.7149    0.0000 C   0  0  0  0  0  0  0  0  0  0  0  0
    3.9729  -10.1031    0.0000 C   0  0  0  0  0  0  0  0  0  0  0  0
    5.0336   -9.0425    0.0000 C   0  0  0  0  0  0  0  0  0  0  0  0
    4.6454   -7.5936    0.0000 C   0  0  0  0  0  0  0  0  0  0  0  0
    3.1965   -7.2054    0.0000 C   0  0  0  0  0  0  0  0  0  0  0  0
  1  2  1  0
  2  3  2  0
  3  4  1  0
  4  5  2  0
  5  6  1  0
  6  7  1  0
  7  8  1  0
  8  9  2  0
  8 10  1  0
  7 11  1  0
 11 12  2  0
 12 13  1  0
 13 14  2  0
 14 15  1  0
 15 16  2  0
  5 17  1  0
 17 18  2  0
 18 19  1  0
 19 20  2  0
 20 21  1  0
 21 22  2  0
 22 23  1  0
 23 24  2  0
 24 25  1  0
 25 26  2  0
 26 27  1  0
 27 28  2  0
 28 29  1  0
 29 30  2  0
 30 31  1  0
 31 32  2  0
 32 33  1  0
 33 34  2  0
 34 35  1  0
 35 36  2  0
 36 37  1  0
 37 38  2  0
 38 39  1  0
 39 40  2  0
 40 41  1  0
 41 42  2  0
 42 43  1  0
 43 44  2  0
 44 45  1  0
 45 46  2  0
 46 47  1  0
 47 48  2  0
 48 49  1  0
 49 50  2  0
 50 51  1  0
 51 52  2  0
 52  2  1  0
 16 11  1  0
 22 17  1  0
 28 23  1  0
 34 29  1  0
 40 35  1  0
 46 41  1  0
 52 47  1  0
M  END
>  <Title>  (728) 
idABABgen8

$$$$

     RDKit          2D

 78 78  0  0  0  0  0  0  0  0999 V2000
   19.8875    0.0000    0.0000 C   0  0  0  0  0  0  0  0  0  0  0  0
   18.3875    0.0000    0.0000 C   0  0  0  0  0  0  0  0  0  0  0  0
   18.3263    1.4988    0.0000 C   0  0  0  0  0  0  0  0  0  0  0  0
   18.1432    2.9875    0.0000 C   0  0  0  0  0  0  0  0  0  0  0  0
   17.8393    4.4564    0.0000 C   0  0  0  0  0  0  0  0  0  0  0  0
   17.4167    5.8957    0.0000 C   0  0  0  0  0  0  0  0  0  0  0  0
   16.8782    7.2957    0.0000 C   0  0  0  0  0  0  0  0  0  0  0  0
   16.2274    8.6471    0.0000 C   0  0  0  0  0  0  0  0  0  0  0  0
   15.4685    9.9410    0.0000 C   0  0  0  0  0  0  0  0  0  0  0  0
   14.6068   11.1688    0.0000 C   0  0  0  0  0  0  0  0  0  0  0  0
   13.6478   12.3222    0.0000 C   0  0  0  0  0  0  0  0  0  0  0  0
   12.5980   13.3936    0.0000 C   0  0  0  0  0  0  0  0  0  0  0  0
   11.4644   14.3759    0.0000 C   0  0  0  0  0  0  0  0  0  0  0  0
   10.2545   15.2625    0.0000 C   0  0  0  0  0  0  0  0  0  0  0  0
    8.9763   16.0476    0.0000 C   0  0  0  0  0  0  0  0  0  0  0  0
    7.6384   16.7259    0.0000 C   0  0  0  0  0  0  0  0  0  0  0  0
    6.2497   17.2928    0.0000 C   0  0  0  0  0  0  0  0  0  0  0  0
    4.8194   17.7447    0.0000 C   0  0  0  0  0  0  0  0  0  0  0  0
    3.3570   18.0785    0.0000 C   0  0  0  0  0  0  0  0  0  0  0  0
    1.8723   18.2919    0.0000 C   0  0  0  0  0  0  0  0  0  0  0  0
    0.3751   18.3837    0.0000 C   0  0  0  0  0  0  0  0  0  0  0  0
   -1.1246   18.3531    0.0000 C   0  0  0  0  0  0  0  0  0  0  0  0
   -2.6168   18.2003    0.0000 C   0  0  0  0  0  0  0  0  0  0  0  0
   -4.0916   17.9265    0.0000 C   0  0  0  0  0  0  0  0  0  0  0  0
   -5.5392   17.5333    0.0000 C   0  0  0  0  0  0  0  0  0  0  0  0
   -6.9499   17.0235    0.0000 C   0  0  0  0  0  0  0  0  0  0  0  0
   -8.3143   16.4004    0.0000 C   0  0  0  0  0  0  0  0  0  0  0  0
   -9.6234   15.6681    0.0000 C   0  0  0  0  0  0  0  0  0  0  0  0
  -10.8685   14.8316    0.0000 C   0  0  0  0  0  0  0  0  0  0  0  0
  -12.0412   13.8963    0.0000 C   0  0  0  0  0  0  0  0  0  0  0  0
  -13.1339   12.8686    0.0000 C   0  0  0  0  0  0  0  0  0  0  0  0
  -14.1391   11.7553    0.0000 C   0  0  0  0  0  0  0  0  0  0  0  0
  -15.0502   10.5637    0.0000 C   0  0  0  0  0  0  0  0  0  0  0  0
  -15.8612    9.3018    0.0000 C   0  0  0  0  0  0  0  0  0  0  0  0
  -16.5666    7.9780    0.0000 C   0  0  0  0  0  0  0  0  0  0  0  0
  -17.1617    6.6012    0.0000 C   0  0  0  0  0  0  0  0  0  0  0  0
  -17.6427    5.1804    0.0000 C   0  0  0  0  0  0  0  0  0  0  0  0
  -18.0062    3.7251    0.0000 C   0  0  0  0  0  0  0  0  0  0  0  0
  -18.2499    2.2450    0.0000 C   0  0  0  0  0  0  0  0  0  0  0  0
  -18.3722    0.7500    0.0000 C   0  0  0  0  0  0  0  0  0  0  0  0
  -18.3722   -0.7500    0.0000 C   0  0  0  0  0  0  0  0  0  0  0  0
  -18.2499   -2.2450    0.0000 C   0  0  0  0  0  0  0  0  0  0  0  0
  -18.0062   -3.7251    0.0000 C   0  0  0  0  0  0  0  0  0  0  0  0
  -17.6427   -5.1804    0.0000 C   0  0  0  0  0  0  0  0  0  0  0  0
  -17.1617   -6.6012    0.0000 C   0  0  0  0  0  0  0  0  0  0  0  0
  -16.5666   -7.9780    0.0000 C   0  0  0  0  0  0  0  0  0  0  0  0
  -15.8612   -9.3018    0.0000 C   0  0  0  0  0  0  0  0  0  0  0  0
  -15.0502  -10.5637    0.0000 C   0  0  0  0  0  0  0  0  0  0  0  0
  -14.1391  -11.7553    0.0000 C   0  0  0  0  0  0  0  0  0  0  0  0
  -13.1339  -12.8686    0.0000 C   0  0  0  0  0  0  0  0  0  0  0  0
  -12.0412  -13.8963    0.0000 C   0  0  0  0  0  0  0  0  0  0  0  0
  -10.8685  -14.8316    0.0000 C   0  0  0  0  0  0  0  0  0  0  0  0
   -9.6234  -15.6681    0.0000 C   0  0  0  0  0  0  0  0  0  0  0  0
   -8.3143  -16.4004    0.0000 C   0  0  0  0  0  0  0  0  0  0  0  0
   -6.9499  -17.0235    0.0000 C   0  0  0  0  0  0  0  0  0  0  0  0
   -5.5392  -17.5333    0.0000 C   0  0  0  0  0  0  0  0  0  0  0  0
   -4.0916  -17.9265    0.0000 C   0  0  0  0  0  0  0  0  0  0  0  0
   -2.6168  -18.2003    0.0000 C   0  0  0  0  0  0  0  0  0  0  0  0
   -1.1246  -18.3531    0.0000 C   0  0  0  0  0  0  0  0  0  0  0  0
    0.3751  -18.3837    0.0000 C   0  0  0  0  0  0  0  0  0  0  0  0
    1.8723  -18.2919    0.0000 C   0  0  0  0  0  0  0  0  0  0  0  0
    3.3570  -18.0785    0.0000 C   0  0  0  0  0  0  0  0  0  0  0  0
    4.8194  -17.7447    0.0000 C   0  0  0  0  0  0  0  0  0  0  0  0
    6.2497  -17.2928    0.0000 C   0  0  0  0  0  0  0  0  0  0  0  0
    7.6384  -16.7259    0.0000 C   0  0  0  0  0  0  0  0  0  0  0  0
    8.9763  -16.0476    0.0000 C   0  0  0  0  0  0  0  0  0  0  0  0
   10.2545  -15.2625    0.0000 C   0  0  0  0  0  0  0  0  0  0  0  0
   11.4644  -14.3759    0.0000 C   0  0  0  0  0  0  0  0  0  0  0  0
   12.5980  -13.3936    0.0000 C   0  0  0  0  0  0  0  0  0  0  0  0
   13.6478  -12.3222    0.0000 C   0  0  0  0  0  0  0  0  0  0  0  0
   14.6068  -11.1688    0.0000 C   0  0  0  0  0  0  0  0  0  0  0  0
   15.4685   -9.9410    0.0000 C   0  0  0  0  0  0  0  0  0  0  0  0
   16.2274   -8.6471    0.0000 C   0  0  0  0  0  0  0  0  0  0  0  0
   16.8782   -7.2957    0.0000 C   0  0  0  0  0  0  0  0  0  0  0  0
   17.4167   -5.8957    0.0000 C   0  0  0  0  0  0  0  0  0  0  0  0
   17.8393   -4.4564    0.0000 C   0  0  0  0  0  0  0  0  0  0  0  0
   18.1432   -2.9875    0.0000 C   0  0  0  0  0  0  0  0  0  0  0  0
   18.3263   -1.4988    0.0000 C   0  0  0  0  0  0  0  0  0  0  0  0
  1  2  1  0
  2  3  1  0
  3  4  1  0
  4  5  1  0
  5  6  1  0
  6  7  1  0
  7  8  1  0
  8  9  1  0
  9 10  1  0
 10 11  1  0
 11 12  1  0
 12 13  1  0
 13 14  1  0
 14 15  1  0
 15 16  1  0
 16 17  1  0
 17 18  1  0
 18 19  1  0
 19 20  1  0
 20 21  1  0
 21 22  1  0
 22 23  1  0
 23 24  1  0
 24 25  1  0
 25 26  1  0
 26 27  1  0
 27 28  1  0
 28 29  1  0
 29 30  1  0
 30 31  1  0
 31 32  1  0
 32 33  1  0
 33 34  1  0
 34 35  1  0
 35 36  1  0
 36 37  1  0
 37 38  1  0
 38 39  1  0
 39 40  1  0
 40 41  1  0
 41 42  1  0
 42 43  1  0
 43 44  1  0
 44 45  1  0
 45 46  1  0
 46 47  1  0
 47 48  1  0
 48 49  1  0
 49 50  1  0
 50 51  1  0
 51 52  1  0
 52 53  1  0
 53 54  1  0
 54 55  1  0
 55 56  1  0
 56 57  1  0
 57 58  1  0
 58 59  1  0
 59 60  1  0
 60 61  1  0
 61 62  1  0
 62 63  1  0
 63 64  1  0
 64 65  1  0
 65 66  1  0
 66 67  1  0
 67 68  1  0
 68 69  1  0
 69 70  1  0
 70 71  1  0
 71 72  1  0
 72 73  1  0
 73 74  1  0
 74 75  1  0
 75 76  1  0
 76 77  1  0
 77 78  1  0
 78  2  1  0
M  END
>  <Title>  (729) 
idABACgen8

$$$$

     RDKit          2D

 11 11  0  0  0  0  0  0  0  0999 V2000
   10.2760   -0.0000    0.0000 C   0  0  0  0  0  0  0  0  0  0  0  0
    8.7760   -0.0000    0.0000 C   0  0  0  0  0  0  0  0  0  0  0  0
    7.2760   -0.0000    0.0000 C   0  0  0  0  0  0  0  0  0  0  0  0
    5.7760   -0.0000    0.0000 C   0  0  0  0  0  0  0  0  0  0  0  0
    4.2760   -0.0000    0.0000 C   0  0  0  0  0  0  0  0  0  0  0  0
    2.7760    0.0000    0.0000 C   0  0  0  0  0  0  0  0  0  0  0  0
    1.2760    0.0000    0.0000 C   0  0  0  0  0  0  0  0  0  0  0  0
    0.3943    1.2135    0.0000 C   0  0  0  0  0  0  0  0  0  0  0  0
   -1.0323    0.7500    0.0000 C   0  0  0  0  0  0  0  0  0  0  0  0
   -1.0323   -0.7500    0.0000 C   0  0  0  0  0  0  0  0  0  0  0  0
    0.3943   -1.2135    0.0000 C   0  0  0  0  0  0  0  0  0  0  0  0
  1  2  3  0
  2  3  1  0
  3  4  3  0
  4  5  1  0
  5  6  3  0
  6  7  1  0
  7  8  2  0
  8  9  1  0
  9 10  2  0
 10 11  1  0
 11  7  1  0
M  END
>  <Title>  (730) 
idABADgen8

$$$$

     RDKit          2D

  8  8  0  0  0  0  0  0  0  0999 V2000
    4.5000    0.0000    0.0000 N   0  0  0  0  0  0  0  0  0  0  0  0
    3.0000    0.0000    0.0000 C   0  0  0  0  0  0  0  0  0  0  0  0
    1.5000    0.0000    0.0000 C   0  0  0  0  0  0  0  0  0  0  0  0
    0.7500   -1.2990    0.0000 C   0  0  0  0  0  0  0  0  0  0  0  0
   -0.7500   -1.2990    0.0000 C   0  0  0  0  0  0  0  0  0  0  0  0
   -1.5000    0.0000    0.0000 C   0  0  0  0  0  0  0  0  0  0  0  0
   -0.7500    1.2990    0.0000 C   0  0  0  0  0  0  0  0  0  0  0  0
    0.7500    1.2990    0.0000 C   0  0  0  0  0  0  0  0  0  0  0  0
  1  2  3  0
  2  3  1  0
  3  4  2  0
  4  5  1  0
  5  6  1  0
  6  7  1  0
  7  8  2  0
  8  3  1  0
M  END
>  <Title>  (731) 
idABAEgen8

$$$$

     RDKit          2D

  9  9  0  0  0  0  0  0  0  0999 V2000
    4.7286   -0.0000    0.0000 C   0  0  0  0  0  0  0  0  0  0  0  0
    3.2286   -0.0000    0.0000 C   0  0  0  0  0  0  0  0  0  0  0  0
    1.7286    0.0000    0.0000 C   0  0  0  0  0  0  0  0  0  0  0  0
    1.0777    1.3515    0.0000 C   0  0  0  0  0  0  0  0  0  0  0  0
   -0.3846    1.6852    0.0000 C   0  0  0  0  0  0  0  0  0  0  0  0
   -1.5574    0.7500    0.0000 C   0  0  0  0  0  0  0  0  0  0  0  0
   -1.5574   -0.7500    0.0000 C   0  0  0  0  0  0  0  0  0  0  0  0
   -0.3846   -1.6852    0.0000 C   0  0  0  0  0  0  0  0  0  0  0  0
    1.0777   -1.3515    0.0000 C   0  0  0  0  0  0  0  0  0  0  0  0
  1  2  3  0
  2  3  1  0
  3  4  2  0
  4  5  1  0
  5  6  1  0
  6  7  1  0
  7  8  1  0
  8  9  1  0
  9  3  1  0
M  END
>  <Title>  (732) 
idABAFgen8

$$$$

     RDKit          2D

  9  9  0  0  0  0  0  0  0  0999 V2000
    3.0000    0.0000    0.0000 C   0  0  0  0  0  0  0  0  0  0  0  0
    1.5000    0.0000    0.0000 C   0  0  0  0  0  0  0  0  0  0  0  0
    0.7500   -1.2990    0.0000 C   0  0  0  0  0  0  0  0  0  0  0  0
   -0.7500   -1.2990    0.0000 C   0  0  0  0  0  0  0  0  0  0  0  0
   -1.5000   -2.5981    0.0000 O   0  0  0  0  0  0  0  0  0  0  0  0
   -1.5000    0.0000    0.0000 C   0  0  0  0  0  0  0  0  0  0  0  0
   -3.0000    0.0000    0.0000 C   0  0  0  0  0  0  0  0  0  0  0  0
   -0.7500    1.2990    0.0000 C   0  0  0  0  0  0  0  0  0  0  0  0
    0.7500    1.2990    0.0000 C   0  0  0  0  0  0  0  0  0  0  0  0
  1  2  1  0
  2  3  2  0
  3  4  1  0
  4  5  1  0
  4  6  1  0
  6  7  1  0
  6  8  2  0
  8  9  1  0
  9  2  1  0
M  END
>  <Title>  (733) 
idABAGgen8

$$$$

     RDKit          2D

 94 94  0  0  0  0  0  0  0  0999 V2000
   23.4677   -0.0000    0.0000 C   0  0  0  0  0  0  0  0  0  0  0  0
   21.9677    0.0000    0.0000 C   0  0  0  0  0  0  0  0  0  0  0  0
   21.9164   -1.4991    0.0000 C   0  0  0  0  0  0  0  0  0  0  0  0
   21.7630   -2.9913    0.0000 C   0  0  0  0  0  0  0  0  0  0  0  0
   21.5082   -4.4695    0.0000 C   0  0  0  0  0  0  0  0  0  0  0  0
   21.1530   -5.9268    0.0000 C   0  0  0  0  0  0  0  0  0  0  0  0
   20.6993   -7.3565    0.0000 C   0  0  0  0  0  0  0  0  0  0  0  0
   20.1490   -8.7519    0.0000 C   0  0  0  0  0  0  0  0  0  0  0  0
   19.5048  -10.1065    0.0000 C   0  0  0  0  0  0  0  0  0  0  0  0
   18.7696  -11.4140    0.0000 C   0  0  0  0  0  0  0  0  0  0  0  0
   17.9469  -12.6683    0.0000 C   0  0  0  0  0  0  0  0  0  0  0  0
   17.0406  -13.8635    0.0000 C   0  0  0  0  0  0  0  0  0  0  0  0
   16.0547  -14.9941    0.0000 C   0  0  0  0  0  0  0  0  0  0  0  0
   14.9941  -16.0547    0.0000 C   0  0  0  0  0  0  0  0  0  0  0  0
   13.8635  -17.0406    0.0000 C   0  0  0  0  0  0  0  0  0  0  0  0
   12.6683  -17.9469    0.0000 C   0  0  0  0  0  0  0  0  0  0  0  0
   11.4140  -18.7696    0.0000 C   0  0  0  0  0  0  0  0  0  0  0  0
   10.1065  -19.5048    0.0000 C   0  0  0  0  0  0  0  0  0  0  0  0
    8.7519  -20.1490    0.0000 C   0  0  0  0  0  0  0  0  0  0  0  0
    7.3565  -20.6993    0.0000 C   0  0  0  0  0  0  0  0  0  0  0  0
    5.9268  -21.1530    0.0000 C   0  0  0  0  0  0  0  0  0  0  0  0
    4.4695  -21.5082    0.0000 C   0  0  0  0  0  0  0  0  0  0  0  0
    2.9913  -21.7630    0.0000 C   0  0  0  0  0  0  0  0  0  0  0  0
    1.4991  -21.9164    0.0000 C   0  0  0  0  0  0  0  0  0  0  0  0
   -0.0000  -21.9677    0.0000 C   0  0  0  0  0  0  0  0  0  0  0  0
   -1.4991  -21.9164    0.0000 C   0  0  0  0  0  0  0  0  0  0  0  0
   -2.9913  -21.7630    0.0000 C   0  0  0  0  0  0  0  0  0  0  0  0
   -4.4695  -21.5082    0.0000 C   0  0  0  0  0  0  0  0  0  0  0  0
   -5.9268  -21.1530    0.0000 C   0  0  0  0  0  0  0  0  0  0  0  0
   -7.3565  -20.6993    0.0000 C   0  0  0  0  0  0  0  0  0  0  0  0
   -8.7519  -20.1490    0.0000 C   0  0  0  0  0  0  0  0  0  0  0  0
  -10.1065  -19.5048    0.0000 C   0  0  0  0  0  0  0  0  0  0  0  0
  -11.4140  -18.7696    0.0000 C   0  0  0  0  0  0  0  0  0  0  0  0
  -12.6683  -17.9469    0.0000 C   0  0  0  0  0  0  0  0  0  0  0  0
  -13.8635  -17.0406    0.0000 C   0  0  0  0  0  0  0  0  0  0  0  0
  -14.9941  -16.0547    0.0000 C   0  0  0  0  0  0  0  0  0  0  0  0
  -16.0547  -14.9941    0.0000 C   0  0  0  0  0  0  0  0  0  0  0  0
  -17.0406  -13.8635    0.0000 C   0  0  0  0  0  0  0  0  0  0  0  0
  -17.9469  -12.6683    0.0000 C   0  0  0  0  0  0  0  0  0  0  0  0
  -18.7696  -11.4140    0.0000 C   0  0  0  0  0  0  0  0  0  0  0  0
  -19.5048  -10.1065    0.0000 C   0  0  0  0  0  0  0  0  0  0  0  0
  -20.1490   -8.7519    0.0000 C   0  0  0  0  0  0  0  0  0  0  0  0
  -21.5248   -9.3495    0.0000 C   0  0  0  0  0  0  0  0  0  0  0  0
  -20.6993   -7.3565    0.0000 C   0  0  0  0  0  0  0  0  0  0  0  0
  -21.1530   -5.9268    0.0000 C   0  0  0  0  0  0  0  0  0  0  0  0
  -21.5082   -4.4695    0.0000 C   0  0  0  0  0  0  0  0  0  0  0  0
  -21.7630   -2.9913    0.0000 C   0  0  0  0  0  0  0  0  0  0  0  0
  -21.9164   -1.4991    0.0000 C   0  0  0  0  0  0  0  0  0  0  0  0
  -21.9677    0.0000    0.0000 C   0  0  0  0  0  0  0  0  0  0  0  0
  -21.9164    1.4991    0.0000 C   0  0  0  0  0  0  0  0  0  0  0  0
  -21.7630    2.9913    0.0000 C   0  0  0  0  0  0  0  0  0  0  0  0
  -21.5082    4.4695    0.0000 C   0  0  0  0  0  0  0  0  0  0  0  0
  -21.1530    5.9268    0.0000 C   0  0  0  0  0  0  0  0  0  0  0  0
  -20.6993    7.3565    0.0000 C   0  0  0  0  0  0  0  0  0  0  0  0
  -20.1490    8.7519    0.0000 C   0  0  0  0  0  0  0  0  0  0  0  0
  -19.5048   10.1065    0.0000 C   0  0  0  0  0  0  0  0  0  0  0  0
  -18.7696   11.4140    0.0000 C   0  0  0  0  0  0  0  0  0  0  0  0
  -17.9469   12.6683    0.0000 C   0  0  0  0  0  0  0  0  0  0  0  0
  -17.0406   13.8635    0.0000 C   0  0  0  0  0  0  0  0  0  0  0  0
  -16.0547   14.9941    0.0000 C   0  0  0  0  0  0  0  0  0  0  0  0
  -14.9941   16.0547    0.0000 C   0  0  0  0  0  0  0  0  0  0  0  0
  -13.8635   17.0406    0.0000 C   0  0  0  0  0  0  0  0  0  0  0  0
  -12.6683   17.9469    0.0000 C   0  0  0  0  0  0  0  0  0  0  0  0
  -11.4140   18.7696    0.0000 C   0  0  0  0  0  0  0  0  0  0  0  0
  -10.1065   19.5048    0.0000 C   0  0  0  0  0  0  0  0  0  0  0  0
   -8.7519   20.1490    0.0000 C   0  0  0  0  0  0  0  0  0  0  0  0
   -7.3565   20.6993    0.0000 C   0  0  0  0  0  0  0  0  0  0  0  0
   -5.9268   21.1530    0.0000 C   0  0  0  0  0  0  0  0  0  0  0  0
   -4.4695   21.5082    0.0000 C   0  0  0  0  0  0  0  0  0  0  0  0
   -2.9913   21.7630    0.0000 C   0  0  0  0  0  0  0  0  0  0  0  0
   -1.4991   21.9164    0.0000 C   0  0  0  0  0  0  0  0  0  0  0  0
    0.0000   21.9677    0.0000 C   0  0  0  0  0  0  0  0  0  0  0  0
    1.4991   21.9164    0.0000 C   0  0  0  0  0  0  0  0  0  0  0  0
    2.9913   21.7630    0.0000 C   0  0  0  0  0  0  0  0  0  0  0  0
    4.4695   21.5082    0.0000 C   0  0  0  0  0  0  0  0  0  0  0  0
    5.9268   21.1530    0.0000 C   0  0  0  0  0  0  0  0  0  0  0  0
    7.3565   20.6993    0.0000 C   0  0  0  0  0  0  0  0  0  0  0  0
    8.7519   20.1490    0.0000 C   0  0  0  0  0  0  0  0  0  0  0  0
   10.1065   19.5048    0.0000 C   0  0  0  0  0  0  0  0  0  0  0  0
   11.4140   18.7696    0.0000 C   0  0  0  0  0  0  0  0  0  0  0  0
   12.6683   17.9469    0.0000 C   0  0  0  0  0  0  0  0  0  0  0  0
   13.8635   17.0406    0.0000 C   0  0  0  0  0  0  0  0  0  0  0  0
   14.9941   16.0547    0.0000 C   0  0  0  0  0  0  0  0  0  0  0  0
   16.0547   14.9941    0.0000 C   0  0  0  0  0  0  0  0  0  0  0  0
   17.0406   13.8635    0.0000 C   0  0  0  0  0  0  0  0  0  0  0  0
   17.9469   12.6683    0.0000 C   0  0  0  0  0  0  0  0  0  0  0  0
   18.7696   11.4140    0.0000 C   0  0  0  0  0  0  0  0  0  0  0  0
   19.5048   10.1065    0.0000 C   0  0  0  0  0  0  0  0  0  0  0  0
   20.1490    8.7519    0.0000 C   0  0  0  0  0  0  0  0  0  0  0  0
   20.6993    7.3565    0.0000 C   0  0  0  0  0  0  0  0  0  0  0  0
   21.1530    5.9268    0.0000 C   0  0  0  0  0  0  0  0  0  0  0  0
   21.5082    4.4695    0.0000 C   0  0  0  0  0  0  0  0  0  0  0  0
   21.7630    2.9913    0.0000 C   0  0  0  0  0  0  0  0  0  0  0  0
   21.9164    1.4991    0.0000 C   0  0  0  0  0  0  0  0  0  0  0  0
  1  2  1  0
  2  3  2  0
  3  4  1  0
  4  5  1  0
  5  6  1  0
  6  7  1  0
  7  8  1  0
  8  9  1  0
  9 10  1  0
 10 11  1  0
 11 12  1  0
 12 13  1  0
 13 14  1  0
 14 15  1  0
 15 16  1  0
 16 17  1  0
 17 18  1  0
 18 19  1  0
 19 20  1  0
 20 21  1  0
 21 22  1  0
 22 23  1  0
 23 24  1  0
 24 25  1  0
 25 26  1  0
 26 27  1  0
 27 28  1  0
 28 29  1  0
 29 30  1  0
 30 31  1  0
 31 32  1  0
 32 33  1  0
 33 34  1  0
 34 35  1  0
 35 36  1  0
 36 37  1  0
 37 38  1  0
 38 39  1  0
 39 40  1  0
 40 41  1  0
 41 42  1  0
 42 43  1  0
 42 44  1  0
 44 45  1  0
 45 46  1  0
 46 47  1  0
 47 48  1  0
 48 49  1  0
 49 50  1  0
 50 51  1  0
 51 52  1  0
 52 53  1  0
 53 54  1  0
 54 55  1  0
 55 56  1  0
 56 57  1  0
 57 58  1  0
 58 59  1  0
 59 60  1  0
 60 61  1  0
 61 62  1  0
 62 63  1  0
 63 64  1  0
 64 65  1  0
 65 66  1  0
 66 67  1  0
 67 68  1  0
 68 69  1  0
 69 70  1  0
 70 71  1  0
 71 72  1  0
 72 73  1  0
 73 74  1  0
 74 75  1  0
 75 76  1  0
 76 77  1  0
 77 78  1  0
 78 79  1  0
 79 80  1  0
 80 81  1  0
 81 82  1  0
 82 83  1  0
 83 84  1  0
 84 85  1  0
 85 86  1  0
 86 87  1  0
 87 88  1  0
 88 89  1  0
 89 90  1  0
 90 91  1  0
 91 92  1  0
 92 93  1  0
 93 94  1  0
 94  2  1  0
M  END
>  <Title>  (734) 
idABAHgen8

$$$$

     RDKit          2D

 89 89  0  0  0  0  0  0  0  0999 V2000
   22.5129    0.0000    0.0000 C   0  0  0  0  0  0  0  0  0  0  0  0
   21.0129    0.0000    0.0000 C   0  0  0  0  0  0  0  0  0  0  0  0
   20.9594   -1.4990    0.0000 C   0  0  0  0  0  0  0  0  0  0  0  0
   20.7990   -2.9904    0.0000 C   0  0  0  0  0  0  0  0  0  0  0  0
   20.5327   -4.4666    0.0000 C   0  0  0  0  0  0  0  0  0  0  0  0
   20.1617   -5.9200    0.0000 C   0  0  0  0  0  0  0  0  0  0  0  0
   19.6880   -7.3433    0.0000 C   0  0  0  0  0  0  0  0  0  0  0  0
   19.1140   -8.7291    0.0000 C   0  0  0  0  0  0  0  0  0  0  0  0
   18.4426  -10.0704    0.0000 C   0  0  0  0  0  0  0  0  0  0  0  0
   17.6772  -11.3604    0.0000 C   0  0  0  0  0  0  0  0  0  0  0  0
   16.8217  -12.5926    0.0000 C   0  0  0  0  0  0  0  0  0  0  0  0
   15.8805  -13.7605    0.0000 C   0  0  0  0  0  0  0  0  0  0  0  0
   14.8584  -14.8584    0.0000 C   0  0  0  0  0  0  0  0  0  0  0  0
   13.7605  -15.8805    0.0000 C   0  0  0  0  0  0  0  0  0  0  0  0
   12.5926  -16.8217    0.0000 C   0  0  0  0  0  0  0  0  0  0  0  0
   11.3604  -17.6772    0.0000 C   0  0  0  0  0  0  0  0  0  0  0  0
   10.0704  -18.4426    0.0000 C   0  0  0  0  0  0  0  0  0  0  0  0
    8.7291  -19.1140    0.0000 C   0  0  0  0  0  0  0  0  0  0  0  0
    7.3433  -19.6880    0.0000 C   0  0  0  0  0  0  0  0  0  0  0  0
    5.9200  -20.1617    0.0000 C   0  0  0  0  0  0  0  0  0  0  0  0
    4.4666  -20.5327    0.0000 C   0  0  0  0  0  0  0  0  0  0  0  0
    2.9904  -20.7990    0.0000 C   0  0  0  0  0  0  0  0  0  0  0  0
    1.4990  -20.9594    0.0000 C   0  0  0  0  0  0  0  0  0  0  0  0
   -0.0000  -21.0129    0.0000 C   0  0  0  0  0  0  0  0  0  0  0  0
   -1.4990  -20.9594    0.0000 C   0  0  0  0  0  0  0  0  0  0  0  0
   -2.9904  -20.7990    0.0000 C   0  0  0  0  0  0  0  0  0  0  0  0
   -4.4666  -20.5327    0.0000 C   0  0  0  0  0  0  0  0  0  0  0  0
   -5.9200  -20.1617    0.0000 C   0  0  0  0  0  0  0  0  0  0  0  0
   -7.3433  -19.6880    0.0000 C   0  0  0  0  0  0  0  0  0  0  0  0
   -8.7291  -19.1140    0.0000 C   0  0  0  0  0  0  0  0  0  0  0  0
  -10.0704  -18.4426    0.0000 C   0  0  0  0  0  0  0  0  0  0  0  0
  -11.3604  -17.6772    0.0000 C   0  0  0  0  0  0  0  0  0  0  0  0
  -12.5926  -16.8217    0.0000 C   0  0  0  0  0  0  0  0  0  0  0  0
  -13.7605  -15.8805    0.0000 C   0  0  0  0  0  0  0  0  0  0  0  0
  -14.8584  -14.8584    0.0000 C   0  0  0  0  0  0  0  0  0  0  0  0
  -15.8805  -13.7605    0.0000 C   0  0  0  0  0  0  0  0  0  0  0  0
  -16.8217  -12.5926    0.0000 C   0  0  0  0  0  0  0  0  0  0  0  0
  -17.6772  -11.3604    0.0000 C   0  0  0  0  0  0  0  0  0  0  0  0
  -18.4426  -10.0704    0.0000 C   0  0  0  0  0  0  0  0  0  0  0  0
  -19.1140   -8.7291    0.0000 C   0  0  0  0  0  0  0  0  0  0  0  0
  -19.6880   -7.3433    0.0000 C   0  0  0  0  0  0  0  0  0  0  0  0
  -20.1617   -5.9200    0.0000 C   0  0  0  0  0  0  0  0  0  0  0  0
  -20.5327   -4.4666    0.0000 C   0  0  0  0  0  0  0  0  0  0  0  0
  -20.7990   -2.9904    0.0000 C   0  0  0  0  0  0  0  0  0  0  0  0
  -20.9594   -1.4990    0.0000 C   0  0  0  0  0  0  0  0  0  0  0  0
  -21.0129    0.0000    0.0000 C   0  0  0  0  0  0  0  0  0  0  0  0
  -20.9594    1.4990    0.0000 C   0  0  0  0  0  0  0  0  0  0  0  0
  -20.7990    2.9904    0.0000 C   0  0  0  0  0  0  0  0  0  0  0  0
  -20.5327    4.4666    0.0000 C   0  0  0  0  0  0  0  0  0  0  0  0
  -20.1617    5.9200    0.0000 C   0  0  0  0  0  0  0  0  0  0  0  0
  -19.6880    7.3433    0.0000 C   0  0  0  0  0  0  0  0  0  0  0  0
  -19.1140    8.7291    0.0000 C   0  0  0  0  0  0  0  0  0  0  0  0
  -18.4426   10.0704    0.0000 C   0  0  0  0  0  0  0  0  0  0  0  0
  -17.6772   11.3604    0.0000 C   0  0  0  0  0  0  0  0  0  0  0  0
  -16.8217   12.5926    0.0000 C   0  0  0  0  0  0  0  0  0  0  0  0
  -15.8805   13.7605    0.0000 C   0  0  0  0  0  0  0  0  0  0  0  0
  -14.8584   14.8584    0.0000 C   0  0  0  0  0  0  0  0  0  0  0  0
  -13.7605   15.8805    0.0000 C   0  0  0  0  0  0  0  0  0  0  0  0
  -12.5926   16.8217    0.0000 C   0  0  0  0  0  0  0  0  0  0  0  0
  -11.3604   17.6772    0.0000 C   0  0  0  0  0  0  0  0  0  0  0  0
  -10.0704   18.4426    0.0000 C   0  0  0  0  0  0  0  0  0  0  0  0
   -8.7291   19.1140    0.0000 C   0  0  0  0  0  0  0  0  0  0  0  0
   -7.3433   19.6880    0.0000 C   0  0  0  0  0  0  0  0  0  0  0  0
   -5.9200   20.1617    0.0000 C   0  0  0  0  0  0  0  0  0  0  0  0
   -4.4666   20.5327    0.0000 C   0  0  0  0  0  0  0  0  0  0  0  0
   -2.9904   20.7990    0.0000 C   0  0  0  0  0  0  0  0  0  0  0  0
   -1.4990   20.9594    0.0000 C   0  0  0  0  0  0  0  0  0  0  0  0
    0.0000   21.0129    0.0000 C   0  0  0  0  0  0  0  0  0  0  0  0
    1.4990   20.9594    0.0000 C   0  0  0  0  0  0  0  0  0  0  0  0
    2.9904   20.7990    0.0000 C   0  0  0  0  0  0  0  0  0  0  0  0
    4.4666   20.5327    0.0000 C   0  0  0  0  0  0  0  0  0  0  0  0
    5.9200   20.1617    0.0000 C   0  0  0  0  0  0  0  0  0  0  0  0
    7.3433   19.6880    0.0000 C   0  0  0  0  0  0  0  0  0  0  0  0
    8.7291   19.1140    0.0000 C   0  0  0  0  0  0  0  0  0  0  0  0
   10.0704   18.4426    0.0000 C   0  0  0  0  0  0  0  0  0  0  0  0
   11.3604   17.6772    0.0000 C   0  0  0  0  0  0  0  0  0  0  0  0
   12.5926   16.8217    0.0000 C   0  0  0  0  0  0  0  0  0  0  0  0
   13.7605   15.8805    0.0000 C   0  0  0  0  0  0  0  0  0  0  0  0
   14.8584   14.8584    0.0000 C   0  0  0  0  0  0  0  0  0  0  0  0
   15.8805   13.7605    0.0000 C   0  0  0  0  0  0  0  0  0  0  0  0
   16.8217   12.5926    0.0000 C   0  0  0  0  0  0  0  0  0  0  0  0
   17.6772   11.3604    0.0000 C   0  0  0  0  0  0  0  0  0  0  0  0
   18.4426   10.0704    0.0000 C   0  0  0  0  0  0  0  0  0  0  0  0
   19.1140    8.7291    0.0000 C   0  0  0  0  0  0  0  0  0  0  0  0
   19.6880    7.3433    0.0000 C   0  0  0  0  0  0  0  0  0  0  0  0
   20.1617    5.9200    0.0000 C   0  0  0  0  0  0  0  0  0  0  0  0
   20.5327    4.4666    0.0000 C   0  0  0  0  0  0  0  0  0  0  0  0
   20.7990    2.9904    0.0000 C   0  0  0  0  0  0  0  0  0  0  0  0
   20.9594    1.4990    0.0000 C   0  0  0  0  0  0  0  0  0  0  0  0
  1  2  1  0
  2  3  1  0
  3  4  1  0
  4  5  1  0
  5  6  1  0
  6  7  1  0
  7  8  1  0
  8  9  1  0
  9 10  1  0
 10 11  1  0
 11 12  1  0
 12 13  1  0
 13 14  1  0
 14 15  1  0
 15 16  1  0
 16 17  1  0
 17 18  1  0
 18 19  1  0
 19 20  1  0
 20 21  1  0
 21 22  1  0
 22 23  1  0
 23 24  1  0
 24 25  1  0
 25 26  1  0
 26 27  1  0
 27 28  1  0
 28 29  1  0
 29 30  1  0
 30 31  1  0
 31 32  1  0
 32 33  1  0
 33 34  1  0
 34 35  1  0
 35 36  1  0
 36 37  1  0
 37 38  1  0
 38 39  1  0
 39 40  1  0
 40 41  1  0
 41 42  1  0
 42 43  1  0
 43 44  1  0
 44 45  1  0
 45 46  1  0
 46 47  1  0
 47 48  1  0
 48 49  1  0
 49 50  1  0
 50 51  1  0
 51 52  1  0
 52 53  1  0
 53 54  1  0
 54 55  1  0
 55 56  1  0
 56 57  1  0
 57 58  1  0
 58 59  1  0
 59 60  1  0
 60 61  1  0
 61 62  1  0
 62 63  1  0
 63 64  1  0
 64 65  1  0
 65 66  1  0
 66 67  1  0
 67 68  1  0
 68 69  1  0
 69 70  1  0
 70 71  1  0
 71 72  1  0
 72 73  1  0
 73 74  1  0
 74 75  1  0
 75 76  1  0
 76 77  1  0
 77 78  1  0
 78 79  1  0
 79 80  1  0
 80 81  1  0
 81 82  1  0
 82 83  1  0
 83 84  1  0
 84 85  1  0
 85 86  1  0
 86 87  1  0
 87 88  1  0
 88 89  1  0
 89  2  1  0
M  END
>  <Title>  (735) 
idABAIgen8

$$$$

     RDKit          2D

 38 41  0  0  0  0  0  0  0  0999 V2000
    7.3389    5.0334    0.0000 C   0  0  0  0  0  0  0  0  0  0  0  0
    5.8996    4.6108    0.0000 C   0  0  0  0  0  0  0  0  0  0  0  0
    5.8996    3.1108    0.0000 C   0  0  0  0  0  0  0  0  0  0  0  0
    5.0887    1.8489    0.0000 C   0  0  0  0  0  0  0  0  0  0  0  0
    3.7242    1.2258    0.0000 C   0  0  0  0  0  0  0  0  0  0  0  0
    3.9330    0.4564    0.0000 C   0  0  0  0  0  0  0  0  0  0  0  0
    2.2395    1.4392    0.0000 C   0  0  0  0  0  0  0  0  0  0  0  0
    2.6621    0.0000    0.0000 C   0  0  0  0  0  0  0  0  0  0  0  0
    3.4533   -0.0972    0.0000 O   0  0  0  0  0  0  0  0  0  0  0  0
    2.2395   -1.4392    0.0000 N   0  0  0  0  0  0  0  0  0  0  0  0
    1.1059   -2.4215    0.0000 C   0  0  0  0  0  0  0  0  0  0  0  0
   -0.3789   -2.6350    0.0000 C   0  0  0  0  0  0  0  0  0  0  0  0
   -1.7433   -2.0119    0.0000 N   0  0  0  0  0  0  0  0  0  0  0  0
   -2.5543   -0.7500    0.0000 N   0  0  0  0  0  0  0  0  0  0  0  0
   -2.5543    0.7500    0.0000 N   0  0  0  0  0  0  0  0  0  0  0  0
   -1.7433    2.0119    0.0000 N   0  0  0  0  0  0  0  0  0  0  0  0
   -0.3789    2.6350    0.0000 N   0  0  0  0  0  0  0  0  0  0  0  0
    1.1059    2.4215    0.0000 C   0  0  0  0  0  0  0  0  0  0  0  0
    0.6833    3.8608    0.0000 N   0  0  0  0  0  0  0  0  0  0  0  0
    1.1059    5.3000    0.0000 N   0  0  0  0  0  0  0  0  0  0  0  0
    2.2395    6.2823    0.0000 N   0  0  0  0  0  0  0  0  0  0  0  0
    3.7242    6.4958    0.0000 N   0  0  0  0  0  0  0  0  0  0  0  0
    3.9377    7.9805    0.0000 N   0  0  0  0  0  0  0  0  0  0  0  0
    5.3303    8.5380    0.0000 C   0  0  0  0  0  0  0  0  0  0  0  0
    5.5437   10.0227    0.0000 C   0  0  0  0  0  0  0  0  0  0  0  0
    4.3646   10.9500    0.0000 N   0  0  0  0  0  0  0  0  0  0  0  0
    4.5781   12.4347    0.0000 C   0  0  0  0  0  0  0  0  0  0  0  0
    3.3990   13.3619    0.0000 O   0  0  0  0  0  0  0  0  0  0  0  0
    5.9707   12.9922    0.0000 C   0  0  0  0  0  0  0  0  0  0  0  0
    7.1498   12.0650    0.0000 C   0  0  0  0  0  0  0  0  0  0  0  0
    8.5423   12.6225    0.0000 C   0  0  0  0  0  0  0  0  0  0  0  0
    8.7558   14.1072    0.0000 C   0  0  0  0  0  0  0  0  0  0  0  0
    7.5767   15.0344    0.0000 C   0  0  0  0  0  0  0  0  0  0  0  0
    6.1841   14.4769    0.0000 C   0  0  0  0  0  0  0  0  0  0  0  0
    2.9721   10.3925    0.0000 C   0  0  0  0  0  0  0  0  0  0  0  0
    1.7930   11.3197    0.0000 C   0  0  0  0  0  0  0  0  0  0  0  0
    2.7586    8.9077    0.0000 C   0  0  0  0  0  0  0  0  0  0  0  0
    5.0887    5.8727    0.0000 C   0  0  0  0  0  0  0  0  0  0  0  0
  1  2  1  0
  2  3  1  0
  3  4  2  0
  4  5  1  0
  5  6  1  0
  5  7  1  0
  7  8  1  0
  8  9  2  0
  8 10  1  0
 10 11  1  0
 11 12  1  0
 12 13  2  0
 13 14  1  0
 14 15  2  0
 15 16  1  0
 16 17  2  0
 17 18  1  0
 18 19  2  0
 19 20  1  0
 20 21  2  0
 21 22  1  0
 22 23  1  0
 23 24  1  0
 24 25  1  0
 25 26  1  0
 26 27  1  0
 27 28  2  0
 27 29  1  0
 29 30  2  0
 30 31  1  0
 31 32  2  0
 32 33  1  0
 33 34  2  0
 26 35  1  0
 35 36  1  0
 35 37  1  0
 22 38  1  0
 38  2  1  0
 18  7  1  0
 37 23  1  0
 34 29  1  0
M  END
>  <Title>  (736) 
idABAJgen8

$$$$

     RDKit          2D

 22 23  0  0  0  0  0  0  0  0999 V2000
    3.0000    0.0000    0.0000 C   0  0  0  0  0  0  0  0  0  0  0  0
    1.5000    0.0000    0.0000 C   0  0  0  0  0  0  0  0  0  0  0  0
    0.7500   -1.2990    0.0000 C   0  0  0  0  0  0  0  0  0  0  0  0
   -0.7500   -1.2990    0.0000 C   0  0  0  0  0  0  0  0  0  0  0  0
   -1.5000    0.0000    0.0000 C   0  0  0  0  0  0  0  0  0  0  0  0
   -3.0000    0.0000    0.0000 C   0  0  0  0  0  0  0  0  0  0  0  0
   -0.7500    1.2990    0.0000 C   0  0  0  0  0  0  0  0  0  0  0  0
   -1.5000    2.5981    0.0000 N   0  0  0  0  0  0  0  0  0  0  0  0
   -0.7500    3.8971    0.0000 N   0  0  0  0  0  0  0  0  0  0  0  0
   -1.5000    5.1962    0.0000 N   0  0  0  0  0  0  0  0  0  0  0  0
   -0.7500    6.4952    0.0000 N   0  0  0  0  0  0  0  0  0  0  0  0
   -1.5000    7.7942    0.0000 N   0  0  0  0  0  0  0  0  0  0  0  0
   -0.7500    9.0933    0.0000 N   0  0  0  0  0  0  0  0  0  0  0  0
   -1.5000   10.3923    0.0000 N   0  0  0  0  0  0  0  0  0  0  0  0
   -0.7500   11.6913    0.0000 N   0  0  0  0  0  0  0  0  0  0  0  0
   -1.5000   12.9904    0.0000 C   0  0  0  0  0  0  0  0  0  0  0  0
   -2.9918   13.1472    0.0000 C   0  0  0  0  0  0  0  0  0  0  0  0
   -3.3037   14.6144    0.0000 C   0  0  0  0  0  0  0  0  0  0  0  0
   -2.0046   15.3644    0.0000 C   0  0  0  0  0  0  0  0  0  0  0  0
   -1.8478   16.8562    0.0000 O   0  0  0  0  0  0  0  0  0  0  0  0
   -0.8899   14.3607    0.0000 N   0  0  0  0  0  0  0  0  0  0  0  0
    0.7500    1.2990    0.0000 N   0  0  0  0  0  0  0  0  0  0  0  0
  1  2  1  0
  2  3  1  0
  3  4  2  0
  4  5  1  0
  5  6  1  0
  5  7  1  0
  7  8  2  3
  8  9  1  0
  9 10  2  3
 10 11  1  0
 11 12  2  3
 12 13  1  0
 13 14  2  3
 14 15  1  0
 15 16  2  3
 16 17  1  0
 17 18  1  0
 18 19  1  0
 19 20  2  0
 19 21  1  0
  7 22  1  0
 22  2  1  0
 21 16  1  0
M  END
>  <Title>  (737) 
idABAKgen8

$$$$

     RDKit          2D

  9  9  0  0  0  0  0  0  0  0999 V2000
    3.0000    0.0000    0.0000 C   0  0  0  0  0  0  0  0  0  0  0  0
    1.5000    0.0000    0.0000 C   0  0  0  0  0  0  0  0  0  0  0  0
    0.7500   -1.2990    0.0000 C   0  0  0  0  0  0  0  0  0  0  0  0
   -0.7500   -1.2990    0.0000 C   0  0  0  0  0  0  0  0  0  0  0  0
   -1.5000    0.0000    0.0000 C   0  0  0  0  0  0  0  0  0  0  0  0
   -3.0000    0.0000    0.0000 C   0  0  0  0  0  0  0  0  0  0  0  0
   -4.5000    0.0000    0.0000 N   0  0  0  0  0  0  0  0  0  0  0  0
   -0.7500    1.2990    0.0000 C   0  0  0  0  0  0  0  0  0  0  0  0
    0.7500    1.2990    0.0000 C   0  0  0  0  0  0  0  0  0  0  0  0
  1  2  1  0
  2  3  2  0
  3  4  1  0
  4  5  1  0
  5  6  1  0
  6  7  3  0
  5  8  1  0
  8  9  1  0
  9  2  1  0
M  END
>  <Title>  (738) 
idABALgen8

$$$$

     RDKit          2D

107107  0  0  0  0  0  0  0  0999 V2000
   26.3319    0.0000    0.0000 C   0  0  0  0  0  0  0  0  0  0  0  0
   24.8319    0.0000    0.0000 C   0  0  0  0  0  0  0  0  0  0  0  0
   24.7866   -1.4993    0.0000 C   0  0  0  0  0  0  0  0  0  0  0  0
   24.6509   -2.9932    0.0000 C   0  0  0  0  0  0  0  0  0  0  0  0
   24.4252   -4.4761    0.0000 C   0  0  0  0  0  0  0  0  0  0  0  0
   24.1104   -5.9427    0.0000 C   0  0  0  0  0  0  0  0  0  0  0  0
   23.7076   -7.3876    0.0000 C   0  0  0  0  0  0  0  0  0  0  0  0
   23.2183   -8.8055    0.0000 C   0  0  0  0  0  0  0  0  0  0  0  0
   22.6442  -10.1913    0.0000 C   0  0  0  0  0  0  0  0  0  0  0  0
   21.9876  -11.5400    0.0000 C   0  0  0  0  0  0  0  0  0  0  0  0
   21.2507  -12.8465    0.0000 C   0  0  0  0  0  0  0  0  0  0  0  0
   20.4363  -14.1062    0.0000 C   0  0  0  0  0  0  0  0  0  0  0  0
   19.5473  -15.3143    0.0000 C   0  0  0  0  0  0  0  0  0  0  0  0
   18.5870  -16.4666    0.0000 C   0  0  0  0  0  0  0  0  0  0  0  0
   17.5588  -17.5588    0.0000 C   0  0  0  0  0  0  0  0  0  0  0  0
   16.4666  -18.5870    0.0000 C   0  0  0  0  0  0  0  0  0  0  0  0
   15.3143  -19.5473    0.0000 C   0  0  0  0  0  0  0  0  0  0  0  0
   14.1062  -20.4363    0.0000 C   0  0  0  0  0  0  0  0  0  0  0  0
   12.8465  -21.2507    0.0000 C   0  0  0  0  0  0  0  0  0  0  0  0
   11.5400  -21.9876    0.0000 C   0  0  0  0  0  0  0  0  0  0  0  0
   10.1913  -22.6442    0.0000 C   0  0  0  0  0  0  0  0  0  0  0  0
    8.8055  -23.2183    0.0000 C   0  0  0  0  0  0  0  0  0  0  0  0
    7.3876  -23.7076    0.0000 C   0  0  0  0  0  0  0  0  0  0  0  0
    5.9427  -24.1104    0.0000 C   0  0  0  0  0  0  0  0  0  0  0  0
    4.4761  -24.4252    0.0000 C   0  0  0  0  0  0  0  0  0  0  0  0
    2.9932  -24.6509    0.0000 C   0  0  0  0  0  0  0  0  0  0  0  0
    1.4993  -24.7866    0.0000 C   0  0  0  0  0  0  0  0  0  0  0  0
   -0.0000  -24.8319    0.0000 C   0  0  0  0  0  0  0  0  0  0  0  0
   -1.4993  -24.7866    0.0000 C   0  0  0  0  0  0  0  0  0  0  0  0
   -2.9932  -24.6509    0.0000 C   0  0  0  0  0  0  0  0  0  0  0  0
   -4.4761  -24.4252    0.0000 C   0  0  0  0  0  0  0  0  0  0  0  0
   -5.9427  -24.1104    0.0000 C   0  0  0  0  0  0  0  0  0  0  0  0
   -7.3876  -23.7076    0.0000 C   0  0  0  0  0  0  0  0  0  0  0  0
   -8.8055  -23.2183    0.0000 C   0  0  0  0  0  0  0  0  0  0  0  0
  -10.1913  -22.6442    0.0000 C   0  0  0  0  0  0  0  0  0  0  0  0
  -11.5400  -21.9876    0.0000 C   0  0  0  0  0  0  0  0  0  0  0  0
  -12.8465  -21.2507    0.0000 C   0  0  0  0  0  0  0  0  0  0  0  0
  -14.1062  -20.4363    0.0000 C   0  0  0  0  0  0  0  0  0  0  0  0
  -15.3143  -19.5473    0.0000 C   0  0  0  0  0  0  0  0  0  0  0  0
  -16.4666  -18.5870    0.0000 C   0  0  0  0  0  0  0  0  0  0  0  0
  -17.5588  -17.5588    0.0000 C   0  0  0  0  0  0  0  0  0  0  0  0
  -18.5870  -16.4666    0.0000 C   0  0  0  0  0  0  0  0  0  0  0  0
  -19.5473  -15.3143    0.0000 C   0  0  0  0  0  0  0  0  0  0  0  0
  -20.4363  -14.1062    0.0000 C   0  0  0  0  0  0  0  0  0  0  0  0
  -21.2507  -12.8465    0.0000 C   0  0  0  0  0  0  0  0  0  0  0  0
  -21.9876  -11.5400    0.0000 C   0  0  0  0  0  0  0  0  0  0  0  0
  -22.6442  -10.1913    0.0000 C   0  0  0  0  0  0  0  0  0  0  0  0
  -23.2183   -8.8055    0.0000 C   0  0  0  0  0  0  0  0  0  0  0  0
  -23.7076   -7.3876    0.0000 C   0  0  0  0  0  0  0  0  0  0  0  0
  -24.1104   -5.9427    0.0000 C   0  0  0  0  0  0  0  0  0  0  0  0
  -24.4252   -4.4761    0.0000 C   0  0  0  0  0  0  0  0  0  0  0  0
  -24.6509   -2.9932    0.0000 C   0  0  0  0  0  0  0  0  0  0  0  0
  -24.7866   -1.4993    0.0000 C   0  0  0  0  0  0  0  0  0  0  0  0
  -24.8319    0.0000    0.0000 C   0  0  0  0  0  0  0  0  0  0  0  0
  -24.7866    1.4993    0.0000 C   0  0  0  0  0  0  0  0  0  0  0  0
  -24.6509    2.9932    0.0000 C   0  0  0  0  0  0  0  0  0  0  0  0
  -24.4252    4.4761    0.0000 C   0  0  0  0  0  0  0  0  0  0  0  0
  -24.1104    5.9427    0.0000 C   0  0  0  0  0  0  0  0  0  0  0  0
  -23.7076    7.3876    0.0000 C   0  0  0  0  0  0  0  0  0  0  0  0
  -23.2183    8.8055    0.0000 C   0  0  0  0  0  0  0  0  0  0  0  0
  -22.6442   10.1913    0.0000 C   0  0  0  0  0  0  0  0  0  0  0  0
  -21.9876   11.5400    0.0000 C   0  0  0  0  0  0  0  0  0  0  0  0
  -21.2507   12.8465    0.0000 C   0  0  0  0  0  0  0  0  0  0  0  0
  -20.4363   14.1062    0.0000 C   0  0  0  0  0  0  0  0  0  0  0  0
  -19.5473   15.3143    0.0000 C   0  0  0  0  0  0  0  0  0  0  0  0
  -18.5870   16.4666    0.0000 C   0  0  0  0  0  0  0  0  0  0  0  0
  -17.5588   17.5588    0.0000 C   0  0  0  0  0  0  0  0  0  0  0  0
  -16.4666   18.5870    0.0000 C   0  0  0  0  0  0  0  0  0  0  0  0
  -15.3143   19.5473    0.0000 C   0  0  0  0  0  0  0  0  0  0  0  0
  -14.1062   20.4363    0.0000 C   0  0  0  0  0  0  0  0  0  0  0  0
  -12.8465   21.2507    0.0000 C   0  0  0  0  0  0  0  0  0  0  0  0
  -11.5400   21.9876    0.0000 C   0  0  0  0  0  0  0  0  0  0  0  0
  -10.1913   22.6442    0.0000 C   0  0  0  0  0  0  0  0  0  0  0  0
   -8.8055   23.2183    0.0000 C   0  0  0  0  0  0  0  0  0  0  0  0
   -7.3876   23.7076    0.0000 C   0  0  0  0  0  0  0  0  0  0  0  0
   -5.9427   24.1104    0.0000 C   0  0  0  0  0  0  0  0  0  0  0  0
   -4.4761   24.4252    0.0000 C   0  0  0  0  0  0  0  0  0  0  0  0
   -2.9932   24.6509    0.0000 C   0  0  0  0  0  0  0  0  0  0  0  0
   -1.4993   24.7866    0.0000 C   0  0  0  0  0  0  0  0  0  0  0  0
    0.0000   24.8319    0.0000 C   0  0  0  0  0  0  0  0  0  0  0  0
    1.4993   24.7866    0.0000 C   0  0  0  0  0  0  0  0  0  0  0  0
    2.9932   24.6509    0.0000 C   0  0  0  0  0  0  0  0  0  0  0  0
    4.4761   24.4252    0.0000 C   0  0  0  0  0  0  0  0  0  0  0  0
    5.9427   24.1104    0.0000 C   0  0  0  0  0  0  0  0  0  0  0  0
    7.3876   23.7076    0.0000 C   0  0  0  0  0  0  0  0  0  0  0  0
    8.8055   23.2183    0.0000 C   0  0  0  0  0  0  0  0  0  0  0  0
   10.1913   22.6442    0.0000 C   0  0  0  0  0  0  0  0  0  0  0  0
   11.5400   21.9876    0.0000 C   0  0  0  0  0  0  0  0  0  0  0  0
   12.8465   21.2507    0.0000 C   0  0  0  0  0  0  0  0  0  0  0  0
   14.1062   20.4363    0.0000 C   0  0  0  0  0  0  0  0  0  0  0  0
   15.3143   19.5473    0.0000 C   0  0  0  0  0  0  0  0  0  0  0  0
   16.4666   18.5870    0.0000 C   0  0  0  0  0  0  0  0  0  0  0  0
   17.5588   17.5588    0.0000 C   0  0  0  0  0  0  0  0  0  0  0  0
   18.5870   16.4666    0.0000 C   0  0  0  0  0  0  0  0  0  0  0  0
   19.5473   15.3143    0.0000 C   0  0  0  0  0  0  0  0  0  0  0  0
   20.4363   14.1062    0.0000 C   0  0  0  0  0  0  0  0  0  0  0  0
   21.2507   12.8465    0.0000 C   0  0  0  0  0  0  0  0  0  0  0  0
   21.9876   11.5400    0.0000 C   0  0  0  0  0  0  0  0  0  0  0  0
   22.6442   10.1913    0.0000 C   0  0  0  0  0  0  0  0  0  0  0  0
   23.2183    8.8055    0.0000 C   0  0  0  0  0  0  0  0  0  0  0  0
   23.7076    7.3876    0.0000 C   0  0  0  0  0  0  0  0  0  0  0  0
   24.1104    5.9427    0.0000 C   0  0  0  0  0  0  0  0  0  0  0  0
   24.4252    4.4761    0.0000 C   0  0  0  0  0  0  0  0  0  0  0  0
   24.6509    2.9932    0.0000 C   0  0  0  0  0  0  0  0  0  0  0  0
   26.1400    3.1740    0.0000 C   0  0  0  0  0  0  0  0  0  0  0  0
   27.6290    3.3548    0.0000 N   0  0  0  0  0  0  0  0  0  0  0  0
   24.7866    1.4993    0.0000 C   0  0  0  0  0  0  0  0  0  0  0  0
  1  2  1  0
  2  3  1  0
  3  4  1  0
  4  5  1  0
  5  6  1  0
  6  7  1  0
  7  8  1  0
  8  9  1  0
  9 10  1  0
 10 11  1  0
 11 12  1  0
 12 13  1  0
 13 14  1  0
 14 15  1  0
 15 16  1  0
 16 17  1  0
 17 18  1  0
 18 19  1  0
 19 20  1  0
 20 21  1  0
 21 22  1  0
 22 23  1  0
 23 24  1  0
 24 25  1  0
 25 26  1  0
 26 27  1  0
 27 28  1  0
 28 29  1  0
 29 30  1  0
 30 31  1  0
 31 32  1  0
 32 33  1  0
 33 34  1  0
 34 35  1  0
 35 36  1  0
 36 37  1  0
 37 38  1  0
 38 39  1  0
 39 40  1  0
 40 41  1  0
 41 42  1  0
 42 43  1  0
 43 44  1  0
 44 45  1  0
 45 46  1  0
 46 47  1  0
 47 48  1  0
 48 49  1  0
 49 50  1  0
 50 51  1  0
 51 52  1  0
 52 53  1  0
 53 54  1  0
 54 55  1  0
 55 56  1  0
 56 57  1  0
 57 58  1  0
 58 59  1  0
 59 60  1  0
 60 61  1  0
 61 62  1  0
 62 63  1  0
 63 64  1  0
 64 65  1  0
 65 66  1  0
 66 67  1  0
 67 68  1  0
 68 69  1  0
 69 70  1  0
 70 71  1  0
 71 72  1  0
 72 73  1  0
 73 74  1  0
 74 75  1  0
 75 76  1  0
 76 77  1  0
 77 78  1  0
 78 79  1  0
 79 80  1  0
 80 81  1  0
 81 82  1  0
 82 83  1  0
 83 84  1  0
 84 85  1  0
 85 86  1  0
 86 87  1  0
 87 88  1  0
 88 89  1  0
 89 90  1  0
 90 91  1  0
 91 92  1  0
 92 93  1  0
 93 94  1  0
 94 95  1  0
 95 96  1  0
 96 97  1  0
 97 98  1  0
 98 99  1  0
 99100  1  0
100101  1  0
101102  1  0
102103  1  0
103104  1  0
104105  1  0
105106  3  0
104107  1  0
107  2  1  0
M  END
>  <Title>  (739) 
idABAMgen8

$$$$

     RDKit          2D

  8  8  0  0  0  0  0  0  0  0999 V2000
    5.0260   -1.2990    0.0000 N   0  0  0  0  0  0  0  0  0  0  0  0
    3.5260   -1.2990    0.0000 C   0  0  0  0  0  0  0  0  0  0  0  0
    2.7760    0.0000    0.0000 C   0  0  0  0  0  0  0  0  0  0  0  0
    1.2760    0.0000    0.0000 C   0  0  0  0  0  0  0  0  0  0  0  0
    0.3943    1.2135    0.0000 C   0  0  0  0  0  0  0  0  0  0  0  0
   -1.0323    0.7500    0.0000 C   0  0  0  0  0  0  0  0  0  0  0  0
   -1.0323   -0.7500    0.0000 C   0  0  0  0  0  0  0  0  0  0  0  0
    0.3943   -1.2135    0.0000 C   0  0  0  0  0  0  0  0  0  0  0  0
  1  2  1  0
  2  3  1  0
  3  4  1  0
  4  5  2  0
  5  6  1  0
  6  7  1  0
  7  8  2  0
  8  4  1  0
M  END
>  <Title>  (740) 
idABANgen8

$$$$

     RDKit          2D

  8  8  0  0  0  0  0  0  0  0999 V2000
    3.0000    0.0000    0.0000 C   0  0  0  0  0  0  0  0  0  0  0  0
    1.5000    0.0000    0.0000 C   0  0  0  0  0  0  0  0  0  0  0  0
    0.7500   -1.2990    0.0000 C   0  0  0  0  0  0  0  0  0  0  0  0
   -0.7500   -1.2990    0.0000 C   0  0  0  0  0  0  0  0  0  0  0  0
   -1.5000    0.0000    0.0000 C   0  0  0  0  0  0  0  0  0  0  0  0
   -3.0000    0.0000    0.0000 F   0  0  0  0  0  0  0  0  0  0  0  0
   -0.7500    1.2990    0.0000 C   0  0  0  0  0  0  0  0  0  0  0  0
    0.7500    1.2990    0.0000 C   0  0  0  0  0  0  0  0  0  0  0  0
  1  2  1  0
  2  3  2  0
  3  4  1  0
  4  5  1  0
  5  6  1  0
  5  7  2  0
  7  8  1  0
  8  2  1  0
M  END
>  <Title>  (741) 
idABAOgen8

$$$$

     RDKit          2D

 10 10  0  0  0  0  0  0  0  0999 V2000
    3.4598   -0.0000    0.0000 C   0  0  0  0  0  0  0  0  0  0  0  0
    1.9598    0.0000    0.0000 C   0  0  0  0  0  0  0  0  0  0  0  0
    1.3858   -1.3858    0.0000 C   0  0  0  0  0  0  0  0  0  0  0  0
   -0.0000   -1.9598    0.0000 C   0  0  0  0  0  0  0  0  0  0  0  0
   -1.3858   -1.3858    0.0000 C   0  0  0  0  0  0  0  0  0  0  0  0
   -2.4465   -2.4465    0.0000 O   0  0  0  0  0  0  0  0  0  0  0  0
   -1.9598    0.0000    0.0000 C   0  0  0  0  0  0  0  0  0  0  0  0
   -1.3858    1.3858    0.0000 C   0  0  0  0  0  0  0  0  0  0  0  0
    0.0000    1.9598    0.0000 C   0  0  0  0  0  0  0  0  0  0  0  0
    1.3858    1.3858    0.0000 C   0  0  0  0  0  0  0  0  0  0  0  0
  1  2  1  0
  2  3  2  0
  3  4  1  0
  4  5  1  0
  5  6  1  0
  5  7  2  0
  7  8  2  0
  8  9  1  0
  9 10  2  0
 10  2  1  0
M  END
>  <Title>  (742) 
idABAPgen8

$$$$

     RDKit          2D

 50 57  0  0  0  0  0  0  0  0999 V2000
    5.2417   -6.1122    0.0000 C   0  0  0  0  0  0  0  0  0  0  0  0
    3.7705   -5.8195    0.0000 C   0  0  0  0  0  0  0  0  0  0  0  0
    3.7705   -4.3195    0.0000 C   0  0  0  0  0  0  0  0  0  0  0  0
    3.1965   -2.9337    0.0000 C   0  0  0  0  0  0  0  0  0  0  0  0
    2.1358   -1.8731    0.0000 C   0  0  0  0  0  0  0  0  0  0  0  0
    2.9692   -0.6259    0.0000 C   0  0  0  0  0  0  0  0  0  0  0  0
    2.3057    0.7195    0.0000 O   0  0  0  0  0  0  0  0  0  0  0  0
    4.4660   -0.7240    0.0000 N   0  0  0  0  0  0  0  0  0  0  0  0
    5.2993    0.5232    0.0000 C   0  0  0  0  0  0  0  0  0  0  0  0
    6.7961    0.4251    0.0000 N   0  0  0  0  0  0  0  0  0  0  0  0
    7.6295    1.6723    0.0000 N   0  0  0  0  0  0  0  0  0  0  0  0
    6.9660    3.0176    0.0000 N   0  0  0  0  0  0  0  0  0  0  0  0
    5.4692    3.1158    0.0000 N   0  0  0  0  0  0  0  0  0  0  0  0
    4.6359    1.8686    0.0000 N   0  0  0  0  0  0  0  0  0  0  0  0
    0.7500   -1.2990    0.0000 C   0  0  0  0  0  0  0  0  0  0  0  0
    1.5000    0.0000    0.0000 C   0  0  0  0  0  0  0  0  0  0  0  0
    0.7500    1.2990    0.0000 C   0  0  0  0  0  0  0  0  0  0  0  0
   -0.7500    1.2990    0.0000 C   0  0  0  0  0  0  0  0  0  0  0  0
   -1.5000    0.0000    0.0000 C   0  0  0  0  0  0  0  0  0  0  0  0
   -0.7500   -1.2990    0.0000 C   0  0  0  0  0  0  0  0  0  0  0  0
   -2.1358   -1.8731    0.0000 C   0  0  0  0  0  0  0  0  0  0  0  0
   -2.5240   -0.4242    0.0000 C   0  0  0  0  0  0  0  0  0  0  0  0
   -3.9729   -0.0359    0.0000 C   0  0  0  0  0  0  0  0  0  0  0  0
   -5.0336   -1.0966    0.0000 C   0  0  0  0  0  0  0  0  0  0  0  0
   -4.6454   -2.5455    0.0000 C   0  0  0  0  0  0  0  0  0  0  0  0
   -3.1965   -2.9337    0.0000 C   0  0  0  0  0  0  0  0  0  0  0  0
   -3.7705   -4.3195    0.0000 C   0  0  0  0  0  0  0  0  0  0  0  0
   -5.0695   -3.5695    0.0000 C   0  0  0  0  0  0  0  0  0  0  0  0
   -6.3686   -4.3195    0.0000 C   0  0  0  0  0  0  0  0  0  0  0  0
   -6.3686   -5.8195    0.0000 C   0  0  0  0  0  0  0  0  0  0  0  0
   -5.0695   -6.5695    0.0000 C   0  0  0  0  0  0  0  0  0  0  0  0
   -3.7705   -5.8195    0.0000 C   0  0  0  0  0  0  0  0  0  0  0  0
   -3.1965   -7.2054    0.0000 C   0  0  0  0  0  0  0  0  0  0  0  0
   -4.6454   -7.5936    0.0000 C   0  0  0  0  0  0  0  0  0  0  0  0
   -5.0336   -9.0425    0.0000 C   0  0  0  0  0  0  0  0  0  0  0  0
   -3.9729  -10.1031    0.0000 C   0  0  0  0  0  0  0  0  0  0  0  0
   -2.5240   -9.7149    0.0000 C   0  0  0  0  0  0  0  0  0  0  0  0
   -2.1358   -8.2660    0.0000 C   0  0  0  0  0  0  0  0  0  0  0  0
   -0.7500   -8.8400    0.0000 C   0  0  0  0  0  0  0  0  0  0  0  0
   -1.5000  -10.1391    0.0000 C   0  0  0  0  0  0  0  0  0  0  0  0
   -0.7500  -11.4381    0.0000 C   0  0  0  0  0  0  0  0  0  0  0  0
    0.7500  -11.4381    0.0000 C   0  0  0  0  0  0  0  0  0  0  0  0
    1.5000  -10.1391    0.0000 C   0  0  0  0  0  0  0  0  0  0  0  0
    0.7500   -8.8400    0.0000 C   0  0  0  0  0  0  0  0  0  0  0  0
    2.1358   -8.2660    0.0000 C   0  0  0  0  0  0  0  0  0  0  0  0
    2.5240   -9.7149    0.0000 C   0  0  0  0  0  0  0  0  0  0  0  0
    3.9729  -10.1031    0.0000 C   0  0  0  0  0  0  0  0  0  0  0  0
    5.0336   -9.0425    0.0000 C   0  0  0  0  0  0  0  0  0  0  0  0
    4.6454   -7.5936    0.0000 C   0  0  0  0  0  0  0  0  0  0  0  0
    3.1965   -7.2054    0.0000 C   0  0  0  0  0  0  0  0  0  0  0  0
  1  2  1  0
  2  3  2  0
  3  4  1  0
  4  5  2  0
  5  6  1  0
  6  7  2  0
  6  8  1  0
  8  9  1  0
  9 10  2  0
 10 11  1  0
 11 12  2  0
 12 13  1  0
 13 14  2  0
  5 15  1  0
 15 16  2  0
 16 17  1  0
 17 18  2  0
 18 19  1  0
 19 20  2  0
 20 21  1  0
 21 22  2  0
 22 23  1  0
 23 24  2  0
 24 25  1  0
 25 26  2  0
 26 27  1  0
 27 28  2  0
 28 29  1  0
 29 30  2  0
 30 31  1  0
 31 32  2  0
 32 33  1  0
 33 34  2  0
 34 35  1  0
 35 36  2  0
 36 37  1  0
 37 38  2  0
 38 39  1  0
 39 40  2  0
 40 41  1  0
 41 42  2  0
 42 43  1  0
 43 44  2  0
 44 45  1  0
 45 46  2  0
 46 47  1  0
 47 48  2  0
 48 49  1  0
 49 50  2  0
 50  2  1  0
 14  9  1  0
 20 15  1  0
 26 21  1  0
 32 27  1  0
 38 33  1  0
 44 39  1  0
 50 45  1  0
M  END
>  <Title>  (743) 
idABAQgen8

$$$$

     RDKit          2D

  9  9  0  0  0  0  0  0  0  0999 V2000
    5.2500   -1.2990    0.0000 C   0  0  0  0  0  0  0  0  0  0  0  0
    3.7500   -1.2990    0.0000 C   0  0  0  0  0  0  0  0  0  0  0  0
    3.0000    0.0000    0.0000 C   0  0  0  0  0  0  0  0  0  0  0  0
    1.5000    0.0000    0.0000 C   0  0  0  0  0  0  0  0  0  0  0  0
    0.7500   -1.2990    0.0000 C   0  0  0  0  0  0  0  0  0  0  0  0
   -0.7500   -1.2990    0.0000 C   0  0  0  0  0  0  0  0  0  0  0  0
   -1.5000    0.0000    0.0000 C   0  0  0  0  0  0  0  0  0  0  0  0
   -0.7500    1.2990    0.0000 C   0  0  0  0  0  0  0  0  0  0  0  0
    0.7500    1.2990    0.0000 C   0  0  0  0  0  0  0  0  0  0  0  0
  1  2  1  0
  2  3  1  0
  3  4  1  0
  4  5  2  0
  5  6  1  0
  6  7  1  0
  7  8  2  0
  8  9  1  0
  9  4  1  0
M  END
>  <Title>  (744) 
idABARgen8

$$$$

     RDKit          2D

  8  8  0  0  0  0  0  0  0  0999 V2000
    3.0000    0.0000    0.0000 C   0  0  0  0  0  0  0  0  0  0  0  0
    1.5000    0.0000    0.0000 C   0  0  0  0  0  0  0  0  0  0  0  0
    0.7500   -1.2990    0.0000 C   0  0  0  0  0  0  0  0  0  0  0  0
   -0.7500   -1.2990    0.0000 C   0  0  0  0  0  0  0  0  0  0  0  0
   -1.5000    0.0000    0.0000 C   0  0  0  0  0  0  0  0  0  0  0  0
   -3.0000    0.0000    0.0000 O   0  0  0  0  0  0  0  0  0  0  0  0
   -0.7500    1.2990    0.0000 C   0  0  0  0  0  0  0  0  0  0  0  0
    0.7500    1.2990    0.0000 C   0  0  0  0  0  0  0  0  0  0  0  0
  1  2  1  0
  2  3  1  0
  3  4  2  0
  4  5  1  0
  5  6  1  0
  5  7  1  0
  7  8  1  0
  8  2  1  0
M  END
>  <Title>  (745) 
idABASgen8

$$$$

     RDKit          2D

  9  9  0  0  0  0  0  0  0  0999 V2000
    3.0000    0.0000    0.0000 C   0  0  0  0  0  0  0  0  0  0  0  0
    1.5000    0.0000    0.0000 C   0  0  0  0  0  0  0  0  0  0  0  0
    0.7500   -1.2990    0.0000 C   0  0  0  0  0  0  0  0  0  0  0  0
   -0.7500   -1.2990    0.0000 C   0  0  0  0  0  0  0  0  0  0  0  0
   -1.5000    0.0000    0.0000 C   0  0  0  0  0  0  0  0  0  0  0  0
   -3.0000    0.0000    0.0000 C   0  0  0  0  0  0  0  0  0  0  0  0
   -4.5000    0.0000    0.0000 N   0  0  0  0  0  0  0  0  0  0  0  0
   -0.7500    1.2990    0.0000 C   0  0  0  0  0  0  0  0  0  0  0  0
    0.7500    1.2990    0.0000 C   0  0  0  0  0  0  0  0  0  0  0  0
  1  2  1  0
  2  3  1  0
  3  4  2  0
  4  5  1  0
  5  6  1  0
  6  7  3  0
  5  8  1  0
  8  9  1  0
  9  2  1  0
M  END
>  <Title>  (746) 
idABATgen8

$$$$

     RDKit          2D

 12 12  0  0  0  0  0  0  0  0999 V2000
    3.9271    0.0000    0.0000 C   0  0  0  0  0  0  0  0  0  0  0  0
    2.4271    0.0000    0.0000 C   0  0  0  0  0  0  0  0  0  0  0  0
    1.9635   -1.4266    0.0000 C   0  0  0  0  0  0  0  0  0  0  0  0
    0.7500   -2.3083    0.0000 C   0  0  0  0  0  0  0  0  0  0  0  0
   -0.7500   -2.3083    0.0000 C   0  0  0  0  0  0  0  0  0  0  0  0
   -1.9635   -1.4266    0.0000 C   0  0  0  0  0  0  0  0  0  0  0  0
   -2.4271    0.0000    0.0000 C   0  0  0  0  0  0  0  0  0  0  0  0
   -1.9635    1.4266    0.0000 C   0  0  0  0  0  0  0  0  0  0  0  0
   -0.7500    2.3083    0.0000 C   0  0  0  0  0  0  0  0  0  0  0  0
   -1.2135    3.7348    0.0000 C   0  0  0  0  0  0  0  0  0  0  0  0
    0.7500    2.3083    0.0000 C   0  0  0  0  0  0  0  0  0  0  0  0
    1.9635    1.4266    0.0000 C   0  0  0  0  0  0  0  0  0  0  0  0
  1  2  1  0
  2  3  1  0
  3  4  1  0
  4  5  1  0
  5  6  1  0
  6  7  1  0
  7  8  1  0
  8  9  1  0
  9 10  1  0
  9 11  1  0
 11 12  1  0
 12  2  1  0
M  END
>  <Title>  (747) 
idABAUgen8

$$$$

     RDKit          2D

 11 11  0  0  0  0  0  0  0  0999 V2000
    5.7760   -2.5981    0.0000 C   0  0  0  0  0  0  0  0  0  0  0  0
    5.0260   -1.2990    0.0000 C   0  0  0  0  0  0  0  0  0  0  0  0
    5.7760    0.0000    0.0000 O   0  0  0  0  0  0  0  0  0  0  0  0
    3.5260   -1.2990    0.0000 C   0  0  0  0  0  0  0  0  0  0  0  0
    2.7760   -2.5981    0.0000 O   0  0  0  0  0  0  0  0  0  0  0  0
    2.7760    0.0000    0.0000 N   0  0  0  0  0  0  0  0  0  0  0  0
    1.2760    0.0000    0.0000 C   0  0  0  0  0  0  0  0  0  0  0  0
    0.3943    1.2135    0.0000 C   0  0  0  0  0  0  0  0  0  0  0  0
   -1.0323    0.7500    0.0000 C   0  0  0  0  0  0  0  0  0  0  0  0
   -1.0323   -0.7500    0.0000 C   0  0  0  0  0  0  0  0  0  0  0  0
    0.3943   -1.2135    0.0000 C   0  0  0  0  0  0  0  0  0  0  0  0
  1  2  1  0
  2  3  2  0
  2  4  1  0
  4  5  2  0
  4  6  1  0
  6  7  1  0
  7  8  2  0
  8  9  1  0
  9 10  2  0
 10 11  1  0
 11  7  1  0
M  END
>  <Title>  (748) 
idABAVgen8

$$$$

     RDKit          2D

 44 50  0  0  0  0  0  0  0  0999 V2000
    4.3881   -6.6982    0.0000 C   0  0  0  0  0  0  0  0  0  0  0  0
    3.0367   -6.0474    0.0000 C   0  0  0  0  0  0  0  0  0  0  0  0
    3.3705   -4.5850    0.0000 C   0  0  0  0  0  0  0  0  0  0  0  0
    3.0367   -3.1226    0.0000 C   0  0  0  0  0  0  0  0  0  0  0  0
    2.1015   -1.9499    0.0000 C   0  0  0  0  0  0  0  0  0  0  0  0
    3.0367   -0.7771    0.0000 C   0  0  0  0  0  0  0  0  0  0  0  0
    2.4887    0.6192    0.0000 O   0  0  0  0  0  0  0  0  0  0  0  0
    4.5199   -1.0007    0.0000 N   0  0  0  0  0  0  0  0  0  0  0  0
    5.4552    0.1721    0.0000 C   0  0  0  0  0  0  0  0  0  0  0  0
    6.9384   -0.0515    0.0000 N   0  0  0  0  0  0  0  0  0  0  0  0
    7.8736    1.1213    0.0000 N   0  0  0  0  0  0  0  0  0  0  0  0
    7.3256    2.5176    0.0000 N   0  0  0  0  0  0  0  0  0  0  0  0
    5.8424    2.7411    0.0000 N   0  0  0  0  0  0  0  0  0  0  0  0
    4.9072    1.5684    0.0000 N   0  0  0  0  0  0  0  0  0  0  0  0
    0.7500   -1.2990    0.0000 C   0  0  0  0  0  0  0  0  0  0  0  0
    1.5000    0.0000    0.0000 C   0  0  0  0  0  0  0  0  0  0  0  0
    0.7500    1.2990    0.0000 C   0  0  0  0  0  0  0  0  0  0  0  0
   -0.7500    1.2990    0.0000 C   0  0  0  0  0  0  0  0  0  0  0  0
   -1.5000    0.0000    0.0000 C   0  0  0  0  0  0  0  0  0  0  0  0
   -0.7500   -1.2990    0.0000 C   0  0  0  0  0  0  0  0  0  0  0  0
   -2.1015   -1.9499    0.0000 C   0  0  0  0  0  0  0  0  0  0  0  0
   -2.6495   -0.5536    0.0000 C   0  0  0  0  0  0  0  0  0  0  0  0
   -4.1327   -0.3300    0.0000 C   0  0  0  0  0  0  0  0  0  0  0  0
   -5.0679   -1.5027    0.0000 C   0  0  0  0  0  0  0  0  0  0  0  0
   -4.5199   -2.8990    0.0000 C   0  0  0  0  0  0  0  0  0  0  0  0
   -3.0367   -3.1226    0.0000 C   0  0  0  0  0  0  0  0  0  0  0  0
   -3.3705   -4.5850    0.0000 C   0  0  0  0  0  0  0  0  0  0  0  0
   -4.8038   -4.1429    0.0000 C   0  0  0  0  0  0  0  0  0  0  0  0
   -5.9034   -5.1631    0.0000 C   0  0  0  0  0  0  0  0  0  0  0  0
   -5.5696   -6.6255    0.0000 C   0  0  0  0  0  0  0  0  0  0  0  0
   -4.1363   -7.0677    0.0000 C   0  0  0  0  0  0  0  0  0  0  0  0
   -3.0367   -6.0474    0.0000 C   0  0  0  0  0  0  0  0  0  0  0  0
   -2.1015   -7.2201    0.0000 C   0  0  0  0  0  0  0  0  0  0  0  0
   -3.3408   -8.0651    0.0000 C   0  0  0  0  0  0  0  0  0  0  0  0
   -3.2287   -9.5609    0.0000 C   0  0  0  0  0  0  0  0  0  0  0  0
   -1.8773  -10.2118    0.0000 C   0  0  0  0  0  0  0  0  0  0  0  0
   -0.6379   -9.3668    0.0000 C   0  0  0  0  0  0  0  0  0  0  0  0
   -0.7500   -7.8710    0.0000 C   0  0  0  0  0  0  0  0  0  0  0  0
    0.7500   -7.8710    0.0000 C   0  0  0  0  0  0  0  0  0  0  0  0
    0.6379   -9.3668    0.0000 C   0  0  0  0  0  0  0  0  0  0  0  0
    1.8773  -10.2118    0.0000 C   0  0  0  0  0  0  0  0  0  0  0  0
    3.2287   -9.5609    0.0000 C   0  0  0  0  0  0  0  0  0  0  0  0
    3.3408   -8.0651    0.0000 C   0  0  0  0  0  0  0  0  0  0  0  0
    2.1015   -7.2201    0.0000 C   0  0  0  0  0  0  0  0  0  0  0  0
  1  2  1  0
  2  3  1  0
  3  4  1  0
  4  5  1  0
  5  6  1  0
  6  7  2  0
  6  8  1  0
  8  9  1  0
  9 10  2  0
 10 11  1  0
 11 12  2  0
 12 13  1  0
 13 14  2  0
  5 15  1  0
 15 16  2  0
 16 17  1  0
 17 18  2  0
 18 19  1  0
 19 20  2  0
 20 21  1  0
 21 22  2  0
 22 23  1  0
 23 24  2  0
 24 25  1  0
 25 26  2  0
 26 27  1  0
 27 28  2  0
 28 29  1  0
 29 30  2  0
 30 31  1  0
 31 32  2  0
 32 33  1  0
 33 34  2  0
 34 35  1  0
 35 36  2  0
 36 37  1  0
 37 38  2  0
 38 39  1  0
 39 40  2  0
 40 41  1  0
 41 42  2  0
 42 43  1  0
 43 44  2  0
 44  2  1  0
 14  9  1  0
 20 15  1  0
 26 21  1  0
 32 27  1  0
 38 33  1  0
 44 39  1  0
M  END
>  <Title>  (749) 
idABAWgen8

$$$$

     RDKit          2D

  6  6  0  0  0  0  0  0  0  0999 V2000
    2.1213    1.0607    0.0000 C   0  0  0  0  0  0  0  0  0  0  0  0
    1.0607    0.0000    0.0000 C   0  0  0  0  0  0  0  0  0  0  0  0
    2.1213   -1.0607    0.0000 C   0  0  0  0  0  0  0  0  0  0  0  0
   -0.0000   -1.0607    0.0000 C   0  0  0  0  0  0  0  0  0  0  0  0
   -1.0607    0.0000    0.0000 C   0  0  0  0  0  0  0  0  0  0  0  0
    0.0000    1.0607    0.0000 C   0  0  0  0  0  0  0  0  0  0  0  0
  1  2  1  0
  2  3  1  0
  2  4  1  0
  4  5  1  0
  5  6  1  0
  6  2  1  0
M  END
>  <Title>  (750) 
idABAXgen8

$$$$

     RDKit          2D

 47 53  0  0  0  0  0  0  0  0999 V2000
    2.0163  -10.5159    0.0000 C   0  0  0  0  0  0  0  0  0  0  0  0
    1.4745   -9.1172    0.0000 C   0  0  0  0  0  0  0  0  0  0  0  0
    2.7498   -8.3276    0.0000 C   0  0  0  0  0  0  0  0  0  0  0  0
    3.6537   -7.1305    0.0000 C   0  0  0  0  0  0  0  0  0  0  0  0
    4.0642   -5.6878    0.0000 C   0  0  0  0  0  0  0  0  0  0  0  0
    3.9258   -4.1942    0.0000 C   0  0  0  0  0  0  0  0  0  0  0  0
    3.2572   -2.8514    0.0000 C   0  0  0  0  0  0  0  0  0  0  0  0
    2.1487   -1.8409    0.0000 C   0  0  0  0  0  0  0  0  0  0  0  0
    2.9384   -0.5656    0.0000 C   0  0  0  0  0  0  0  0  0  0  0  0
    2.2287    0.7559    0.0000 O   0  0  0  0  0  0  0  0  0  0  0  0
    4.4376   -0.6118    0.0000 N   0  0  0  0  0  0  0  0  0  0  0  0
    5.2273    0.6636    0.0000 C   0  0  0  0  0  0  0  0  0  0  0  0
    6.7266    0.6174    0.0000 N   0  0  0  0  0  0  0  0  0  0  0  0
    7.5162    1.8927    0.0000 N   0  0  0  0  0  0  0  0  0  0  0  0
    6.8066    3.2142    0.0000 N   0  0  0  0  0  0  0  0  0  0  0  0
    5.3073    3.2604    0.0000 N   0  0  0  0  0  0  0  0  0  0  0  0
    4.5177    1.9851    0.0000 N   0  0  0  0  0  0  0  0  0  0  0  0
    0.7500   -1.2990    0.0000 C   0  0  0  0  0  0  0  0  0  0  0  0
    1.5000    0.0000    0.0000 C   0  0  0  0  0  0  0  0  0  0  0  0
    0.7500    1.2990    0.0000 C   0  0  0  0  0  0  0  0  0  0  0  0
   -0.7500    1.2990    0.0000 C   0  0  0  0  0  0  0  0  0  0  0  0
   -1.5000    0.0000    0.0000 C   0  0  0  0  0  0  0  0  0  0  0  0
   -0.7500   -1.2990    0.0000 C   0  0  0  0  0  0  0  0  0  0  0  0
   -2.1487   -1.8409    0.0000 C   0  0  0  0  0  0  0  0  0  0  0  0
   -2.4696   -0.3756    0.0000 C   0  0  0  0  0  0  0  0  0  0  0  0
   -3.8990    0.0791    0.0000 C   0  0  0  0  0  0  0  0  0  0  0  0
   -5.0075   -0.9314    0.0000 C   0  0  0  0  0  0  0  0  0  0  0  0
   -4.6866   -2.3967    0.0000 C   0  0  0  0  0  0  0  0  0  0  0  0
   -3.2572   -2.8514    0.0000 C   0  0  0  0  0  0  0  0  0  0  0  0
   -3.9258   -4.1942    0.0000 C   0  0  0  0  0  0  0  0  0  0  0  0
   -5.1501   -3.3275    0.0000 C   0  0  0  0  0  0  0  0  0  0  0  0
   -6.5128   -3.9545    0.0000 C   0  0  0  0  0  0  0  0  0  0  0  0
   -6.6512   -5.4481    0.0000 C   0  0  0  0  0  0  0  0  0  0  0  0
   -5.4269   -6.3147    0.0000 C   0  0  0  0  0  0  0  0  0  0  0  0
   -4.0642   -5.6878    0.0000 C   0  0  0  0  0  0  0  0  0  0  0  0
   -3.6537   -7.1305    0.0000 C   0  0  0  0  0  0  0  0  0  0  0  0
   -5.1424   -7.3149    0.0000 C   0  0  0  0  0  0  0  0  0  0  0  0
   -5.7270   -8.6962    0.0000 C   0  0  0  0  0  0  0  0  0  0  0  0
   -4.8231   -9.8932    0.0000 C   0  0  0  0  0  0  0  0  0  0  0  0
   -3.3345   -9.7089    0.0000 C   0  0  0  0  0  0  0  0  0  0  0  0
   -2.7498   -8.3276    0.0000 C   0  0  0  0  0  0  0  0  0  0  0  0
   -1.4745   -9.1172    0.0000 C   0  0  0  0  0  0  0  0  0  0  0  0
   -2.4504  -10.2563    0.0000 C   0  0  0  0  0  0  0  0  0  0  0  0
   -1.9519  -11.6710    0.0000 C   0  0  0  0  0  0  0  0  0  0  0  0
   -0.4774  -11.9467    0.0000 C   0  0  0  0  0  0  0  0  0  0  0  0
    0.4985  -10.8076    0.0000 C   0  0  0  0  0  0  0  0  0  0  0  0
   -0.0000   -9.3928    0.0000 C   0  0  0  0  0  0  0  0  0  0  0  0
  1  2  1  0
  2  3  1  0
  3  4  1  0
  4  5  1  0
  5  6  1  0
  6  7  1  0
  7  8  1  0
  8  9  1  0
  9 10  2  0
  9 11  1  0
 11 12  1  0
 12 13  2  0
 13 14  1  0
 14 15  2  0
 15 16  1  0
 16 17  2  0
  8 18  1  0
 18 19  2  0
 19 20  1  0
 20 21  2  0
 21 22  1  0
 22 23  2  0
 23 24  1  0
 24 25  2  0
 25 26  1  0
 26 27  2  0
 27 28  1  0
 28 29  2  0
 29 30  1  0
 30 31  2  0
 31 32  1  0
 32 33  2  0
 33 34  1  0
 34 35  2  0
 35 36  1  0
 36 37  2  0
 37 38  1  0
 38 39  2  0
 39 40  1  0
 40 41  2  0
 41 42  1  0
 42 43  2  0
 43 44  1  0
 44 45  2  0
 45 46  1  0
 46 47  2  0
 47  2  1  0
 17 12  1  0
 23 18  1  0
 29 24  1  0
 35 30  1  0
 41 36  1  0
 47 42  1  0
M  END
>  <Title>  (751) 
idABAYgen8

$$$$

     RDKit          2D

  7  7  0  0  0  0  0  0  0  0999 V2000
    3.0000    0.0000    0.0000 C   0  0  0  0  0  0  0  0  0  0  0  0
    1.5000    0.0000    0.0000 C   0  0  0  0  0  0  0  0  0  0  0  0
    0.7500   -1.2990    0.0000 C   0  0  0  0  0  0  0  0  0  0  0  0
   -0.7500   -1.2990    0.0000 C   0  0  0  0  0  0  0  0  0  0  0  0
   -1.5000    0.0000    0.0000 C   0  0  0  0  0  0  0  0  0  0  0  0
   -0.7500    1.2990    0.0000 C   0  0  0  0  0  0  0  0  0  0  0  0
    0.7500    1.2990    0.0000 C   0  0  0  0  0  0  0  0  0  0  0  0
  1  2  1  0
  2  3  2  0
  3  4  1  0
  4  5  2  0
  5  6  1  0
  6  7  2  0
  7  2  1  0
M  END
>  <Title>  (752) 
idABAZgen8

$$$$

     RDKit          2D

  7  6  0  0  0  0  0  0  0  0999 V2000
    0.0000    0.0000    0.0000 C   0  0  0  0  0  0  0  0  0  0  0  0
    1.2990    0.7500    0.0000 C   0  0  0  0  0  0  0  0  0  0  0  0
    2.5981   -0.0000    0.0000 C   0  0  0  0  0  0  0  0  0  0  0  0
    3.8971    0.7500    0.0000 C   0  0  0  0  0  0  0  0  0  0  0  0
    3.8971    2.2500    0.0000 O   0  0  0  0  0  0  0  0  0  0  0  0
    5.1962   -0.0000    0.0000 C   0  0  0  0  0  0  0  0  0  0  0  0
    6.4952    0.7500    0.0000 N   0  0  0  0  0  0  0  0  0  0  0  0
  1  2  1  0
  2  3  2  3
  3  4  1  0
  4  5  2  0
  4  6  1  0
  6  7  1  0
M  END
>  <Title>  (753) 
idABBAgen8

$$$$

     RDKit          2D

 12 12  0  0  0  0  0  0  0  0999 V2000
    3.0000    0.0000    0.0000 C   0  0  0  0  0  0  0  0  0  0  0  0
    1.5000    0.0000    0.0000 C   0  0  0  0  0  0  0  0  0  0  0  0
    0.7500   -1.2990    0.0000 C   0  0  0  0  0  0  0  0  0  0  0  0
   -0.7500   -1.2990    0.0000 C   0  0  0  0  0  0  0  0  0  0  0  0
   -1.5000   -2.5981    0.0000 O   0  0  0  0  0  0  0  0  0  0  0  0
   -1.5000    0.0000    0.0000 C   0  0  0  0  0  0  0  0  0  0  0  0
   -0.7500    1.2990    0.0000 C   0  0  0  0  0  0  0  0  0  0  0  0
    0.7500    1.2990    0.0000 C   0  0  0  0  0  0  0  0  0  0  0  0
    1.5000    2.5981    0.0000 C   0  0  0  0  0  0  0  0  0  0  0  0
    3.0000    2.5981    0.0000 C   0  0  0  0  0  0  0  0  0  0  0  0
    3.7500    3.8971    0.0000 C   0  0  0  0  0  0  0  0  0  0  0  0
    5.2500    3.8971    0.0000 F   0  0  0  0  0  0  0  0  0  0  0  0
  1  2  1  0
  2  3  2  0
  3  4  1  0
  4  5  1  0
  4  6  1  0
  6  7  1  0
  7  8  1  0
  8  9  1  0
  9 10  2  3
 10 11  1  0
 11 12  1  0
  8  2  1  0
M  END
>  <Title>  (754) 
idABBBgen8

$$$$

     RDKit          2D

103105  0  0  0  0  0  0  0  0999 V2000
   -2.3999    0.0907    0.0000 C   0  0  0  0  0  0  0  0  0  0  0  0
   -2.2465   -1.4014    0.0000 C   0  0  0  0  0  0  0  0  0  0  0  0
   -3.7325   -1.6057    0.0000 C   0  0  0  0  0  0  0  0  0  0  0  0
   -5.2012   -1.9108    0.0000 C   0  0  0  0  0  0  0  0  0  0  0  0
   -6.6455   -2.3155    0.0000 C   0  0  0  0  0  0  0  0  0  0  0  0
   -8.0589   -2.8179    0.0000 C   0  0  0  0  0  0  0  0  0  0  0  0
   -9.4347   -3.4155    0.0000 C   0  0  0  0  0  0  0  0  0  0  0  0
  -10.7666   -4.1055    0.0000 C   0  0  0  0  0  0  0  0  0  0  0  0
  -12.0482   -4.8849    0.0000 C   0  0  0  0  0  0  0  0  0  0  0  0
  -13.2737   -5.7499    0.0000 C   0  0  0  0  0  0  0  0  0  0  0  0
  -14.4372   -6.6966    0.0000 C   0  0  0  0  0  0  0  0  0  0  0  0
  -15.5335   -7.7204    0.0000 C   0  0  0  0  0  0  0  0  0  0  0  0
  -16.5573   -8.8167    0.0000 C   0  0  0  0  0  0  0  0  0  0  0  0
  -17.5039   -9.9802    0.0000 C   0  0  0  0  0  0  0  0  0  0  0  0
  -18.3690  -11.2057    0.0000 C   0  0  0  0  0  0  0  0  0  0  0  0
  -19.1483  -12.4873    0.0000 C   0  0  0  0  0  0  0  0  0  0  0  0
  -19.8384  -13.8191    0.0000 C   0  0  0  0  0  0  0  0  0  0  0  0
  -20.4360  -15.1950    0.0000 C   0  0  0  0  0  0  0  0  0  0  0  0
  -20.9384  -16.6083    0.0000 C   0  0  0  0  0  0  0  0  0  0  0  0
  -21.3430  -18.0527    0.0000 C   0  0  0  0  0  0  0  0  0  0  0  0
  -21.6482  -19.5214    0.0000 C   0  0  0  0  0  0  0  0  0  0  0  0
  -21.8525  -21.0074    0.0000 C   0  0  0  0  0  0  0  0  0  0  0  0
  -21.9548  -22.5039    0.0000 C   0  0  0  0  0  0  0  0  0  0  0  0
  -21.9548  -24.0039    0.0000 C   0  0  0  0  0  0  0  0  0  0  0  0
  -21.8525  -25.5004    0.0000 C   0  0  0  0  0  0  0  0  0  0  0  0
  -21.6482  -26.9864    0.0000 C   0  0  0  0  0  0  0  0  0  0  0  0
  -21.3430  -28.4550    0.0000 C   0  0  0  0  0  0  0  0  0  0  0  0
  -20.9384  -29.8994    0.0000 C   0  0  0  0  0  0  0  0  0  0  0  0
  -20.4360  -31.3128    0.0000 C   0  0  0  0  0  0  0  0  0  0  0  0
  -19.8384  -32.6886    0.0000 C   0  0  0  0  0  0  0  0  0  0  0  0
  -19.1483  -34.0205    0.0000 C   0  0  0  0  0  0  0  0  0  0  0  0
  -18.3690  -35.3021    0.0000 C   0  0  0  0  0  0  0  0  0  0  0  0
  -17.5039  -36.5275    0.0000 C   0  0  0  0  0  0  0  0  0  0  0  0
  -16.5573  -37.6911    0.0000 C   0  0  0  0  0  0  0  0  0  0  0  0
  -15.5335  -38.7874    0.0000 C   0  0  0  0  0  0  0  0  0  0  0  0
  -14.4372  -39.8112    0.0000 C   0  0  0  0  0  0  0  0  0  0  0  0
  -13.2737  -40.7578    0.0000 C   0  0  0  0  0  0  0  0  0  0  0  0
  -12.0482  -41.6228    0.0000 C   0  0  0  0  0  0  0  0  0  0  0  0
  -10.7666  -42.4022    0.0000 C   0  0  0  0  0  0  0  0  0  0  0  0
   -9.4347  -43.0923    0.0000 C   0  0  0  0  0  0  0  0  0  0  0  0
   -8.0589  -43.6899    0.0000 C   0  0  0  0  0  0  0  0  0  0  0  0
   -6.6455  -44.1922    0.0000 C   0  0  0  0  0  0  0  0  0  0  0  0
   -5.2012  -44.5969    0.0000 C   0  0  0  0  0  0  0  0  0  0  0  0
   -3.7325  -44.9021    0.0000 C   0  0  0  0  0  0  0  0  0  0  0  0
   -2.2465  -45.1064    0.0000 C   0  0  0  0  0  0  0  0  0  0  0  0
   -0.7500  -45.2087    0.0000 C   0  0  0  0  0  0  0  0  0  0  0  0
    0.7500  -45.2087    0.0000 C   0  0  0  0  0  0  0  0  0  0  0  0
    2.2465  -45.1064    0.0000 C   0  0  0  0  0  0  0  0  0  0  0  0
    3.7325  -44.9021    0.0000 C   0  0  0  0  0  0  0  0  0  0  0  0
    5.2012  -44.5969    0.0000 C   0  0  0  0  0  0  0  0  0  0  0  0
    6.6455  -44.1922    0.0000 C   0  0  0  0  0  0  0  0  0  0  0  0
    8.0589  -43.6899    0.0000 C   0  0  0  0  0  0  0  0  0  0  0  0
    9.4347  -43.0923    0.0000 C   0  0  0  0  0  0  0  0  0  0  0  0
   10.7666  -42.4022    0.0000 C   0  0  0  0  0  0  0  0  0  0  0  0
   12.0482  -41.6228    0.0000 C   0  0  0  0  0  0  0  0  0  0  0  0
   13.2737  -40.7578    0.0000 C   0  0  0  0  0  0  0  0  0  0  0  0
   14.4372  -39.8112    0.0000 C   0  0  0  0  0  0  0  0  0  0  0  0
   15.5335  -38.7874    0.0000 C   0  0  0  0  0  0  0  0  0  0  0  0
   16.5573  -37.6911    0.0000 C   0  0  0  0  0  0  0  0  0  0  0  0
   17.5039  -36.5275    0.0000 C   0  0  0  0  0  0  0  0  0  0  0  0
   18.3690  -35.3021    0.0000 C   0  0  0  0  0  0  0  0  0  0  0  0
   19.1483  -34.0205    0.0000 C   0  0  0  0  0  0  0  0  0  0  0  0
   19.8384  -32.6886    0.0000 C   0  0  0  0  0  0  0  0  0  0  0  0
   20.4360  -31.3128    0.0000 C   0  0  0  0  0  0  0  0  0  0  0  0
   20.9384  -29.8994    0.0000 C   0  0  0  0  0  0  0  0  0  0  0  0
   21.3430  -28.4550    0.0000 C   0  0  0  0  0  0  0  0  0  0  0  0
   21.6482  -26.9864    0.0000 C   0  0  0  0  0  0  0  0  0  0  0  0
   21.8525  -25.5004    0.0000 C   0  0  0  0  0  0  0  0  0  0  0  0
   21.9548  -24.0039    0.0000 C   0  0  0  0  0  0  0  0  0  0  0  0
   21.9548  -22.5039    0.0000 C   0  0  0  0  0  0  0  0  0  0  0  0
   21.8525  -21.0074    0.0000 C   0  0  0  0  0  0  0  0  0  0  0  0
   21.6482  -19.5214    0.0000 C   0  0  0  0  0  0  0  0  0  0  0  0
   21.3430  -18.0527    0.0000 C   0  0  0  0  0  0  0  0  0  0  0  0
   20.9384  -16.6083    0.0000 C   0  0  0  0  0  0  0  0  0  0  0  0
   20.4360  -15.1950    0.0000 C   0  0  0  0  0  0  0  0  0  0  0  0
   19.8384  -13.8191    0.0000 C   0  0  0  0  0  0  0  0  0  0  0  0
   19.1483  -12.4873    0.0000 C   0  0  0  0  0  0  0  0  0  0  0  0
   18.3690  -11.2057    0.0000 C   0  0  0  0  0  0  0  0  0  0  0  0
   17.5039   -9.9802    0.0000 C   0  0  0  0  0  0  0  0  0  0  0  0
   16.5573   -8.8167    0.0000 C   0  0  0  0  0  0  0  0  0  0  0  0
   15.5335   -7.7204    0.0000 C   0  0  0  0  0  0  0  0  0  0  0  0
   14.4372   -6.6966    0.0000 C   0  0  0  0  0  0  0  0  0  0  0  0
   13.2737   -5.7499    0.0000 C   0  0  0  0  0  0  0  0  0  0  0  0
   12.0482   -4.8849    0.0000 C   0  0  0  0  0  0  0  0  0  0  0  0
   10.7666   -4.1055    0.0000 C   0  0  0  0  0  0  0  0  0  0  0  0
    9.4347   -3.4155    0.0000 C   0  0  0  0  0  0  0  0  0  0  0  0
    8.0589   -2.8179    0.0000 C   0  0  0  0  0  0  0  0  0  0  0  0
    6.6455   -2.3155    0.0000 C   0  0  0  0  0  0  0  0  0  0  0  0
    5.2012   -1.9108    0.0000 C   0  0  0  0  0  0  0  0  0  0  0  0
    3.7325   -1.6057    0.0000 C   0  0  0  0  0  0  0  0  0  0  0  0
    4.2987   -2.9947    0.0000 C   0  0  0  0  0  0  0  0  0  0  0  0
    3.3788   -4.1795    0.0000 C   0  0  0  0  0  0  0  0  0  0  0  0
    1.8927   -3.9753    0.0000 C   0  0  0  0  0  0  0  0  0  0  0  0
    0.9728   -5.1601    0.0000 C   0  0  0  0  0  0  0  0  0  0  0  0
    0.0529   -6.3449    0.0000 N   0  0  0  0  0  0  0  0  0  0  0  0
    1.3266   -2.5862    0.0000 C   0  0  0  0  0  0  0  0  0  0  0  0
    2.2465   -1.4014    0.0000 C   0  0  0  0  0  0  0  0  0  0  0  0
    0.7500   -1.2990    0.0000 C   0  0  0  0  0  0  0  0  0  0  0  0
    1.5000    0.0000    0.0000 C   0  0  0  0  0  0  0  0  0  0  0  0
    0.7500    1.2990    0.0000 C   0  0  0  0  0  0  0  0  0  0  0  0
   -0.7500    1.2990    0.0000 C   0  0  0  0  0  0  0  0  0  0  0  0
   -1.5000    0.0000    0.0000 C   0  0  0  0  0  0  0  0  0  0  0  0
   -0.7500   -1.2990    0.0000 C   0  0  0  0  0  0  0  0  0  0  0  0
  1  2  1  0
  2  3  1  0
  3  4  1  0
  4  5  1  0
  5  6  1  0
  6  7  1  0
  7  8  1  0
  8  9  1  0
  9 10  1  0
 10 11  1  0
 11 12  1  0
 12 13  1  0
 13 14  1  0
 14 15  1  0
 15 16  1  0
 16 17  1  0
 17 18  1  0
 18 19  1  0
 19 20  1  0
 20 21  1  0
 21 22  1  0
 22 23  1  0
 23 24  1  0
 24 25  1  0
 25 26  1  0
 26 27  1  0
 27 28  1  0
 28 29  1  0
 29 30  1  0
 30 31  1  0
 31 32  1  0
 32 33  1  0
 33 34  1  0
 34 35  1  0
 35 36  1  0
 36 37  1  0
 37 38  1  0
 38 39  1  0
 39 40  1  0
 40 41  1  0
 41 42  1  0
 42 43  1  0
 43 44  1  0
 44 45  1  0
 45 46  1  0
 46 47  1  0
 47 48  1  0
 48 49  1  0
 49 50  1  0
 50 51  1  0
 51 52  1  0
 52 53  1  0
 53 54  1  0
 54 55  1  0
 55 56  1  0
 56 57  1  0
 57 58  1  0
 58 59  1  0
 59 60  1  0
 60 61  1  0
 61 62  1  0
 62 63  1  0
 63 64  1  0
 64 65  1  0
 65 66  1  0
 66 67  1  0
 67 68  1  0
 68 69  1  0
 69 70  1  0
 70 71  1  0
 71 72  1  0
 72 73  1  0
 73 74  1  0
 74 75  1  0
 75 76  1  0
 76 77  1  0
 77 78  1  0
 78 79  1  0
 79 80  1  0
 80 81  1  0
 81 82  1  0
 82 83  1  0
 83 84  1  0
 84 85  1  0
 85 86  1  0
 86 87  1  0
 87 88  1  0
 88 89  1  0
 89 90  1  0
 90 91  2  0
 91 92  1  0
 92 93  2  0
 93 94  1  0
 94 95  3  0
 93 96  1  0
 96 97  2  0
 97 98  1  0
 98 99  2  0
 99100  1  0
100101  2  0
101102  1  0
102103  2  0
103  2  1  0
 97 90  1  0
103 98  1  0
M  END
>  <Title>  (755) 
idABBCgen8

$$$$

     RDKit          2D

  8  8  0  0  0  0  0  0  0  0999 V2000
    2.7760    0.0000    0.0000 C   0  0  0  0  0  0  0  0  0  0  0  0
    1.2760    0.0000    0.0000 C   0  0  0  0  0  0  0  0  0  0  0  0
    0.3943    1.2135    0.0000 C   0  0  0  0  0  0  0  0  0  0  0  0
   -1.0323    0.7500    0.0000 C   0  0  0  0  0  0  0  0  0  0  0  0
   -1.0323   -0.7500    0.0000 C   0  0  0  0  0  0  0  0  0  0  0  0
   -2.2458   -1.6317    0.0000 C   0  0  0  0  0  0  0  0  0  0  0  0
   -3.4593   -2.5134    0.0000 N   0  0  0  0  0  0  0  0  0  0  0  0
    0.3943   -1.2135    0.0000 C   0  0  0  0  0  0  0  0  0  0  0  0
  1  2  1  0
  2  3  2  0
  3  4  1  0
  4  5  1  0
  5  6  1  0
  6  7  3  0
  5  8  1  0
  8  2  1  0
M  END
>  <Title>  (756) 
idABBDgen8

$$$$

     RDKit          2D

 18 19  0  0  0  0  0  0  0  0999 V2000
    0.3207  -11.1638    0.0000 C   0  0  0  0  0  0  0  0  0  0  0  0
    0.4775   -9.6721    0.0000 C   0  0  0  0  0  0  0  0  0  0  0  0
    1.8478   -9.0619    0.0000 C   0  0  0  0  0  0  0  0  0  0  0  0
    2.0046   -7.5702    0.0000 N   0  0  0  0  0  0  0  0  0  0  0  0
    3.3037   -6.8202    0.0000 C   0  0  0  0  0  0  0  0  0  0  0  0
    2.9918   -5.3529    0.0000 C   0  0  0  0  0  0  0  0  0  0  0  0
    1.5000   -5.1962    0.0000 C   0  0  0  0  0  0  0  0  0  0  0  0
    0.7500   -3.8971    0.0000 C   0  0  0  0  0  0  0  0  0  0  0  0
   -0.7500   -3.8971    0.0000 O   0  0  0  0  0  0  0  0  0  0  0  0
    1.5000   -2.5981    0.0000 N   0  0  0  0  0  0  0  0  0  0  0  0
    0.7500   -1.2990    0.0000 C   0  0  0  0  0  0  0  0  0  0  0  0
    1.5000    0.0000    0.0000 N   0  0  0  0  0  0  0  0  0  0  0  0
    0.7500    1.2990    0.0000 N   0  0  0  0  0  0  0  0  0  0  0  0
   -0.7500    1.2990    0.0000 N   0  0  0  0  0  0  0  0  0  0  0  0
   -1.5000    0.0000    0.0000 N   0  0  0  0  0  0  0  0  0  0  0  0
   -0.7500   -1.2990    0.0000 N   0  0  0  0  0  0  0  0  0  0  0  0
    0.8899   -6.5665    0.0000 C   0  0  0  0  0  0  0  0  0  0  0  0
   -0.5773   -6.8783    0.0000 O   0  0  0  0  0  0  0  0  0  0  0  0
  1  2  1  0
  2  3  1  0
  3  4  1  0
  4  5  1  0
  5  6  1  0
  6  7  1  0
  7  8  1  0
  8  9  2  0
  8 10  1  0
 10 11  1  0
 11 12  2  0
 12 13  1  0
 13 14  2  0
 14 15  1  0
 15 16  2  0
  7 17  1  0
 17 18  2  0
 17  4  1  0
 16 11  1  0
M  END
>  <Title>  (757) 
idABBEgen8

$$$$

     RDKit          2D

 12 11  0  0  0  0  0  0  0  0999 V2000
    0.0000    0.0000    0.0000 C   0  0  0  0  0  0  0  0  0  0  0  0
    1.2990    0.7500    0.0000 C   0  0  0  0  0  0  0  0  0  0  0  0
    2.5981   -0.0000    0.0000 C   0  0  0  0  0  0  0  0  0  0  0  0
    3.8971    0.7500    0.0000 C   0  0  0  0  0  0  0  0  0  0  0  0
    5.1962   -0.0000    0.0000 C   0  0  0  0  0  0  0  0  0  0  0  0
    6.4952    0.7500    0.0000 C   0  0  0  0  0  0  0  0  0  0  0  0
    7.7942   -0.0000    0.0000 C   0  0  0  0  0  0  0  0  0  0  0  0
    9.0933    0.7500    0.0000 C   0  0  0  0  0  0  0  0  0  0  0  0
   10.3923   -0.0000    0.0000 C   0  0  0  0  0  0  0  0  0  0  0  0
   11.6913    0.7500    0.0000 C   0  0  0  0  0  0  0  0  0  0  0  0
   12.9904   -0.0000    0.0000 O   0  0  0  0  0  0  0  0  0  0  0  0
   14.2894    0.7500    0.0000 C   0  0  0  0  0  0  0  0  0  0  0  0
  1  2  1  0
  2  3  1  0
  3  4  1  0
  4  5  1  0
  5  6  1  0
  6  7  1  0
  7  8  1  0
  8  9  1  0
  9 10  1  0
 10 11  1  0
 11 12  1  0
M  END
>  <Title>  (758) 
idABBFgen8

$$$$

     RDKit          2D

 31 34  0  0  0  0  0  0  0  0999 V2000
    3.0000    0.0000    0.0000 C   0  0  0  0  0  0  0  0  0  0  0  0
    1.5000    0.0000    0.0000 C   0  0  0  0  0  0  0  0  0  0  0  0
    0.7500   -1.2990    0.0000 C   0  0  0  0  0  0  0  0  0  0  0  0
   -0.7500   -1.2990    0.0000 C   0  0  0  0  0  0  0  0  0  0  0  0
   -1.5000    0.0000    0.0000 C   0  0  0  0  0  0  0  0  0  0  0  0
   -3.0000    0.0000    0.0000 C   0  0  0  0  0  0  0  0  0  0  0  0
   -3.7500   -1.2990    0.0000 O   0  0  0  0  0  0  0  0  0  0  0  0
   -3.7500    1.2990    0.0000 N   0  0  0  0  0  0  0  0  0  0  0  0
   -5.2500    1.2990    0.0000 C   0  0  0  0  0  0  0  0  0  0  0  0
   -6.1317    0.0855    0.0000 N   0  0  0  0  0  0  0  0  0  0  0  0
   -7.5583    0.5490    0.0000 N   0  0  0  0  0  0  0  0  0  0  0  0
   -7.5583    2.0490    0.0000 N   0  0  0  0  0  0  0  0  0  0  0  0
   -6.1317    2.5126    0.0000 N   0  0  0  0  0  0  0  0  0  0  0  0
   -5.6682    3.9391    0.0000 N   0  0  0  0  0  0  0  0  0  0  0  0
   -6.5498    5.1527    0.0000 C   0  0  0  0  0  0  0  0  0  0  0  0
   -5.6682    6.3662    0.0000 C   0  0  0  0  0  0  0  0  0  0  0  0
   -4.2416    5.9027    0.0000 N   0  0  0  0  0  0  0  0  0  0  0  0
   -3.0280    6.7844    0.0000 C   0  0  0  0  0  0  0  0  0  0  0  0
   -3.1848    8.2761    0.0000 O   0  0  0  0  0  0  0  0  0  0  0  0
   -1.6577    6.1742    0.0000 C   0  0  0  0  0  0  0  0  0  0  0  0
   -0.3587    6.9242    0.0000 C   0  0  0  0  0  0  0  0  0  0  0  0
    0.7560    5.9206    0.0000 C   0  0  0  0  0  0  0  0  0  0  0  0
    0.1459    4.5502    0.0000 C   0  0  0  0  0  0  0  0  0  0  0  0
    0.8959    3.2512    0.0000 C   0  0  0  0  0  0  0  0  0  0  0  0
    0.1459    1.9522    0.0000 O   0  0  0  0  0  0  0  0  0  0  0  0
    2.3959    3.2512    0.0000 O   0  0  0  0  0  0  0  0  0  0  0  0
   -1.3459    4.7070    0.0000 C   0  0  0  0  0  0  0  0  0  0  0  0
   -2.3496    3.5923    0.0000 O   0  0  0  0  0  0  0  0  0  0  0  0
   -4.2416    4.4027    0.0000 C   0  0  0  0  0  0  0  0  0  0  0  0
   -0.7500    1.2990    0.0000 C   0  0  0  0  0  0  0  0  0  0  0  0
    0.7500    1.2990    0.0000 C   0  0  0  0  0  0  0  0  0  0  0  0
  1  2  1  0
  2  3  1  0
  3  4  1  0
  4  5  1  0
  5  6  1  0
  6  7  2  0
  6  8  1  0
  8  9  1  0
  9 10  2  0
 10 11  1  0
 11 12  2  0
 12 13  1  0
 13 14  1  0
 14 15  1  0
 15 16  1  0
 16 17  1  0
 17 18  1  0
 18 19  2  0
 18 20  1  0
 20 21  1  0
 21 22  1  0
 22 23  1  0
 23 24  1  0
 24 25  2  0
 24 26  1  0
 23 27  1  0
 27 28  2  0
 17 29  1  0
  5 30  1  0
 30 31  1  0
 31  2  1  0
 13  9  1  0
 29 14  1  0
 27 20  1  0
M  END
>  <Title>  (759) 
idABBGgen8

$$$$

     RDKit          2D

 12 11  0  0  0  0  0  0  0  0999 V2000
    0.0000    0.0000    0.0000 C   0  0  0  0  0  0  0  0  0  0  0  0
    1.2990    0.7500    0.0000 C   0  0  0  0  0  0  0  0  0  0  0  0
    2.5981   -0.0000    0.0000 C   0  0  0  0  0  0  0  0  0  0  0  0
    3.8971    0.7500    0.0000 C   0  0  0  0  0  0  0  0  0  0  0  0
    5.1962   -0.0000    0.0000 C   0  0  0  0  0  0  0  0  0  0  0  0
    6.4952    0.7500    0.0000 C   0  0  0  0  0  0  0  0  0  0  0  0
    5.1962   -1.5000    0.0000 C   0  0  0  0  0  0  0  0  0  0  0  0
    6.4952   -2.2500    0.0000 C   0  0  0  0  0  0  0  0  0  0  0  0
    6.4952   -3.7500    0.0000 C   0  0  0  0  0  0  0  0  0  0  0  0
    7.7942   -4.5000    0.0000 C   0  0  0  0  0  0  0  0  0  0  0  0
    7.7942   -6.0000    0.0000 C   0  0  0  0  0  0  0  0  0  0  0  0
    9.0933   -3.7500    0.0000 C   0  0  0  0  0  0  0  0  0  0  0  0
  1  2  1  0
  2  3  1  0
  3  4  1  0
  4  5  1  0
  5  6  1  0
  5  7  1  0
  7  8  1  0
  8  9  1  0
  9 10  1  0
 10 11  1  0
 10 12  1  0
M  END
>  <Title>  (760) 
idABBHgen8

$$$$

     RDKit          2D

  8  8  0  0  0  0  0  0  0  0999 V2000
    4.2760   -0.0000    0.0000 N   0  0  0  0  0  0  0  0  0  0  0  0
    2.7760    0.0000    0.0000 C   0  0  0  0  0  0  0  0  0  0  0  0
    1.2760    0.0000    0.0000 C   0  0  0  0  0  0  0  0  0  0  0  0
    0.3943    1.2135    0.0000 C   0  0  0  0  0  0  0  0  0  0  0  0
   -1.0323    0.7500    0.0000 C   0  0  0  0  0  0  0  0  0  0  0  0
   -1.0323   -0.7500    0.0000 C   0  0  0  0  0  0  0  0  0  0  0  0
   -2.2458   -1.6317    0.0000 O   0  0  0  0  0  0  0  0  0  0  0  0
    0.3943   -1.2135    0.0000 C   0  0  0  0  0  0  0  0  0  0  0  0
  1  2  3  0
  2  3  1  0
  3  4  1  0
  4  5  2  0
  5  6  1  0
  6  7  1  0
  6  8  2  0
  8  3  1  0
M  END
>  <Title>  (761) 
idABBIgen8

$$$$

     RDKit          2D

  7  7  0  0  0  0  0  0  0  0999 V2000
    1.7286    0.0000    0.0000 C   0  0  0  0  0  0  0  0  0  0  0  0
    1.0777    1.3515    0.0000 C   0  0  0  0  0  0  0  0  0  0  0  0
   -0.3846    1.6852    0.0000 C   0  0  0  0  0  0  0  0  0  0  0  0
   -1.5574    0.7500    0.0000 C   0  0  0  0  0  0  0  0  0  0  0  0
   -1.5574   -0.7500    0.0000 C   0  0  0  0  0  0  0  0  0  0  0  0
   -0.3846   -1.6852    0.0000 C   0  0  0  0  0  0  0  0  0  0  0  0
    1.0777   -1.3515    0.0000 C   0  0  0  0  0  0  0  0  0  0  0  0
  1  2  2  0
  2  3  1  0
  3  4  1  0
  4  5  1  0
  5  6  1  0
  6  7  1  0
  7  1  1  0
M  END
>  <Title>  (762) 
idABBJgen8

$$$$

     RDKit          2D

 83 84  0  0  0  0  0  0  0  0999 V2000
   -2.2007   -1.0703    0.0000 C   0  0  0  0  0  0  0  0  0  0  0  0
   -2.4912    0.4013    0.0000 C   0  0  0  0  0  0  0  0  0  0  0  0
   -3.9732    0.1696    0.0000 C   0  0  0  0  0  0  0  0  0  0  0  0
   -5.4689    0.0563    0.0000 C   0  0  0  0  0  0  0  0  0  0  0  0
   -6.9689    0.0623    0.0000 C   0  0  0  0  0  0  0  0  0  0  0  0
   -8.4637    0.1874    0.0000 C   0  0  0  0  0  0  0  0  0  0  0  0
   -9.9438    0.4309    0.0000 C   0  0  0  0  0  0  0  0  0  0  0  0
  -11.3999    0.7912    0.0000 C   0  0  0  0  0  0  0  0  0  0  0  0
  -12.8227    1.2661    0.0000 C   0  0  0  0  0  0  0  0  0  0  0  0
  -14.2033    1.8525    0.0000 C   0  0  0  0  0  0  0  0  0  0  0  0
  -15.5330    2.5467    0.0000 C   0  0  0  0  0  0  0  0  0  0  0  0
  -16.8033    3.3444    0.0000 C   0  0  0  0  0  0  0  0  0  0  0  0
  -18.0062    4.2405    0.0000 C   0  0  0  0  0  0  0  0  0  0  0  0
  -19.1342    5.2293    0.0000 C   0  0  0  0  0  0  0  0  0  0  0  0
  -20.1800    6.3047    0.0000 C   0  0  0  0  0  0  0  0  0  0  0  0
  -21.1370    7.4597    0.0000 C   0  0  0  0  0  0  0  0  0  0  0  0
  -21.9993    8.6871    0.0000 C   0  0  0  0  0  0  0  0  0  0  0  0
  -22.7613    9.9791    0.0000 C   0  0  0  0  0  0  0  0  0  0  0  0
  -23.4183   11.3276    0.0000 C   0  0  0  0  0  0  0  0  0  0  0  0
  -23.9660   12.7240    0.0000 C   0  0  0  0  0  0  0  0  0  0  0  0
  -24.4011   14.1595    0.0000 C   0  0  0  0  0  0  0  0  0  0  0  0
  -24.7207   15.6250    0.0000 C   0  0  0  0  0  0  0  0  0  0  0  0
  -24.9229   17.1114    0.0000 C   0  0  0  0  0  0  0  0  0  0  0  0
  -25.0064   18.6090    0.0000 C   0  0  0  0  0  0  0  0  0  0  0  0
  -24.9706   20.1086    0.0000 C   0  0  0  0  0  0  0  0  0  0  0  0
  -24.8158   21.6006    0.0000 C   0  0  0  0  0  0  0  0  0  0  0  0
  -24.5429   23.0756    0.0000 C   0  0  0  0  0  0  0  0  0  0  0  0
  -24.1537   24.5242    0.0000 C   0  0  0  0  0  0  0  0  0  0  0  0
  -23.6507   25.9373    0.0000 C   0  0  0  0  0  0  0  0  0  0  0  0
  -23.0369   27.3060    0.0000 C   0  0  0  0  0  0  0  0  0  0  0  0
  -22.3164   28.6216    0.0000 C   0  0  0  0  0  0  0  0  0  0  0  0
  -21.4936   29.8758    0.0000 C   0  0  0  0  0  0  0  0  0  0  0  0
  -20.5738   31.0607    0.0000 C   0  0  0  0  0  0  0  0  0  0  0  0
  -19.5627   32.1687    0.0000 C   0  0  0  0  0  0  0  0  0  0  0  0
  -18.4668   33.1930    0.0000 C   0  0  0  0  0  0  0  0  0  0  0  0
  -17.2930   34.1269    0.0000 C   0  0  0  0  0  0  0  0  0  0  0  0
  -16.0487   34.9645    0.0000 C   0  0  0  0  0  0  0  0  0  0  0  0
  -14.7418   35.7007    0.0000 C   0  0  0  0  0  0  0  0  0  0  0  0
  -13.3805   36.3307    0.0000 C   0  0  0  0  0  0  0  0  0  0  0  0
  -11.9735   36.8506    0.0000 C   0  0  0  0  0  0  0  0  0  0  0  0
  -10.5296   37.2571    0.0000 C   0  0  0  0  0  0  0  0  0  0  0  0
   -9.0580   37.5475    0.0000 C   0  0  0  0  0  0  0  0  0  0  0  0
   -7.5680   37.7201    0.0000 C   0  0  0  0  0  0  0  0  0  0  0  0
   -6.0689   37.7738    0.0000 C   0  0  0  0  0  0  0  0  0  0  0  0
   -4.5704   37.7082    0.0000 C   0  0  0  0  0  0  0  0  0  0  0  0
   -3.0817   37.5237    0.0000 C   0  0  0  0  0  0  0  0  0  0  0  0
   -1.6125   37.2216    0.0000 C   0  0  0  0  0  0  0  0  0  0  0  0
   -0.1719   36.8037    0.0000 C   0  0  0  0  0  0  0  0  0  0  0  0
    1.2310   36.2726    0.0000 C   0  0  0  0  0  0  0  0  0  0  0  0
    2.5872   35.6318    0.0000 C   0  0  0  0  0  0  0  0  0  0  0  0
    3.8882   34.8853    0.0000 C   0  0  0  0  0  0  0  0  0  0  0  0
    5.1258   34.0377    0.0000 C   0  0  0  0  0  0  0  0  0  0  0  0
    6.2922   33.0945    0.0000 C   0  0  0  0  0  0  0  0  0  0  0  0
    7.3799   32.0616    0.0000 C   0  0  0  0  0  0  0  0  0  0  0  0
    8.3821   30.9456    0.0000 C   0  0  0  0  0  0  0  0  0  0  0  0
    9.2925   29.7534    0.0000 C   0  0  0  0  0  0  0  0  0  0  0  0
   10.1053   28.4927    0.0000 C   0  0  0  0  0  0  0  0  0  0  0  0
   10.8153   27.1714    0.0000 C   0  0  0  0  0  0  0  0  0  0  0  0
   11.4181   25.7979    0.0000 C   0  0  0  0  0  0  0  0  0  0  0  0
   11.9099   24.3808    0.0000 C   0  0  0  0  0  0  0  0  0  0  0  0
   12.2876   22.9291    0.0000 C   0  0  0  0  0  0  0  0  0  0  0  0
   12.5487   21.4520    0.0000 C   0  0  0  0  0  0  0  0  0  0  0  0
   12.6917   19.9588    0.0000 C   0  0  0  0  0  0  0  0  0  0  0  0
   12.7155   18.4590    0.0000 C   0  0  0  0  0  0  0  0  0  0  0  0
   12.6201   16.9621    0.0000 C   0  0  0  0  0  0  0  0  0  0  0  0
   12.4061   15.4774    0.0000 C   0  0  0  0  0  0  0  0  0  0  0  0
   12.0748   14.0144    0.0000 C   0  0  0  0  0  0  0  0  0  0  0  0
   11.6284   12.5824    0.0000 C   0  0  0  0  0  0  0  0  0  0  0  0
   11.0695   11.1904    0.0000 C   0  0  0  0  0  0  0  0  0  0  0  0
   10.4019    9.8472    0.0000 C   0  0  0  0  0  0  0  0  0  0  0  0
    9.6296    8.5613    0.0000 C   0  0  0  0  0  0  0  0  0  0  0  0
    8.7576    7.3408    0.0000 C   0  0  0  0  0  0  0  0  0  0  0  0
    7.7914    6.1934    0.0000 C   0  0  0  0  0  0  0  0  0  0  0  0
    6.7371    5.1265    0.0000 C   0  0  0  0  0  0  0  0  0  0  0  0
    5.6013    4.1466    0.0000 C   0  0  0  0  0  0  0  0  0  0  0  0
    4.3913    3.2601    0.0000 C   0  0  0  0  0  0  0  0  0  0  0  0
    3.1147    2.4726    0.0000 C   0  0  0  0  0  0  0  0  0  0  0  0
    1.7795    1.7889    0.0000 C   0  0  0  0  0  0  0  0  0  0  0  0
    0.3943    1.2135    0.0000 C   0  0  0  0  0  0  0  0  0  0  0  0
    1.2760    0.0000    0.0000 C   0  0  0  0  0  0  0  0  0  0  0  0
    0.3943   -1.2135    0.0000 C   0  0  0  0  0  0  0  0  0  0  0  0
   -1.0323   -0.7500    0.0000 C   0  0  0  0  0  0  0  0  0  0  0  0
   -1.0323    0.7500    0.0000 C   0  0  0  0  0  0  0  0  0  0  0  0
  1  2  1  0
  2  3  1  0
  3  4  1  0
  4  5  1  0
  5  6  1  0
  6  7  1  0
  7  8  1  0
  8  9  1  0
  9 10  1  0
 10 11  1  0
 11 12  1  0
 12 13  1  0
 13 14  1  0
 14 15  1  0
 15 16  1  0
 16 17  1  0
 17 18  1  0
 18 19  1  0
 19 20  1  0
 20 21  1  0
 21 22  1  0
 22 23  1  0
 23 24  1  0
 24 25  1  0
 25 26  1  0
 26 27  1  0
 27 28  1  0
 28 29  1  0
 29 30  1  0
 30 31  1  0
 31 32  1  0
 32 33  2  0
 33 34  1  0
 34 35  2  0
 35 36  1  0
 36 37  2  0
 37 38  1  0
 38 39  2  0
 39 40  1  0
 40 41  2  0
 41 42  1  0
 42 43  2  0
 43 44  1  0
 44 45  2  0
 45 46  1  0
 46 47  2  0
 47 48  1  0
 48 49  2  0
 49 50  1  0
 50 51  2  0
 51 52  1  0
 52 53  2  0
 53 54  1  0
 54 55  2  0
 55 56  1  0
 56 57  2  0
 57 58  1  0
 58 59  2  0
 59 60  1  0
 60 61  2  0
 61 62  1  0
 62 63  2  0
 63 64  1  0
 64 65  2  0
 65 66  1  0
 66 67  2  0
 67 68  1  0
 68 69  2  0
 69 70  1  0
 70 71  2  0
 71 72  1  0
 72 73  2  0
 73 74  1  0
 74 75  2  0
 75 76  1  0
 76 77  2  0
 77 78  1  0
 78 79  2  0
 79 80  1  0
 80 81  2  0
 81 82  1  0
 82 83  2  0
 83  2  1  0
 83 79  1  0
M  END
>  <Title>  (763) 
idABBKgen8

$$$$

     RDKit          2D

 20 21  0  0  0  0  0  0  0  0999 V2000
    1.5000   -7.7942    0.0000 C   0  0  0  0  0  0  0  0  0  0  0  0
    0.7500   -6.4952    0.0000 C   0  0  0  0  0  0  0  0  0  0  0  0
    1.5000   -5.1962    0.0000 C   0  0  0  0  0  0  0  0  0  0  0  0
    0.7500   -3.8971    0.0000 C   0  0  0  0  0  0  0  0  0  0  0  0
   -0.7500   -3.8971    0.0000 O   0  0  0  0  0  0  0  0  0  0  0  0
    1.5000   -2.5981    0.0000 N   0  0  0  0  0  0  0  0  0  0  0  0
    0.7500   -1.2990    0.0000 C   0  0  0  0  0  0  0  0  0  0  0  0
    1.5000    0.0000    0.0000 N   0  0  0  0  0  0  0  0  0  0  0  0
    0.7500    1.2990    0.0000 N   0  0  0  0  0  0  0  0  0  0  0  0
   -0.7500    1.2990    0.0000 N   0  0  0  0  0  0  0  0  0  0  0  0
   -1.5000    0.0000    0.0000 N   0  0  0  0  0  0  0  0  0  0  0  0
   -0.7500   -1.2990    0.0000 N   0  0  0  0  0  0  0  0  0  0  0  0
   -0.7500   -6.4952    0.0000 C   0  0  0  0  0  0  0  0  0  0  0  0
   -1.5000   -5.1962    0.0000 O   0  0  0  0  0  0  0  0  0  0  0  0
   -1.5000   -7.7942    0.0000 N   0  0  0  0  0  0  0  0  0  0  0  0
   -3.0000   -7.7942    0.0000 C   0  0  0  0  0  0  0  0  0  0  0  0
   -3.8817   -9.0078    0.0000 C   0  0  0  0  0  0  0  0  0  0  0  0
   -5.3083   -8.5442    0.0000 C   0  0  0  0  0  0  0  0  0  0  0  0
   -5.3083   -7.0442    0.0000 C   0  0  0  0  0  0  0  0  0  0  0  0
   -3.8817   -6.5807    0.0000 C   0  0  0  0  0  0  0  0  0  0  0  0
  1  2  1  0
  2  3  1  0
  3  4  1  0
  4  5  2  0
  4  6  1  0
  6  7  1  0
  7  8  2  0
  8  9  1  0
  9 10  2  0
 10 11  1  0
 11 12  2  0
  2 13  1  0
 13 14  2  0
 13 15  1  0
 15 16  1  0
 16 17  2  0
 17 18  1  0
 18 19  1  0
 19 20  2  0
 12  7  1  0
 20 16  1  0
M  END
>  <Title>  (764) 
idABBLgen8

$$$$

     RDKit          2D

  9  9  0  0  0  0  0  0  0  0999 V2000
    3.4598   -0.0000    0.0000 C   0  0  0  0  0  0  0  0  0  0  0  0
    1.9598    0.0000    0.0000 C   0  0  0  0  0  0  0  0  0  0  0  0
    1.3858   -1.3858    0.0000 C   0  0  0  0  0  0  0  0  0  0  0  0
   -0.0000   -1.9598    0.0000 C   0  0  0  0  0  0  0  0  0  0  0  0
   -1.3858   -1.3858    0.0000 C   0  0  0  0  0  0  0  0  0  0  0  0
   -1.9598    0.0000    0.0000 C   0  0  0  0  0  0  0  0  0  0  0  0
   -1.3858    1.3858    0.0000 C   0  0  0  0  0  0  0  0  0  0  0  0
    0.0000    1.9598    0.0000 C   0  0  0  0  0  0  0  0  0  0  0  0
    1.3858    1.3858    0.0000 C   0  0  0  0  0  0  0  0  0  0  0  0
  1  2  1  0
  2  3  2  0
  3  4  1  0
  4  5  1  0
  5  6  1  0
  6  7  1  0
  7  8  1  0
  8  9  1  0
  9  2  1  0
M  END
>  <Title>  (765) 
idABBMgen8

$$$$

     RDKit          2D

111111  0  0  0  0  0  0  0  0999 V2000
   27.7641    0.0000    0.0000 C   0  0  0  0  0  0  0  0  0  0  0  0
   26.2641    0.0000    0.0000 C   0  0  0  0  0  0  0  0  0  0  0  0
   26.2213   -1.4994    0.0000 C   0  0  0  0  0  0  0  0  0  0  0  0
   26.0929   -2.9939    0.0000 C   0  0  0  0  0  0  0  0  0  0  0  0
   25.8795   -4.4786    0.0000 C   0  0  0  0  0  0  0  0  0  0  0  0
   25.5816   -5.9487    0.0000 C   0  0  0  0  0  0  0  0  0  0  0  0
   25.2003   -7.3995    0.0000 C   0  0  0  0  0  0  0  0  0  0  0  0
   24.7367   -8.8260    0.0000 C   0  0  0  0  0  0  0  0  0  0  0  0
   24.1925  -10.2238    0.0000 C   0  0  0  0  0  0  0  0  0  0  0  0
   23.5694  -11.5883    0.0000 C   0  0  0  0  0  0  0  0  0  0  0  0
   22.8694  -12.9149    0.0000 C   0  0  0  0  0  0  0  0  0  0  0  0
   22.0948  -14.1995    0.0000 C   0  0  0  0  0  0  0  0  0  0  0  0
   21.2481  -15.4377    0.0000 C   0  0  0  0  0  0  0  0  0  0  0  0
   20.3322  -16.6255    0.0000 C   0  0  0  0  0  0  0  0  0  0  0  0
   19.3499  -17.7591    0.0000 C   0  0  0  0  0  0  0  0  0  0  0  0
   18.3045  -18.8348    0.0000 C   0  0  0  0  0  0  0  0  0  0  0  0
   17.1994  -19.8491    0.0000 C   0  0  0  0  0  0  0  0  0  0  0  0
   16.0381  -20.7986    0.0000 C   0  0  0  0  0  0  0  0  0  0  0  0
   14.8246  -21.6803    0.0000 C   0  0  0  0  0  0  0  0  0  0  0  0
   13.5627  -22.4913    0.0000 C   0  0  0  0  0  0  0  0  0  0  0  0
   12.2566  -23.2289    0.0000 C   0  0  0  0  0  0  0  0  0  0  0  0
   10.9105  -23.8907    0.0000 C   0  0  0  0  0  0  0  0  0  0  0  0
    9.5288  -24.4746    0.0000 C   0  0  0  0  0  0  0  0  0  0  0  0
    8.1161  -24.9787    0.0000 C   0  0  0  0  0  0  0  0  0  0  0  0
    6.6768  -25.4013    0.0000 C   0  0  0  0  0  0  0  0  0  0  0  0
    5.2158  -25.7410    0.0000 C   0  0  0  0  0  0  0  0  0  0  0  0
    3.7378  -25.9968    0.0000 C   0  0  0  0  0  0  0  0  0  0  0  0
    2.2476  -26.1678    0.0000 C   0  0  0  0  0  0  0  0  0  0  0  0
    0.7500  -26.2534    0.0000 C   0  0  0  0  0  0  0  0  0  0  0  0
   -0.7500  -26.2534    0.0000 C   0  0  0  0  0  0  0  0  0  0  0  0
   -2.2476  -26.1678    0.0000 C   0  0  0  0  0  0  0  0  0  0  0  0
   -3.7378  -25.9968    0.0000 C   0  0  0  0  0  0  0  0  0  0  0  0
   -5.2158  -25.7410    0.0000 C   0  0  0  0  0  0  0  0  0  0  0  0
   -6.6768  -25.4013    0.0000 C   0  0  0  0  0  0  0  0  0  0  0  0
   -8.1161  -24.9787    0.0000 C   0  0  0  0  0  0  0  0  0  0  0  0
   -9.5288  -24.4746    0.0000 C   0  0  0  0  0  0  0  0  0  0  0  0
  -10.9105  -23.8907    0.0000 C   0  0  0  0  0  0  0  0  0  0  0  0
  -12.2566  -23.2289    0.0000 C   0  0  0  0  0  0  0  0  0  0  0  0
  -13.5627  -22.4913    0.0000 C   0  0  0  0  0  0  0  0  0  0  0  0
  -14.8246  -21.6803    0.0000 C   0  0  0  0  0  0  0  0  0  0  0  0
  -16.0381  -20.7986    0.0000 C   0  0  0  0  0  0  0  0  0  0  0  0
  -17.1994  -19.8491    0.0000 C   0  0  0  0  0  0  0  0  0  0  0  0
  -18.3045  -18.8348    0.0000 C   0  0  0  0  0  0  0  0  0  0  0  0
  -19.3499  -17.7591    0.0000 C   0  0  0  0  0  0  0  0  0  0  0  0
  -20.3322  -16.6255    0.0000 C   0  0  0  0  0  0  0  0  0  0  0  0
  -21.2481  -15.4377    0.0000 C   0  0  0  0  0  0  0  0  0  0  0  0
  -22.0948  -14.1995    0.0000 C   0  0  0  0  0  0  0  0  0  0  0  0
  -22.8694  -12.9149    0.0000 C   0  0  0  0  0  0  0  0  0  0  0  0
  -23.5694  -11.5883    0.0000 C   0  0  0  0  0  0  0  0  0  0  0  0
  -24.1925  -10.2238    0.0000 C   0  0  0  0  0  0  0  0  0  0  0  0
  -24.7367   -8.8260    0.0000 C   0  0  0  0  0  0  0  0  0  0  0  0
  -25.2003   -7.3995    0.0000 C   0  0  0  0  0  0  0  0  0  0  0  0
  -25.5816   -5.9487    0.0000 C   0  0  0  0  0  0  0  0  0  0  0  0
  -25.8795   -4.4786    0.0000 C   0  0  0  0  0  0  0  0  0  0  0  0
  -26.0929   -2.9939    0.0000 C   0  0  0  0  0  0  0  0  0  0  0  0
  -26.2213   -1.4994    0.0000 C   0  0  0  0  0  0  0  0  0  0  0  0
  -26.2641    0.0000    0.0000 C   0  0  0  0  0  0  0  0  0  0  0  0
  -26.2213    1.4994    0.0000 C   0  0  0  0  0  0  0  0  0  0  0  0
  -26.0929    2.9939    0.0000 C   0  0  0  0  0  0  0  0  0  0  0  0
  -25.8795    4.4786    0.0000 C   0  0  0  0  0  0  0  0  0  0  0  0
  -25.5816    5.9487    0.0000 C   0  0  0  0  0  0  0  0  0  0  0  0
  -25.2003    7.3995    0.0000 C   0  0  0  0  0  0  0  0  0  0  0  0
  -24.7367    8.8260    0.0000 C   0  0  0  0  0  0  0  0  0  0  0  0
  -24.1925   10.2238    0.0000 C   0  0  0  0  0  0  0  0  0  0  0  0
  -23.5694   11.5883    0.0000 C   0  0  0  0  0  0  0  0  0  0  0  0
  -22.8694   12.9149    0.0000 C   0  0  0  0  0  0  0  0  0  0  0  0
  -22.0948   14.1995    0.0000 C   0  0  0  0  0  0  0  0  0  0  0  0
  -21.2481   15.4377    0.0000 C   0  0  0  0  0  0  0  0  0  0  0  0
  -20.3322   16.6255    0.0000 C   0  0  0  0  0  0  0  0  0  0  0  0
  -19.3499   17.7591    0.0000 C   0  0  0  0  0  0  0  0  0  0  0  0
  -18.3045   18.8348    0.0000 C   0  0  0  0  0  0  0  0  0  0  0  0
  -17.1994   19.8491    0.0000 C   0  0  0  0  0  0  0  0  0  0  0  0
  -16.0381   20.7986    0.0000 C   0  0  0  0  0  0  0  0  0  0  0  0
  -14.8246   21.6803    0.0000 C   0  0  0  0  0  0  0  0  0  0  0  0
  -13.5627   22.4913    0.0000 C   0  0  0  0  0  0  0  0  0  0  0  0
  -12.2566   23.2289    0.0000 C   0  0  0  0  0  0  0  0  0  0  0  0
  -10.9105   23.8907    0.0000 C   0  0  0  0  0  0  0  0  0  0  0  0
   -9.5288   24.4746    0.0000 C   0  0  0  0  0  0  0  0  0  0  0  0
   -8.1161   24.9787    0.0000 C   0  0  0  0  0  0  0  0  0  0  0  0
   -6.6768   25.4013    0.0000 C   0  0  0  0  0  0  0  0  0  0  0  0
   -5.2158   25.7410    0.0000 C   0  0  0  0  0  0  0  0  0  0  0  0
   -3.7378   25.9968    0.0000 C   0  0  0  0  0  0  0  0  0  0  0  0
   -2.2476   26.1678    0.0000 C   0  0  0  0  0  0  0  0  0  0  0  0
   -0.7500   26.2534    0.0000 C   0  0  0  0  0  0  0  0  0  0  0  0
    0.7500   26.2534    0.0000 C   0  0  0  0  0  0  0  0  0  0  0  0
    2.2476   26.1678    0.0000 C   0  0  0  0  0  0  0  0  0  0  0  0
    3.7378   25.9968    0.0000 C   0  0  0  0  0  0  0  0  0  0  0  0
    5.2158   25.7410    0.0000 C   0  0  0  0  0  0  0  0  0  0  0  0
    6.6768   25.4013    0.0000 C   0  0  0  0  0  0  0  0  0  0  0  0
    8.1161   24.9787    0.0000 C   0  0  0  0  0  0  0  0  0  0  0  0
    9.5288   24.4746    0.0000 C   0  0  0  0  0  0  0  0  0  0  0  0
   10.9105   23.8907    0.0000 C   0  0  0  0  0  0  0  0  0  0  0  0
   12.2566   23.2289    0.0000 C   0  0  0  0  0  0  0  0  0  0  0  0
   13.5627   22.4913    0.0000 C   0  0  0  0  0  0  0  0  0  0  0  0
   14.8246   21.6803    0.0000 C   0  0  0  0  0  0  0  0  0  0  0  0
   16.0381   20.7986    0.0000 C   0  0  0  0  0  0  0  0  0  0  0  0
   17.1994   19.8491    0.0000 C   0  0  0  0  0  0  0  0  0  0  0  0
   18.3045   18.8348    0.0000 C   0  0  0  0  0  0  0  0  0  0  0  0
   19.3499   17.7591    0.0000 C   0  0  0  0  0  0  0  0  0  0  0  0
   20.3322   16.6255    0.0000 C   0  0  0  0  0  0  0  0  0  0  0  0
   21.2481   15.4377    0.0000 C   0  0  0  0  0  0  0  0  0  0  0  0
   22.0948   14.1995    0.0000 C   0  0  0  0  0  0  0  0  0  0  0  0
   22.8694   12.9149    0.0000 C   0  0  0  0  0  0  0  0  0  0  0  0
   23.5694   11.5883    0.0000 C   0  0  0  0  0  0  0  0  0  0  0  0
   24.1925   10.2238    0.0000 C   0  0  0  0  0  0  0  0  0  0  0  0
   24.7367    8.8260    0.0000 C   0  0  0  0  0  0  0  0  0  0  0  0
   25.2003    7.3995    0.0000 C   0  0  0  0  0  0  0  0  0  0  0  0
   25.5816    5.9487    0.0000 C   0  0  0  0  0  0  0  0  0  0  0  0
   25.8795    4.4786    0.0000 C   0  0  0  0  0  0  0  0  0  0  0  0
   26.0929    2.9939    0.0000 C   0  0  0  0  0  0  0  0  0  0  0  0
   26.2213    1.4994    0.0000 C   0  0  0  0  0  0  0  0  0  0  0  0
  1  2  1  0
  2  3  1  0
  3  4  1  0
  4  5  1  0
  5  6  1  0
  6  7  1  0
  7  8  1  0
  8  9  1  0
  9 10  1  0
 10 11  1  0
 11 12  1  0
 12 13  1  0
 13 14  1  0
 14 15  1  0
 15 16  1  0
 16 17  1  0
 17 18  1  0
 18 19  1  0
 19 20  1  0
 20 21  1  0
 21 22  1  0
 22 23  1  0
 23 24  1  0
 24 25  1  0
 25 26  1  0
 26 27  1  0
 27 28  1  0
 28 29  1  0
 29 30  1  0
 30 31  1  0
 31 32  1  0
 32 33  1  0
 33 34  1  0
 34 35  1  0
 35 36  1  0
 36 37  1  0
 37 38  1  0
 38 39  1  0
 39 40  1  0
 40 41  1  0
 41 42  1  0
 42 43  1  0
 43 44  1  0
 44 45  1  0
 45 46  1  0
 46 47  1  0
 47 48  1  0
 48 49  1  0
 49 50  1  0
 50 51  1  0
 51 52  1  0
 52 53  1  0
 53 54  1  0
 54 55  1  0
 55 56  1  0
 56 57  1  0
 57 58  1  0
 58 59  1  0
 59 60  1  0
 60 61  1  0
 61 62  1  0
 62 63  1  0
 63 64  1  0
 64 65  1  0
 65 66  1  0
 66 67  1  0
 67 68  1  0
 68 69  1  0
 69 70  1  0
 70 71  1  0
 71 72  1  0
 72 73  1  0
 73 74  1  0
 74 75  1  0
 75 76  1  0
 76 77  1  0
 77 78  1  0
 78 79  1  0
 79 80  1  0
 80 81  1  0
 81 82  1  0
 82 83  1  0
 83 84  1  0
 84 85  1  0
 85 86  1  0
 86 87  1  0
 87 88  1  0
 88 89  1  0
 89 90  1  0
 90 91  1  0
 91 92  1  0
 92 93  1  0
 93 94  1  0
 94 95  1  0
 95 96  1  0
 96 97  1  0
 97 98  1  0
 98 99  1  0
 99100  1  0
100101  1  0
101102  1  0
102103  1  0
103104  1  0
104105  1  0
105106  1  0
106107  1  0
107108  1  0
108109  1  0
109110  1  0
110111  1  0
111  2  1  0
M  END
>  <Title>  (766) 
idABBNgen8

$$$$

     RDKit          2D

 45 51  0  0  0  0  0  0  0  0999 V2000
    4.3881   -6.6982    0.0000 C   0  0  0  0  0  0  0  0  0  0  0  0
    3.0367   -6.0474    0.0000 C   0  0  0  0  0  0  0  0  0  0  0  0
    3.3705   -4.5850    0.0000 C   0  0  0  0  0  0  0  0  0  0  0  0
    3.0367   -3.1226    0.0000 C   0  0  0  0  0  0  0  0  0  0  0  0
    2.1015   -1.9499    0.0000 C   0  0  0  0  0  0  0  0  0  0  0  0
    3.0367   -0.7771    0.0000 C   0  0  0  0  0  0  0  0  0  0  0  0
    2.4887    0.6192    0.0000 O   0  0  0  0  0  0  0  0  0  0  0  0
    4.5199   -1.0007    0.0000 N   0  0  0  0  0  0  0  0  0  0  0  0
    5.4552    0.1721    0.0000 C   0  0  0  0  0  0  0  0  0  0  0  0
    6.9384   -0.0515    0.0000 N   0  0  0  0  0  0  0  0  0  0  0  0
    7.8736    1.1213    0.0000 N   0  0  0  0  0  0  0  0  0  0  0  0
    7.3256    2.5176    0.0000 N   0  0  0  0  0  0  0  0  0  0  0  0
    5.8424    2.7411    0.0000 N   0  0  0  0  0  0  0  0  0  0  0  0
    4.9072    1.5684    0.0000 N   0  0  0  0  0  0  0  0  0  0  0  0
    0.7500   -1.2990    0.0000 C   0  0  0  0  0  0  0  0  0  0  0  0
    1.5000    0.0000    0.0000 C   0  0  0  0  0  0  0  0  0  0  0  0
    0.7500    1.2990    0.0000 C   0  0  0  0  0  0  0  0  0  0  0  0
   -0.7500    1.2990    0.0000 C   0  0  0  0  0  0  0  0  0  0  0  0
   -1.5000    0.0000    0.0000 C   0  0  0  0  0  0  0  0  0  0  0  0
   -0.7500   -1.2990    0.0000 C   0  0  0  0  0  0  0  0  0  0  0  0
   -2.1015   -1.9499    0.0000 C   0  0  0  0  0  0  0  0  0  0  0  0
   -2.6495   -0.5536    0.0000 C   0  0  0  0  0  0  0  0  0  0  0  0
   -4.1327   -0.3300    0.0000 C   0  0  0  0  0  0  0  0  0  0  0  0
   -5.0679   -1.5027    0.0000 C   0  0  0  0  0  0  0  0  0  0  0  0
   -4.5199   -2.8990    0.0000 C   0  0  0  0  0  0  0  0  0  0  0  0
   -3.0367   -3.1226    0.0000 C   0  0  0  0  0  0  0  0  0  0  0  0
   -3.3705   -4.5850    0.0000 C   0  0  0  0  0  0  0  0  0  0  0  0
   -4.8038   -4.1429    0.0000 C   0  0  0  0  0  0  0  0  0  0  0  0
   -5.9034   -5.1631    0.0000 C   0  0  0  0  0  0  0  0  0  0  0  0
   -5.5696   -6.6255    0.0000 C   0  0  0  0  0  0  0  0  0  0  0  0
   -4.1363   -7.0677    0.0000 C   0  0  0  0  0  0  0  0  0  0  0  0
   -3.0367   -6.0474    0.0000 C   0  0  0  0  0  0  0  0  0  0  0  0
   -2.1015   -7.2201    0.0000 C   0  0  0  0  0  0  0  0  0  0  0  0
   -3.1380   -8.3043    0.0000 C   0  0  0  0  0  0  0  0  0  0  0  0
   -2.4272   -9.6252    0.0000 C   0  0  0  0  0  0  0  0  0  0  0  0
   -3.0781  -10.9767    0.0000 C   0  0  0  0  0  0  0  0  0  0  0  0
   -3.7289  -12.3281    0.0000 N   0  0  0  0  0  0  0  0  0  0  0  0
   -0.9513   -9.3574    0.0000 C   0  0  0  0  0  0  0  0  0  0  0  0
   -0.7500   -7.8710    0.0000 C   0  0  0  0  0  0  0  0  0  0  0  0
    0.7500   -7.8710    0.0000 C   0  0  0  0  0  0  0  0  0  0  0  0
    0.6379   -9.3668    0.0000 C   0  0  0  0  0  0  0  0  0  0  0  0
    1.8773  -10.2118    0.0000 C   0  0  0  0  0  0  0  0  0  0  0  0
    3.2287   -9.5609    0.0000 C   0  0  0  0  0  0  0  0  0  0  0  0
    3.3408   -8.0651    0.0000 C   0  0  0  0  0  0  0  0  0  0  0  0
    2.1015   -7.2201    0.0000 C   0  0  0  0  0  0  0  0  0  0  0  0
  1  2  1  0
  2  3  1  0
  3  4  1  0
  4  5  1  0
  5  6  1  0
  6  7  2  0
  6  8  1  0
  8  9  1  0
  9 10  2  0
 10 11  1  0
 11 12  2  0
 12 13  1  0
 13 14  2  0
  5 15  1  0
 15 16  2  0
 16 17  1  0
 17 18  2  0
 18 19  1  0
 19 20  2  0
 20 21  1  0
 21 22  2  0
 22 23  1  0
 23 24  2  0
 24 25  1  0
 25 26  2  0
 26 27  1  0
 27 28  2  0
 28 29  1  0
 29 30  2  0
 30 31  1  0
 31 32  2  0
 32 33  1  0
 33 34  2  0
 34 35  1  0
 35 36  1  0
 36 37  3  0
 35 38  1  0
 38 39  2  0
 39 40  1  0
 40 41  2  0
 41 42  1  0
 42 43  2  0
 43 44  1  0
 44 45  2  0
 45  2  1  0
 14  9  1  0
 20 15  1  0
 26 21  1  0
 32 27  1  0
 39 33  1  0
 45 40  1  0
M  END
>  <Title>  (767) 
idABBOgen8

$$$$

     RDKit          2D

 17 18  0  0  0  0  0  0  0  0999 V2000
    3.0000    0.0000    0.0000 C   0  0  0  0  0  0  0  0  0  0  0  0
    1.5000    0.0000    0.0000 C   0  0  0  0  0  0  0  0  0  0  0  0
    0.7500   -1.2990    0.0000 C   0  0  0  0  0  0  0  0  0  0  0  0
   -0.7500   -1.2990    0.0000 C   0  0  0  0  0  0  0  0  0  0  0  0
   -1.5000    0.0000    0.0000 C   0  0  0  0  0  0  0  0  0  0  0  0
   -3.0000    0.0000    0.0000 O   0  0  0  0  0  0  0  0  0  0  0  0
   -0.7500    1.2990    0.0000 C   0  0  0  0  0  0  0  0  0  0  0  0
   -1.5000    2.5981    0.0000 C   0  0  0  0  0  0  0  0  0  0  0  0
   -3.0000    2.5981    0.0000 O   0  0  0  0  0  0  0  0  0  0  0  0
   -0.7500    3.8971    0.0000 N   0  0  0  0  0  0  0  0  0  0  0  0
   -1.5000    5.1962    0.0000 C   0  0  0  0  0  0  0  0  0  0  0  0
   -0.7500    6.4952    0.0000 N   0  0  0  0  0  0  0  0  0  0  0  0
   -1.5000    7.7942    0.0000 N   0  0  0  0  0  0  0  0  0  0  0  0
   -3.0000    7.7942    0.0000 N   0  0  0  0  0  0  0  0  0  0  0  0
   -3.7500    6.4952    0.0000 N   0  0  0  0  0  0  0  0  0  0  0  0
   -3.0000    5.1962    0.0000 N   0  0  0  0  0  0  0  0  0  0  0  0
    0.7500    1.2990    0.0000 C   0  0  0  0  0  0  0  0  0  0  0  0
  1  2  1  0
  2  3  2  0
  3  4  1  0
  4  5  1  0
  5  6  1  0
  5  7  2  0
  7  8  1  0
  8  9  2  0
  8 10  1  0
 10 11  1  0
 11 12  2  0
 12 13  1  0
 13 14  2  0
 14 15  1  0
 15 16  2  0
  7 17  1  0
 17  2  1  0
 16 11  1  0
M  END
>  <Title>  (768) 
idABBPgen8

$$$$

     RDKit          2D

 11 11  0  0  0  0  0  0  0  0999 V2000
    5.0260   -3.8971    0.0000 C   0  0  0  0  0  0  0  0  0  0  0  0
    4.2760   -2.5981    0.0000 C   0  0  0  0  0  0  0  0  0  0  0  0
    3.5260   -1.2990    0.0000 C   0  0  0  0  0  0  0  0  0  0  0  0
    2.7760    0.0000    0.0000 C   0  0  0  0  0  0  0  0  0  0  0  0
    3.5260    1.2990    0.0000 C   0  0  0  0  0  0  0  0  0  0  0  0
    4.2760    2.5981    0.0000 N   0  0  0  0  0  0  0  0  0  0  0  0
    1.2760    0.0000    0.0000 C   0  0  0  0  0  0  0  0  0  0  0  0
    0.3943    1.2135    0.0000 C   0  0  0  0  0  0  0  0  0  0  0  0
   -1.0323    0.7500    0.0000 C   0  0  0  0  0  0  0  0  0  0  0  0
   -1.0323   -0.7500    0.0000 C   0  0  0  0  0  0  0  0  0  0  0  0
    0.3943   -1.2135    0.0000 C   0  0  0  0  0  0  0  0  0  0  0  0
  1  2  1  0
  2  3  3  0
  3  4  1  0
  4  5  1  0
  5  6  3  0
  4  7  1  0
  7  8  2  0
  8  9  1  0
  9 10  2  0
 10 11  1  0
 11  7  1  0
M  END
>  <Title>  (769) 
idABBQgen8

$$$$

     RDKit          2D

 70 73  0  0  0  0  0  0  0  0999 V2000
   -5.6828   -0.8692    0.0000 C   0  0  0  0  0  0  0  0  0  0  0  0
   -5.1276   -2.2626    0.0000 C   0  0  0  0  0  0  0  0  0  0  0  0
   -6.4890   -2.8925    0.0000 C   0  0  0  0  0  0  0  0  0  0  0  0
   -7.7743   -3.6658    0.0000 C   0  0  0  0  0  0  0  0  0  0  0  0
   -8.9684   -4.5736    0.0000 C   0  0  0  0  0  0  0  0  0  0  0  0
  -10.0574   -5.6051    0.0000 C   0  0  0  0  0  0  0  0  0  0  0  0
  -11.0285   -6.7483    0.0000 C   0  0  0  0  0  0  0  0  0  0  0  0
  -11.8703   -7.9899    0.0000 C   0  0  0  0  0  0  0  0  0  0  0  0
  -12.5729   -9.3151    0.0000 C   0  0  0  0  0  0  0  0  0  0  0  0
  -13.1281  -10.7086    0.0000 C   0  0  0  0  0  0  0  0  0  0  0  0
  -13.5294  -12.1539    0.0000 C   0  0  0  0  0  0  0  0  0  0  0  0
  -13.7720  -13.6342    0.0000 C   0  0  0  0  0  0  0  0  0  0  0  0
  -13.8533  -15.1320    0.0000 C   0  0  0  0  0  0  0  0  0  0  0  0
  -13.7720  -16.6298    0.0000 C   0  0  0  0  0  0  0  0  0  0  0  0
  -13.5294  -18.1100    0.0000 C   0  0  0  0  0  0  0  0  0  0  0  0
  -13.1281  -19.5553    0.0000 C   0  0  0  0  0  0  0  0  0  0  0  0
  -12.5729  -20.9488    0.0000 C   0  0  0  0  0  0  0  0  0  0  0  0
  -11.8703  -22.2741    0.0000 C   0  0  0  0  0  0  0  0  0  0  0  0
  -11.0285  -23.5156    0.0000 C   0  0  0  0  0  0  0  0  0  0  0  0
  -10.0574  -24.6588    0.0000 C   0  0  0  0  0  0  0  0  0  0  0  0
   -8.9684  -25.6904    0.0000 C   0  0  0  0  0  0  0  0  0  0  0  0
   -7.7743  -26.5982    0.0000 C   0  0  0  0  0  0  0  0  0  0  0  0
   -6.4890  -27.3715    0.0000 C   0  0  0  0  0  0  0  0  0  0  0  0
   -5.1276  -28.0013    0.0000 C   0  0  0  0  0  0  0  0  0  0  0  0
   -3.7061  -28.4803    0.0000 C   0  0  0  0  0  0  0  0  0  0  0  0
   -2.2412  -28.8027    0.0000 C   0  0  0  0  0  0  0  0  0  0  0  0
   -0.7500  -28.9649    0.0000 C   0  0  0  0  0  0  0  0  0  0  0  0
    0.7500  -28.9649    0.0000 C   0  0  0  0  0  0  0  0  0  0  0  0
    2.2412  -28.8027    0.0000 C   0  0  0  0  0  0  0  0  0  0  0  0
    3.7061  -28.4803    0.0000 C   0  0  0  0  0  0  0  0  0  0  0  0
    5.1276  -28.0013    0.0000 C   0  0  0  0  0  0  0  0  0  0  0  0
    6.4890  -27.3715    0.0000 C   0  0  0  0  0  0  0  0  0  0  0  0
    7.7743  -26.5982    0.0000 C   0  0  0  0  0  0  0  0  0  0  0  0
    8.9684  -25.6904    0.0000 C   0  0  0  0  0  0  0  0  0  0  0  0
   10.0574  -24.6588    0.0000 N   0  0  0  0  0  0  0  0  0  0  0  0
   11.0285  -23.5156    0.0000 C   0  0  0  0  0  0  0  0  0  0  0  0
   11.8703  -22.2741    0.0000 C   0  0  0  0  0  0  0  0  0  0  0  0
   12.5729  -20.9488    0.0000 C   0  0  0  0  0  0  0  0  0  0  0  0
   13.1281  -19.5553    0.0000 C   0  0  0  0  0  0  0  0  0  0  0  0
   13.5294  -18.1100    0.0000 C   0  0  0  0  0  0  0  0  0  0  0  0
   13.7720  -16.6298    0.0000 C   0  0  0  0  0  0  0  0  0  0  0  0
   13.8533  -15.1320    0.0000 C   0  0  0  0  0  0  0  0  0  0  0  0
   13.7720  -13.6342    0.0000 C   0  0  0  0  0  0  0  0  0  0  0  0
   13.5294  -12.1539    0.0000 C   0  0  0  0  0  0  0  0  0  0  0  0
   13.1281  -10.7086    0.0000 C   0  0  0  0  0  0  0  0  0  0  0  0
   12.5729   -9.3151    0.0000 C   0  0  0  0  0  0  0  0  0  0  0  0
   11.8703   -7.9899    0.0000 C   0  0  0  0  0  0  0  0  0  0  0  0
   11.0285   -6.7483    0.0000 C   0  0  0  0  0  0  0  0  0  0  0  0
   10.0574   -5.6051    0.0000 C   0  0  0  0  0  0  0  0  0  0  0  0
    8.9684   -4.5736    0.0000 C   0  0  0  0  0  0  0  0  0  0  0  0
    7.7743   -3.6658    0.0000 C   0  0  0  0  0  0  0  0  0  0  0  0
    6.4890   -2.8925    0.0000 C   0  0  0  0  0  0  0  0  0  0  0  0
    5.1276   -2.2626    0.0000 C   0  0  0  0  0  0  0  0  0  0  0  0
    3.7061   -1.7837    0.0000 C   0  0  0  0  0  0  0  0  0  0  0  0
    3.8522   -3.2765    0.0000 C   0  0  0  0  0  0  0  0  0  0  0  0
    2.4775   -3.8767    0.0000 C   0  0  0  0  0  0  0  0  0  0  0  0
    1.4818   -2.7548    0.0000 C   0  0  0  0  0  0  0  0  0  0  0  0
    2.2412   -1.4612    0.0000 C   0  0  0  0  0  0  0  0  0  0  0  0
    0.7500   -1.2990    0.0000 C   0  0  0  0  0  0  0  0  0  0  0  0
    1.5000    0.0000    0.0000 C   0  0  0  0  0  0  0  0  0  0  0  0
    0.7500    1.2990    0.0000 C   0  0  0  0  0  0  0  0  0  0  0  0
   -0.7500    1.2990    0.0000 C   0  0  0  0  0  0  0  0  0  0  0  0
   -1.5000    0.0000    0.0000 C   0  0  0  0  0  0  0  0  0  0  0  0
   -0.7500   -1.2990    0.0000 C   0  0  0  0  0  0  0  0  0  0  0  0
   -2.2412   -1.4612    0.0000 C   0  0  0  0  0  0  0  0  0  0  0  0
   -1.2295   -2.5687    0.0000 C   0  0  0  0  0  0  0  0  0  0  0  0
   -1.6827   -3.9986    0.0000 C   0  0  0  0  0  0  0  0  0  0  0  0
   -3.1476   -4.3210    0.0000 C   0  0  0  0  0  0  0  0  0  0  0  0
   -4.1593   -3.2136    0.0000 C   0  0  0  0  0  0  0  0  0  0  0  0
   -3.7061   -1.7837    0.0000 C   0  0  0  0  0  0  0  0  0  0  0  0
  1  2  1  0
  2  3  1  0
  3  4  2  0
  4  5  1  0
  5  6  2  0
  6  7  1  0
  7  8  1  0
  8  9  1  0
  9 10  1  0
 10 11  1  0
 11 12  1  0
 12 13  1  0
 13 14  1  0
 14 15  1  0
 15 16  1  0
 16 17  1  0
 17 18  1  0
 18 19  1  0
 19 20  1  0
 20 21  1  0
 21 22  1  0
 22 23  1  0
 23 24  1  0
 24 25  1  0
 25 26  1  0
 26 27  1  0
 27 28  1  0
 28 29  1  0
 29 30  1  0
 30 31  1  0
 31 32  1  0
 32 33  1  0
 33 34  1  0
 34 35  1  0
 35 36  1  0
 36 37  1  0
 37 38  2  0
 38 39  1  0
 39 40  2  0
 40 41  1  0
 41 42  2  0
 42 43  1  0
 43 44  2  0
 44 45  1  0
 45 46  2  0
 46 47  1  0
 47 48  2  0
 48 49  1  0
 49 50  2  0
 50 51  1  0
 51 52  2  0
 52 53  1  0
 53 54  2  0
 54 55  1  0
 55 56  2  0
 56 57  1  0
 57 58  2  0
 58 59  1  0
 59 60  2  0
 60 61  1  0
 61 62  2  0
 62 63  1  0
 63 64  2  0
 64 65  1  0
 65 66  2  0
 66 67  1  0
 67 68  2  0
 68 69  1  0
 69 70  2  0
 70  2  1  0
 58 54  1  0
 64 59  1  0
 70 65  1  0
M  END
>  <Title>  (770) 
idABBRgen8

$$$$

     RDKit          2D

 20 20  0  0  0  0  0  0  0  0999 V2000
   12.0000   -5.1962    0.0000 C   0  0  0  0  0  0  0  0  0  0  0  0
   10.5000   -5.1962    0.0000 C   0  0  0  0  0  0  0  0  0  0  0  0
    9.7500   -3.8971    0.0000 C   0  0  0  0  0  0  0  0  0  0  0  0
    8.2500   -3.8971    0.0000 C   0  0  0  0  0  0  0  0  0  0  0  0
    7.5000   -5.1962    0.0000 O   0  0  0  0  0  0  0  0  0  0  0  0
    7.5000   -2.5981    0.0000 C   0  0  0  0  0  0  0  0  0  0  0  0
    6.0000   -2.5981    0.0000 C   0  0  0  0  0  0  0  0  0  0  0  0
    5.2500   -1.2990    0.0000 C   0  0  0  0  0  0  0  0  0  0  0  0
    3.7500   -1.2990    0.0000 C   0  0  0  0  0  0  0  0  0  0  0  0
    3.0000   -2.5981    0.0000 O   0  0  0  0  0  0  0  0  0  0  0  0
    3.0000    0.0000    0.0000 N   0  0  0  0  0  0  0  0  0  0  0  0
    1.5000    0.0000    0.0000 C   0  0  0  0  0  0  0  0  0  0  0  0
    0.7500   -1.2990    0.0000 C   0  0  0  0  0  0  0  0  0  0  0  0
   -0.7500   -1.2990    0.0000 C   0  0  0  0  0  0  0  0  0  0  0  0
   -1.5000    0.0000    0.0000 C   0  0  0  0  0  0  0  0  0  0  0  0
   -3.0000    0.0000    0.0000 C   0  0  0  0  0  0  0  0  0  0  0  0
   -3.7500   -1.2990    0.0000 O   0  0  0  0  0  0  0  0  0  0  0  0
   -3.7500    1.2990    0.0000 O   0  0  0  0  0  0  0  0  0  0  0  0
   -0.7500    1.2990    0.0000 C   0  0  0  0  0  0  0  0  0  0  0  0
    0.7500    1.2990    0.0000 C   0  0  0  0  0  0  0  0  0  0  0  0
  1  2  1  0
  2  3  2  3
  3  4  1  0
  4  5  2  0
  4  6  1  0
  6  7  1  0
  7  8  1  0
  8  9  1  0
  9 10  2  0
  9 11  1  0
 11 12  1  0
 12 13  2  0
 13 14  1  0
 14 15  2  0
 15 16  1  0
 16 17  2  0
 16 18  1  0
 15 19  1  0
 19 20  1  0
 20 12  1  0
M  END
>  <Title>  (771) 
idABBSgen8

$$$$

     RDKit          2D

 24 25  0  0  0  0  0  0  0  0999 V2000
    4.7193    6.1170    0.0000 C   0  0  0  0  0  0  0  0  0  0  0  0
    4.2558    4.6904    0.0000 C   0  0  0  0  0  0  0  0  0  0  0  0
    5.2595    3.5757    0.0000 O   0  0  0  0  0  0  0  0  0  0  0  0
    2.7886    4.3786    0.0000 C   0  0  0  0  0  0  0  0  0  0  0  0
    2.3250    2.9520    0.0000 C   0  0  0  0  0  0  0  0  0  0  0  0
    0.8578    2.6401    0.0000 C   0  0  0  0  0  0  0  0  0  0  0  0
   -0.1459    3.7548    0.0000 O   0  0  0  0  0  0  0  0  0  0  0  0
    0.3943    1.2135    0.0000 N   0  0  0  0  0  0  0  0  0  0  0  0
    1.2760    0.0000    0.0000 C   0  0  0  0  0  0  0  0  0  0  0  0
    0.3943   -1.2135    0.0000 C   0  0  0  0  0  0  0  0  0  0  0  0
   -1.0323   -0.7500    0.0000 C   0  0  0  0  0  0  0  0  0  0  0  0
   -2.2458   -1.6317    0.0000 C   0  0  0  0  0  0  0  0  0  0  0  0
   -2.0890   -3.1235    0.0000 O   0  0  0  0  0  0  0  0  0  0  0  0
   -3.6161   -1.0216    0.0000 O   0  0  0  0  0  0  0  0  0  0  0  0
   -1.0323    0.7500    0.0000 C   0  0  0  0  0  0  0  0  0  0  0  0
   -2.2458    1.6317    0.0000 O   0  0  0  0  0  0  0  0  0  0  0  0
    1.7849    5.4933    0.0000 C   0  0  0  0  0  0  0  0  0  0  0  0
    0.3177    5.1814    0.0000 O   0  0  0  0  0  0  0  0  0  0  0  0
    2.2484    6.9199    0.0000 N   0  0  0  0  0  0  0  0  0  0  0  0
    1.2447    8.0346    0.0000 C   0  0  0  0  0  0  0  0  0  0  0  0
   -0.2471    7.8778    0.0000 C   0  0  0  0  0  0  0  0  0  0  0  0
   -0.8572    9.2481    0.0000 C   0  0  0  0  0  0  0  0  0  0  0  0
    0.2575   10.2518    0.0000 C   0  0  0  0  0  0  0  0  0  0  0  0
    1.5566    9.5018    0.0000 C   0  0  0  0  0  0  0  0  0  0  0  0
  1  2  1  0
  2  3  2  0
  2  4  1  0
  4  5  1  0
  5  6  1  0
  6  7  2  0
  6  8  1  0
  8  9  1  0
  9 10  1  0
 10 11  1  0
 11 12  1  0
 12 13  2  0
 12 14  1  0
 11 15  1  0
 15 16  2  0
  4 17  1  0
 17 18  2  0
 17 19  1  0
 19 20  1  0
 20 21  2  0
 21 22  1  0
 22 23  2  0
 23 24  1  0
 15  8  1  0
 24 20  1  0
M  END
>  <Title>  (772) 
idABBTgen8

$$$$

     RDKit          2D

 93 93  0  0  0  0  0  0  0  0999 V2000
   24.7290   -0.0000    0.0000 C   0  0  0  0  0  0  0  0  0  0  0  0
   23.2290   -0.0000    0.0000 C   0  0  0  0  0  0  0  0  0  0  0  0
   21.7290    0.0000    0.0000 C   0  0  0  0  0  0  0  0  0  0  0  0
   21.6772    1.4991    0.0000 C   0  0  0  0  0  0  0  0  0  0  0  0
   21.5221    2.9911    0.0000 C   0  0  0  0  0  0  0  0  0  0  0  0
   21.2645    4.4688    0.0000 C   0  0  0  0  0  0  0  0  0  0  0  0
   20.9055    5.9252    0.0000 C   0  0  0  0  0  0  0  0  0  0  0  0
   20.4469    7.3534    0.0000 C   0  0  0  0  0  0  0  0  0  0  0  0
   19.8909    8.7465    0.0000 C   0  0  0  0  0  0  0  0  0  0  0  0
   19.2400   10.0980    0.0000 C   0  0  0  0  0  0  0  0  0  0  0  0
   18.4975   11.4013    0.0000 C   0  0  0  0  0  0  0  0  0  0  0  0
   17.6669   12.6503    0.0000 C   0  0  0  0  0  0  0  0  0  0  0  0
   16.7520   13.8390    0.0000 C   0  0  0  0  0  0  0  0  0  0  0  0
   15.7573   14.9618    0.0000 C   0  0  0  0  0  0  0  0  0  0  0  0
   14.6876   16.0132    0.0000 C   0  0  0  0  0  0  0  0  0  0  0  0
   13.5478   16.9884    0.0000 C   0  0  0  0  0  0  0  0  0  0  0  0
   12.3435   17.8826    0.0000 C   0  0  0  0  0  0  0  0  0  0  0  0
   11.0803   18.6916    0.0000 C   0  0  0  0  0  0  0  0  0  0  0  0
    9.7644   19.4115    0.0000 C   0  0  0  0  0  0  0  0  0  0  0  0
    8.4019   20.0389    0.0000 C   0  0  0  0  0  0  0  0  0  0  0  0
    6.9993   20.5708    0.0000 C   0  0  0  0  0  0  0  0  0  0  0  0
    5.5635   21.0047    0.0000 C   0  0  0  0  0  0  0  0  0  0  0  0
    4.1011   21.3384    0.0000 C   0  0  0  0  0  0  0  0  0  0  0  0
    2.6191   21.5705    0.0000 C   0  0  0  0  0  0  0  0  0  0  0  0
    1.1247   21.6998    0.0000 C   0  0  0  0  0  0  0  0  0  0  0  0
   -0.3751   21.7257    0.0000 C   0  0  0  0  0  0  0  0  0  0  0  0
   -1.8730   21.6481    0.0000 C   0  0  0  0  0  0  0  0  0  0  0  0
   -3.3621   21.4673    0.0000 C   0  0  0  0  0  0  0  0  0  0  0  0
   -4.8351   21.1842    0.0000 C   0  0  0  0  0  0  0  0  0  0  0  0
   -6.2851   20.8001    0.0000 C   0  0  0  0  0  0  0  0  0  0  0  0
   -7.7052   20.3169    0.0000 C   0  0  0  0  0  0  0  0  0  0  0  0
   -9.0885   19.7369    0.0000 C   0  0  0  0  0  0  0  0  0  0  0  0
  -10.4285   19.0629    0.0000 C   0  0  0  0  0  0  0  0  0  0  0  0
  -11.7189   18.2980    0.0000 C   0  0  0  0  0  0  0  0  0  0  0  0
  -12.9533   17.4459    0.0000 C   0  0  0  0  0  0  0  0  0  0  0  0
  -14.1261   16.5106    0.0000 C   0  0  0  0  0  0  0  0  0  0  0  0
  -15.2315   15.4967    0.0000 C   0  0  0  0  0  0  0  0  0  0  0  0
  -16.2644   14.4090    0.0000 C   0  0  0  0  0  0  0  0  0  0  0  0
  -17.2197   13.2525    0.0000 C   0  0  0  0  0  0  0  0  0  0  0  0
  -18.0930   12.0330    0.0000 C   0  0  0  0  0  0  0  0  0  0  0  0
  -18.8800   10.7560    0.0000 C   0  0  0  0  0  0  0  0  0  0  0  0
  -19.5771    9.4278    0.0000 C   0  0  0  0  0  0  0  0  0  0  0  0
  -20.1809    8.0547    0.0000 C   0  0  0  0  0  0  0  0  0  0  0  0
  -20.6885    6.6432    0.0000 C   0  0  0  0  0  0  0  0  0  0  0  0
  -21.0976    5.2001    0.0000 C   0  0  0  0  0  0  0  0  0  0  0  0
  -21.4061    3.7321    0.0000 C   0  0  0  0  0  0  0  0  0  0  0  0
  -21.6125    2.2464    0.0000 C   0  0  0  0  0  0  0  0  0  0  0  0
  -21.7160    0.7500    0.0000 C   0  0  0  0  0  0  0  0  0  0  0  0
  -21.7160   -0.7500    0.0000 C   0  0  0  0  0  0  0  0  0  0  0  0
  -21.6125   -2.2464    0.0000 C   0  0  0  0  0  0  0  0  0  0  0  0
  -21.4061   -3.7321    0.0000 C   0  0  0  0  0  0  0  0  0  0  0  0
  -21.0976   -5.2001    0.0000 C   0  0  0  0  0  0  0  0  0  0  0  0
  -20.6885   -6.6432    0.0000 C   0  0  0  0  0  0  0  0  0  0  0  0
  -20.1809   -8.0547    0.0000 C   0  0  0  0  0  0  0  0  0  0  0  0
  -19.5771   -9.4278    0.0000 C   0  0  0  0  0  0  0  0  0  0  0  0
  -18.8800  -10.7560    0.0000 C   0  0  0  0  0  0  0  0  0  0  0  0
  -18.0930  -12.0330    0.0000 C   0  0  0  0  0  0  0  0  0  0  0  0
  -17.2197  -13.2525    0.0000 C   0  0  0  0  0  0  0  0  0  0  0  0
  -16.2644  -14.4090    0.0000 C   0  0  0  0  0  0  0  0  0  0  0  0
  -15.2315  -15.4967    0.0000 C   0  0  0  0  0  0  0  0  0  0  0  0
  -14.1261  -16.5106    0.0000 C   0  0  0  0  0  0  0  0  0  0  0  0
  -12.9533  -17.4459    0.0000 C   0  0  0  0  0  0  0  0  0  0  0  0
  -11.7189  -18.2980    0.0000 C   0  0  0  0  0  0  0  0  0  0  0  0
  -10.4285  -19.0629    0.0000 C   0  0  0  0  0  0  0  0  0  0  0  0
   -9.0885  -19.7369    0.0000 C   0  0  0  0  0  0  0  0  0  0  0  0
   -7.7052  -20.3169    0.0000 C   0  0  0  0  0  0  0  0  0  0  0  0
   -6.2851  -20.8001    0.0000 C   0  0  0  0  0  0  0  0  0  0  0  0
   -4.8351  -21.1842    0.0000 C   0  0  0  0  0  0  0  0  0  0  0  0
   -3.3621  -21.4673    0.0000 C   0  0  0  0  0  0  0  0  0  0  0  0
   -1.8730  -21.6481    0.0000 C   0  0  0  0  0  0  0  0  0  0  0  0
   -0.3751  -21.7257    0.0000 C   0  0  0  0  0  0  0  0  0  0  0  0
    1.1247  -21.6998    0.0000 C   0  0  0  0  0  0  0  0  0  0  0  0
    2.6191  -21.5705    0.0000 C   0  0  0  0  0  0  0  0  0  0  0  0
    4.1011  -21.3384    0.0000 C   0  0  0  0  0  0  0  0  0  0  0  0
    5.5635  -21.0047    0.0000 C   0  0  0  0  0  0  0  0  0  0  0  0
    6.9993  -20.5708    0.0000 C   0  0  0  0  0  0  0  0  0  0  0  0
    8.4019  -20.0389    0.0000 C   0  0  0  0  0  0  0  0  0  0  0  0
    9.7644  -19.4115    0.0000 C   0  0  0  0  0  0  0  0  0  0  0  0
   11.0803  -18.6916    0.0000 C   0  0  0  0  0  0  0  0  0  0  0  0
   12.3435  -17.8826    0.0000 C   0  0  0  0  0  0  0  0  0  0  0  0
   13.5478  -16.9884    0.0000 C   0  0  0  0  0  0  0  0  0  0  0  0
   14.6876  -16.0132    0.0000 C   0  0  0  0  0  0  0  0  0  0  0  0
   15.7573  -14.9618    0.0000 C   0  0  0  0  0  0  0  0  0  0  0  0
   16.7520  -13.8390    0.0000 C   0  0  0  0  0  0  0  0  0  0  0  0
   17.6669  -12.6503    0.0000 C   0  0  0  0  0  0  0  0  0  0  0  0
   18.4975  -11.4013    0.0000 C   0  0  0  0  0  0  0  0  0  0  0  0
   19.2400  -10.0980    0.0000 C   0  0  0  0  0  0  0  0  0  0  0  0
   19.8909   -8.7465    0.0000 C   0  0  0  0  0  0  0  0  0  0  0  0
   20.4469   -7.3534    0.0000 C   0  0  0  0  0  0  0  0  0  0  0  0
   20.9055   -5.9252    0.0000 C   0  0  0  0  0  0  0  0  0  0  0  0
   21.2645   -4.4688    0.0000 C   0  0  0  0  0  0  0  0  0  0  0  0
   21.5221   -2.9911    0.0000 C   0  0  0  0  0  0  0  0  0  0  0  0
   21.6772   -1.4991    0.0000 C   0  0  0  0  0  0  0  0  0  0  0  0
  1  2  3  0
  2  3  1  0
  3  4  1  0
  4  5  1  0
  5  6  1  0
  6  7  1  0
  7  8  1  0
  8  9  1  0
  9 10  1  0
 10 11  1  0
 11 12  1  0
 12 13  1  0
 13 14  1  0
 14 15  1  0
 15 16  1  0
 16 17  1  0
 17 18  1  0
 18 19  1  0
 19 20  1  0
 20 21  1  0
 21 22  1  0
 22 23  1  0
 23 24  1  0
 24 25  1  0
 25 26  1  0
 26 27  1  0
 27 28  1  0
 28 29  1  0
 29 30  1  0
 30 31  1  0
 31 32  1  0
 32 33  1  0
 33 34  1  0
 34 35  1  0
 35 36  1  0
 36 37  1  0
 37 38  1  0
 38 39  1  0
 39 40  1  0
 40 41  2  0
 41 42  1  0
 42 43  2  0
 43 44  1  0
 44 45  2  0
 45 46  1  0
 46 47  2  0
 47 48  1  0
 48 49  2  0
 49 50  1  0
 50 51  1  0
 51 52  1  0
 52 53  1  0
 53 54  1  0
 54 55  1  0
 55 56  1  0
 56 57  1  0
 57 58  1  0
 58 59  1  0
 59 60  1  0
 60 61  1  0
 61 62  1  0
 62 63  1  0
 63 64  1  0
 64 65  1  0
 65 66  1  0
 66 67  1  0
 67 68  1  0
 68 69  1  0
 69 70  1  0
 70 71  1  0
 71 72  1  0
 72 73  1  0
 73 74  1  0
 74 75  1  0
 75 76  1  0
 76 77  1  0
 77 78  1  0
 78 79  1  0
 79 80  1  0
 80 81  1  0
 81 82  1  0
 82 83  1  0
 83 84  1  0
 84 85  1  0
 85 86  1  0
 86 87  1  0
 87 88  1  0
 88 89  1  0
 89 90  1  0
 90 91  1  0
 91 92  1  0
 92 93  1  0
 93  3  1  0
M  END
>  <Title>  (773) 
idABBUgen8

$$$$

     RDKit          2D

  6  6  0  0  0  0  0  0  0  0999 V2000
    2.7760    0.0000    0.0000 C   0  0  0  0  0  0  0  0  0  0  0  0
    1.2760    0.0000    0.0000 C   0  0  0  0  0  0  0  0  0  0  0  0
    0.3943    1.2135    0.0000 C   0  0  0  0  0  0  0  0  0  0  0  0
   -1.0323    0.7500    0.0000 C   0  0  0  0  0  0  0  0  0  0  0  0
   -1.0323   -0.7500    0.0000 C   0  0  0  0  0  0  0  0  0  0  0  0
    0.3943   -1.2135    0.0000 C   0  0  0  0  0  0  0  0  0  0  0  0
  1  2  1  0
  2  3  1  0
  3  4  1  0
  4  5  1  0
  5  6  1  0
  6  2  1  0
M  END
>  <Title>  (774) 
idABBVgen8

$$$$

     RDKit          2D

 12 12  0  0  0  0  0  0  0  0999 V2000
    8.0260    1.2990    0.0000 C   0  0  0  0  0  0  0  0  0  0  0  0
    6.5260    1.2990    0.0000 C   0  0  0  0  0  0  0  0  0  0  0  0
    5.0260    1.2990    0.0000 C   0  0  0  0  0  0  0  0  0  0  0  0
    3.5260    1.2990    0.0000 C   0  0  0  0  0  0  0  0  0  0  0  0
    2.7760    2.5981    0.0000 O   0  0  0  0  0  0  0  0  0  0  0  0
    2.7760    0.0000    0.0000 C   0  0  0  0  0  0  0  0  0  0  0  0
    3.5260   -1.2990    0.0000 C   0  0  0  0  0  0  0  0  0  0  0  0
    1.2760    0.0000    0.0000 C   0  0  0  0  0  0  0  0  0  0  0  0
    0.3943    1.2135    0.0000 C   0  0  0  0  0  0  0  0  0  0  0  0
   -1.0323    0.7500    0.0000 C   0  0  0  0  0  0  0  0  0  0  0  0
   -1.0323   -0.7500    0.0000 C   0  0  0  0  0  0  0  0  0  0  0  0
    0.3943   -1.2135    0.0000 C   0  0  0  0  0  0  0  0  0  0  0  0
  1  2  1  0
  2  3  3  0
  3  4  1  0
  4  5  2  0
  4  6  1  0
  6  7  1  0
  6  8  1  0
  8  9  2  0
  9 10  1  0
 10 11  2  0
 11 12  1  0
 12  8  1  0
M  END
>  <Title>  (775) 
idABBWgen8

$$$$

     RDKit          2D

  5  4  0  0  0  0  0  0  0  0999 V2000
    0.0000    0.0000    0.0000 C   0  0  0  0  0  0  0  0  0  0  0  0
    1.2990    0.7500    0.0000 C   0  0  0  0  0  0  0  0  0  0  0  0
    2.5981   -0.0000    0.0000 C   0  0  0  0  0  0  0  0  0  0  0  0
    2.5981   -1.5000    0.0000 O   0  0  0  0  0  0  0  0  0  0  0  0
    3.8971    0.7500    0.0000 O   0  0  0  0  0  0  0  0  0  0  0  0
  1  2  1  0
  2  3  1  0
  3  4  2  0
  3  5  1  0
M  END
>  <Title>  (776) 
idABBXgen8

$$$$

     RDKit          2D

  8  8  0  0  0  0  0  0  0  0999 V2000
    3.0000    0.0000    0.0000 O   0  0  0  0  0  0  0  0  0  0  0  0
    1.5000    0.0000    0.0000 C   0  0  0  0  0  0  0  0  0  0  0  0
    0.7500   -1.2990    0.0000 C   0  0  0  0  0  0  0  0  0  0  0  0
   -0.7500   -1.2990    0.0000 C   0  0  0  0  0  0  0  0  0  0  0  0
   -1.5000    0.0000    0.0000 C   0  0  0  0  0  0  0  0  0  0  0  0
   -0.7500    1.2990    0.0000 C   0  0  0  0  0  0  0  0  0  0  0  0
   -1.5000    2.5981    0.0000 F   0  0  0  0  0  0  0  0  0  0  0  0
    0.7500    1.2990    0.0000 C   0  0  0  0  0  0  0  0  0  0  0  0
  1  2  1  0
  2  3  2  0
  3  4  1  0
  4  5  2  0
  5  6  1  0
  6  7  1  0
  6  8  2  0
  8  2  1  0
M  END
>  <Title>  (777) 
idABBYgen8

$$$$

     RDKit          2D

103104  0  0  0  0  0  0  0  0999 V2000
    3.1582   -4.0115    0.0000 C   0  0  0  0  0  0  0  0  0  0  0  0
    3.9166   -4.2573    0.0000 C   0  0  0  0  0  0  0  0  0  0  0  0
    3.5090   -5.7009    0.0000 C   0  0  0  0  0  0  0  0  0  0  0  0
    3.2132   -7.1714    0.0000 C   0  0  0  0  0  0  0  0  0  0  0  0
    3.0308   -8.6603    0.0000 C   0  0  0  0  0  0  0  0  0  0  0  0
    2.9629  -10.1588    0.0000 C   0  0  0  0  0  0  0  0  0  0  0  0
    3.0099  -11.6580    0.0000 C   0  0  0  0  0  0  0  0  0  0  0  0
    3.1715  -13.1493    0.0000 C   0  0  0  0  0  0  0  0  0  0  0  0
    3.4469  -14.6238    0.0000 C   0  0  0  0  0  0  0  0  0  0  0  0
    3.8343  -16.0729    0.0000 C   0  0  0  0  0  0  0  0  0  0  0  0
    4.3314  -17.4881    0.0000 C   0  0  0  0  0  0  0  0  0  0  0  0
    4.9355  -18.8611    0.0000 C   0  0  0  0  0  0  0  0  0  0  0  0
    5.6429  -20.1839    0.0000 C   0  0  0  0  0  0  0  0  0  0  0  0
    6.4494  -21.4486    0.0000 C   0  0  0  0  0  0  0  0  0  0  0  0
    7.3504  -22.6478    0.0000 C   0  0  0  0  0  0  0  0  0  0  0  0
    8.3406  -23.7746    0.0000 C   0  0  0  0  0  0  0  0  0  0  0  0
    9.4141  -24.8222    0.0000 C   0  0  0  0  0  0  0  0  0  0  0  0
   10.5647  -25.7846    0.0000 C   0  0  0  0  0  0  0  0  0  0  0  0
   11.7855  -26.6561    0.0000 C   0  0  0  0  0  0  0  0  0  0  0  0
   13.0695  -27.4316    0.0000 C   0  0  0  0  0  0  0  0  0  0  0  0
   14.4091  -28.1065    0.0000 C   0  0  0  0  0  0  0  0  0  0  0  0
   15.7964  -28.6769    0.0000 C   0  0  0  0  0  0  0  0  0  0  0  0
   17.2233  -29.1395    0.0000 C   0  0  0  0  0  0  0  0  0  0  0  0
   18.6814  -29.4914    0.0000 C   0  0  0  0  0  0  0  0  0  0  0  0
   20.1622  -29.7307    0.0000 C   0  0  0  0  0  0  0  0  0  0  0  0
   21.6570  -29.8559    0.0000 C   0  0  0  0  0  0  0  0  0  0  0  0
   23.1570  -29.8664    0.0000 C   0  0  0  0  0  0  0  0  0  0  0  0
   24.6533  -29.7620    0.0000 C   0  0  0  0  0  0  0  0  0  0  0  0
   26.1373  -29.5433    0.0000 C   0  0  0  0  0  0  0  0  0  0  0  0
   27.6002  -29.2118    0.0000 C   0  0  0  0  0  0  0  0  0  0  0  0
   29.0334  -28.7691    0.0000 C   0  0  0  0  0  0  0  0  0  0  0  0
   30.4285  -28.2181    0.0000 C   0  0  0  0  0  0  0  0  0  0  0  0
   31.7774  -27.5619    0.0000 C   0  0  0  0  0  0  0  0  0  0  0  0
   33.0720  -26.8044    0.0000 C   0  0  0  0  0  0  0  0  0  0  0  0
   34.3049  -25.9500    0.0000 C   0  0  0  0  0  0  0  0  0  0  0  0
   35.4688  -25.0037    0.0000 C   0  0  0  0  0  0  0  0  0  0  0  0
   36.5568  -23.9711    0.0000 C   0  0  0  0  0  0  0  0  0  0  0  0
   37.5625  -22.8583    0.0000 C   0  0  0  0  0  0  0  0  0  0  0  0
   38.4802  -21.6717    0.0000 C   0  0  0  0  0  0  0  0  0  0  0  0
   39.3043  -20.4183    0.0000 C   0  0  0  0  0  0  0  0  0  0  0  0
   40.0300  -19.1056    0.0000 C   0  0  0  0  0  0  0  0  0  0  0  0
   40.6531  -17.7412    0.0000 C   0  0  0  0  0  0  0  0  0  0  0  0
   41.1700  -16.3330    0.0000 C   0  0  0  0  0  0  0  0  0  0  0  0
   41.5775  -14.8894    0.0000 C   0  0  0  0  0  0  0  0  0  0  0  0
   41.8733  -13.4189    0.0000 C   0  0  0  0  0  0  0  0  0  0  0  0
   42.0557  -11.9300    0.0000 C   0  0  0  0  0  0  0  0  0  0  0  0
   42.1236  -10.4316    0.0000 C   0  0  0  0  0  0  0  0  0  0  0  0
   42.0766   -8.9323    0.0000 C   0  0  0  0  0  0  0  0  0  0  0  0
   41.9150   -7.4410    0.0000 C   0  0  0  0  0  0  0  0  0  0  0  0
   41.6397   -5.9665    0.0000 C   0  0  0  0  0  0  0  0  0  0  0  0
   41.2523   -4.5174    0.0000 C   0  0  0  0  0  0  0  0  0  0  0  0
   40.7551   -3.1022    0.0000 C   0  0  0  0  0  0  0  0  0  0  0  0
   40.1510   -1.7292    0.0000 C   0  0  0  0  0  0  0  0  0  0  0  0
   39.4437   -0.4065    0.0000 C   0  0  0  0  0  0  0  0  0  0  0  0
   38.6371    0.8582    0.0000 C   0  0  0  0  0  0  0  0  0  0  0  0
   37.7361    2.0575    0.0000 C   0  0  0  0  0  0  0  0  0  0  0  0
   36.7459    3.1842    0.0000 C   0  0  0  0  0  0  0  0  0  0  0  0
   35.6724    4.2319    0.0000 C   0  0  0  0  0  0  0  0  0  0  0  0
   34.5219    5.1943    0.0000 C   0  0  0  0  0  0  0  0  0  0  0  0
   33.3010    6.0658    0.0000 C   0  0  0  0  0  0  0  0  0  0  0  0
   32.0170    6.8413    0.0000 C   0  0  0  0  0  0  0  0  0  0  0  0
   30.6774    7.5162    0.0000 C   0  0  0  0  0  0  0  0  0  0  0  0
   29.2901    8.0866    0.0000 C   0  0  0  0  0  0  0  0  0  0  0  0
   27.8632    8.5491    0.0000 C   0  0  0  0  0  0  0  0  0  0  0  0
   26.4051    8.9011    0.0000 C   0  0  0  0  0  0  0  0  0  0  0  0
   24.9243    9.1404    0.0000 C   0  0  0  0  0  0  0  0  0  0  0  0
   23.4295    9.2656    0.0000 C   0  0  0  0  0  0  0  0  0  0  0  0
   21.9296    9.2761    0.0000 C   0  0  0  0  0  0  0  0  0  0  0  0
   20.4332    9.1717    0.0000 C   0  0  0  0  0  0  0  0  0  0  0  0
   18.9492    8.9530    0.0000 C   0  0  0  0  0  0  0  0  0  0  0  0
   17.4864    8.6214    0.0000 C   0  0  0  0  0  0  0  0  0  0  0  0
   16.0531    8.1788    0.0000 C   0  0  0  0  0  0  0  0  0  0  0  0
   14.6580    7.6278    0.0000 C   0  0  0  0  0  0  0  0  0  0  0  0
   13.3092    6.9716    0.0000 C   0  0  0  0  0  0  0  0  0  0  0  0
   12.0145    6.2141    0.0000 C   0  0  0  0  0  0  0  0  0  0  0  0
   10.7816    5.3597    0.0000 C   0  0  0  0  0  0  0  0  0  0  0  0
    9.6178    4.4134    0.0000 C   0  0  0  0  0  0  0  0  0  0  0  0
    8.5298    3.3808    0.0000 C   0  0  0  0  0  0  0  0  0  0  0  0
    7.5240    2.2679    0.0000 C   0  0  0  0  0  0  0  0  0  0  0  0
    6.6064    1.0814    0.0000 C   0  0  0  0  0  0  0  0  0  0  0  0
    5.7823   -0.1720    0.0000 C   0  0  0  0  0  0  0  0  0  0  0  0
    5.0565   -1.4847    0.0000 C   0  0  0  0  0  0  0  0  0  0  0  0
    4.5700   -0.0000    0.0000 C   0  0  0  0  0  0  0  0  0  0  0  0
    4.3849    1.2875    0.0000 C   0  0  0  0  0  0  0  0  0  0  0  0
    3.8445    2.4707    0.0000 C   0  0  0  0  0  0  0  0  0  0  0  0
    2.9927    3.4538    0.0000 C   0  0  0  0  0  0  0  0  0  0  0  0
    1.8984    4.1570    0.0000 C   0  0  0  0  0  0  0  0  0  0  0  0
    0.6504    4.5235    0.0000 C   0  0  0  0  0  0  0  0  0  0  0  0
   -0.6504    4.5235    0.0000 C   0  0  0  0  0  0  0  0  0  0  0  0
   -1.8984    4.1570    0.0000 C   0  0  0  0  0  0  0  0  0  0  0  0
   -2.9927    3.4538    0.0000 C   0  0  0  0  0  0  0  0  0  0  0  0
   -3.8445    2.4707    0.0000 C   0  0  0  0  0  0  0  0  0  0  0  0
   -4.3849    1.2875    0.0000 C   0  0  0  0  0  0  0  0  0  0  0  0
   -4.5700    0.0000    0.0000 C   0  0  0  0  0  0  0  0  0  0  0  0
   -4.3849   -1.2875    0.0000 C   0  0  0  0  0  0  0  0  0  0  0  0
   -3.8445   -2.4707    0.0000 C   0  0  0  0  0  0  0  0  0  0  0  0
   -2.9927   -3.4538    0.0000 C   0  0  0  0  0  0  0  0  0  0  0  0
   -1.8984   -4.1570    0.0000 C   0  0  0  0  0  0  0  0  0  0  0  0
   -0.6504   -4.5235    0.0000 C   0  0  0  0  0  0  0  0  0  0  0  0
    0.6504   -4.5235    0.0000 C   0  0  0  0  0  0  0  0  0  0  0  0
    1.8984   -4.1570    0.0000 C   0  0  0  0  0  0  0  0  0  0  0  0
    2.9927   -3.4538    0.0000 C   0  0  0  0  0  0  0  0  0  0  0  0
    4.4334   -2.8492    0.0000 C   0  0  0  0  0  0  0  0  0  0  0  0
  1  2  1  0
  2  3  1  0
  3  4  1  0
  4  5  1  0
  5  6  1  0
  6  7  1  0
  7  8  1  0
  8  9  1  0
  9 10  1  0
 10 11  1  0
 11 12  1  0
 12 13  1  0
 13 14  1  0
 14 15  1  0
 15 16  1  0
 16 17  1  0
 17 18  1  0
 18 19  1  0
 19 20  1  0
 20 21  1  0
 21 22  1  0
 22 23  1  0
 23 24  1  0
 24 25  1  0
 25 26  1  0
 26 27  1  0
 27 28  1  0
 28 29  1  0
 29 30  1  0
 30 31  1  0
 31 32  1  0
 32 33  1  0
 33 34  1  0
 34 35  1  0
 35 36  1  0
 36 37  1  0
 37 38  1  0
 38 39  1  0
 39 40  1  0
 40 41  1  0
 41 42  1  0
 42 43  1  0
 43 44  1  0
 44 45  1  0
 45 46  1  0
 46 47  1  0
 47 48  1  0
 48 49  1  0
 49 50  1  0
 50 51  1  0
 51 52  1  0
 52 53  1  0
 53 54  1  0
 54 55  1  0
 55 56  1  0
 56 57  1  0
 57 58  1  0
 58 59  1  0
 59 60  1  0
 60 61  1  0
 61 62  1  0
 62 63  1  0
 63 64  1  0
 64 65  1  0
 65 66  1  0
 66 67  1  0
 67 68  1  0
 68 69  1  0
 69 70  1  0
 70 71  1  0
 71 72  1  0
 72 73  1  0
 73 74  1  0
 74 75  1  0
 75 76  1  0
 76 77  1  0
 77 78  1  0
 78 79  1  0
 79 80  1  0
 80 81  1  0
 81 82  1  0
 82 83  1  0
 83 84  1  0
 84 85  1  0
 85 86  1  0
 86 87  2  0
 87 88  1  0
 88 89  2  0
 89 90  1  0
 90 91  2  0
 91 92  1  0
 92 93  2  0
 93 94  1  0
 94 95  2  0
 95 96  1  0
 96 97  2  0
 97 98  1  0
 98 99  2  0
 99100  1  0
100101  2  0
101102  1  0
102103  2  0
103  2  1  0
103 82  1  0
M  END
>  <Title>  (778) 
idABBZgen8

$$$$

     RDKit          2D

 13 13  0  0  0  0  0  0  0  0999 V2000
   13.2760   -0.0000    0.0000 C   0  0  0  0  0  0  0  0  0  0  0  0
   11.7760   -0.0000    0.0000 C   0  0  0  0  0  0  0  0  0  0  0  0
   10.2760   -0.0000    0.0000 C   0  0  0  0  0  0  0  0  0  0  0  0
    8.7760   -0.0000    0.0000 C   0  0  0  0  0  0  0  0  0  0  0  0
    7.2760   -0.0000    0.0000 C   0  0  0  0  0  0  0  0  0  0  0  0
    5.7760   -0.0000    0.0000 C   0  0  0  0  0  0  0  0  0  0  0  0
    4.2760   -0.0000    0.0000 C   0  0  0  0  0  0  0  0  0  0  0  0
    2.7760    0.0000    0.0000 C   0  0  0  0  0  0  0  0  0  0  0  0
    1.2760    0.0000    0.0000 C   0  0  0  0  0  0  0  0  0  0  0  0
    0.3943    1.2135    0.0000 C   0  0  0  0  0  0  0  0  0  0  0  0
   -1.0323    0.7500    0.0000 C   0  0  0  0  0  0  0  0  0  0  0  0
   -1.0323   -0.7500    0.0000 C   0  0  0  0  0  0  0  0  0  0  0  0
    0.3943   -1.2135    0.0000 C   0  0  0  0  0  0  0  0  0  0  0  0
  1  2  3  0
  2  3  1  0
  3  4  3  0
  4  5  1  0
  5  6  3  0
  6  7  1  0
  7  8  3  0
  8  9  1  0
  9 10  2  0
 10 11  1  0
 11 12  2  0
 12 13  1  0
 13  9  1  0
M  END
>  <Title>  (779) 
idABCAgen8

$$$$

     RDKit          2D

 11 10  0  0  0  0  0  0  0  0999 V2000
    0.0000    0.0000    0.0000 C   0  0  0  0  0  0  0  0  0  0  0  0
    1.2990    0.7500    0.0000 C   0  0  0  0  0  0  0  0  0  0  0  0
    2.5981   -0.0000    0.0000 C   0  0  0  0  0  0  0  0  0  0  0  0
    3.8971    0.7500    0.0000 C   0  0  0  0  0  0  0  0  0  0  0  0
    3.8971    2.2500    0.0000 O   0  0  0  0  0  0  0  0  0  0  0  0
    5.1962   -0.0000    0.0000 C   0  0  0  0  0  0  0  0  0  0  0  0
    6.4952    0.7500    0.0000 C   0  0  0  0  0  0  0  0  0  0  0  0
    7.7942   -0.0000    0.0000 C   0  0  0  0  0  0  0  0  0  0  0  0
    7.7942   -1.5000    0.0000 O   0  0  0  0  0  0  0  0  0  0  0  0
    9.0933    0.7500    0.0000 C   0  0  0  0  0  0  0  0  0  0  0  0
   10.3923   -0.0000    0.0000 C   0  0  0  0  0  0  0  0  0  0  0  0
  1  2  1  0
  2  3  2  3
  3  4  1  0
  4  5  2  0
  4  6  1  0
  6  7  1  0
  7  8  1  0
  8  9  2  0
  8 10  1  0
 10 11  1  0
M  END
>  <Title>  (780) 
idABCBgen8

$$$$

     RDKit          2D

 19 20  0  0  0  0  0  0  0  0999 V2000
    3.0000   -7.7942    0.0000 O   0  0  0  0  0  0  0  0  0  0  0  0
    1.5000   -7.7942    0.0000 C   0  0  0  0  0  0  0  0  0  0  0  0
    0.7500   -9.0933    0.0000 O   0  0  0  0  0  0  0  0  0  0  0  0
    0.7500   -6.4952    0.0000 C   0  0  0  0  0  0  0  0  0  0  0  0
    1.5000   -5.1962    0.0000 C   0  0  0  0  0  0  0  0  0  0  0  0
    0.7500   -3.8971    0.0000 C   0  0  0  0  0  0  0  0  0  0  0  0
    1.5000   -2.5981    0.0000 C   0  0  0  0  0  0  0  0  0  0  0  0
    0.7500   -1.2990    0.0000 C   0  0  0  0  0  0  0  0  0  0  0  0
    1.5000    0.0000    0.0000 C   0  0  0  0  0  0  0  0  0  0  0  0
    0.7500    1.2990    0.0000 C   0  0  0  0  0  0  0  0  0  0  0  0
   -0.7500    1.2990    0.0000 C   0  0  0  0  0  0  0  0  0  0  0  0
   -1.5000    0.0000    0.0000 C   0  0  0  0  0  0  0  0  0  0  0  0
   -0.7500   -1.2990    0.0000 C   0  0  0  0  0  0  0  0  0  0  0  0
    3.0000   -5.1962    0.0000 N   0  0  0  0  0  0  0  0  0  0  0  0
    3.7500   -3.8971    0.0000 C   0  0  0  0  0  0  0  0  0  0  0  0
    5.2418   -3.7403    0.0000 C   0  0  0  0  0  0  0  0  0  0  0  0
    5.5537   -2.2731    0.0000 C   0  0  0  0  0  0  0  0  0  0  0  0
    4.2546   -1.5231    0.0000 C   0  0  0  0  0  0  0  0  0  0  0  0
    3.1399   -2.5268    0.0000 C   0  0  0  0  0  0  0  0  0  0  0  0
  1  2  2  0
  2  3  1  0
  2  4  1  0
  4  5  1  0
  5  6  2  3
  6  7  1  0
  7  8  1  0
  8  9  2  0
  9 10  1  0
 10 11  2  0
 11 12  1  0
 12 13  2  0
  5 14  1  0
 14 15  1  0
 15 16  2  0
 16 17  1  0
 17 18  1  0
 18 19  2  0
 13  8  1  0
 19 15  1  0
M  END
>  <Title>  (781) 
idABCCgen8

$$$$

     RDKit          2D

 64 74  0  0  0  0  0  0  0  0999 V2000
    5.7253   -2.7143    0.0000 C   0  0  0  0  0  0  0  0  0  0  0  0
    4.4998   -3.5794    0.0000 N   0  0  0  0  0  0  0  0  0  0  0  0
    3.4760   -2.4831    0.0000 C   0  0  0  0  0  0  0  0  0  0  0  0
    2.1944   -1.7037    0.0000 C   0  0  0  0  0  0  0  0  0  0  0  0
    0.7500   -1.2990    0.0000 C   0  0  0  0  0  0  0  0  0  0  0  0
    1.5000    0.0000    0.0000 C   0  0  0  0  0  0  0  0  0  0  0  0
    0.7500    1.2990    0.0000 C   0  0  0  0  0  0  0  0  0  0  0  0
   -0.7500    1.2990    0.0000 C   0  0  0  0  0  0  0  0  0  0  0  0
   -1.5000    0.0000    0.0000 C   0  0  0  0  0  0  0  0  0  0  0  0
   -0.7500   -1.2990    0.0000 C   0  0  0  0  0  0  0  0  0  0  0  0
   -2.1944   -1.7037    0.0000 C   0  0  0  0  0  0  0  0  0  0  0  0
   -2.2285   -0.2041    0.0000 C   0  0  0  0  0  0  0  0  0  0  0  0
   -3.5443    0.5161    0.0000 C   0  0  0  0  0  0  0  0  0  0  0  0
   -4.8259   -0.2633    0.0000 C   0  0  0  0  0  0  0  0  0  0  0  0
   -4.7918   -1.7629    0.0000 C   0  0  0  0  0  0  0  0  0  0  0  0
   -3.4760   -2.4831    0.0000 C   0  0  0  0  0  0  0  0  0  0  0  0
   -4.4998   -3.5794    0.0000 C   0  0  0  0  0  0  0  0  0  0  0  0
   -5.3082   -2.3158    0.0000 C   0  0  0  0  0  0  0  0  0  0  0  0
   -6.8066   -2.3841    0.0000 C   0  0  0  0  0  0  0  0  0  0  0  0
   -7.4967   -3.7159    0.0000 C   0  0  0  0  0  0  0  0  0  0  0  0
   -6.6884   -4.9795    0.0000 C   0  0  0  0  0  0  0  0  0  0  0  0
   -5.1899   -4.9112    0.0000 C   0  0  0  0  0  0  0  0  0  0  0  0
   -5.4951   -6.3798    0.0000 C   0  0  0  0  0  0  0  0  0  0  0  0
   -6.8423   -5.7202    0.0000 C   0  0  0  0  0  0  0  0  0  0  0  0
   -8.0871   -6.5571    0.0000 C   0  0  0  0  0  0  0  0  0  0  0  0
   -7.9848   -8.0536    0.0000 C   0  0  0  0  0  0  0  0  0  0  0  0
   -6.6376   -8.7132    0.0000 C   0  0  0  0  0  0  0  0  0  0  0  0
   -5.3928   -7.8763    0.0000 C   0  0  0  0  0  0  0  0  0  0  0  0
   -4.8904   -9.2897    0.0000 C   0  0  0  0  0  0  0  0  0  0  0  0
   -6.3842   -9.4261    0.0000 C   0  0  0  0  0  0  0  0  0  0  0  0
   -7.0130  -10.7880    0.0000 C   0  0  0  0  0  0  0  0  0  0  0  0
   -6.1480  -12.0134    0.0000 C   0  0  0  0  0  0  0  0  0  0  0  0
   -4.6542  -11.8770    0.0000 C   0  0  0  0  0  0  0  0  0  0  0  0
   -4.0254  -10.5152    0.0000 C   0  0  0  0  0  0  0  0  0  0  0  0
   -2.8618  -11.4618    0.0000 C   0  0  0  0  0  0  0  0  0  0  0  0
   -4.0673  -12.3545    0.0000 C   0  0  0  0  0  0  0  0  0  0  0  0
   -3.8969  -13.8448    0.0000 C   0  0  0  0  0  0  0  0  0  0  0  0
   -2.5211  -14.4424    0.0000 C   0  0  0  0  0  0  0  0  0  0  0  0
   -1.3157  -13.5497    0.0000 C   0  0  0  0  0  0  0  0  0  0  0  0
   -1.4860  -12.0594    0.0000 C   0  0  0  0  0  0  0  0  0  0  0  0
   -0.0000  -12.2636    0.0000 C   0  0  0  0  0  0  0  0  0  0  0  0
   -0.5661  -13.6527    0.0000 C   0  0  0  0  0  0  0  0  0  0  0  0
    0.3538  -14.8375    0.0000 C   0  0  0  0  0  0  0  0  0  0  0  0
    1.8398  -14.6333    0.0000 C   0  0  0  0  0  0  0  0  0  0  0  0
    2.4059  -13.2442    0.0000 C   0  0  0  0  0  0  0  0  0  0  0  0
    1.4860  -12.0594    0.0000 C   0  0  0  0  0  0  0  0  0  0  0  0
    2.8618  -11.4618    0.0000 C   0  0  0  0  0  0  0  0  0  0  0  0
    3.0999  -12.9428    0.0000 C   0  0  0  0  0  0  0  0  0  0  0  0
    4.5015  -13.4772    0.0000 C   0  0  0  0  0  0  0  0  0  0  0  0
    5.6650  -12.5305    0.0000 C   0  0  0  0  0  0  0  0  0  0  0  0
    5.4270  -11.0495    0.0000 C   0  0  0  0  0  0  0  0  0  0  0  0
    4.0254  -10.5152    0.0000 C   0  0  0  0  0  0  0  0  0  0  0  0
    4.8904   -9.2897    0.0000 C   0  0  0  0  0  0  0  0  0  0  0  0
    5.8633  -10.4314    0.0000 C   0  0  0  0  0  0  0  0  0  0  0  0
    7.3385  -10.1598    0.0000 C   0  0  0  0  0  0  0  0  0  0  0  0
    7.8408   -8.7464    0.0000 C   0  0  0  0  0  0  0  0  0  0  0  0
    6.8679   -7.6046    0.0000 C   0  0  0  0  0  0  0  0  0  0  0  0
    5.3928   -7.8763    0.0000 C   0  0  0  0  0  0  0  0  0  0  0  0
    5.4951   -6.3798    0.0000 C   0  0  0  0  0  0  0  0  0  0  0  0
    6.9196   -6.8498    0.0000 C   0  0  0  0  0  0  0  0  0  0  0  0
    8.0389   -5.8512    0.0000 C   0  0  0  0  0  0  0  0  0  0  0  0
    7.7337   -4.3826    0.0000 C   0  0  0  0  0  0  0  0  0  0  0  0
    6.3092   -3.9126    0.0000 C   0  0  0  0  0  0  0  0  0  0  0  0
    5.1899   -4.9112    0.0000 C   0  0  0  0  0  0  0  0  0  0  0  0
  1  2  1  0
  2  3  1  0
  3  4  1  0
  4  5  1  0
  5  6  1  0
  6  7  1  0
  7  8  1  0
  8  9  1  0
  9 10  1  0
 10 11  1  0
 11 12  2  0
 12 13  1  0
 13 14  2  0
 14 15  1  0
 15 16  2  0
 16 17  1  0
 17 18  2  0
 18 19  1  0
 19 20  2  0
 20 21  1  0
 21 22  2  0
 22 23  1  0
 23 24  2  0
 24 25  1  0
 25 26  2  0
 26 27  1  0
 27 28  2  0
 28 29  1  0
 29 30  2  0
 30 31  1  0
 31 32  2  0
 32 33  1  0
 33 34  2  0
 34 35  1  0
 35 36  2  0
 36 37  1  0
 37 38  2  0
 38 39  1  0
 39 40  2  0
 40 41  1  0
 41 42  2  0
 42 43  1  0
 43 44  2  0
 44 45  1  0
 45 46  2  0
 46 47  1  0
 47 48  2  0
 48 49  1  0
 49 50  2  0
 50 51  1  0
 51 52  2  0
 52 53  1  0
 53 54  2  0
 54 55  1  0
 55 56  2  0
 56 57  1  0
 57 58  2  0
 58 59  1  0
 59 60  2  0
 60 61  1  0
 61 62  2  0
 62 63  1  0
 63 64  2  0
 64  2  1  0
 10  5  1  0
 16 11  1  0
 22 17  1  0
 28 23  1  0
 34 29  1  0
 40 35  1  0
 46 41  1  0
 52 47  1  0
 58 53  1  0
 64 59  1  0
M  END
>  <Title>  (782) 
idABCDgen8

$$$$

     RDKit          2D

  9  9  0  0  0  0  0  0  0  0999 V2000
    4.2760   -0.0000    0.0000 N   0  0  0  0  0  0  0  0  0  0  0  0
    2.7760    0.0000    0.0000 C   0  0  0  0  0  0  0  0  0  0  0  0
    1.2760    0.0000    0.0000 C   0  0  0  0  0  0  0  0  0  0  0  0
    0.3943    1.2135    0.0000 C   0  0  0  0  0  0  0  0  0  0  0  0
   -1.0323    0.7500    0.0000 C   0  0  0  0  0  0  0  0  0  0  0  0
   -1.0323   -0.7500    0.0000 C   0  0  0  0  0  0  0  0  0  0  0  0
   -2.2458   -1.6317    0.0000 C   0  0  0  0  0  0  0  0  0  0  0  0
   -3.4593   -2.5134    0.0000 N   0  0  0  0  0  0  0  0  0  0  0  0
    0.3943   -1.2135    0.0000 C   0  0  0  0  0  0  0  0  0  0  0  0
  1  2  3  0
  2  3  1  0
  3  4  2  0
  4  5  1  0
  5  6  1  0
  6  7  1  0
  7  8  3  0
  6  9  2  0
  9  3  1  0
M  END
>  <Title>  (783) 
idABCEgen8

$$$$

     RDKit          2D

113113  0  0  0  0  0  0  0  0999 V2000
   28.2415    0.0000    0.0000 C   0  0  0  0  0  0  0  0  0  0  0  0
   26.7415    0.0000    0.0000 C   0  0  0  0  0  0  0  0  0  0  0  0
   26.6995   -1.4994    0.0000 C   0  0  0  0  0  0  0  0  0  0  0  0
   26.5734   -2.9941    0.0000 C   0  0  0  0  0  0  0  0  0  0  0  0
   26.3637   -4.4794    0.0000 C   0  0  0  0  0  0  0  0  0  0  0  0
   26.0711   -5.9506    0.0000 C   0  0  0  0  0  0  0  0  0  0  0  0
   25.6964   -7.4030    0.0000 C   0  0  0  0  0  0  0  0  0  0  0  0
   25.2409   -8.8322    0.0000 C   0  0  0  0  0  0  0  0  0  0  0  0
   24.7060  -10.2335    0.0000 C   0  0  0  0  0  0  0  0  0  0  0  0
   24.0933  -11.6027    0.0000 C   0  0  0  0  0  0  0  0  0  0  0  0
   23.4048  -12.9354    0.0000 C   0  0  0  0  0  0  0  0  0  0  0  0
   22.6427  -14.2274    0.0000 C   0  0  0  0  0  0  0  0  0  0  0  0
   21.8094  -15.4746    0.0000 C   0  0  0  0  0  0  0  0  0  0  0  0
   20.9074  -16.6731    0.0000 C   0  0  0  0  0  0  0  0  0  0  0  0
   19.9396  -17.8191    0.0000 C   0  0  0  0  0  0  0  0  0  0  0  0
   18.9091  -18.9091    0.0000 C   0  0  0  0  0  0  0  0  0  0  0  0
   17.8191  -19.9396    0.0000 C   0  0  0  0  0  0  0  0  0  0  0  0
   16.6731  -20.9074    0.0000 C   0  0  0  0  0  0  0  0  0  0  0  0
   15.4746  -21.8094    0.0000 C   0  0  0  0  0  0  0  0  0  0  0  0
   14.2274  -22.6427    0.0000 C   0  0  0  0  0  0  0  0  0  0  0  0
   12.9354  -23.4048    0.0000 C   0  0  0  0  0  0  0  0  0  0  0  0
   11.6027  -24.0933    0.0000 C   0  0  0  0  0  0  0  0  0  0  0  0
   10.2335  -24.7060    0.0000 C   0  0  0  0  0  0  0  0  0  0  0  0
    8.8322  -25.2409    0.0000 C   0  0  0  0  0  0  0  0  0  0  0  0
    7.4030  -25.6964    0.0000 C   0  0  0  0  0  0  0  0  0  0  0  0
    5.9506  -26.0711    0.0000 C   0  0  0  0  0  0  0  0  0  0  0  0
    4.4794  -26.3637    0.0000 C   0  0  0  0  0  0  0  0  0  0  0  0
    2.9941  -26.5734    0.0000 C   0  0  0  0  0  0  0  0  0  0  0  0
    1.4994  -26.6995    0.0000 C   0  0  0  0  0  0  0  0  0  0  0  0
   -0.0000  -26.7415    0.0000 C   0  0  0  0  0  0  0  0  0  0  0  0
   -1.4994  -26.6995    0.0000 C   0  0  0  0  0  0  0  0  0  0  0  0
   -2.9941  -26.5734    0.0000 C   0  0  0  0  0  0  0  0  0  0  0  0
   -4.4794  -26.3637    0.0000 C   0  0  0  0  0  0  0  0  0  0  0  0
   -5.9506  -26.0711    0.0000 C   0  0  0  0  0  0  0  0  0  0  0  0
   -7.4030  -25.6964    0.0000 C   0  0  0  0  0  0  0  0  0  0  0  0
   -8.8322  -25.2409    0.0000 C   0  0  0  0  0  0  0  0  0  0  0  0
  -10.2335  -24.7060    0.0000 C   0  0  0  0  0  0  0  0  0  0  0  0
  -11.6027  -24.0933    0.0000 C   0  0  0  0  0  0  0  0  0  0  0  0
  -12.9354  -23.4048    0.0000 C   0  0  0  0  0  0  0  0  0  0  0  0
  -14.2274  -22.6427    0.0000 C   0  0  0  0  0  0  0  0  0  0  0  0
  -15.4746  -21.8094    0.0000 C   0  0  0  0  0  0  0  0  0  0  0  0
  -16.6731  -20.9074    0.0000 C   0  0  0  0  0  0  0  0  0  0  0  0
  -17.8191  -19.9396    0.0000 C   0  0  0  0  0  0  0  0  0  0  0  0
  -18.9091  -18.9091    0.0000 C   0  0  0  0  0  0  0  0  0  0  0  0
  -19.9396  -17.8191    0.0000 C   0  0  0  0  0  0  0  0  0  0  0  0
  -20.9074  -16.6731    0.0000 C   0  0  0  0  0  0  0  0  0  0  0  0
  -21.8094  -15.4746    0.0000 C   0  0  0  0  0  0  0  0  0  0  0  0
  -22.6427  -14.2274    0.0000 C   0  0  0  0  0  0  0  0  0  0  0  0
  -23.4048  -12.9354    0.0000 C   0  0  0  0  0  0  0  0  0  0  0  0
  -24.0933  -11.6027    0.0000 C   0  0  0  0  0  0  0  0  0  0  0  0
  -24.7060  -10.2335    0.0000 C   0  0  0  0  0  0  0  0  0  0  0  0
  -25.2409   -8.8322    0.0000 C   0  0  0  0  0  0  0  0  0  0  0  0
  -25.6964   -7.4030    0.0000 C   0  0  0  0  0  0  0  0  0  0  0  0
  -26.0711   -5.9506    0.0000 C   0  0  0  0  0  0  0  0  0  0  0  0
  -26.3637   -4.4794    0.0000 C   0  0  0  0  0  0  0  0  0  0  0  0
  -26.5734   -2.9941    0.0000 C   0  0  0  0  0  0  0  0  0  0  0  0
  -26.6995   -1.4994    0.0000 C   0  0  0  0  0  0  0  0  0  0  0  0
  -26.7415    0.0000    0.0000 C   0  0  0  0  0  0  0  0  0  0  0  0
  -26.6995    1.4994    0.0000 C   0  0  0  0  0  0  0  0  0  0  0  0
  -26.5734    2.9941    0.0000 C   0  0  0  0  0  0  0  0  0  0  0  0
  -26.3637    4.4794    0.0000 C   0  0  0  0  0  0  0  0  0  0  0  0
  -26.0711    5.9506    0.0000 C   0  0  0  0  0  0  0  0  0  0  0  0
  -25.6964    7.4030    0.0000 C   0  0  0  0  0  0  0  0  0  0  0  0
  -25.2409    8.8322    0.0000 C   0  0  0  0  0  0  0  0  0  0  0  0
  -24.7060   10.2335    0.0000 C   0  0  0  0  0  0  0  0  0  0  0  0
  -24.0933   11.6027    0.0000 C   0  0  0  0  0  0  0  0  0  0  0  0
  -23.4048   12.9354    0.0000 C   0  0  0  0  0  0  0  0  0  0  0  0
  -22.6427   14.2274    0.0000 C   0  0  0  0  0  0  0  0  0  0  0  0
  -21.8094   15.4746    0.0000 C   0  0  0  0  0  0  0  0  0  0  0  0
  -20.9074   16.6731    0.0000 C   0  0  0  0  0  0  0  0  0  0  0  0
  -19.9396   17.8191    0.0000 C   0  0  0  0  0  0  0  0  0  0  0  0
  -18.9091   18.9091    0.0000 C   0  0  0  0  0  0  0  0  0  0  0  0
  -17.8191   19.9396    0.0000 C   0  0  0  0  0  0  0  0  0  0  0  0
  -16.6731   20.9074    0.0000 C   0  0  0  0  0  0  0  0  0  0  0  0
  -15.4746   21.8094    0.0000 C   0  0  0  0  0  0  0  0  0  0  0  0
  -14.2274   22.6427    0.0000 C   0  0  0  0  0  0  0  0  0  0  0  0
  -12.9354   23.4048    0.0000 C   0  0  0  0  0  0  0  0  0  0  0  0
  -11.6027   24.0933    0.0000 C   0  0  0  0  0  0  0  0  0  0  0  0
  -10.2335   24.7060    0.0000 C   0  0  0  0  0  0  0  0  0  0  0  0
   -8.8322   25.2409    0.0000 C   0  0  0  0  0  0  0  0  0  0  0  0
   -7.4030   25.6964    0.0000 C   0  0  0  0  0  0  0  0  0  0  0  0
   -5.9506   26.0711    0.0000 C   0  0  0  0  0  0  0  0  0  0  0  0
   -4.4794   26.3637    0.0000 C   0  0  0  0  0  0  0  0  0  0  0  0
   -2.9941   26.5734    0.0000 C   0  0  0  0  0  0  0  0  0  0  0  0
   -1.4994   26.6995    0.0000 C   0  0  0  0  0  0  0  0  0  0  0  0
    0.0000   26.7415    0.0000 C   0  0  0  0  0  0  0  0  0  0  0  0
    1.4994   26.6995    0.0000 C   0  0  0  0  0  0  0  0  0  0  0  0
    2.9941   26.5734    0.0000 C   0  0  0  0  0  0  0  0  0  0  0  0
    4.4794   26.3637    0.0000 C   0  0  0  0  0  0  0  0  0  0  0  0
    5.9506   26.0711    0.0000 C   0  0  0  0  0  0  0  0  0  0  0  0
    7.4030   25.6964    0.0000 C   0  0  0  0  0  0  0  0  0  0  0  0
    8.8322   25.2409    0.0000 C   0  0  0  0  0  0  0  0  0  0  0  0
   10.2335   24.7060    0.0000 C   0  0  0  0  0  0  0  0  0  0  0  0
   11.6027   24.0933    0.0000 C   0  0  0  0  0  0  0  0  0  0  0  0
   12.9354   23.4048    0.0000 C   0  0  0  0  0  0  0  0  0  0  0  0
   14.2274   22.6427    0.0000 C   0  0  0  0  0  0  0  0  0  0  0  0
   15.4746   21.8094    0.0000 C   0  0  0  0  0  0  0  0  0  0  0  0
   16.6731   20.9074    0.0000 C   0  0  0  0  0  0  0  0  0  0  0  0
   17.8191   19.9396    0.0000 C   0  0  0  0  0  0  0  0  0  0  0  0
   18.9091   18.9091    0.0000 C   0  0  0  0  0  0  0  0  0  0  0  0
   19.9396   17.8191    0.0000 C   0  0  0  0  0  0  0  0  0  0  0  0
   20.9074   16.6731    0.0000 C   0  0  0  0  0  0  0  0  0  0  0  0
   21.8094   15.4746    0.0000 C   0  0  0  0  0  0  0  0  0  0  0  0
   22.6427   14.2274    0.0000 C   0  0  0  0  0  0  0  0  0  0  0  0
   23.4048   12.9354    0.0000 C   0  0  0  0  0  0  0  0  0  0  0  0
   24.0933   11.6027    0.0000 C   0  0  0  0  0  0  0  0  0  0  0  0
   24.7060   10.2335    0.0000 C   0  0  0  0  0  0  0  0  0  0  0  0
   25.2409    8.8322    0.0000 C   0  0  0  0  0  0  0  0  0  0  0  0
   25.6964    7.4030    0.0000 C   0  0  0  0  0  0  0  0  0  0  0  0
   26.0711    5.9506    0.0000 C   0  0  0  0  0  0  0  0  0  0  0  0
   26.3637    4.4794    0.0000 C   0  0  0  0  0  0  0  0  0  0  0  0
   26.5734    2.9941    0.0000 C   0  0  0  0  0  0  0  0  0  0  0  0
   26.6995    1.4994    0.0000 C   0  0  0  0  0  0  0  0  0  0  0  0
  1  2  1  0
  2  3  1  0
  3  4  1  0
  4  5  1  0
  5  6  1  0
  6  7  1  0
  7  8  1  0
  8  9  1  0
  9 10  1  0
 10 11  1  0
 11 12  1  0
 12 13  1  0
 13 14  1  0
 14 15  1  0
 15 16  1  0
 16 17  1  0
 17 18  1  0
 18 19  1  0
 19 20  1  0
 20 21  1  0
 21 22  1  0
 22 23  1  0
 23 24  1  0
 24 25  1  0
 25 26  1  0
 26 27  1  0
 27 28  1  0
 28 29  1  0
 29 30  1  0
 30 31  1  0
 31 32  1  0
 32 33  1  0
 33 34  1  0
 34 35  1  0
 35 36  1  0
 36 37  1  0
 37 38  1  0
 38 39  1  0
 39 40  1  0
 40 41  1  0
 41 42  1  0
 42 43  1  0
 43 44  1  0
 44 45  1  0
 45 46  1  0
 46 47  1  0
 47 48  1  0
 48 49  1  0
 49 50  1  0
 50 51  1  0
 51 52  1  0
 52 53  1  0
 53 54  1  0
 54 55  1  0
 55 56  1  0
 56 57  1  0
 57 58  1  0
 58 59  1  0
 59 60  1  0
 60 61  1  0
 61 62  1  0
 62 63  1  0
 63 64  1  0
 64 65  1  0
 65 66  1  0
 66 67  1  0
 67 68  1  0
 68 69  1  0
 69 70  1  0
 70 71  1  0
 71 72  1  0
 72 73  1  0
 73 74  1  0
 74 75  1  0
 75 76  1  0
 76 77  1  0
 77 78  1  0
 78 79  1  0
 79 80  1  0
 80 81  1  0
 81 82  1  0
 82 83  1  0
 83 84  1  0
 84 85  1  0
 85 86  1  0
 86 87  1  0
 87 88  1  0
 88 89  1  0
 89 90  1  0
 90 91  1  0
 91 92  1  0
 92 93  1  0
 93 94  1  0
 94 95  1  0
 95 96  1  0
 96 97  1  0
 97 98  1  0
 98 99  1  0
 99100  1  0
100101  1  0
101102  1  0
102103  1  0
103104  1  0
104105  1  0
105106  1  0
106107  1  0
107108  1  0
108109  1  0
109110  1  0
110111  1  0
111112  1  0
112113  1  0
113  2  1  0
M  END
>  <Title>  (784) 
idABCFgen8

$$$$

     RDKit          2D

 16 17  0  0  0  0  0  0  0  0999 V2000
   -0.7500   -3.8971    0.0000 O   0  0  0  0  0  0  0  0  0  0  0  0
    0.7500   -3.8971    0.0000 C   0  0  0  0  0  0  0  0  0  0  0  0
    1.5000   -2.5981    0.0000 N   0  0  0  0  0  0  0  0  0  0  0  0
    0.7500   -1.2990    0.0000 C   0  0  0  0  0  0  0  0  0  0  0  0
    1.5000    0.0000    0.0000 N   0  0  0  0  0  0  0  0  0  0  0  0
    0.7500    1.2990    0.0000 C   0  0  0  0  0  0  0  0  0  0  0  0
   -0.7500    1.2990    0.0000 N   0  0  0  0  0  0  0  0  0  0  0  0
   -1.5000    0.0000    0.0000 N   0  0  0  0  0  0  0  0  0  0  0  0
   -0.7500   -1.2990    0.0000 N   0  0  0  0  0  0  0  0  0  0  0  0
    1.5000   -5.1962    0.0000 C   0  0  0  0  0  0  0  0  0  0  0  0
    3.0000   -5.1962    0.0000 O   0  0  0  0  0  0  0  0  0  0  0  0
    0.7500   -6.4952    0.0000 C   0  0  0  0  0  0  0  0  0  0  0  0
    1.3601   -7.8655    0.0000 C   0  0  0  0  0  0  0  0  0  0  0  0
    0.2454   -8.8692    0.0000 C   0  0  0  0  0  0  0  0  0  0  0  0
   -1.0537   -8.1192    0.0000 C   0  0  0  0  0  0  0  0  0  0  0  0
   -0.7418   -6.6520    0.0000 C   0  0  0  0  0  0  0  0  0  0  0  0
  1  2  2  0
  2  3  1  0
  3  4  1  0
  4  5  2  0
  5  6  1  0
  6  7  2  0
  7  8  1  0
  8  9  2  0
  2 10  1  0
 10 11  2  0
 10 12  1  0
 12 13  2  0
 13 14  1  0
 14 15  2  0
 15 16  1  0
  9  4  1  0
 16 12  1  0
M  END
>  <Title>  (785) 
idABCGgen8

$$$$

     RDKit          2D

  7  7  0  0  0  0  0  0  0  0999 V2000
    3.0000    0.0000    0.0000 C   0  0  0  0  0  0  0  0  0  0  0  0
    1.5000    0.0000    0.0000 C   0  0  0  0  0  0  0  0  0  0  0  0
    0.7500   -1.2990    0.0000 C   0  0  0  0  0  0  0  0  0  0  0  0
   -0.7500   -1.2990    0.0000 C   0  0  0  0  0  0  0  0  0  0  0  0
   -1.5000    0.0000    0.0000 C   0  0  0  0  0  0  0  0  0  0  0  0
   -0.7500    1.2990    0.0000 C   0  0  0  0  0  0  0  0  0  0  0  0
    0.7500    1.2990    0.0000 C   0  0  0  0  0  0  0  0  0  0  0  0
  1  2  1  0
  2  3  1  0
  3  4  1  0
  4  5  1  0
  5  6  1  0
  6  7  1  0
  7  2  1  0
M  END
>  <Title>  (786) 
idABCHgen8

$$$$

     RDKit          2D

  7  7  0  0  0  0  0  0  0  0999 V2000
    4.2760   -0.0000    0.0000 C   0  0  0  0  0  0  0  0  0  0  0  0
    2.7760    0.0000    0.0000 C   0  0  0  0  0  0  0  0  0  0  0  0
    1.2760    0.0000    0.0000 C   0  0  0  0  0  0  0  0  0  0  0  0
    0.3943    1.2135    0.0000 C   0  0  0  0  0  0  0  0  0  0  0  0
   -1.0323    0.7500    0.0000 C   0  0  0  0  0  0  0  0  0  0  0  0
   -1.0323   -0.7500    0.0000 C   0  0  0  0  0  0  0  0  0  0  0  0
    0.3943   -1.2135    0.0000 C   0  0  0  0  0  0  0  0  0  0  0  0
  1  2  3  0
  2  3  1  0
  3  4  1  0
  4  5  2  0
  5  6  1  0
  6  7  1  0
  7  3  1  0
M  END
>  <Title>  (787) 
idABCIgen8

$$$$

     RDKit          2D

 10 10  0  0  0  0  0  0  0  0999 V2000
    5.2500   -1.2990    0.0000 C   0  0  0  0  0  0  0  0  0  0  0  0
    3.7500   -1.2990    0.0000 C   0  0  0  0  0  0  0  0  0  0  0  0
    3.0000    0.0000    0.0000 C   0  0  0  0  0  0  0  0  0  0  0  0
    1.5000    0.0000    0.0000 C   0  0  0  0  0  0  0  0  0  0  0  0
    0.7500   -1.2990    0.0000 C   0  0  0  0  0  0  0  0  0  0  0  0
   -0.7500   -1.2990    0.0000 C   0  0  0  0  0  0  0  0  0  0  0  0
   -1.5000    0.0000    0.0000 C   0  0  0  0  0  0  0  0  0  0  0  0
   -3.0000    0.0000    0.0000 O   0  0  0  0  0  0  0  0  0  0  0  0
   -0.7500    1.2990    0.0000 C   0  0  0  0  0  0  0  0  0  0  0  0
    0.7500    1.2990    0.0000 C   0  0  0  0  0  0  0  0  0  0  0  0
  1  2  1  0
  2  3  1  0
  3  4  1  0
  4  5  2  0
  5  6  1  0
  6  7  1  0
  7  8  1  0
  7  9  1  0
  9 10  2  0
 10  4  1  0
M  END
>  <Title>  (788) 
idABCJgen8

$$$$

     RDKit          2D

  7  6  0  0  0  0  0  0  0  0999 V2000
    0.0000    0.0000    0.0000 C   0  0  0  0  0  0  0  0  0  0  0  0
   -0.0000   -1.5000    0.0000 C   0  0  0  0  0  0  0  0  0  0  0  0
   -0.0000   -3.0000    0.0000 C   0  0  0  0  0  0  0  0  0  0  0  0
   -0.0000   -4.5000    0.0000 C   0  0  0  0  0  0  0  0  0  0  0  0
   -0.0000   -6.0000    0.0000 C   0  0  0  0  0  0  0  0  0  0  0  0
   -0.0000   -7.5000    0.0000 C   0  0  0  0  0  0  0  0  0  0  0  0
   -0.0000   -9.0000    0.0000 C   0  0  0  0  0  0  0  0  0  0  0  0
  1  2  3  0
  2  3  1  0
  3  4  3  0
  4  5  1  0
  5  6  3  0
  6  7  1  0
M  END
>  <Title>  (789) 
idABCKgen8

$$$$

     RDKit          2D

 25 28  0  0  0  0  0  0  0  0999 V2000
   -3.0000   -2.5981    0.0000 C   0  0  0  0  0  0  0  0  0  0  0  0
   -1.5000   -2.5981    0.0000 C   0  0  0  0  0  0  0  0  0  0  0  0
   -0.7500   -3.8971    0.0000 C   0  0  0  0  0  0  0  0  0  0  0  0
    0.7500   -3.8971    0.0000 C   0  0  0  0  0  0  0  0  0  0  0  0
    1.5000   -2.5981    0.0000 C   0  0  0  0  0  0  0  0  0  0  0  0
    3.0000   -2.5981    0.0000 C   0  0  0  0  0  0  0  0  0  0  0  0
    3.7500   -1.2990    0.0000 O   0  0  0  0  0  0  0  0  0  0  0  0
    3.7500   -3.8971    0.0000 N   0  0  0  0  0  0  0  0  0  0  0  0
    5.2500   -3.8971    0.0000 C   0  0  0  0  0  0  0  0  0  0  0  0
    6.1317   -2.6836    0.0000 N   0  0  0  0  0  0  0  0  0  0  0  0
    7.5583   -3.1471    0.0000 N   0  0  0  0  0  0  0  0  0  0  0  0
    7.5583   -4.6471    0.0000 N   0  0  0  0  0  0  0  0  0  0  0  0
    6.1317   -5.1106    0.0000 N   0  0  0  0  0  0  0  0  0  0  0  0
    5.6682   -6.5372    0.0000 C   0  0  0  0  0  0  0  0  0  0  0  0
    4.2009   -6.8491    0.0000 N   0  0  0  0  0  0  0  0  0  0  0  0
    3.7374   -8.2757    0.0000 N   0  0  0  0  0  0  0  0  0  0  0  0
    4.7411   -9.3904    0.0000 N   0  0  0  0  0  0  0  0  0  0  0  0
    6.2083   -9.0785    0.0000 N   0  0  0  0  0  0  0  0  0  0  0  0
    6.6718   -7.6519    0.0000 N   0  0  0  0  0  0  0  0  0  0  0  0
    0.7500   -1.2990    0.0000 C   0  0  0  0  0  0  0  0  0  0  0  0
    1.5000    0.0000    0.0000 C   0  0  0  0  0  0  0  0  0  0  0  0
    0.7500    1.2990    0.0000 C   0  0  0  0  0  0  0  0  0  0  0  0
   -0.7500    1.2990    0.0000 C   0  0  0  0  0  0  0  0  0  0  0  0
   -1.5000    0.0000    0.0000 C   0  0  0  0  0  0  0  0  0  0  0  0
   -0.7500   -1.2990    0.0000 C   0  0  0  0  0  0  0  0  0  0  0  0
  1  2  1  0
  2  3  1  0
  3  4  2  0
  4  5  1  0
  5  6  1  0
  6  7  2  0
  6  8  1  0
  8  9  1  0
  9 10  2  0
 10 11  1  0
 11 12  2  0
 12 13  1  0
 13 14  1  0
 14 15  2  0
 15 16  1  0
 16 17  2  0
 17 18  1  0
 18 19  2  0
  5 20  1  0
 20 21  2  0
 21 22  1  0
 22 23  2  0
 23 24  1  0
 24 25  2  0
 25  2  1  0
 13  9  1  0
 19 14  1  0
 25 20  1  0
M  END
>  <Title>  (790) 
idABCLgen8

$$$$

     RDKit          2D

 20 22  0  0  0  0  0  0  0  0999 V2000
   -7.4063   -0.1516    0.0000 C   0  0  0  0  0  0  0  0  0  0  0  0
   -6.3457   -1.2123    0.0000 C   0  0  0  0  0  0  0  0  0  0  0  0
   -4.9598   -0.6382    0.0000 C   0  0  0  0  0  0  0  0  0  0  0  0
   -3.5740   -1.2123    0.0000 C   0  0  0  0  0  0  0  0  0  0  0  0
   -3.0000   -2.5981    0.0000 C   0  0  0  0  0  0  0  0  0  0  0  0
   -1.5000   -2.5981    0.0000 C   0  0  0  0  0  0  0  0  0  0  0  0
   -0.7500   -3.8971    0.0000 C   0  0  0  0  0  0  0  0  0  0  0  0
    0.7500   -3.8971    0.0000 C   0  0  0  0  0  0  0  0  0  0  0  0
    1.5000   -2.5981    0.0000 C   0  0  0  0  0  0  0  0  0  0  0  0
    0.7500   -1.2990    0.0000 C   0  0  0  0  0  0  0  0  0  0  0  0
    1.5000    0.0000    0.0000 C   0  0  0  0  0  0  0  0  0  0  0  0
    0.7500    1.2990    0.0000 C   0  0  0  0  0  0  0  0  0  0  0  0
   -0.7500    1.2990    0.0000 C   0  0  0  0  0  0  0  0  0  0  0  0
   -1.5000    0.0000    0.0000 C   0  0  0  0  0  0  0  0  0  0  0  0
   -0.7500   -1.2990    0.0000 C   0  0  0  0  0  0  0  0  0  0  0  0
   -3.5740   -3.9839    0.0000 C   0  0  0  0  0  0  0  0  0  0  0  0
   -2.5134   -5.0446    0.0000 O   0  0  0  0  0  0  0  0  0  0  0  0
   -4.9598   -4.5579    0.0000 C   0  0  0  0  0  0  0  0  0  0  0  0
   -6.3457   -3.9839    0.0000 C   0  0  0  0  0  0  0  0  0  0  0  0
   -6.9197   -2.5981    0.0000 C   0  0  0  0  0  0  0  0  0  0  0  0
  1  2  1  0
  2  3  1  0
  3  4  2  0
  4  5  1  0
  5  6  1  0
  6  7  2  0
  7  8  1  0
  8  9  2  0
  9 10  1  0
 10 11  2  0
 11 12  1  0
 12 13  2  0
 13 14  1  0
 14 15  2  0
  5 16  2  0
 16 17  1  0
 16 18  1  0
 18 19  1  0
 19 20  1  0
 20  2  1  0
 15  6  1  0
 15 10  1  0
M  END
>  <Title>  (791) 
idABCMgen8

$$$$

     RDKit          2D

 10 10  0  0  0  0  0  0  0  0999 V2000
    3.2286   -0.0000    0.0000 C   0  0  0  0  0  0  0  0  0  0  0  0
    1.7286    0.0000    0.0000 C   0  0  0  0  0  0  0  0  0  0  0  0
    1.0777    1.3515    0.0000 C   0  0  0  0  0  0  0  0  0  0  0  0
   -0.3846    1.6852    0.0000 C   0  0  0  0  0  0  0  0  0  0  0  0
   -1.5574    0.7500    0.0000 C   0  0  0  0  0  0  0  0  0  0  0  0
   -2.9088    1.4008    0.0000 O   0  0  0  0  0  0  0  0  0  0  0  0
   -1.5574   -0.7500    0.0000 C   0  0  0  0  0  0  0  0  0  0  0  0
   -0.3846   -1.6852    0.0000 C   0  0  0  0  0  0  0  0  0  0  0  0
    1.0777   -1.3515    0.0000 C   0  0  0  0  0  0  0  0  0  0  0  0
    2.0130   -2.5242    0.0000 C   0  0  0  0  0  0  0  0  0  0  0  0
  1  2  1  0
  2  3  1  0
  3  4  2  0
  4  5  1  0
  5  6  1  0
  5  7  1  0
  7  8  1  0
  8  9  1  0
  9 10  1  0
  9  2  1  0
M  END
>  <Title>  (792) 
idABCNgen8

$$$$

     RDKit          2D

102103  0  0  0  0  0  0  0  0999 V2000
   -2.3924    0.0968    0.0000 C   0  0  0  0  0  0  0  0  0  0  0  0
   -2.2469   -1.3961    0.0000 C   0  0  0  0  0  0  0  0  0  0  0  0
   -3.7343   -1.5899    0.0000 C   0  0  0  0  0  0  0  0  0  0  0  0
   -5.2061   -1.8796    0.0000 C   0  0  0  0  0  0  0  0  0  0  0  0
   -6.6560   -2.2639    0.0000 C   0  0  0  0  0  0  0  0  0  0  0  0
   -8.0780   -2.7413    0.0000 C   0  0  0  0  0  0  0  0  0  0  0  0
   -9.4661   -3.3097    0.0000 C   0  0  0  0  0  0  0  0  0  0  0  0
  -10.8146   -3.9667    0.0000 C   0  0  0  0  0  0  0  0  0  0  0  0
  -12.1176   -4.7097    0.0000 C   0  0  0  0  0  0  0  0  0  0  0  0
  -13.3699   -5.5355    0.0000 C   0  0  0  0  0  0  0  0  0  0  0  0
  -14.5660   -6.4406    0.0000 C   0  0  0  0  0  0  0  0  0  0  0  0
  -15.7011   -7.4212    0.0000 C   0  0  0  0  0  0  0  0  0  0  0  0
  -16.7703   -8.4732    0.0000 C   0  0  0  0  0  0  0  0  0  0  0  0
  -17.7692   -9.5923    0.0000 C   0  0  0  0  0  0  0  0  0  0  0  0
  -18.6935  -10.7736    0.0000 C   0  0  0  0  0  0  0  0  0  0  0  0
  -19.5395  -12.0123    0.0000 C   0  0  0  0  0  0  0  0  0  0  0  0
  -20.3034  -13.3032    0.0000 C   0  0  0  0  0  0  0  0  0  0  0  0
  -20.9823  -14.6408    0.0000 C   0  0  0  0  0  0  0  0  0  0  0  0
  -21.5731  -16.0195    0.0000 C   0  0  0  0  0  0  0  0  0  0  0  0
  -22.0734  -17.4336    0.0000 C   0  0  0  0  0  0  0  0  0  0  0  0
  -22.4812  -18.8772    0.0000 C   0  0  0  0  0  0  0  0  0  0  0  0
  -22.7946  -20.3440    0.0000 C   0  0  0  0  0  0  0  0  0  0  0  0
  -23.0124  -21.8281    0.0000 C   0  0  0  0  0  0  0  0  0  0  0  0
  -23.1338  -23.3232    0.0000 C   0  0  0  0  0  0  0  0  0  0  0  0
  -23.1581  -24.8230    0.0000 C   0  0  0  0  0  0  0  0  0  0  0  0
  -23.0852  -26.3213    0.0000 C   0  0  0  0  0  0  0  0  0  0  0  0
  -22.9155  -27.8116    0.0000 C   0  0  0  0  0  0  0  0  0  0  0  0
  -22.6498  -29.2879    0.0000 C   0  0  0  0  0  0  0  0  0  0  0  0
  -22.2890  -30.7439    0.0000 C   0  0  0  0  0  0  0  0  0  0  0  0
  -21.8347  -32.1734    0.0000 C   0  0  0  0  0  0  0  0  0  0  0  0
  -21.2888  -33.5706    0.0000 C   0  0  0  0  0  0  0  0  0  0  0  0
  -20.6537  -34.9295    0.0000 C   0  0  0  0  0  0  0  0  0  0  0  0
  -19.9319  -36.2444    0.0000 C   0  0  0  0  0  0  0  0  0  0  0  0
  -19.1265  -37.5098    0.0000 C   0  0  0  0  0  0  0  0  0  0  0  0
  -18.2409  -38.7205    0.0000 C   0  0  0  0  0  0  0  0  0  0  0  0
  -17.2788  -39.8713    0.0000 C   0  0  0  0  0  0  0  0  0  0  0  0
  -16.2442  -40.9574    0.0000 C   0  0  0  0  0  0  0  0  0  0  0  0
  -15.1415  -41.9743    0.0000 C   0  0  0  0  0  0  0  0  0  0  0  0
  -13.9753  -42.9176    0.0000 C   0  0  0  0  0  0  0  0  0  0  0  0
  -12.7504  -43.7835    0.0000 C   0  0  0  0  0  0  0  0  0  0  0  0
  -11.4721  -44.5683    0.0000 C   0  0  0  0  0  0  0  0  0  0  0  0
  -10.1457  -45.2687    0.0000 C   0  0  0  0  0  0  0  0  0  0  0  0
   -8.7767  -45.8818    0.0000 C   0  0  0  0  0  0  0  0  0  0  0  0
   -7.3709  -46.4049    0.0000 C   0  0  0  0  0  0  0  0  0  0  0  0
   -5.9341  -46.8360    0.0000 C   0  0  0  0  0  0  0  0  0  0  0  0
   -4.4725  -47.1731    0.0000 C   0  0  0  0  0  0  0  0  0  0  0  0
   -2.9921  -47.4150    0.0000 C   0  0  0  0  0  0  0  0  0  0  0  0
   -1.4992  -47.5605    0.0000 C   0  0  0  0  0  0  0  0  0  0  0  0
    0.0000  -47.6091    0.0000 C   0  0  0  0  0  0  0  0  0  0  0  0
    1.4992  -47.5605    0.0000 C   0  0  0  0  0  0  0  0  0  0  0  0
    2.9921  -47.4150    0.0000 C   0  0  0  0  0  0  0  0  0  0  0  0
    4.4725  -47.1731    0.0000 C   0  0  0  0  0  0  0  0  0  0  0  0
    5.9341  -46.8360    0.0000 C   0  0  0  0  0  0  0  0  0  0  0  0
    7.3709  -46.4049    0.0000 C   0  0  0  0  0  0  0  0  0  0  0  0
    8.7767  -45.8818    0.0000 C   0  0  0  0  0  0  0  0  0  0  0  0
   10.1457  -45.2687    0.0000 C   0  0  0  0  0  0  0  0  0  0  0  0
   11.4721  -44.5683    0.0000 C   0  0  0  0  0  0  0  0  0  0  0  0
   12.7504  -43.7835    0.0000 C   0  0  0  0  0  0  0  0  0  0  0  0
   13.9753  -42.9176    0.0000 C   0  0  0  0  0  0  0  0  0  0  0  0
   15.1415  -41.9743    0.0000 C   0  0  0  0  0  0  0  0  0  0  0  0
   16.2442  -40.9574    0.0000 C   0  0  0  0  0  0  0  0  0  0  0  0
   17.2788  -39.8713    0.0000 C   0  0  0  0  0  0  0  0  0  0  0  0
   18.2409  -38.7205    0.0000 C   0  0  0  0  0  0  0  0  0  0  0  0
   19.1265  -37.5098    0.0000 C   0  0  0  0  0  0  0  0  0  0  0  0
   19.9319  -36.2444    0.0000 C   0  0  0  0  0  0  0  0  0  0  0  0
   20.6537  -34.9295    0.0000 C   0  0  0  0  0  0  0  0  0  0  0  0
   21.2888  -33.5706    0.0000 C   0  0  0  0  0  0  0  0  0  0  0  0
   21.8347  -32.1734    0.0000 C   0  0  0  0  0  0  0  0  0  0  0  0
   22.2890  -30.7439    0.0000 C   0  0  0  0  0  0  0  0  0  0  0  0
   22.6498  -29.2879    0.0000 C   0  0  0  0  0  0  0  0  0  0  0  0
   22.9155  -27.8116    0.0000 C   0  0  0  0  0  0  0  0  0  0  0  0
   23.0852  -26.3213    0.0000 C   0  0  0  0  0  0  0  0  0  0  0  0
   23.1581  -24.8230    0.0000 C   0  0  0  0  0  0  0  0  0  0  0  0
   23.1338  -23.3232    0.0000 C   0  0  0  0  0  0  0  0  0  0  0  0
   23.0124  -21.8281    0.0000 C   0  0  0  0  0  0  0  0  0  0  0  0
   22.7946  -20.3440    0.0000 C   0  0  0  0  0  0  0  0  0  0  0  0
   22.4812  -18.8772    0.0000 C   0  0  0  0  0  0  0  0  0  0  0  0
   22.0734  -17.4336    0.0000 C   0  0  0  0  0  0  0  0  0  0  0  0
   21.5731  -16.0195    0.0000 C   0  0  0  0  0  0  0  0  0  0  0  0
   20.9823  -14.6408    0.0000 C   0  0  0  0  0  0  0  0  0  0  0  0
   20.3034  -13.3032    0.0000 C   0  0  0  0  0  0  0  0  0  0  0  0
   19.5395  -12.0123    0.0000 C   0  0  0  0  0  0  0  0  0  0  0  0
   18.6935  -10.7736    0.0000 C   0  0  0  0  0  0  0  0  0  0  0  0
   17.7692   -9.5923    0.0000 C   0  0  0  0  0  0  0  0  0  0  0  0
   16.7703   -8.4732    0.0000 C   0  0  0  0  0  0  0  0  0  0  0  0
   15.7011   -7.4212    0.0000 C   0  0  0  0  0  0  0  0  0  0  0  0
   14.5660   -6.4406    0.0000 C   0  0  0  0  0  0  0  0  0  0  0  0
   13.3699   -5.5355    0.0000 C   0  0  0  0  0  0  0  0  0  0  0  0
   12.1176   -4.7097    0.0000 C   0  0  0  0  0  0  0  0  0  0  0  0
   10.8146   -3.9667    0.0000 C   0  0  0  0  0  0  0  0  0  0  0  0
    9.4661   -3.3097    0.0000 C   0  0  0  0  0  0  0  0  0  0  0  0
    8.0780   -2.7413    0.0000 C   0  0  0  0  0  0  0  0  0  0  0  0
    6.6560   -2.2639    0.0000 C   0  0  0  0  0  0  0  0  0  0  0  0
    5.2061   -1.8796    0.0000 C   0  0  0  0  0  0  0  0  0  0  0  0
    3.7343   -1.5899    0.0000 C   0  0  0  0  0  0  0  0  0  0  0  0
    2.2469   -1.3961    0.0000 C   0  0  0  0  0  0  0  0  0  0  0  0
    0.7500   -1.2990    0.0000 C   0  0  0  0  0  0  0  0  0  0  0  0
    1.5000    0.0000    0.0000 C   0  0  0  0  0  0  0  0  0  0  0  0
    0.7500    1.2990    0.0000 C   0  0  0  0  0  0  0  0  0  0  0  0
   -0.7500    1.2990    0.0000 C   0  0  0  0  0  0  0  0  0  0  0  0
   -1.5000    0.0000    0.0000 C   0  0  0  0  0  0  0  0  0  0  0  0
   -0.7500   -1.2990    0.0000 C   0  0  0  0  0  0  0  0  0  0  0  0
  1  2  1  0
  2  3  2  0
  3  4  1  0
  4  5  1  0
  5  6  1  0
  6  7  1  0
  7  8  1  0
  8  9  1  0
  9 10  1  0
 10 11  1  0
 11 12  1  0
 12 13  1  0
 13 14  1  0
 14 15  1  0
 15 16  1  0
 16 17  1  0
 17 18  1  0
 18 19  1  0
 19 20  1  0
 20 21  1  0
 21 22  1  0
 22 23  1  0
 23 24  1  0
 24 25  1  0
 25 26  1  0
 26 27  1  0
 27 28  1  0
 28 29  1  0
 29 30  1  0
 30 31  1  0
 31 32  1  0
 32 33  1  0
 33 34  1  0
 34 35  1  0
 35 36  1  0
 36 37  1  0
 37 38  1  0
 38 39  1  0
 39 40  1  0
 40 41  1  0
 41 42  1  0
 42 43  1  0
 43 44  1  0
 44 45  1  0
 45 46  1  0
 46 47  1  0
 47 48  1  0
 48 49  1  0
 49 50  1  0
 50 51  1  0
 51 52  1  0
 52 53  1  0
 53 54  1  0
 54 55  1  0
 55 56  1  0
 56 57  1  0
 57 58  1  0
 58 59  1  0
 59 60  1  0
 60 61  1  0
 61 62  1  0
 62 63  1  0
 63 64  1  0
 64 65  1  0
 65 66  1  0
 66 67  1  0
 67 68  1  0
 68 69  1  0
 69 70  1  0
 70 71  1  0
 71 72  1  0
 72 73  1  0
 73 74  1  0
 74 75  1  0
 75 76  1  0
 76 77  1  0
 77 78  1  0
 78 79  1  0
 79 80  1  0
 80 81  1  0
 81 82  1  0
 82 83  1  0
 83 84  1  0
 84 85  1  0
 85 86  1  0
 86 87  1  0
 87 88  1  0
 88 89  1  0
 89 90  1  0
 90 91  1  0
 91 92  1  0
 92 93  1  0
 93 94  1  0
 94 95  1  0
 95 96  1  0
 96 97  1  0
 97 98  2  0
 98 99  1  0
 99100  2  0
100101  1  0
101102  2  0
102  2  1  0
102 97  1  0
M  END
>  <Title>  (793) 
idABCOgen8

$$$$

     RDKit          2D

 45 45  0  0  0  0  0  0  0  0999 V2000
   13.3091    1.2990    0.0000 C   0  0  0  0  0  0  0  0  0  0  0  0
   11.8091    1.2990    0.0000 N   0  0  0  0  0  0  0  0  0  0  0  0
   11.0591    0.0000    0.0000 C   0  0  0  0  0  0  0  0  0  0  0  0
   11.8091   -1.2990    0.0000 C   0  0  0  0  0  0  0  0  0  0  0  0
    9.5591    0.0000    0.0000 C   0  0  0  0  0  0  0  0  0  0  0  0
    9.4414   -1.4954    0.0000 N   0  0  0  0  0  0  0  0  0  0  0  0
    9.0913   -2.9539    0.0000 N   0  0  0  0  0  0  0  0  0  0  0  0
    8.5172   -4.3398    0.0000 C   0  0  0  0  0  0  0  0  0  0  0  0
    7.7335   -5.6187    0.0000 N   0  0  0  0  0  0  0  0  0  0  0  0
    6.7593   -6.7593    0.0000 C   0  0  0  0  0  0  0  0  0  0  0  0
    7.8200   -7.8200    0.0000 C   0  0  0  0  0  0  0  0  0  0  0  0
    5.6187   -7.7335    0.0000 C   0  0  0  0  0  0  0  0  0  0  0  0
    4.3398   -8.5172    0.0000 C   0  0  0  0  0  0  0  0  0  0  0  0
    2.9539   -9.0913    0.0000 C   0  0  0  0  0  0  0  0  0  0  0  0
    1.4954   -9.4414    0.0000 C   0  0  0  0  0  0  0  0  0  0  0  0
   -0.0000   -9.5591    0.0000 C   0  0  0  0  0  0  0  0  0  0  0  0
   -1.4954   -9.4414    0.0000 C   0  0  0  0  0  0  0  0  0  0  0  0
   -2.9539   -9.0913    0.0000 C   0  0  0  0  0  0  0  0  0  0  0  0
   -4.3398   -8.5172    0.0000 C   0  0  0  0  0  0  0  0  0  0  0  0
   -5.6187   -7.7335    0.0000 C   0  0  0  0  0  0  0  0  0  0  0  0
   -6.7593   -6.7593    0.0000 C   0  0  0  0  0  0  0  0  0  0  0  0
   -7.7335   -5.6187    0.0000 C   0  0  0  0  0  0  0  0  0  0  0  0
   -8.5172   -4.3398    0.0000 C   0  0  0  0  0  0  0  0  0  0  0  0
   -9.0913   -2.9539    0.0000 C   0  0  0  0  0  0  0  0  0  0  0  0
   -9.4414   -1.4954    0.0000 C   0  0  0  0  0  0  0  0  0  0  0  0
   -9.5591    0.0000    0.0000 C   0  0  0  0  0  0  0  0  0  0  0  0
   -9.4414    1.4954    0.0000 C   0  0  0  0  0  0  0  0  0  0  0  0
   -9.0913    2.9539    0.0000 C   0  0  0  0  0  0  0  0  0  0  0  0
   -8.5172    4.3398    0.0000 C   0  0  0  0  0  0  0  0  0  0  0  0
   -7.7335    5.6187    0.0000 C   0  0  0  0  0  0  0  0  0  0  0  0
   -6.7593    6.7593    0.0000 C   0  0  0  0  0  0  0  0  0  0  0  0
   -5.6187    7.7335    0.0000 C   0  0  0  0  0  0  0  0  0  0  0  0
   -4.3398    8.5172    0.0000 C   0  0  0  0  0  0  0  0  0  0  0  0
   -2.9539    9.0913    0.0000 C   0  0  0  0  0  0  0  0  0  0  0  0
   -1.4954    9.4414    0.0000 C   0  0  0  0  0  0  0  0  0  0  0  0
    0.0000    9.5591    0.0000 C   0  0  0  0  0  0  0  0  0  0  0  0
    1.4954    9.4414    0.0000 C   0  0  0  0  0  0  0  0  0  0  0  0
    2.9539    9.0913    0.0000 C   0  0  0  0  0  0  0  0  0  0  0  0
    4.3398    8.5172    0.0000 C   0  0  0  0  0  0  0  0  0  0  0  0
    5.6187    7.7335    0.0000 C   0  0  0  0  0  0  0  0  0  0  0  0
    6.7593    6.7593    0.0000 C   0  0  0  0  0  0  0  0  0  0  0  0
    7.7335    5.6187    0.0000 C   0  0  0  0  0  0  0  0  0  0  0  0
    8.5172    4.3398    0.0000 C   0  0  0  0  0  0  0  0  0  0  0  0
    9.0913    2.9539    0.0000 C   0  0  0  0  0  0  0  0  0  0  0  0
    9.4414    1.4954    0.0000 C   0  0  0  0  0  0  0  0  0  0  0  0
  1  2  1  0
  2  3  1  0
  3  4  1  0
  3  5  1  0
  5  6  2  0
  6  7  1  0
  7  8  2  0
  8  9  1  0
  9 10  1  0
 10 11  1  0
 10 12  1  0
 12 13  1  0
 13 14  1  0
 14 15  1  0
 15 16  1  0
 16 17  1  0
 17 18  1  0
 18 19  1  0
 19 20  1  0
 20 21  1  0
 21 22  1  0
 22 23  1  0
 23 24  1  0
 24 25  1  0
 25 26  1  0
 26 27  1  0
 27 28  1  0
 28 29  1  0
 29 30  1  0
 30 31  1  0
 31 32  1  0
 32 33  1  0
 33 34  1  0
 34 35  1  0
 35 36  1  0
 36 37  1  0
 37 38  1  0
 38 39  1  0
 39 40  1  0
 40 41  1  0
 41 42  1  0
 42 43  1  0
 43 44  1  0
 44 45  1  0
 45  5  1  0
M  END
>  <Title>  (794) 
idABCPgen8

$$$$

     RDKit          2D

  7  6  0  0  0  0  0  0  0  0999 V2000
    0.0000    0.0000    0.0000 C   0  0  0  0  0  0  0  0  0  0  0  0
    1.2990    0.7500    0.0000 C   0  0  0  0  0  0  0  0  0  0  0  0
    2.5981   -0.0000    0.0000 C   0  0  0  0  0  0  0  0  0  0  0  0
    2.5981   -1.5000    0.0000 O   0  0  0  0  0  0  0  0  0  0  0  0
    3.8971    0.7500    0.0000 C   0  0  0  0  0  0  0  0  0  0  0  0
    5.1962   -0.0000    0.0000 C   0  0  0  0  0  0  0  0  0  0  0  0
    3.8971    2.2500    0.0000 O   0  0  0  0  0  0  0  0  0  0  0  0
  1  2  1  0
  2  3  1  0
  3  4  2  0
  3  5  1  0
  5  6  1  0
  5  7  2  0
M  END
>  <Title>  (795) 
idABCQgen8

$$$$

     RDKit          2D

 25 25  0  0  0  0  0  0  0  0999 V2000
    8.5080   -0.0000    0.0000 C   0  0  0  0  0  0  0  0  0  0  0  0
    7.0080   -0.0000    0.0000 C   0  0  0  0  0  0  0  0  0  0  0  0
    5.5080    0.0000    0.0000 C   0  0  0  0  0  0  0  0  0  0  0  0
    5.3037    1.4860    0.0000 C   0  0  0  0  0  0  0  0  0  0  0  0
    4.7061    2.8618    0.0000 C   0  0  0  0  0  0  0  0  0  0  0  0
    3.7595    4.0254    0.0000 C   0  0  0  0  0  0  0  0  0  0  0  0
    2.5340    4.8904    0.0000 C   0  0  0  0  0  0  0  0  0  0  0  0
    1.1206    5.3928    0.0000 C   0  0  0  0  0  0  0  0  0  0  0  0
   -0.3759    5.4951    0.0000 C   0  0  0  0  0  0  0  0  0  0  0  0
   -1.8445    5.1899    0.0000 C   0  0  0  0  0  0  0  0  0  0  0  0
   -3.1763    4.4998    0.0000 C   0  0  0  0  0  0  0  0  0  0  0  0
   -4.2726    3.4760    0.0000 C   0  0  0  0  0  0  0  0  0  0  0  0
   -5.0520    2.1944    0.0000 C   0  0  0  0  0  0  0  0  0  0  0  0
   -5.4567    0.7500    0.0000 C   0  0  0  0  0  0  0  0  0  0  0  0
   -5.4567   -0.7500    0.0000 C   0  0  0  0  0  0  0  0  0  0  0  0
   -5.0520   -2.1944    0.0000 C   0  0  0  0  0  0  0  0  0  0  0  0
   -4.2726   -3.4760    0.0000 C   0  0  0  0  0  0  0  0  0  0  0  0
   -3.1763   -4.4998    0.0000 C   0  0  0  0  0  0  0  0  0  0  0  0
   -1.8445   -5.1899    0.0000 C   0  0  0  0  0  0  0  0  0  0  0  0
   -0.3759   -5.4951    0.0000 C   0  0  0  0  0  0  0  0  0  0  0  0
    1.1206   -5.3928    0.0000 C   0  0  0  0  0  0  0  0  0  0  0  0
    2.5340   -4.8904    0.0000 C   0  0  0  0  0  0  0  0  0  0  0  0
    3.7595   -4.0254    0.0000 C   0  0  0  0  0  0  0  0  0  0  0  0
    4.7061   -2.8618    0.0000 C   0  0  0  0  0  0  0  0  0  0  0  0
    5.3037   -1.4860    0.0000 C   0  0  0  0  0  0  0  0  0  0  0  0
  1  2  3  0
  2  3  1  0
  3  4  1  0
  4  5  1  0
  5  6  1  0
  6  7  1  0
  7  8  1  0
  8  9  1  0
  9 10  1  0
 10 11  1  0
 11 12  1  0
 12 13  1  0
 13 14  1  0
 14 15  1  0
 15 16  1  0
 16 17  1  0
 17 18  1  0
 18 19  1  0
 19 20  1  0
 20 21  1  0
 21 22  1  0
 22 23  1  0
 23 24  1  0
 24 25  1  0
 25  3  1  0
M  END
>  <Title>  (796) 
idABCRgen8

$$$$

     RDKit          2D

  8  8  0  0  0  0  0  0  0  0999 V2000
    2.7760    0.0000    0.0000 C   0  0  0  0  0  0  0  0  0  0  0  0
    1.2760    0.0000    0.0000 C   0  0  0  0  0  0  0  0  0  0  0  0
    0.3943    1.2135    0.0000 C   0  0  0  0  0  0  0  0  0  0  0  0
   -1.0323    0.7500    0.0000 C   0  0  0  0  0  0  0  0  0  0  0  0
   -2.2458    1.6317    0.0000 C   0  0  0  0  0  0  0  0  0  0  0  0
   -3.4593    2.5134    0.0000 N   0  0  0  0  0  0  0  0  0  0  0  0
   -1.0323   -0.7500    0.0000 C   0  0  0  0  0  0  0  0  0  0  0  0
    0.3943   -1.2135    0.0000 C   0  0  0  0  0  0  0  0  0  0  0  0
  1  2  1  0
  2  3  2  0
  3  4  1  0
  4  5  1  0
  5  6  3  0
  4  7  1  0
  7  8  2  0
  8  2  1  0
M  END
>  <Title>  (797) 
idABCSgen8

$$$$

     RDKit          2D

  7  6  0  0  0  0  0  0  0  0999 V2000
    0.0000    0.0000    0.0000 C   0  0  0  0  0  0  0  0  0  0  0  0
    1.2990    0.7500    0.0000 C   0  0  0  0  0  0  0  0  0  0  0  0
    2.5981    1.5000    0.0000 C   0  0  0  0  0  0  0  0  0  0  0  0
    3.8971    2.2500    0.0000 C   0  0  0  0  0  0  0  0  0  0  0  0
    5.1962    3.0000    0.0000 C   0  0  0  0  0  0  0  0  0  0  0  0
    6.4952    3.7500    0.0000 C   0  0  0  0  0  0  0  0  0  0  0  0
    7.7942    4.5000    0.0000 N   0  0  0  0  0  0  0  0  0  0  0  0
  1  2  1  0
  2  3  3  0
  3  4  1  0
  4  5  3  0
  5  6  1  0
  6  7  3  0
M  END
>  <Title>  (798) 
idABCTgen8

$$$$

     RDKit          2D

 73 73  0  0  0  0  0  0  0  0999 V2000
   18.6942    0.0000    0.0000 C   0  0  0  0  0  0  0  0  0  0  0  0
   17.1942    0.0000    0.0000 C   0  0  0  0  0  0  0  0  0  0  0  0
   17.1288   -1.4986    0.0000 C   0  0  0  0  0  0  0  0  0  0  0  0
   16.9330   -2.9857    0.0000 C   0  0  0  0  0  0  0  0  0  0  0  0
   16.6083   -4.4502    0.0000 C   0  0  0  0  0  0  0  0  0  0  0  0
   16.1573   -5.8808    0.0000 C   0  0  0  0  0  0  0  0  0  0  0  0
   15.5832   -7.2666    0.0000 C   0  0  0  0  0  0  0  0  0  0  0  0
   14.8906   -8.5971    0.0000 C   0  0  0  0  0  0  0  0  0  0  0  0
   14.0847   -9.8622    0.0000 C   0  0  0  0  0  0  0  0  0  0  0  0
   13.1715  -11.0522    0.0000 C   0  0  0  0  0  0  0  0  0  0  0  0
   12.1581  -12.1581    0.0000 C   0  0  0  0  0  0  0  0  0  0  0  0
   11.0522  -13.1715    0.0000 C   0  0  0  0  0  0  0  0  0  0  0  0
    9.8622  -14.0847    0.0000 C   0  0  0  0  0  0  0  0  0  0  0  0
    8.5971  -14.8906    0.0000 C   0  0  0  0  0  0  0  0  0  0  0  0
    7.2666  -15.5832    0.0000 C   0  0  0  0  0  0  0  0  0  0  0  0
    5.8808  -16.1573    0.0000 C   0  0  0  0  0  0  0  0  0  0  0  0
    4.4502  -16.6083    0.0000 C   0  0  0  0  0  0  0  0  0  0  0  0
    2.9857  -16.9330    0.0000 C   0  0  0  0  0  0  0  0  0  0  0  0
    1.4986  -17.1288    0.0000 C   0  0  0  0  0  0  0  0  0  0  0  0
   -0.0000  -17.1942    0.0000 C   0  0  0  0  0  0  0  0  0  0  0  0
   -1.4986  -17.1288    0.0000 C   0  0  0  0  0  0  0  0  0  0  0  0
   -2.9857  -16.9330    0.0000 C   0  0  0  0  0  0  0  0  0  0  0  0
   -4.4502  -16.6083    0.0000 C   0  0  0  0  0  0  0  0  0  0  0  0
   -5.8808  -16.1573    0.0000 C   0  0  0  0  0  0  0  0  0  0  0  0
   -7.2666  -15.5832    0.0000 C   0  0  0  0  0  0  0  0  0  0  0  0
   -8.5971  -14.8906    0.0000 C   0  0  0  0  0  0  0  0  0  0  0  0
   -9.8622  -14.0847    0.0000 C   0  0  0  0  0  0  0  0  0  0  0  0
  -11.0522  -13.1715    0.0000 C   0  0  0  0  0  0  0  0  0  0  0  0
  -12.1581  -12.1581    0.0000 C   0  0  0  0  0  0  0  0  0  0  0  0
  -13.1715  -11.0522    0.0000 C   0  0  0  0  0  0  0  0  0  0  0  0
  -14.0847   -9.8622    0.0000 C   0  0  0  0  0  0  0  0  0  0  0  0
  -14.8906   -8.5971    0.0000 C   0  0  0  0  0  0  0  0  0  0  0  0
  -15.5832   -7.2666    0.0000 C   0  0  0  0  0  0  0  0  0  0  0  0
  -16.1573   -5.8808    0.0000 C   0  0  0  0  0  0  0  0  0  0  0  0
  -16.6083   -4.4502    0.0000 C   0  0  0  0  0  0  0  0  0  0  0  0
  -16.9330   -2.9857    0.0000 C   0  0  0  0  0  0  0  0  0  0  0  0
  -17.1288   -1.4986    0.0000 C   0  0  0  0  0  0  0  0  0  0  0  0
  -17.1942    0.0000    0.0000 C   0  0  0  0  0  0  0  0  0  0  0  0
  -17.1288    1.4986    0.0000 C   0  0  0  0  0  0  0  0  0  0  0  0
  -16.9330    2.9857    0.0000 C   0  0  0  0  0  0  0  0  0  0  0  0
  -16.6083    4.4502    0.0000 C   0  0  0  0  0  0  0  0  0  0  0  0
  -16.1573    5.8808    0.0000 C   0  0  0  0  0  0  0  0  0  0  0  0
  -15.5832    7.2666    0.0000 C   0  0  0  0  0  0  0  0  0  0  0  0
  -14.8906    8.5971    0.0000 C   0  0  0  0  0  0  0  0  0  0  0  0
  -14.0847    9.8622    0.0000 C   0  0  0  0  0  0  0  0  0  0  0  0
  -13.1715   11.0522    0.0000 C   0  0  0  0  0  0  0  0  0  0  0  0
  -12.1581   12.1581    0.0000 C   0  0  0  0  0  0  0  0  0  0  0  0
  -11.0522   13.1715    0.0000 C   0  0  0  0  0  0  0  0  0  0  0  0
   -9.8622   14.0847    0.0000 C   0  0  0  0  0  0  0  0  0  0  0  0
   -8.5971   14.8906    0.0000 C   0  0  0  0  0  0  0  0  0  0  0  0
   -7.2666   15.5832    0.0000 C   0  0  0  0  0  0  0  0  0  0  0  0
   -5.8808   16.1573    0.0000 C   0  0  0  0  0  0  0  0  0  0  0  0
   -4.4502   16.6083    0.0000 C   0  0  0  0  0  0  0  0  0  0  0  0
   -2.9857   16.9330    0.0000 C   0  0  0  0  0  0  0  0  0  0  0  0
   -1.4986   17.1288    0.0000 C   0  0  0  0  0  0  0  0  0  0  0  0
    0.0000   17.1942    0.0000 C   0  0  0  0  0  0  0  0  0  0  0  0
    1.4986   17.1288    0.0000 C   0  0  0  0  0  0  0  0  0  0  0  0
    2.9857   16.9330    0.0000 C   0  0  0  0  0  0  0  0  0  0  0  0
    4.4502   16.6083    0.0000 C   0  0  0  0  0  0  0  0  0  0  0  0
    5.8808   16.1573    0.0000 C   0  0  0  0  0  0  0  0  0  0  0  0
    7.2666   15.5832    0.0000 C   0  0  0  0  0  0  0  0  0  0  0  0
    8.5971   14.8906    0.0000 C   0  0  0  0  0  0  0  0  0  0  0  0
    9.8622   14.0847    0.0000 C   0  0  0  0  0  0  0  0  0  0  0  0
   11.0522   13.1715    0.0000 C   0  0  0  0  0  0  0  0  0  0  0  0
   12.1581   12.1581    0.0000 C   0  0  0  0  0  0  0  0  0  0  0  0
   13.1715   11.0522    0.0000 C   0  0  0  0  0  0  0  0  0  0  0  0
   14.0847    9.8622    0.0000 C   0  0  0  0  0  0  0  0  0  0  0  0
   14.8906    8.5971    0.0000 C   0  0  0  0  0  0  0  0  0  0  0  0
   15.5832    7.2666    0.0000 C   0  0  0  0  0  0  0  0  0  0  0  0
   16.1573    5.8808    0.0000 C   0  0  0  0  0  0  0  0  0  0  0  0
   16.6083    4.4502    0.0000 C   0  0  0  0  0  0  0  0  0  0  0  0
   16.9330    2.9857    0.0000 C   0  0  0  0  0  0  0  0  0  0  0  0
   17.1288    1.4986    0.0000 C   0  0  0  0  0  0  0  0  0  0  0  0
  1  2  1  0
  2  3  1  0
  3  4  1  0
  4  5  1  0
  5  6  1  0
  6  7  1  0
  7  8  1  0
  8  9  1  0
  9 10  1  0
 10 11  1  0
 11 12  1  0
 12 13  1  0
 13 14  1  0
 14 15  1  0
 15 16  1  0
 16 17  1  0
 17 18  1  0
 18 19  1  0
 19 20  1  0
 20 21  1  0
 21 22  1  0
 22 23  1  0
 23 24  1  0
 24 25  1  0
 25 26  1  0
 26 27  1  0
 27 28  1  0
 28 29  1  0
 29 30  1  0
 30 31  1  0
 31 32  1  0
 32 33  1  0
 33 34  1  0
 34 35  1  0
 35 36  1  0
 36 37  1  0
 37 38  1  0
 38 39  1  0
 39 40  1  0
 40 41  1  0
 41 42  1  0
 42 43  1  0
 43 44  1  0
 44 45  1  0
 45 46  1  0
 46 47  1  0
 47 48  1  0
 48 49  1  0
 49 50  1  0
 50 51  1  0
 51 52  1  0
 52 53  1  0
 53 54  1  0
 54 55  1  0
 55 56  1  0
 56 57  1  0
 57 58  1  0
 58 59  1  0
 59 60  1  0
 60 61  1  0
 61 62  1  0
 62 63  1  0
 63 64  1  0
 64 65  1  0
 65 66  1  0
 66 67  1  0
 67 68  1  0
 68 69  1  0
 69 70  1  0
 70 71  1  0
 71 72  1  0
 72 73  1  0
 73  2  1  0
M  END
>  <Title>  (799) 
idABCUgen8

$$$$

     RDKit          2D

 35 39  0  0  0  0  0  0  0  0999 V2000
   -2.1535   -8.4451    0.0000 C   0  0  0  0  0  0  0  0  0  0  0  0
   -1.4564   -7.1169    0.0000 C   0  0  0  0  0  0  0  0  0  0  0  0
   -0.0000   -7.4758    0.0000 C   0  0  0  0  0  0  0  0  0  0  0  0
    1.4564   -7.1169    0.0000 C   0  0  0  0  0  0  0  0  0  0  0  0
    2.5792   -6.1222    0.0000 C   0  0  0  0  0  0  0  0  0  0  0  0
    3.1111   -4.7197    0.0000 C   0  0  0  0  0  0  0  0  0  0  0  0
    2.9303   -3.2306    0.0000 C   0  0  0  0  0  0  0  0  0  0  0  0
    2.0782   -1.9961    0.0000 C   0  0  0  0  0  0  0  0  0  0  0  0
    3.0729   -0.8734    0.0000 C   0  0  0  0  0  0  0  0  0  0  0  0
    2.5979    0.5494    0.0000 O   0  0  0  0  0  0  0  0  0  0  0  0
    4.5426   -1.1734    0.0000 N   0  0  0  0  0  0  0  0  0  0  0  0
    5.5372   -0.0506    0.0000 C   0  0  0  0  0  0  0  0  0  0  0  0
    7.0069   -0.3507    0.0000 N   0  0  0  0  0  0  0  0  0  0  0  0
    8.0016    0.7721    0.0000 N   0  0  0  0  0  0  0  0  0  0  0  0
    7.5266    2.1949    0.0000 N   0  0  0  0  0  0  0  0  0  0  0  0
    6.0569    2.4949    0.0000 N   0  0  0  0  0  0  0  0  0  0  0  0
    5.0622    1.3722    0.0000 N   0  0  0  0  0  0  0  0  0  0  0  0
    0.7500   -1.2990    0.0000 C   0  0  0  0  0  0  0  0  0  0  0  0
    1.5000    0.0000    0.0000 C   0  0  0  0  0  0  0  0  0  0  0  0
    0.7500    1.2990    0.0000 C   0  0  0  0  0  0  0  0  0  0  0  0
   -0.7500    1.2990    0.0000 C   0  0  0  0  0  0  0  0  0  0  0  0
   -1.5000    0.0000    0.0000 C   0  0  0  0  0  0  0  0  0  0  0  0
   -0.7500   -1.2990    0.0000 C   0  0  0  0  0  0  0  0  0  0  0  0
   -2.0782   -1.9961    0.0000 C   0  0  0  0  0  0  0  0  0  0  0  0
   -2.7212   -0.6409    0.0000 C   0  0  0  0  0  0  0  0  0  0  0  0
   -4.2164   -0.5202    0.0000 C   0  0  0  0  0  0  0  0  0  0  0  0
   -5.0685   -1.7547    0.0000 C   0  0  0  0  0  0  0  0  0  0  0  0
   -4.4254   -3.1099    0.0000 C   0  0  0  0  0  0  0  0  0  0  0  0
   -2.9303   -3.2306    0.0000 C   0  0  0  0  0  0  0  0  0  0  0  0
   -3.1111   -4.7197    0.0000 C   0  0  0  0  0  0  0  0  0  0  0  0
   -4.5917   -4.4790    0.0000 C   0  0  0  0  0  0  0  0  0  0  0  0
   -5.5403   -5.6410    0.0000 C   0  0  0  0  0  0  0  0  0  0  0  0
   -5.0084   -7.0435    0.0000 C   0  0  0  0  0  0  0  0  0  0  0  0
   -3.5278   -7.2841    0.0000 C   0  0  0  0  0  0  0  0  0  0  0  0
   -2.5792   -6.1222    0.0000 C   0  0  0  0  0  0  0  0  0  0  0  0
  1  2  1  0
  2  3  1  0
  3  4  1  0
  4  5  1  0
  5  6  1  0
  6  7  1  0
  7  8  1  0
  8  9  1  0
  9 10  2  0
  9 11  1  0
 11 12  1  0
 12 13  2  0
 13 14  1  0
 14 15  2  0
 15 16  1  0
 16 17  2  0
  8 18  1  0
 18 19  2  0
 19 20  1  0
 20 21  2  0
 21 22  1  0
 22 23  2  0
 23 24  1  0
 24 25  2  0
 25 26  1  0
 26 27  2  0
 27 28  1  0
 28 29  2  0
 29 30  1  0
 30 31  2  0
 31 32  1  0
 32 33  2  0
 33 34  1  0
 34 35  2  0
 35  2  1  0
 17 12  1  0
 23 18  1  0
 29 24  1  0
 35 30  1  0
M  END
>  <Title>  (800) 
idABCVgen8

$$$$

     RDKit          2D

 14 15  0  0  0  0  0  0  0  0999 V2000
    3.3107   -8.3323    0.0000 C   0  0  0  0  0  0  0  0  0  0  0  0
    2.5607   -7.0333    0.0000 C   0  0  0  0  0  0  0  0  0  0  0  0
    1.1118   -6.6450    0.0000 C   0  0  0  0  0  0  0  0  0  0  0  0
    1.5000   -5.1962    0.0000 C   0  0  0  0  0  0  0  0  0  0  0  0
    0.7500   -3.8971    0.0000 C   0  0  0  0  0  0  0  0  0  0  0  0
   -0.7500   -3.8971    0.0000 O   0  0  0  0  0  0  0  0  0  0  0  0
    1.5000   -2.5981    0.0000 N   0  0  0  0  0  0  0  0  0  0  0  0
    0.7500   -1.2990    0.0000 C   0  0  0  0  0  0  0  0  0  0  0  0
    1.5000    0.0000    0.0000 N   0  0  0  0  0  0  0  0  0  0  0  0
    0.7500    1.2990    0.0000 N   0  0  0  0  0  0  0  0  0  0  0  0
   -0.7500    1.2990    0.0000 N   0  0  0  0  0  0  0  0  0  0  0  0
   -1.5000    0.0000    0.0000 N   0  0  0  0  0  0  0  0  0  0  0  0
   -0.7500   -1.2990    0.0000 N   0  0  0  0  0  0  0  0  0  0  0  0
    2.9489   -5.5844    0.0000 C   0  0  0  0  0  0  0  0  0  0  0  0
  1  2  1  0
  2  3  2  0
  3  4  1  0
  4  5  1  0
  5  6  2  0
  5  7  1  0
  7  8  1  0
  8  9  2  0
  9 10  1  0
 10 11  2  0
 11 12  1  0
 12 13  2  0
  4 14  1  0
 14  2  1  0
 13  8  1  0
M  END
>  <Title>  (801) 
idABCWgen8

$$$$

     RDKit          2D

  8  8  0  0  0  0  0  0  0  0999 V2000
    2.7760    0.0000    0.0000 O   0  0  0  0  0  0  0  0  0  0  0  0
    1.2760    0.0000    0.0000 C   0  0  0  0  0  0  0  0  0  0  0  0
    0.3943    1.2135    0.0000 C   0  0  0  0  0  0  0  0  0  0  0  0
   -1.0323    0.7500    0.0000 C   0  0  0  0  0  0  0  0  0  0  0  0
   -2.2458    1.6317    0.0000 O   0  0  0  0  0  0  0  0  0  0  0  0
   -1.0323   -0.7500    0.0000 C   0  0  0  0  0  0  0  0  0  0  0  0
   -2.2458   -1.6317    0.0000 O   0  0  0  0  0  0  0  0  0  0  0  0
    0.3943   -1.2135    0.0000 C   0  0  0  0  0  0  0  0  0  0  0  0
  1  2  1  0
  2  3  2  0
  3  4  1  0
  4  5  1  0
  4  6  2  0
  6  7  1  0
  6  8  1  0
  8  2  1  0
M  END
>  <Title>  (802) 
idABCXgen8

$$$$

     RDKit          2D

 56 64  0  0  0  0  0  0  0  0999 V2000
    4.9018   -3.0551    0.0000 C   0  0  0  0  0  0  0  0  0  0  0  0
    3.9258   -4.1942    0.0000 C   0  0  0  0  0  0  0  0  0  0  0  0
    5.4228   -4.2895    0.0000 C   0  0  0  0  0  0  0  0  0  0  0  0
    3.2572   -2.8514    0.0000 C   0  0  0  0  0  0  0  0  0  0  0  0
    2.1487   -1.8409    0.0000 C   0  0  0  0  0  0  0  0  0  0  0  0
    2.9384   -0.5656    0.0000 C   0  0  0  0  0  0  0  0  0  0  0  0
    2.2287    0.7559    0.0000 O   0  0  0  0  0  0  0  0  0  0  0  0
    4.4376   -0.6118    0.0000 N   0  0  0  0  0  0  0  0  0  0  0  0
    5.2273    0.6636    0.0000 C   0  0  0  0  0  0  0  0  0  0  0  0
    6.7266    0.6174    0.0000 N   0  0  0  0  0  0  0  0  0  0  0  0
    7.5162    1.8927    0.0000 N   0  0  0  0  0  0  0  0  0  0  0  0
    6.8066    3.2142    0.0000 N   0  0  0  0  0  0  0  0  0  0  0  0
    5.3073    3.2604    0.0000 N   0  0  0  0  0  0  0  0  0  0  0  0
    4.5177    1.9851    0.0000 N   0  0  0  0  0  0  0  0  0  0  0  0
    0.7500   -1.2990    0.0000 C   0  0  0  0  0  0  0  0  0  0  0  0
    1.5000    0.0000    0.0000 C   0  0  0  0  0  0  0  0  0  0  0  0
    0.7500    1.2990    0.0000 C   0  0  0  0  0  0  0  0  0  0  0  0
   -0.7500    1.2990    0.0000 C   0  0  0  0  0  0  0  0  0  0  0  0
   -1.5000    0.0000    0.0000 C   0  0  0  0  0  0  0  0  0  0  0  0
   -0.7500   -1.2990    0.0000 C   0  0  0  0  0  0  0  0  0  0  0  0
   -2.1487   -1.8409    0.0000 C   0  0  0  0  0  0  0  0  0  0  0  0
   -2.4696   -0.3756    0.0000 C   0  0  0  0  0  0  0  0  0  0  0  0
   -3.8990    0.0791    0.0000 C   0  0  0  0  0  0  0  0  0  0  0  0
   -5.0075   -0.9314    0.0000 C   0  0  0  0  0  0  0  0  0  0  0  0
   -4.6866   -2.3967    0.0000 C   0  0  0  0  0  0  0  0  0  0  0  0
   -3.2572   -2.8514    0.0000 C   0  0  0  0  0  0  0  0  0  0  0  0
   -3.9258   -4.1942    0.0000 C   0  0  0  0  0  0  0  0  0  0  0  0
   -5.1501   -3.3275    0.0000 C   0  0  0  0  0  0  0  0  0  0  0  0
   -6.5128   -3.9545    0.0000 C   0  0  0  0  0  0  0  0  0  0  0  0
   -6.6512   -5.4481    0.0000 C   0  0  0  0  0  0  0  0  0  0  0  0
   -5.4269   -6.3147    0.0000 C   0  0  0  0  0  0  0  0  0  0  0  0
   -4.0642   -5.6878    0.0000 C   0  0  0  0  0  0  0  0  0  0  0  0
   -3.6537   -7.1305    0.0000 C   0  0  0  0  0  0  0  0  0  0  0  0
   -5.1424   -7.3149    0.0000 C   0  0  0  0  0  0  0  0  0  0  0  0
   -5.7270   -8.6962    0.0000 C   0  0  0  0  0  0  0  0  0  0  0  0
   -4.8231   -9.8932    0.0000 C   0  0  0  0  0  0  0  0  0  0  0  0
   -3.3345   -9.7089    0.0000 C   0  0  0  0  0  0  0  0  0  0  0  0
   -2.7498   -8.3276    0.0000 C   0  0  0  0  0  0  0  0  0  0  0  0
   -1.4745   -9.1172    0.0000 C   0  0  0  0  0  0  0  0  0  0  0  0
   -2.4504  -10.2563    0.0000 C   0  0  0  0  0  0  0  0  0  0  0  0
   -1.9519  -11.6710    0.0000 C   0  0  0  0  0  0  0  0  0  0  0  0
   -0.4774  -11.9467    0.0000 C   0  0  0  0  0  0  0  0  0  0  0  0
    0.4985  -10.8076    0.0000 C   0  0  0  0  0  0  0  0  0  0  0  0
   -0.0000   -9.3928    0.0000 C   0  0  0  0  0  0  0  0  0  0  0  0
    1.4745   -9.1172    0.0000 C   0  0  0  0  0  0  0  0  0  0  0  0
    1.5207  -10.6165    0.0000 C   0  0  0  0  0  0  0  0  0  0  0  0
    2.8422  -11.3261    0.0000 C   0  0  0  0  0  0  0  0  0  0  0  0
    4.1175  -10.5365    0.0000 C   0  0  0  0  0  0  0  0  0  0  0  0
    4.0713   -9.0372    0.0000 C   0  0  0  0  0  0  0  0  0  0  0  0
    2.7498   -8.3276    0.0000 C   0  0  0  0  0  0  0  0  0  0  0  0
    3.6537   -7.1305    0.0000 C   0  0  0  0  0  0  0  0  0  0  0  0
    4.6979   -8.2074    0.0000 C   0  0  0  0  0  0  0  0  0  0  0  0
    6.1526   -7.8415    0.0000 C   0  0  0  0  0  0  0  0  0  0  0  0
    6.5631   -6.3988    0.0000 C   0  0  0  0  0  0  0  0  0  0  0  0
    5.5189   -5.3219    0.0000 C   0  0  0  0  0  0  0  0  0  0  0  0
    4.0642   -5.6878    0.0000 C   0  0  0  0  0  0  0  0  0  0  0  0
  1  2  1  0
  2  3  1  0
  2  4  1  0
  4  5  2  0
  5  6  1  0
  6  7  2  0
  6  8  1  0
  8  9  1  0
  9 10  2  0
 10 11  1  0
 11 12  2  0
 12 13  1  0
 13 14  2  0
  5 15  1  0
 15 16  2  0
 16 17  1  0
 17 18  2  0
 18 19  1  0
 19 20  2  0
 20 21  1  0
 21 22  2  0
 22 23  1  0
 23 24  2  0
 24 25  1  0
 25 26  2  0
 26 27  1  0
 27 28  2  0
 28 29  1  0
 29 30  2  0
 30 31  1  0
 31 32  2  0
 32 33  1  0
 33 34  2  0
 34 35  1  0
 35 36  2  0
 36 37  1  0
 37 38  2  0
 38 39  1  0
 39 40  2  0
 40 41  1  0
 41 42  2  0
 42 43  1  0
 43 44  2  0
 44 45  1  0
 45 46  2  0
 46 47  1  0
 47 48  2  0
 48 49  1  0
 49 50  2  0
 50 51  1  0
 51 52  2  0
 52 53  1  0
 53 54  2  0
 54 55  1  0
 55 56  2  0
 56  2  1  0
 14  9  1  0
 20 15  1  0
 26 21  1  0
 32 27  1  0
 38 33  1  0
 44 39  1  0
 50 45  1  0
 56 51  1  0
M  END
>  <Title>  (803) 
idABCYgen8

$$$$

     RDKit          2D

 60 60  0  0  0  0  0  0  0  0999 V2000
   15.5919    0.0000    0.0000 C   0  0  0  0  0  0  0  0  0  0  0  0
   14.0919    0.0000    0.0000 C   0  0  0  0  0  0  0  0  0  0  0  0
   14.0120    1.4979    0.0000 C   0  0  0  0  0  0  0  0  0  0  0  0
   13.7734    2.9788    0.0000 C   0  0  0  0  0  0  0  0  0  0  0  0
   13.3788    4.4259    0.0000 C   0  0  0  0  0  0  0  0  0  0  0  0
   12.8325    5.8229    0.0000 C   0  0  0  0  0  0  0  0  0  0  0  0
   12.1409    7.1540    0.0000 C   0  0  0  0  0  0  0  0  0  0  0  0
   11.3117    8.4039    0.0000 C   0  0  0  0  0  0  0  0  0  0  0  0
   10.3543    9.5587    0.0000 C   0  0  0  0  0  0  0  0  0  0  0  0
    9.2797   10.6051    0.0000 C   0  0  0  0  0  0  0  0  0  0  0  0
    8.0998   11.5314    0.0000 C   0  0  0  0  0  0  0  0  0  0  0  0
    6.8282   12.3270    0.0000 C   0  0  0  0  0  0  0  0  0  0  0  0
    5.4793   12.9830    0.0000 C   0  0  0  0  0  0  0  0  0  0  0  0
    4.0682   13.4919    0.0000 C   0  0  0  0  0  0  0  0  0  0  0  0
    2.6111   13.8479    0.0000 C   0  0  0  0  0  0  0  0  0  0  0  0
    1.1243   14.0469    0.0000 C   0  0  0  0  0  0  0  0  0  0  0  0
   -0.3751   14.0869    0.0000 C   0  0  0  0  0  0  0  0  0  0  0  0
   -1.8704   13.9672    0.0000 C   0  0  0  0  0  0  0  0  0  0  0  0
   -3.3444   13.6893    0.0000 C   0  0  0  0  0  0  0  0  0  0  0  0
   -4.7805   13.2562    0.0000 C   0  0  0  0  0  0  0  0  0  0  0  0
   -6.1625   12.6730    0.0000 C   0  0  0  0  0  0  0  0  0  0  0  0
   -7.4746   11.9462    0.0000 C   0  0  0  0  0  0  0  0  0  0  0  0
   -8.7021   11.0840    0.0000 C   0  0  0  0  0  0  0  0  0  0  0  0
   -9.8309   10.0962    0.0000 C   0  0  0  0  0  0  0  0  0  0  0  0
  -10.8484    8.9941    0.0000 C   0  0  0  0  0  0  0  0  0  0  0  0
  -11.7430    7.7900    0.0000 C   0  0  0  0  0  0  0  0  0  0  0  0
  -12.5045    6.4977    0.0000 C   0  0  0  0  0  0  0  0  0  0  0  0
  -13.1243    5.1317    0.0000 C   0  0  0  0  0  0  0  0  0  0  0  0
  -13.5954    3.7076    0.0000 C   0  0  0  0  0  0  0  0  0  0  0  0
  -13.9125    2.2415    0.0000 C   0  0  0  0  0  0  0  0  0  0  0  0
  -14.0719    0.7500    0.0000 C   0  0  0  0  0  0  0  0  0  0  0  0
  -14.0719   -0.7500    0.0000 C   0  0  0  0  0  0  0  0  0  0  0  0
  -13.9125   -2.2415    0.0000 C   0  0  0  0  0  0  0  0  0  0  0  0
  -13.5954   -3.7076    0.0000 C   0  0  0  0  0  0  0  0  0  0  0  0
  -13.1243   -5.1317    0.0000 C   0  0  0  0  0  0  0  0  0  0  0  0
  -12.5045   -6.4977    0.0000 C   0  0  0  0  0  0  0  0  0  0  0  0
  -11.7430   -7.7900    0.0000 C   0  0  0  0  0  0  0  0  0  0  0  0
  -10.8484   -8.9941    0.0000 C   0  0  0  0  0  0  0  0  0  0  0  0
   -9.8309  -10.0962    0.0000 C   0  0  0  0  0  0  0  0  0  0  0  0
   -8.7021  -11.0840    0.0000 C   0  0  0  0  0  0  0  0  0  0  0  0
   -7.4746  -11.9462    0.0000 C   0  0  0  0  0  0  0  0  0  0  0  0
   -6.1625  -12.6730    0.0000 C   0  0  0  0  0  0  0  0  0  0  0  0
   -4.7805  -13.2562    0.0000 C   0  0  0  0  0  0  0  0  0  0  0  0
   -3.3444  -13.6893    0.0000 C   0  0  0  0  0  0  0  0  0  0  0  0
   -1.8704  -13.9672    0.0000 C   0  0  0  0  0  0  0  0  0  0  0  0
   -0.3751  -14.0869    0.0000 C   0  0  0  0  0  0  0  0  0  0  0  0
    1.1243  -14.0469    0.0000 C   0  0  0  0  0  0  0  0  0  0  0  0
    2.6111  -13.8479    0.0000 C   0  0  0  0  0  0  0  0  0  0  0  0
    4.0682  -13.4919    0.0000 C   0  0  0  0  0  0  0  0  0  0  0  0
    5.4793  -12.9830    0.0000 C   0  0  0  0  0  0  0  0  0  0  0  0
    6.8282  -12.3270    0.0000 C   0  0  0  0  0  0  0  0  0  0  0  0
    8.0998  -11.5314    0.0000 C   0  0  0  0  0  0  0  0  0  0  0  0
    9.2797  -10.6051    0.0000 C   0  0  0  0  0  0  0  0  0  0  0  0
   10.3543   -9.5587    0.0000 C   0  0  0  0  0  0  0  0  0  0  0  0
   11.3117   -8.4039    0.0000 C   0  0  0  0  0  0  0  0  0  0  0  0
   12.1409   -7.1540    0.0000 C   0  0  0  0  0  0  0  0  0  0  0  0
   12.8325   -5.8229    0.0000 C   0  0  0  0  0  0  0  0  0  0  0  0
   13.3788   -4.4259    0.0000 C   0  0  0  0  0  0  0  0  0  0  0  0
   13.7734   -2.9788    0.0000 C   0  0  0  0  0  0  0  0  0  0  0  0
   14.0120   -1.4979    0.0000 C   0  0  0  0  0  0  0  0  0  0  0  0
  1  2  1  0
  2  3  1  0
  3  4  1  0
  4  5  1  0
  5  6  1  0
  6  7  1  0
  7  8  1  0
  8  9  1  0
  9 10  1  0
 10 11  1  0
 11 12  1  0
 12 13  1  0
 13 14  1  0
 14 15  1  0
 15 16  1  0
 16 17  1  0
 17 18  1  0
 18 19  1  0
 19 20  1  0
 20 21  1  0
 21 22  1  0
 22 23  1  0
 23 24  1  0
 24 25  1  0
 25 26  1  0
 26 27  1  0
 27 28  1  0
 28 29  1  0
 29 30  1  0
 30 31  1  0
 31 32  1  0
 32 33  1  0
 33 34  1  0
 34 35  1  0
 35 36  1  0
 36 37  1  0
 37 38  1  0
 38 39  1  0
 39 40  1  0
 40 41  1  0
 41 42  1  0
 42 43  1  0
 43 44  1  0
 44 45  1  0
 45 46  1  0
 46 47  1  0
 47 48  1  0
 48 49  1  0
 49 50  1  0
 50 51  1  0
 51 52  1  0
 52 53  1  0
 53 54  1  0
 54 55  1  0
 55 56  1  0
 56 57  1  0
 57 58  1  0
 58 59  1  0
 59 60  1  0
 60  2  1  0
M  END
>  <Title>  (804) 
idABCZgen8

$$$$

     RDKit          2D

  5  4  0  0  0  0  0  0  0  0999 V2000
    0.0000    0.0000    0.0000 C   0  0  0  0  0  0  0  0  0  0  0  0
    1.2990    0.7500    0.0000 C   0  0  0  0  0  0  0  0  0  0  0  0
    2.5981   -0.0000    0.0000 C   0  0  0  0  0  0  0  0  0  0  0  0
    3.8971    0.7500    0.0000 C   0  0  0  0  0  0  0  0  0  0  0  0
    2.5981   -1.5000    0.0000 O   0  0  0  0  0  0  0  0  0  0  0  0
  1  2  1  0
  2  3  1  0
  3  4  1  0
  3  5  2  0
M  END
>  <Title>  (805) 
idABDAgen8

$$$$

     RDKit          2D

  8  7  0  0  0  0  0  0  0  0999 V2000
    0.0000    0.0000    0.0000 C   0  0  0  0  0  0  0  0  0  0  0  0
   -0.0000   -1.5000    0.0000 C   0  0  0  0  0  0  0  0  0  0  0  0
   -0.0000   -3.0000    0.0000 C   0  0  0  0  0  0  0  0  0  0  0  0
   -0.0000   -4.5000    0.0000 C   0  0  0  0  0  0  0  0  0  0  0  0
   -0.0000   -6.0000    0.0000 C   0  0  0  0  0  0  0  0  0  0  0  0
   -0.0000   -7.5000    0.0000 C   0  0  0  0  0  0  0  0  0  0  0  0
   -0.0000   -9.0000    0.0000 C   0  0  0  0  0  0  0  0  0  0  0  0
   -0.0000  -10.5000    0.0000 N   0  0  0  0  0  0  0  0  0  0  0  0
  1  2  3  0
  2  3  1  0
  3  4  3  0
  4  5  1  0
  5  6  3  0
  6  7  1  0
  7  8  3  0
M  END
>  <Title>  (806) 
idABDBgen8

$$$$

     RDKit          2D

 38 43  0  0  0  0  0  0  0  0999 V2000
    5.1504   -6.2054    0.0000 C   0  0  0  0  0  0  0  0  0  0  0  0
    3.7860   -5.5823    0.0000 C   0  0  0  0  0  0  0  0  0  0  0  0
    2.4215   -4.9592    0.0000 C   0  0  0  0  0  0  0  0  0  0  0  0
    2.6350   -3.4744    0.0000 C   0  0  0  0  0  0  0  0  0  0  0  0
    2.0119   -2.1100    0.0000 C   0  0  0  0  0  0  0  0  0  0  0  0
    3.1455   -1.1277    0.0000 C   0  0  0  0  0  0  0  0  0  0  0  0
    2.8616    0.3452    0.0000 O   0  0  0  0  0  0  0  0  0  0  0  0
    4.5630   -1.6183    0.0000 N   0  0  0  0  0  0  0  0  0  0  0  0
    5.6966   -0.6360    0.0000 C   0  0  0  0  0  0  0  0  0  0  0  0
    7.1141   -1.1266    0.0000 N   0  0  0  0  0  0  0  0  0  0  0  0
    8.2478   -0.1443    0.0000 N   0  0  0  0  0  0  0  0  0  0  0  0
    7.9639    1.3286    0.0000 N   0  0  0  0  0  0  0  0  0  0  0  0
    6.5464    1.8192    0.0000 N   0  0  0  0  0  0  0  0  0  0  0  0
    5.4128    0.8369    0.0000 N   0  0  0  0  0  0  0  0  0  0  0  0
    0.7500   -1.2990    0.0000 C   0  0  0  0  0  0  0  0  0  0  0  0
    1.5000    0.0000    0.0000 C   0  0  0  0  0  0  0  0  0  0  0  0
    0.7500    1.2990    0.0000 C   0  0  0  0  0  0  0  0  0  0  0  0
   -0.7500    1.2990    0.0000 C   0  0  0  0  0  0  0  0  0  0  0  0
   -1.5000    0.0000    0.0000 C   0  0  0  0  0  0  0  0  0  0  0  0
   -0.7500   -1.2990    0.0000 C   0  0  0  0  0  0  0  0  0  0  0  0
   -2.0119   -2.1100    0.0000 C   0  0  0  0  0  0  0  0  0  0  0  0
   -2.8820   -0.8881    0.0000 C   0  0  0  0  0  0  0  0  0  0  0  0
   -4.3752   -1.0307    0.0000 C   0  0  0  0  0  0  0  0  0  0  0  0
   -4.9983   -2.3952    0.0000 C   0  0  0  0  0  0  0  0  0  0  0  0
   -4.1282   -3.6170    0.0000 C   0  0  0  0  0  0  0  0  0  0  0  0
   -2.6350   -3.4744    0.0000 C   0  0  0  0  0  0  0  0  0  0  0  0
   -2.4215   -4.9592    0.0000 C   0  0  0  0  0  0  0  0  0  0  0  0
   -3.8944   -5.2431    0.0000 C   0  0  0  0  0  0  0  0  0  0  0  0
   -4.3850   -6.6606    0.0000 C   0  0  0  0  0  0  0  0  0  0  0  0
   -3.4027   -7.7942    0.0000 C   0  0  0  0  0  0  0  0  0  0  0  0
   -1.9298   -7.5103    0.0000 C   0  0  0  0  0  0  0  0  0  0  0  0
   -1.4392   -6.0928    0.0000 C   0  0  0  0  0  0  0  0  0  0  0  0
   -0.0000   -6.5154    0.0000 C   0  0  0  0  0  0  0  0  0  0  0  0
   -0.3536   -7.9731    0.0000 C   0  0  0  0  0  0  0  0  0  0  0  0
    0.7320   -9.0082    0.0000 C   0  0  0  0  0  0  0  0  0  0  0  0
    2.1712   -8.5856    0.0000 C   0  0  0  0  0  0  0  0  0  0  0  0
    2.5248   -7.1279    0.0000 C   0  0  0  0  0  0  0  0  0  0  0  0
    1.4392   -6.0928    0.0000 C   0  0  0  0  0  0  0  0  0  0  0  0
  1  2  3  0
  2  3  1  0
  3  4  2  0
  4  5  1  0
  5  6  1  0
  6  7  2  0
  6  8  1  0
  8  9  1  0
  9 10  2  0
 10 11  1  0
 11 12  2  0
 12 13  1  0
 13 14  2  0
  5 15  1  0
 15 16  2  0
 16 17  1  0
 17 18  2  0
 18 19  1  0
 19 20  2  0
 20 21  1  0
 21 22  2  0
 22 23  1  0
 23 24  2  0
 24 25  1  0
 25 26  2  0
 26 27  1  0
 27 28  2  0
 28 29  1  0
 29 30  2  0
 30 31  1  0
 31 32  2  0
 32 33  1  0
 33 34  2  0
 34 35  1  0
 35 36  2  0
 36 37  1  0
 37 38  2  0
 38  3  1  0
 14  9  1  0
 20 15  1  0
 26 21  1  0
 32 27  1  0
 38 33  1  0
M  END
>  <Title>  (807) 
idABDCgen8

$$$$

     RDKit          2D

105105  0  0  0  0  0  0  0  0999 V2000
   26.3319    0.0000    0.0000 C   0  0  0  0  0  0  0  0  0  0  0  0
   24.8319    0.0000    0.0000 C   0  0  0  0  0  0  0  0  0  0  0  0
   24.7866   -1.4993    0.0000 C   0  0  0  0  0  0  0  0  0  0  0  0
   24.6509   -2.9932    0.0000 C   0  0  0  0  0  0  0  0  0  0  0  0
   24.4252   -4.4761    0.0000 C   0  0  0  0  0  0  0  0  0  0  0  0
   24.1104   -5.9427    0.0000 C   0  0  0  0  0  0  0  0  0  0  0  0
   23.7076   -7.3876    0.0000 C   0  0  0  0  0  0  0  0  0  0  0  0
   23.2183   -8.8055    0.0000 C   0  0  0  0  0  0  0  0  0  0  0  0
   22.6442  -10.1913    0.0000 C   0  0  0  0  0  0  0  0  0  0  0  0
   21.9876  -11.5400    0.0000 C   0  0  0  0  0  0  0  0  0  0  0  0
   21.2507  -12.8465    0.0000 C   0  0  0  0  0  0  0  0  0  0  0  0
   20.4363  -14.1062    0.0000 C   0  0  0  0  0  0  0  0  0  0  0  0
   19.5473  -15.3143    0.0000 C   0  0  0  0  0  0  0  0  0  0  0  0
   18.5870  -16.4666    0.0000 C   0  0  0  0  0  0  0  0  0  0  0  0
   17.5588  -17.5588    0.0000 C   0  0  0  0  0  0  0  0  0  0  0  0
   16.4666  -18.5870    0.0000 C   0  0  0  0  0  0  0  0  0  0  0  0
   15.3143  -19.5473    0.0000 C   0  0  0  0  0  0  0  0  0  0  0  0
   14.1062  -20.4363    0.0000 C   0  0  0  0  0  0  0  0  0  0  0  0
   12.8465  -21.2507    0.0000 C   0  0  0  0  0  0  0  0  0  0  0  0
   11.5400  -21.9876    0.0000 C   0  0  0  0  0  0  0  0  0  0  0  0
   10.1913  -22.6442    0.0000 C   0  0  0  0  0  0  0  0  0  0  0  0
    8.8055  -23.2183    0.0000 C   0  0  0  0  0  0  0  0  0  0  0  0
    7.3876  -23.7076    0.0000 C   0  0  0  0  0  0  0  0  0  0  0  0
    5.9427  -24.1104    0.0000 C   0  0  0  0  0  0  0  0  0  0  0  0
    4.4761  -24.4252    0.0000 C   0  0  0  0  0  0  0  0  0  0  0  0
    2.9932  -24.6509    0.0000 C   0  0  0  0  0  0  0  0  0  0  0  0
    1.4993  -24.7866    0.0000 C   0  0  0  0  0  0  0  0  0  0  0  0
   -0.0000  -24.8319    0.0000 C   0  0  0  0  0  0  0  0  0  0  0  0
   -1.4993  -24.7866    0.0000 C   0  0  0  0  0  0  0  0  0  0  0  0
   -2.9932  -24.6509    0.0000 C   0  0  0  0  0  0  0  0  0  0  0  0
   -4.4761  -24.4252    0.0000 C   0  0  0  0  0  0  0  0  0  0  0  0
   -5.9427  -24.1104    0.0000 C   0  0  0  0  0  0  0  0  0  0  0  0
   -7.3876  -23.7076    0.0000 C   0  0  0  0  0  0  0  0  0  0  0  0
   -8.8055  -23.2183    0.0000 C   0  0  0  0  0  0  0  0  0  0  0  0
  -10.1913  -22.6442    0.0000 C   0  0  0  0  0  0  0  0  0  0  0  0
  -11.5400  -21.9876    0.0000 C   0  0  0  0  0  0  0  0  0  0  0  0
  -12.8465  -21.2507    0.0000 C   0  0  0  0  0  0  0  0  0  0  0  0
  -14.1062  -20.4363    0.0000 C   0  0  0  0  0  0  0  0  0  0  0  0
  -15.3143  -19.5473    0.0000 C   0  0  0  0  0  0  0  0  0  0  0  0
  -16.4666  -18.5870    0.0000 C   0  0  0  0  0  0  0  0  0  0  0  0
  -17.5588  -17.5588    0.0000 C   0  0  0  0  0  0  0  0  0  0  0  0
  -18.5870  -16.4666    0.0000 C   0  0  0  0  0  0  0  0  0  0  0  0
  -19.5473  -15.3143    0.0000 C   0  0  0  0  0  0  0  0  0  0  0  0
  -20.4363  -14.1062    0.0000 C   0  0  0  0  0  0  0  0  0  0  0  0
  -21.2507  -12.8465    0.0000 C   0  0  0  0  0  0  0  0  0  0  0  0
  -21.9876  -11.5400    0.0000 C   0  0  0  0  0  0  0  0  0  0  0  0
  -22.6442  -10.1913    0.0000 C   0  0  0  0  0  0  0  0  0  0  0  0
  -23.2183   -8.8055    0.0000 C   0  0  0  0  0  0  0  0  0  0  0  0
  -23.7076   -7.3876    0.0000 C   0  0  0  0  0  0  0  0  0  0  0  0
  -24.1104   -5.9427    0.0000 C   0  0  0  0  0  0  0  0  0  0  0  0
  -24.4252   -4.4761    0.0000 C   0  0  0  0  0  0  0  0  0  0  0  0
  -24.6509   -2.9932    0.0000 C   0  0  0  0  0  0  0  0  0  0  0  0
  -24.7866   -1.4993    0.0000 C   0  0  0  0  0  0  0  0  0  0  0  0
  -24.8319    0.0000    0.0000 C   0  0  0  0  0  0  0  0  0  0  0  0
  -24.7866    1.4993    0.0000 C   0  0  0  0  0  0  0  0  0  0  0  0
  -24.6509    2.9932    0.0000 C   0  0  0  0  0  0  0  0  0  0  0  0
  -24.4252    4.4761    0.0000 C   0  0  0  0  0  0  0  0  0  0  0  0
  -24.1104    5.9427    0.0000 C   0  0  0  0  0  0  0  0  0  0  0  0
  -23.7076    7.3876    0.0000 C   0  0  0  0  0  0  0  0  0  0  0  0
  -23.2183    8.8055    0.0000 C   0  0  0  0  0  0  0  0  0  0  0  0
  -22.6442   10.1913    0.0000 C   0  0  0  0  0  0  0  0  0  0  0  0
  -21.9876   11.5400    0.0000 C   0  0  0  0  0  0  0  0  0  0  0  0
  -21.2507   12.8465    0.0000 C   0  0  0  0  0  0  0  0  0  0  0  0
  -20.4363   14.1062    0.0000 C   0  0  0  0  0  0  0  0  0  0  0  0
  -19.5473   15.3143    0.0000 C   0  0  0  0  0  0  0  0  0  0  0  0
  -18.5870   16.4666    0.0000 C   0  0  0  0  0  0  0  0  0  0  0  0
  -17.5588   17.5588    0.0000 C   0  0  0  0  0  0  0  0  0  0  0  0
  -16.4666   18.5870    0.0000 C   0  0  0  0  0  0  0  0  0  0  0  0
  -15.3143   19.5473    0.0000 C   0  0  0  0  0  0  0  0  0  0  0  0
  -14.1062   20.4363    0.0000 C   0  0  0  0  0  0  0  0  0  0  0  0
  -12.8465   21.2507    0.0000 C   0  0  0  0  0  0  0  0  0  0  0  0
  -11.5400   21.9876    0.0000 C   0  0  0  0  0  0  0  0  0  0  0  0
  -10.1913   22.6442    0.0000 C   0  0  0  0  0  0  0  0  0  0  0  0
   -8.8055   23.2183    0.0000 C   0  0  0  0  0  0  0  0  0  0  0  0
   -7.3876   23.7076    0.0000 C   0  0  0  0  0  0  0  0  0  0  0  0
   -5.9427   24.1104    0.0000 C   0  0  0  0  0  0  0  0  0  0  0  0
   -4.4761   24.4252    0.0000 C   0  0  0  0  0  0  0  0  0  0  0  0
   -2.9932   24.6509    0.0000 C   0  0  0  0  0  0  0  0  0  0  0  0
   -1.4993   24.7866    0.0000 C   0  0  0  0  0  0  0  0  0  0  0  0
    0.0000   24.8319    0.0000 C   0  0  0  0  0  0  0  0  0  0  0  0
    1.4993   24.7866    0.0000 C   0  0  0  0  0  0  0  0  0  0  0  0
    2.9932   24.6509    0.0000 C   0  0  0  0  0  0  0  0  0  0  0  0
    4.4761   24.4252    0.0000 C   0  0  0  0  0  0  0  0  0  0  0  0
    5.9427   24.1104    0.0000 C   0  0  0  0  0  0  0  0  0  0  0  0
    7.3876   23.7076    0.0000 C   0  0  0  0  0  0  0  0  0  0  0  0
    8.8055   23.2183    0.0000 C   0  0  0  0  0  0  0  0  0  0  0  0
   10.1913   22.6442    0.0000 C   0  0  0  0  0  0  0  0  0  0  0  0
   11.5400   21.9876    0.0000 C   0  0  0  0  0  0  0  0  0  0  0  0
   12.8465   21.2507    0.0000 C   0  0  0  0  0  0  0  0  0  0  0  0
   14.1062   20.4363    0.0000 C   0  0  0  0  0  0  0  0  0  0  0  0
   15.3143   19.5473    0.0000 C   0  0  0  0  0  0  0  0  0  0  0  0
   16.4666   18.5870    0.0000 C   0  0  0  0  0  0  0  0  0  0  0  0
   17.5588   17.5588    0.0000 C   0  0  0  0  0  0  0  0  0  0  0  0
   18.5870   16.4666    0.0000 C   0  0  0  0  0  0  0  0  0  0  0  0
   19.5473   15.3143    0.0000 C   0  0  0  0  0  0  0  0  0  0  0  0
   20.4363   14.1062    0.0000 C   0  0  0  0  0  0  0  0  0  0  0  0
   21.2507   12.8465    0.0000 C   0  0  0  0  0  0  0  0  0  0  0  0
   21.9876   11.5400    0.0000 C   0  0  0  0  0  0  0  0  0  0  0  0
   22.6442   10.1913    0.0000 C   0  0  0  0  0  0  0  0  0  0  0  0
   23.2183    8.8055    0.0000 C   0  0  0  0  0  0  0  0  0  0  0  0
   23.7076    7.3876    0.0000 C   0  0  0  0  0  0  0  0  0  0  0  0
   24.1104    5.9427    0.0000 C   0  0  0  0  0  0  0  0  0  0  0  0
   24.4252    4.4761    0.0000 C   0  0  0  0  0  0  0  0  0  0  0  0
   24.6509    2.9932    0.0000 C   0  0  0  0  0  0  0  0  0  0  0  0
   24.7866    1.4993    0.0000 C   0  0  0  0  0  0  0  0  0  0  0  0
  1  2  1  0
  2  3  1  0
  3  4  2  0
  4  5  1  0
  5  6  1  0
  6  7  1  0
  7  8  1  0
  8  9  1  0
  9 10  1  0
 10 11  1  0
 11 12  1  0
 12 13  1  0
 13 14  1  0
 14 15  1  0
 15 16  1  0
 16 17  1  0
 17 18  1  0
 18 19  1  0
 19 20  1  0
 20 21  1  0
 21 22  1  0
 22 23  1  0
 23 24  1  0
 24 25  1  0
 25 26  1  0
 26 27  1  0
 27 28  1  0
 28 29  1  0
 29 30  1  0
 30 31  1  0
 31 32  1  0
 32 33  1  0
 33 34  1  0
 34 35  1  0
 35 36  1  0
 36 37  1  0
 37 38  1  0
 38 39  1  0
 39 40  1  0
 40 41  1  0
 41 42  1  0
 42 43  1  0
 43 44  1  0
 44 45  1  0
 45 46  1  0
 46 47  1  0
 47 48  1  0
 48 49  1  0
 49 50  1  0
 50 51  1  0
 51 52  1  0
 52 53  1  0
 53 54  1  0
 54 55  1  0
 55 56  1  0
 56 57  1  0
 57 58  1  0
 58 59  1  0
 59 60  1  0
 60 61  1  0
 61 62  1  0
 62 63  1  0
 63 64  1  0
 64 65  1  0
 65 66  1  0
 66 67  1  0
 67 68  1  0
 68 69  1  0
 69 70  1  0
 70 71  1  0
 71 72  1  0
 72 73  1  0
 73 74  1  0
 74 75  1  0
 75 76  1  0
 76 77  1  0
 77 78  1  0
 78 79  1  0
 79 80  1  0
 80 81  1  0
 81 82  1  0
 82 83  1  0
 83 84  1  0
 84 85  1  0
 85 86  1  0
 86 87  1  0
 87 88  1  0
 88 89  1  0
 89 90  1  0
 90 91  1  0
 91 92  1  0
 92 93  1  0
 93 94  1  0
 94 95  1  0
 95 96  1  0
 96 97  1  0
 97 98  1  0
 98 99  1  0
 99100  1  0
100101  1  0
101102  1  0
102103  1  0
103104  1  0
104105  1  0
105  2  1  0
M  END
>  <Title>  (808) 
idABDDgen8

$$$$

     RDKit          2D

110110  0  0  0  0  0  0  0  0999 V2000
   27.5254    0.0000    0.0000 C   0  0  0  0  0  0  0  0  0  0  0  0
   26.0254    0.0000    0.0000 C   0  0  0  0  0  0  0  0  0  0  0  0
   25.9822    1.4994    0.0000 C   0  0  0  0  0  0  0  0  0  0  0  0
   25.8527    2.9938    0.0000 C   0  0  0  0  0  0  0  0  0  0  0  0
   25.6373    4.4782    0.0000 C   0  0  0  0  0  0  0  0  0  0  0  0
   25.3367    5.9478    0.0000 C   0  0  0  0  0  0  0  0  0  0  0  0
   24.9519    7.3976    0.0000 C   0  0  0  0  0  0  0  0  0  0  0  0
   24.4843    8.8229    0.0000 C   0  0  0  0  0  0  0  0  0  0  0  0
   23.9353   10.2188    0.0000 C   0  0  0  0  0  0  0  0  0  0  0  0
   23.3068   11.5808    0.0000 C   0  0  0  0  0  0  0  0  0  0  0  0
   22.6009   12.9043    0.0000 C   0  0  0  0  0  0  0  0  0  0  0  0
   21.8200   14.1850    0.0000 C   0  0  0  0  0  0  0  0  0  0  0  0
   20.9665   15.4185    0.0000 C   0  0  0  0  0  0  0  0  0  0  0  0
   20.0434   16.6008    0.0000 C   0  0  0  0  0  0  0  0  0  0  0  0
   19.0537   17.7280    0.0000 C   0  0  0  0  0  0  0  0  0  0  0  0
   18.0007   18.7962    0.0000 C   0  0  0  0  0  0  0  0  0  0  0  0
   16.8879   19.8021    0.0000 C   0  0  0  0  0  0  0  0  0  0  0  0
   15.7190   20.7421    0.0000 C   0  0  0  0  0  0  0  0  0  0  0  0
   14.4979   21.6133    0.0000 C   0  0  0  0  0  0  0  0  0  0  0  0
   13.2287   22.4126    0.0000 C   0  0  0  0  0  0  0  0  0  0  0  0
   11.9154   23.1375    0.0000 C   0  0  0  0  0  0  0  0  0  0  0  0
   10.5627   23.7856    0.0000 C   0  0  0  0  0  0  0  0  0  0  0  0
    9.1748   24.3546    0.0000 C   0  0  0  0  0  0  0  0  0  0  0  0
    7.7564   24.8427    0.0000 C   0  0  0  0  0  0  0  0  0  0  0  0
    6.3123   25.2483    0.0000 C   0  0  0  0  0  0  0  0  0  0  0  0
    4.8472   25.5701    0.0000 C   0  0  0  0  0  0  0  0  0  0  0  0
    3.3660   25.8068    0.0000 C   0  0  0  0  0  0  0  0  0  0  0  0
    1.8736   25.9579    0.0000 C   0  0  0  0  0  0  0  0  0  0  0  0
    0.3750   26.0227    0.0000 C   0  0  0  0  0  0  0  0  0  0  0  0
   -1.1248   26.0011    0.0000 C   0  0  0  0  0  0  0  0  0  0  0  0
   -2.6209   25.8931    0.0000 C   0  0  0  0  0  0  0  0  0  0  0  0
   -4.1083   25.6991    0.0000 C   0  0  0  0  0  0  0  0  0  0  0  0
   -5.5821   25.4198    0.0000 C   0  0  0  0  0  0  0  0  0  0  0  0
   -7.0373   25.0559    0.0000 C   0  0  0  0  0  0  0  0  0  0  0  0
   -8.4691   24.6089    0.0000 C   0  0  0  0  0  0  0  0  0  0  0  0
   -9.8728   24.0801    0.0000 C   0  0  0  0  0  0  0  0  0  0  0  0
  -11.2437   23.4713    0.0000 C   0  0  0  0  0  0  0  0  0  0  0  0
  -12.5773   22.7845    0.0000 C   0  0  0  0  0  0  0  0  0  0  0  0
  -13.8690   22.0221    0.0000 C   0  0  0  0  0  0  0  0  0  0  0  0
  -15.1147   21.1865    0.0000 C   0  0  0  0  0  0  0  0  0  0  0  0
  -16.3102   20.2805    0.0000 C   0  0  0  0  0  0  0  0  0  0  0  0
  -17.4515   19.3072    0.0000 C   0  0  0  0  0  0  0  0  0  0  0  0
  -18.5349   18.2697    0.0000 C   0  0  0  0  0  0  0  0  0  0  0  0
  -19.5567   17.1715    0.0000 C   0  0  0  0  0  0  0  0  0  0  0  0
  -20.5135   16.0163    0.0000 C   0  0  0  0  0  0  0  0  0  0  0  0
  -21.4021   14.8079    0.0000 C   0  0  0  0  0  0  0  0  0  0  0  0
  -22.2197   13.5503    0.0000 C   0  0  0  0  0  0  0  0  0  0  0  0
  -22.9634   12.2476    0.0000 C   0  0  0  0  0  0  0  0  0  0  0  0
  -23.6309   10.9043    0.0000 C   0  0  0  0  0  0  0  0  0  0  0  0
  -24.2199    9.5248    0.0000 C   0  0  0  0  0  0  0  0  0  0  0  0
  -24.7284    8.1136    0.0000 C   0  0  0  0  0  0  0  0  0  0  0  0
  -25.1547    6.6755    0.0000 C   0  0  0  0  0  0  0  0  0  0  0  0
  -25.4976    5.2152    0.0000 C   0  0  0  0  0  0  0  0  0  0  0  0
  -25.7557    3.7376    0.0000 C   0  0  0  0  0  0  0  0  0  0  0  0
  -25.9282    2.2475    0.0000 C   0  0  0  0  0  0  0  0  0  0  0  0
  -26.0146    0.7500    0.0000 C   0  0  0  0  0  0  0  0  0  0  0  0
  -26.0146   -0.7500    0.0000 C   0  0  0  0  0  0  0  0  0  0  0  0
  -25.9282   -2.2475    0.0000 C   0  0  0  0  0  0  0  0  0  0  0  0
  -25.7557   -3.7376    0.0000 C   0  0  0  0  0  0  0  0  0  0  0  0
  -25.4976   -5.2152    0.0000 C   0  0  0  0  0  0  0  0  0  0  0  0
  -25.1547   -6.6755    0.0000 C   0  0  0  0  0  0  0  0  0  0  0  0
  -24.7284   -8.1136    0.0000 C   0  0  0  0  0  0  0  0  0  0  0  0
  -24.2199   -9.5248    0.0000 C   0  0  0  0  0  0  0  0  0  0  0  0
  -23.6309  -10.9043    0.0000 C   0  0  0  0  0  0  0  0  0  0  0  0
  -22.9634  -12.2476    0.0000 C   0  0  0  0  0  0  0  0  0  0  0  0
  -22.2197  -13.5503    0.0000 C   0  0  0  0  0  0  0  0  0  0  0  0
  -21.4021  -14.8079    0.0000 C   0  0  0  0  0  0  0  0  0  0  0  0
  -20.5135  -16.0163    0.0000 C   0  0  0  0  0  0  0  0  0  0  0  0
  -19.5567  -17.1715    0.0000 C   0  0  0  0  0  0  0  0  0  0  0  0
  -18.5349  -18.2697    0.0000 C   0  0  0  0  0  0  0  0  0  0  0  0
  -17.4515  -19.3072    0.0000 C   0  0  0  0  0  0  0  0  0  0  0  0
  -16.3102  -20.2805    0.0000 C   0  0  0  0  0  0  0  0  0  0  0  0
  -15.1147  -21.1865    0.0000 C   0  0  0  0  0  0  0  0  0  0  0  0
  -13.8690  -22.0221    0.0000 C   0  0  0  0  0  0  0  0  0  0  0  0
  -12.5773  -22.7845    0.0000 C   0  0  0  0  0  0  0  0  0  0  0  0
  -11.2437  -23.4713    0.0000 C   0  0  0  0  0  0  0  0  0  0  0  0
   -9.8728  -24.0801    0.0000 C   0  0  0  0  0  0  0  0  0  0  0  0
   -8.4691  -24.6089    0.0000 C   0  0  0  0  0  0  0  0  0  0  0  0
   -7.0373  -25.0559    0.0000 C   0  0  0  0  0  0  0  0  0  0  0  0
   -5.5821  -25.4198    0.0000 C   0  0  0  0  0  0  0  0  0  0  0  0
   -4.1083  -25.6991    0.0000 C   0  0  0  0  0  0  0  0  0  0  0  0
   -2.6209  -25.8931    0.0000 C   0  0  0  0  0  0  0  0  0  0  0  0
   -1.1248  -26.0011    0.0000 C   0  0  0  0  0  0  0  0  0  0  0  0
    0.3750  -26.0227    0.0000 C   0  0  0  0  0  0  0  0  0  0  0  0
    1.8736  -25.9579    0.0000 C   0  0  0  0  0  0  0  0  0  0  0  0
    3.3660  -25.8068    0.0000 C   0  0  0  0  0  0  0  0  0  0  0  0
    4.8472  -25.5701    0.0000 C   0  0  0  0  0  0  0  0  0  0  0  0
    6.3123  -25.2483    0.0000 C   0  0  0  0  0  0  0  0  0  0  0  0
    7.7564  -24.8427    0.0000 C   0  0  0  0  0  0  0  0  0  0  0  0
    9.1748  -24.3546    0.0000 C   0  0  0  0  0  0  0  0  0  0  0  0
   10.5627  -23.7856    0.0000 C   0  0  0  0  0  0  0  0  0  0  0  0
   11.9154  -23.1375    0.0000 C   0  0  0  0  0  0  0  0  0  0  0  0
   13.2287  -22.4126    0.0000 C   0  0  0  0  0  0  0  0  0  0  0  0
   14.4979  -21.6133    0.0000 C   0  0  0  0  0  0  0  0  0  0  0  0
   15.7190  -20.7421    0.0000 C   0  0  0  0  0  0  0  0  0  0  0  0
   16.8879  -19.8021    0.0000 C   0  0  0  0  0  0  0  0  0  0  0  0
   18.0007  -18.7962    0.0000 C   0  0  0  0  0  0  0  0  0  0  0  0
   19.0537  -17.7280    0.0000 C   0  0  0  0  0  0  0  0  0  0  0  0
   20.0434  -16.6008    0.0000 C   0  0  0  0  0  0  0  0  0  0  0  0
   20.9665  -15.4185    0.0000 C   0  0  0  0  0  0  0  0  0  0  0  0
   21.8200  -14.1850    0.0000 C   0  0  0  0  0  0  0  0  0  0  0  0
   22.6009  -12.9043    0.0000 C   0  0  0  0  0  0  0  0  0  0  0  0
   23.3068  -11.5808    0.0000 C   0  0  0  0  0  0  0  0  0  0  0  0
   23.9353  -10.2188    0.0000 C   0  0  0  0  0  0  0  0  0  0  0  0
   24.4843   -8.8229    0.0000 C   0  0  0  0  0  0  0  0  0  0  0  0
   24.9519   -7.3976    0.0000 C   0  0  0  0  0  0  0  0  0  0  0  0
   25.3367   -5.9478    0.0000 C   0  0  0  0  0  0  0  0  0  0  0  0
   25.6373   -4.4782    0.0000 C   0  0  0  0  0  0  0  0  0  0  0  0
   25.8527   -2.9938    0.0000 C   0  0  0  0  0  0  0  0  0  0  0  0
   25.9822   -1.4994    0.0000 C   0  0  0  0  0  0  0  0  0  0  0  0
  1  2  1  0
  2  3  1  0
  3  4  1  0
  4  5  1  0
  5  6  1  0
  6  7  1  0
  7  8  1  0
  8  9  1  0
  9 10  1  0
 10 11  1  0
 11 12  1  0
 12 13  1  0
 13 14  1  0
 14 15  1  0
 15 16  1  0
 16 17  1  0
 17 18  1  0
 18 19  1  0
 19 20  1  0
 20 21  1  0
 21 22  1  0
 22 23  1  0
 23 24  1  0
 24 25  1  0
 25 26  1  0
 26 27  1  0
 27 28  1  0
 28 29  1  0
 29 30  1  0
 30 31  1  0
 31 32  1  0
 32 33  1  0
 33 34  1  0
 34 35  1  0
 35 36  1  0
 36 37  1  0
 37 38  1  0
 38 39  1  0
 39 40  1  0
 40 41  1  0
 41 42  1  0
 42 43  1  0
 43 44  1  0
 44 45  1  0
 45 46  1  0
 46 47  1  0
 47 48  1  0
 48 49  1  0
 49 50  1  0
 50 51  1  0
 51 52  1  0
 52 53  1  0
 53 54  1  0
 54 55  1  0
 55 56  1  0
 56 57  1  0
 57 58  1  0
 58 59  1  0
 59 60  1  0
 60 61  1  0
 61 62  1  0
 62 63  1  0
 63 64  1  0
 64 65  1  0
 65 66  1  0
 66 67  1  0
 67 68  1  0
 68 69  1  0
 69 70  1  0
 70 71  1  0
 71 72  1  0
 72 73  1  0
 73 74  1  0
 74 75  1  0
 75 76  1  0
 76 77  1  0
 77 78  1  0
 78 79  1  0
 79 80  1  0
 80 81  1  0
 81 82  1  0
 82 83  1  0
 83 84  1  0
 84 85  1  0
 85 86  1  0
 86 87  1  0
 87 88  1  0
 88 89  1  0
 89 90  1  0
 90 91  1  0
 91 92  1  0
 92 93  1  0
 93 94  1  0
 94 95  1  0
 95 96  1  0
 96 97  1  0
 97 98  1  0
 98 99  1  0
 99100  1  0
100101  1  0
101102  1  0
102103  1  0
103104  1  0
104105  1  0
105106  1  0
106107  1  0
107108  1  0
108109  1  0
109110  1  0
110  2  1  0
M  END
>  <Title>  (809) 
idABDEgen8

$$$$

     RDKit          2D

 97 97  0  0  0  0  0  0  0  0999 V2000
   24.1837    0.0000    0.0000 C   0  0  0  0  0  0  0  0  0  0  0  0
   22.6837    0.0000    0.0000 C   0  0  0  0  0  0  0  0  0  0  0  0
   22.6341    1.4992    0.0000 C   0  0  0  0  0  0  0  0  0  0  0  0
   22.4856    2.9918    0.0000 C   0  0  0  0  0  0  0  0  0  0  0  0
   22.2387    4.4713    0.0000 C   0  0  0  0  0  0  0  0  0  0  0  0
   21.8945    5.9313    0.0000 C   0  0  0  0  0  0  0  0  0  0  0  0
   21.4546    7.3654    0.0000 C   0  0  0  0  0  0  0  0  0  0  0  0
   20.9210    8.7672    0.0000 C   0  0  0  0  0  0  0  0  0  0  0  0
   20.2958   10.1307    0.0000 C   0  0  0  0  0  0  0  0  0  0  0  0
   19.5819   11.4500    0.0000 C   0  0  0  0  0  0  0  0  0  0  0  0
   18.7823   12.7191    0.0000 C   0  0  0  0  0  0  0  0  0  0  0  0
   17.9006   13.9326    0.0000 C   0  0  0  0  0  0  0  0  0  0  0  0
   16.9407   15.0852    0.0000 C   0  0  0  0  0  0  0  0  0  0  0  0
   15.9067   16.1719    0.0000 C   0  0  0  0  0  0  0  0  0  0  0  0
   14.8031   17.1878    0.0000 C   0  0  0  0  0  0  0  0  0  0  0  0
   13.6348   18.1286    0.0000 C   0  0  0  0  0  0  0  0  0  0  0  0
   12.4068   18.9900    0.0000 C   0  0  0  0  0  0  0  0  0  0  0  0
   11.1246   19.7685    0.0000 C   0  0  0  0  0  0  0  0  0  0  0  0
    9.7938   20.4605    0.0000 C   0  0  0  0  0  0  0  0  0  0  0  0
    8.4201   21.0631    0.0000 C   0  0  0  0  0  0  0  0  0  0  0  0
    7.0097   21.5735    0.0000 C   0  0  0  0  0  0  0  0  0  0  0  0
    5.5685   21.9896    0.0000 C   0  0  0  0  0  0  0  0  0  0  0  0
    4.1030   22.3095    0.0000 C   0  0  0  0  0  0  0  0  0  0  0  0
    2.6196   22.5319    0.0000 C   0  0  0  0  0  0  0  0  0  0  0  0
    1.1247   22.6558    0.0000 C   0  0  0  0  0  0  0  0  0  0  0  0
   -0.3751   22.6806    0.0000 C   0  0  0  0  0  0  0  0  0  0  0  0
   -1.8732   22.6062    0.0000 C   0  0  0  0  0  0  0  0  0  0  0  0
   -3.3632   22.4330    0.0000 C   0  0  0  0  0  0  0  0  0  0  0  0
   -4.8384   22.1617    0.0000 C   0  0  0  0  0  0  0  0  0  0  0  0
   -6.2925   21.7935    0.0000 C   0  0  0  0  0  0  0  0  0  0  0  0
   -7.7191   21.3299    0.0000 C   0  0  0  0  0  0  0  0  0  0  0  0
   -9.1119   20.7731    0.0000 C   0  0  0  0  0  0  0  0  0  0  0  0
  -10.4649   20.1255    0.0000 C   0  0  0  0  0  0  0  0  0  0  0  0
  -11.7722   19.3899    0.0000 C   0  0  0  0  0  0  0  0  0  0  0  0
  -13.0279   18.5695    0.0000 C   0  0  0  0  0  0  0  0  0  0  0  0
  -14.2267   17.6678    0.0000 C   0  0  0  0  0  0  0  0  0  0  0  0
  -15.3633   16.6890    0.0000 C   0  0  0  0  0  0  0  0  0  0  0  0
  -16.4327   15.6371    0.0000 C   0  0  0  0  0  0  0  0  0  0  0  0
  -17.4302   14.5169    0.0000 C   0  0  0  0  0  0  0  0  0  0  0  0
  -18.3515   13.3332    0.0000 C   0  0  0  0  0  0  0  0  0  0  0  0
  -19.1926   12.0911    0.0000 C   0  0  0  0  0  0  0  0  0  0  0  0
  -19.9497   10.7963    0.0000 C   0  0  0  0  0  0  0  0  0  0  0  0
  -20.6196    9.4542    0.0000 C   0  0  0  0  0  0  0  0  0  0  0  0
  -21.1994    8.0707    0.0000 C   0  0  0  0  0  0  0  0  0  0  0  0
  -21.6864    6.6520    0.0000 C   0  0  0  0  0  0  0  0  0  0  0  0
  -22.0787    5.2042    0.0000 C   0  0  0  0  0  0  0  0  0  0  0  0
  -22.3743    3.7336    0.0000 C   0  0  0  0  0  0  0  0  0  0  0  0
  -22.5722    2.2467    0.0000 C   0  0  0  0  0  0  0  0  0  0  0  0
  -22.6713    0.7500    0.0000 C   0  0  0  0  0  0  0  0  0  0  0  0
  -22.6713   -0.7500    0.0000 C   0  0  0  0  0  0  0  0  0  0  0  0
  -22.5722   -2.2467    0.0000 C   0  0  0  0  0  0  0  0  0  0  0  0
  -22.3743   -3.7336    0.0000 C   0  0  0  0  0  0  0  0  0  0  0  0
  -22.0787   -5.2042    0.0000 C   0  0  0  0  0  0  0  0  0  0  0  0
  -21.6864   -6.6520    0.0000 C   0  0  0  0  0  0  0  0  0  0  0  0
  -21.1994   -8.0707    0.0000 C   0  0  0  0  0  0  0  0  0  0  0  0
  -20.6196   -9.4542    0.0000 C   0  0  0  0  0  0  0  0  0  0  0  0
  -19.9497  -10.7963    0.0000 C   0  0  0  0  0  0  0  0  0  0  0  0
  -19.1926  -12.0911    0.0000 C   0  0  0  0  0  0  0  0  0  0  0  0
  -18.3515  -13.3332    0.0000 C   0  0  0  0  0  0  0  0  0  0  0  0
  -17.4302  -14.5169    0.0000 C   0  0  0  0  0  0  0  0  0  0  0  0
  -16.4327  -15.6371    0.0000 C   0  0  0  0  0  0  0  0  0  0  0  0
  -15.3633  -16.6890    0.0000 C   0  0  0  0  0  0  0  0  0  0  0  0
  -14.2267  -17.6678    0.0000 C   0  0  0  0  0  0  0  0  0  0  0  0
  -13.0279  -18.5695    0.0000 C   0  0  0  0  0  0  0  0  0  0  0  0
  -11.7722  -19.3899    0.0000 C   0  0  0  0  0  0  0  0  0  0  0  0
  -10.4649  -20.1255    0.0000 C   0  0  0  0  0  0  0  0  0  0  0  0
   -9.1119  -20.7731    0.0000 C   0  0  0  0  0  0  0  0  0  0  0  0
   -7.7191  -21.3299    0.0000 C   0  0  0  0  0  0  0  0  0  0  0  0
   -6.2925  -21.7935    0.0000 C   0  0  0  0  0  0  0  0  0  0  0  0
   -4.8384  -22.1617    0.0000 C   0  0  0  0  0  0  0  0  0  0  0  0
   -3.3632  -22.4330    0.0000 C   0  0  0  0  0  0  0  0  0  0  0  0
   -1.8732  -22.6062    0.0000 C   0  0  0  0  0  0  0  0  0  0  0  0
   -0.3751  -22.6806    0.0000 C   0  0  0  0  0  0  0  0  0  0  0  0
    1.1247  -22.6558    0.0000 C   0  0  0  0  0  0  0  0  0  0  0  0
    2.6196  -22.5319    0.0000 C   0  0  0  0  0  0  0  0  0  0  0  0
    4.1030  -22.3095    0.0000 C   0  0  0  0  0  0  0  0  0  0  0  0
    5.5685  -21.9896    0.0000 C   0  0  0  0  0  0  0  0  0  0  0  0
    7.0097  -21.5735    0.0000 C   0  0  0  0  0  0  0  0  0  0  0  0
    8.4201  -21.0631    0.0000 C   0  0  0  0  0  0  0  0  0  0  0  0
    9.7938  -20.4605    0.0000 C   0  0  0  0  0  0  0  0  0  0  0  0
   11.1246  -19.7685    0.0000 C   0  0  0  0  0  0  0  0  0  0  0  0
   12.4068  -18.9900    0.0000 C   0  0  0  0  0  0  0  0  0  0  0  0
   13.6348  -18.1286    0.0000 C   0  0  0  0  0  0  0  0  0  0  0  0
   14.8031  -17.1878    0.0000 C   0  0  0  0  0  0  0  0  0  0  0  0
   15.9067  -16.1719    0.0000 C   0  0  0  0  0  0  0  0  0  0  0  0
   16.9407  -15.0852    0.0000 C   0  0  0  0  0  0  0  0  0  0  0  0
   17.9006  -13.9326    0.0000 C   0  0  0  0  0  0  0  0  0  0  0  0
   18.7823  -12.7191    0.0000 C   0  0  0  0  0  0  0  0  0  0  0  0
   19.5819  -11.4500    0.0000 C   0  0  0  0  0  0  0  0  0  0  0  0
   20.2958  -10.1307    0.0000 C   0  0  0  0  0  0  0  0  0  0  0  0
   20.9210   -8.7672    0.0000 C   0  0  0  0  0  0  0  0  0  0  0  0
   21.4546   -7.3654    0.0000 C   0  0  0  0  0  0  0  0  0  0  0  0
   21.8945   -5.9313    0.0000 C   0  0  0  0  0  0  0  0  0  0  0  0
   22.2387   -4.4713    0.0000 C   0  0  0  0  0  0  0  0  0  0  0  0
   23.7092   -4.7670    0.0000 C   0  0  0  0  0  0  0  0  0  0  0  0
   22.4856   -2.9918    0.0000 C   0  0  0  0  0  0  0  0  0  0  0  0
   22.6341   -1.4992    0.0000 C   0  0  0  0  0  0  0  0  0  0  0  0
  1  2  1  0
  2  3  1  0
  3  4  1  0
  4  5  1  0
  5  6  1  0
  6  7  1  0
  7  8  1  0
  8  9  1  0
  9 10  1  0
 10 11  1  0
 11 12  1  0
 12 13  1  0
 13 14  1  0
 14 15  1  0
 15 16  1  0
 16 17  1  0
 17 18  1  0
 18 19  1  0
 19 20  1  0
 20 21  1  0
 21 22  1  0
 22 23  1  0
 23 24  1  0
 24 25  1  0
 25 26  1  0
 26 27  1  0
 27 28  1  0
 28 29  1  0
 29 30  1  0
 30 31  1  0
 31 32  1  0
 32 33  1  0
 33 34  1  0
 34 35  1  0
 35 36  1  0
 36 37  1  0
 37 38  1  0
 38 39  1  0
 39 40  1  0
 40 41  1  0
 41 42  1  0
 42 43  1  0
 43 44  1  0
 44 45  1  0
 45 46  1  0
 46 47  1  0
 47 48  1  0
 48 49  1  0
 49 50  1  0
 50 51  1  0
 51 52  1  0
 52 53  1  0
 53 54  1  0
 54 55  1  0
 55 56  1  0
 56 57  1  0
 57 58  1  0
 58 59  1  0
 59 60  1  0
 60 61  1  0
 61 62  1  0
 62 63  1  0
 63 64  1  0
 64 65  1  0
 65 66  1  0
 66 67  1  0
 67 68  1  0
 68 69  1  0
 69 70  1  0
 70 71  1  0
 71 72  1  0
 72 73  1  0
 73 74  1  0
 74 75  1  0
 75 76  1  0
 76 77  1  0
 77 78  1  0
 78 79  1  0
 79 80  1  0
 80 81  1  0
 81 82  1  0
 82 83  1  0
 83 84  1  0
 84 85  1  0
 85 86  1  0
 86 87  1  0
 87 88  1  0
 88 89  1  0
 89 90  1  0
 90 91  1  0
 91 92  1  0
 92 93  1  0
 93 94  1  0
 94 95  1  0
 94 96  1  0
 96 97  1  0
 97  2  1  0
M  END
>  <Title>  (810) 
idABDFgen8

$$$$

     RDKit          2D

 35 39  0  0  0  0  0  0  0  0999 V2000
    1.2135   -7.3421    0.0000 C   0  0  0  0  0  0  0  0  0  0  0  0
    0.7500   -5.9156    0.0000 C   0  0  0  0  0  0  0  0  0  0  0  0
    1.9635   -5.0339    0.0000 C   0  0  0  0  0  0  0  0  0  0  0  0
    2.4271   -3.6073    0.0000 C   0  0  0  0  0  0  0  0  0  0  0  0
    1.9635   -2.1807    0.0000 C   0  0  0  0  0  0  0  0  0  0  0  0
    3.1771   -1.2990    0.0000 O   0  0  0  0  0  0  0  0  0  0  0  0
    4.5474   -1.9091    0.0000 C   0  0  0  0  0  0  0  0  0  0  0  0
    5.7609   -1.0275    0.0000 C   0  0  0  0  0  0  0  0  0  0  0  0
    7.1312   -1.6376    0.0000 N   0  0  0  0  0  0  0  0  0  0  0  0
    8.3447   -0.7559    0.0000 N   0  0  0  0  0  0  0  0  0  0  0  0
    8.1879    0.7359    0.0000 N   0  0  0  0  0  0  0  0  0  0  0  0
    6.8176    1.3460    0.0000 N   0  0  0  0  0  0  0  0  0  0  0  0
    5.6041    0.4643    0.0000 N   0  0  0  0  0  0  0  0  0  0  0  0
    4.7042   -3.4009    0.0000 C   0  0  0  0  0  0  0  0  0  0  0  0
    3.4906   -4.2826    0.0000 O   0  0  0  0  0  0  0  0  0  0  0  0
    6.0745   -4.0110    0.0000 C   0  0  0  0  0  0  0  0  0  0  0  0
    6.2313   -5.5028    0.0000 O   0  0  0  0  0  0  0  0  0  0  0  0
    0.7500   -1.2990    0.0000 C   0  0  0  0  0  0  0  0  0  0  0  0
    1.5000    0.0000    0.0000 C   0  0  0  0  0  0  0  0  0  0  0  0
    0.7500    1.2990    0.0000 C   0  0  0  0  0  0  0  0  0  0  0  0
   -0.7500    1.2990    0.0000 C   0  0  0  0  0  0  0  0  0  0  0  0
   -1.5000    0.0000    0.0000 C   0  0  0  0  0  0  0  0  0  0  0  0
   -0.7500   -1.2990    0.0000 C   0  0  0  0  0  0  0  0  0  0  0  0
   -1.9635   -2.1807    0.0000 C   0  0  0  0  0  0  0  0  0  0  0  0
   -2.9672   -1.0660    0.0000 C   0  0  0  0  0  0  0  0  0  0  0  0
   -4.4344   -1.3779    0.0000 C   0  0  0  0  0  0  0  0  0  0  0  0
   -4.8980   -2.8045    0.0000 C   0  0  0  0  0  0  0  0  0  0  0  0
   -3.8943   -3.9192    0.0000 C   0  0  0  0  0  0  0  0  0  0  0  0
   -2.4271   -3.6073    0.0000 C   0  0  0  0  0  0  0  0  0  0  0  0
   -1.9635   -5.0339    0.0000 C   0  0  0  0  0  0  0  0  0  0  0  0
   -3.3338   -5.6440    0.0000 C   0  0  0  0  0  0  0  0  0  0  0  0
   -3.4906   -7.1358    0.0000 C   0  0  0  0  0  0  0  0  0  0  0  0
   -2.2771   -8.0175    0.0000 C   0  0  0  0  0  0  0  0  0  0  0  0
   -0.9068   -7.4073    0.0000 C   0  0  0  0  0  0  0  0  0  0  0  0
   -0.7500   -5.9156    0.0000 C   0  0  0  0  0  0  0  0  0  0  0  0
  1  2  1  0
  2  3  2  0
  3  4  1  0
  4  5  2  0
  5  6  1  0
  6  7  1  0
  7  8  1  0
  8  9  2  0
  9 10  1  0
 10 11  2  0
 11 12  1  0
 12 13  2  0
  7 14  1  0
 14 15  1  0
 14 16  1  0
 16 17  1  0
  5 18  1  0
 18 19  2  0
 19 20  1  0
 20 21  2  0
 21 22  1  0
 22 23  2  0
 23 24  1  0
 24 25  2  0
 25 26  1  0
 26 27  2  0
 27 28  1  0
 28 29  2  0
 29 30  1  0
 30 31  2  0
 31 32  1  0
 32 33  2  0
 33 34  1  0
 34 35  2  0
 35  2  1  0
 13  8  1  0
 23 18  1  0
 29 24  1  0
 35 30  1  0
M  END
>  <Title>  (811) 
idABDGgen8

$$$$

     RDKit          2D

 15 16  0  0  0  0  0  0  0  0999 V2000
    3.0000    0.0000    0.0000 O   0  0  0  0  0  0  0  0  0  0  0  0
    1.5000    0.0000    0.0000 C   0  0  0  0  0  0  0  0  0  0  0  0
    0.7500   -1.2990    0.0000 C   0  0  0  0  0  0  0  0  0  0  0  0
   -0.7500   -1.2990    0.0000 C   0  0  0  0  0  0  0  0  0  0  0  0
   -1.5000    0.0000    0.0000 C   0  0  0  0  0  0  0  0  0  0  0  0
   -3.0000    0.0000    0.0000 O   0  0  0  0  0  0  0  0  0  0  0  0
   -3.7500    1.2990    0.0000 C   0  0  0  0  0  0  0  0  0  0  0  0
   -5.2500    1.2990    0.0000 C   0  0  0  0  0  0  0  0  0  0  0  0
   -6.0000    2.5981    0.0000 C   0  0  0  0  0  0  0  0  0  0  0  0
   -7.5000    2.5981    0.0000 C   0  0  0  0  0  0  0  0  0  0  0  0
   -8.2500    1.2990    0.0000 C   0  0  0  0  0  0  0  0  0  0  0  0
   -7.5000    0.0000    0.0000 C   0  0  0  0  0  0  0  0  0  0  0  0
   -6.0000    0.0000    0.0000 C   0  0  0  0  0  0  0  0  0  0  0  0
   -0.7500    1.2990    0.0000 C   0  0  0  0  0  0  0  0  0  0  0  0
    0.7500    1.2990    0.0000 C   0  0  0  0  0  0  0  0  0  0  0  0
  1  2  1  0
  2  3  2  0
  3  4  1  0
  4  5  2  0
  5  6  1  0
  6  7  1  0
  7  8  1  0
  8  9  2  0
  9 10  1  0
 10 11  2  0
 11 12  1  0
 12 13  2  0
  5 14  1  0
 14 15  2  0
 15  2  1  0
 13  8  1  0
M  END
>  <Title>  (812) 
idABDHgen8

$$$$

     RDKit          2D

 10 10  0  0  0  0  0  0  0  0999 V2000
    3.2286   -0.0000    0.0000 C   0  0  0  0  0  0  0  0  0  0  0  0
    1.7286    0.0000    0.0000 C   0  0  0  0  0  0  0  0  0  0  0  0
    1.0777    1.3515    0.0000 C   0  0  0  0  0  0  0  0  0  0  0  0
   -0.3846    1.6852    0.0000 C   0  0  0  0  0  0  0  0  0  0  0  0
   -1.5574    0.7500    0.0000 C   0  0  0  0  0  0  0  0  0  0  0  0
   -2.9088    1.4008    0.0000 O   0  0  0  0  0  0  0  0  0  0  0  0
   -1.5574   -0.7500    0.0000 C   0  0  0  0  0  0  0  0  0  0  0  0
   -0.3846   -1.6852    0.0000 C   0  0  0  0  0  0  0  0  0  0  0  0
   -0.7184   -3.1476    0.0000 O   0  0  0  0  0  0  0  0  0  0  0  0
    1.0777   -1.3515    0.0000 C   0  0  0  0  0  0  0  0  0  0  0  0
  1  2  1  0
  2  3  2  0
  3  4  1  0
  4  5  1  0
  5  6  1  0
  5  7  1  0
  7  8  1  0
  8  9  1  0
  8 10  1  0
 10  2  1  0
M  END
>  <Title>  (813) 
idABDIgen8

$$$$

     RDKit          2D

118118  0  0  0  0  0  0  0  0999 V2000
   29.4350    0.0000    0.0000 C   0  0  0  0  0  0  0  0  0  0  0  0
   27.9350    0.0000    0.0000 C   0  0  0  0  0  0  0  0  0  0  0  0
   27.8948    1.4995    0.0000 C   0  0  0  0  0  0  0  0  0  0  0  0
   27.7741    2.9946    0.0000 C   0  0  0  0  0  0  0  0  0  0  0  0
   27.5733    4.4811    0.0000 C   0  0  0  0  0  0  0  0  0  0  0  0
   27.2930    5.9547    0.0000 C   0  0  0  0  0  0  0  0  0  0  0  0
   26.9340    7.4111    0.0000 C   0  0  0  0  0  0  0  0  0  0  0  0
   26.4974    8.8461    0.0000 C   0  0  0  0  0  0  0  0  0  0  0  0
   25.9844   10.2557    0.0000 C   0  0  0  0  0  0  0  0  0  0  0  0
   25.3964   11.6356    0.0000 C   0  0  0  0  0  0  0  0  0  0  0  0
   24.7353   12.9821    0.0000 C   0  0  0  0  0  0  0  0  0  0  0  0
   24.0028   14.2911    0.0000 C   0  0  0  0  0  0  0  0  0  0  0  0
   23.2011   15.5588    0.0000 C   0  0  0  0  0  0  0  0  0  0  0  0
   22.3325   16.7818    0.0000 C   0  0  0  0  0  0  0  0  0  0  0  0
   21.3995   17.9563    0.0000 C   0  0  0  0  0  0  0  0  0  0  0  0
   20.4048   19.0791    0.0000 C   0  0  0  0  0  0  0  0  0  0  0  0
   19.3513   20.1468    0.0000 C   0  0  0  0  0  0  0  0  0  0  0  0
   18.2420   21.1565    0.0000 C   0  0  0  0  0  0  0  0  0  0  0  0
   17.0801   22.1052    0.0000 C   0  0  0  0  0  0  0  0  0  0  0  0
   15.8689   22.9901    0.0000 C   0  0  0  0  0  0  0  0  0  0  0  0
   14.6120   23.8087    0.0000 C   0  0  0  0  0  0  0  0  0  0  0  0
   13.3130   24.5587    0.0000 C   0  0  0  0  0  0  0  0  0  0  0  0
   11.9755   25.2379    0.0000 C   0  0  0  0  0  0  0  0  0  0  0  0
   10.6036   25.8444    0.0000 C   0  0  0  0  0  0  0  0  0  0  0  0
    9.2011   26.3763    0.0000 C   0  0  0  0  0  0  0  0  0  0  0  0
    7.7720   26.8321    0.0000 C   0  0  0  0  0  0  0  0  0  0  0  0
    6.3206   27.2106    0.0000 C   0  0  0  0  0  0  0  0  0  0  0  0
    4.8509   27.5107    0.0000 C   0  0  0  0  0  0  0  0  0  0  0  0
    3.3672   27.7314    0.0000 C   0  0  0  0  0  0  0  0  0  0  0  0
    1.8738   27.8721    0.0000 C   0  0  0  0  0  0  0  0  0  0  0  0
    0.3750   27.9325    0.0000 C   0  0  0  0  0  0  0  0  0  0  0  0
   -1.1248   27.9124    0.0000 C   0  0  0  0  0  0  0  0  0  0  0  0
   -2.6215   27.8118    0.0000 C   0  0  0  0  0  0  0  0  0  0  0  0
   -4.1105   27.6310    0.0000 C   0  0  0  0  0  0  0  0  0  0  0  0
   -5.5877   27.3705    0.0000 C   0  0  0  0  0  0  0  0  0  0  0  0
   -7.0488   27.0311    0.0000 C   0  0  0  0  0  0  0  0  0  0  0  0
   -8.4896   26.6138    0.0000 C   0  0  0  0  0  0  0  0  0  0  0  0
   -9.9059   26.1197    0.0000 C   0  0  0  0  0  0  0  0  0  0  0  0
  -11.2936   25.5504    0.0000 C   0  0  0  0  0  0  0  0  0  0  0  0
  -12.6488   24.9073    0.0000 C   0  0  0  0  0  0  0  0  0  0  0  0
  -13.9675   24.1925    0.0000 C   0  0  0  0  0  0  0  0  0  0  0  0
  -15.2460   23.4079    0.0000 C   0  0  0  0  0  0  0  0  0  0  0  0
  -16.4804   22.5558    0.0000 C   0  0  0  0  0  0  0  0  0  0  0  0
  -17.6674   21.6386    0.0000 C   0  0  0  0  0  0  0  0  0  0  0  0
  -18.8034   20.6591    0.0000 C   0  0  0  0  0  0  0  0  0  0  0  0
  -19.8852   19.6200    0.0000 C   0  0  0  0  0  0  0  0  0  0  0  0
  -20.9097   18.5244    0.0000 C   0  0  0  0  0  0  0  0  0  0  0  0
  -21.8739   17.3753    0.0000 C   0  0  0  0  0  0  0  0  0  0  0  0
  -22.7750   16.1761    0.0000 C   0  0  0  0  0  0  0  0  0  0  0  0
  -23.6104   14.9303    0.0000 C   0  0  0  0  0  0  0  0  0  0  0  0
  -24.3778   13.6415    0.0000 C   0  0  0  0  0  0  0  0  0  0  0  0
  -25.0749   12.3133    0.0000 C   0  0  0  0  0  0  0  0  0  0  0  0
  -25.6997   10.9496    0.0000 C   0  0  0  0  0  0  0  0  0  0  0  0
  -26.2504    9.5543    0.0000 C   0  0  0  0  0  0  0  0  0  0  0  0
  -26.7254    8.1315    0.0000 C   0  0  0  0  0  0  0  0  0  0  0  0
  -27.1233    6.6853    0.0000 C   0  0  0  0  0  0  0  0  0  0  0  0
  -27.4430    5.2198    0.0000 C   0  0  0  0  0  0  0  0  0  0  0  0
  -27.6837    3.7392    0.0000 C   0  0  0  0  0  0  0  0  0  0  0  0
  -27.8445    2.2478    0.0000 C   0  0  0  0  0  0  0  0  0  0  0  0
  -27.9250    0.7500    0.0000 C   0  0  0  0  0  0  0  0  0  0  0  0
  -27.9250   -0.7500    0.0000 C   0  0  0  0  0  0  0  0  0  0  0  0
  -27.8445   -2.2478    0.0000 C   0  0  0  0  0  0  0  0  0  0  0  0
  -27.6837   -3.7392    0.0000 C   0  0  0  0  0  0  0  0  0  0  0  0
  -27.4430   -5.2198    0.0000 C   0  0  0  0  0  0  0  0  0  0  0  0
  -27.1233   -6.6853    0.0000 C   0  0  0  0  0  0  0  0  0  0  0  0
  -26.7254   -8.1315    0.0000 C   0  0  0  0  0  0  0  0  0  0  0  0
  -26.2504   -9.5543    0.0000 C   0  0  0  0  0  0  0  0  0  0  0  0
  -25.6997  -10.9496    0.0000 C   0  0  0  0  0  0  0  0  0  0  0  0
  -25.0749  -12.3133    0.0000 C   0  0  0  0  0  0  0  0  0  0  0  0
  -24.3778  -13.6415    0.0000 C   0  0  0  0  0  0  0  0  0  0  0  0
  -23.6104  -14.9303    0.0000 C   0  0  0  0  0  0  0  0  0  0  0  0
  -22.7750  -16.1761    0.0000 C   0  0  0  0  0  0  0  0  0  0  0  0
  -21.8739  -17.3753    0.0000 C   0  0  0  0  0  0  0  0  0  0  0  0
  -20.9097  -18.5244    0.0000 C   0  0  0  0  0  0  0  0  0  0  0  0
  -19.8852  -19.6200    0.0000 C   0  0  0  0  0  0  0  0  0  0  0  0
  -18.8034  -20.6591    0.0000 C   0  0  0  0  0  0  0  0  0  0  0  0
  -17.6674  -21.6386    0.0000 C   0  0  0  0  0  0  0  0  0  0  0  0
  -16.4804  -22.5558    0.0000 C   0  0  0  0  0  0  0  0  0  0  0  0
  -15.2460  -23.4079    0.0000 C   0  0  0  0  0  0  0  0  0  0  0  0
  -13.9675  -24.1925    0.0000 C   0  0  0  0  0  0  0  0  0  0  0  0
  -12.6488  -24.9073    0.0000 C   0  0  0  0  0  0  0  0  0  0  0  0
  -11.2936  -25.5504    0.0000 C   0  0  0  0  0  0  0  0  0  0  0  0
   -9.9059  -26.1197    0.0000 C   0  0  0  0  0  0  0  0  0  0  0  0
   -8.4896  -26.6138    0.0000 C   0  0  0  0  0  0  0  0  0  0  0  0
   -7.0488  -27.0311    0.0000 C   0  0  0  0  0  0  0  0  0  0  0  0
   -5.5877  -27.3705    0.0000 C   0  0  0  0  0  0  0  0  0  0  0  0
   -4.1105  -27.6310    0.0000 C   0  0  0  0  0  0  0  0  0  0  0  0
   -2.6215  -27.8118    0.0000 C   0  0  0  0  0  0  0  0  0  0  0  0
   -1.1248  -27.9124    0.0000 C   0  0  0  0  0  0  0  0  0  0  0  0
    0.3750  -27.9325    0.0000 C   0  0  0  0  0  0  0  0  0  0  0  0
    1.8738  -27.8721    0.0000 C   0  0  0  0  0  0  0  0  0  0  0  0
    3.3672  -27.7314    0.0000 C   0  0  0  0  0  0  0  0  0  0  0  0
    4.8509  -27.5107    0.0000 C   0  0  0  0  0  0  0  0  0  0  0  0
    6.3206  -27.2106    0.0000 C   0  0  0  0  0  0  0  0  0  0  0  0
    7.7720  -26.8321    0.0000 C   0  0  0  0  0  0  0  0  0  0  0  0
    9.2011  -26.3763    0.0000 C   0  0  0  0  0  0  0  0  0  0  0  0
   10.6036  -25.8444    0.0000 C   0  0  0  0  0  0  0  0  0  0  0  0
   11.9755  -25.2379    0.0000 C   0  0  0  0  0  0  0  0  0  0  0  0
   13.3130  -24.5587    0.0000 C   0  0  0  0  0  0  0  0  0  0  0  0
   14.6120  -23.8087    0.0000 C   0  0  0  0  0  0  0  0  0  0  0  0
   15.8689  -22.9901    0.0000 C   0  0  0  0  0  0  0  0  0  0  0  0
   17.0801  -22.1052    0.0000 C   0  0  0  0  0  0  0  0  0  0  0  0
   18.2420  -21.1565    0.0000 C   0  0  0  0  0  0  0  0  0  0  0  0
   19.3513  -20.1468    0.0000 C   0  0  0  0  0  0  0  0  0  0  0  0
   20.4048  -19.0791    0.0000 C   0  0  0  0  0  0  0  0  0  0  0  0
   21.3995  -17.9563    0.0000 C   0  0  0  0  0  0  0  0  0  0  0  0
   22.3325  -16.7818    0.0000 C   0  0  0  0  0  0  0  0  0  0  0  0
   23.2011  -15.5588    0.0000 C   0  0  0  0  0  0  0  0  0  0  0  0
   24.0028  -14.2911    0.0000 C   0  0  0  0  0  0  0  0  0  0  0  0
   24.7353  -12.9821    0.0000 C   0  0  0  0  0  0  0  0  0  0  0  0
   25.3964  -11.6356    0.0000 C   0  0  0  0  0  0  0  0  0  0  0  0
   25.9844  -10.2557    0.0000 C   0  0  0  0  0  0  0  0  0  0  0  0
   26.4974   -8.8461    0.0000 C   0  0  0  0  0  0  0  0  0  0  0  0
   26.9340   -7.4111    0.0000 C   0  0  0  0  0  0  0  0  0  0  0  0
   27.2930   -5.9547    0.0000 C   0  0  0  0  0  0  0  0  0  0  0  0
   27.5733   -4.4811    0.0000 C   0  0  0  0  0  0  0  0  0  0  0  0
   27.7741   -2.9946    0.0000 C   0  0  0  0  0  0  0  0  0  0  0  0
   27.8948   -1.4995    0.0000 C   0  0  0  0  0  0  0  0  0  0  0  0
  1  2  1  0
  2  3  1  0
  3  4  2  0
  4  5  1  0
  5  6  2  0
  6  7  1  0
  7  8  2  0
  8  9  1  0
  9 10  2  0
 10 11  1  0
 11 12  2  0
 12 13  1  0
 13 14  2  0
 14 15  1  0
 15 16  1  0
 16 17  1  0
 17 18  1  0
 18 19  1  0
 19 20  1  0
 20 21  1  0
 21 22  1  0
 22 23  1  0
 23 24  1  0
 24 25  1  0
 25 26  1  0
 26 27  1  0
 27 28  1  0
 28 29  1  0
 29 30  1  0
 30 31  1  0
 31 32  1  0
 32 33  1  0
 33 34  1  0
 34 35  1  0
 35 36  1  0
 36 37  1  0
 37 38  1  0
 38 39  1  0
 39 40  1  0
 40 41  1  0
 41 42  1  0
 42 43  1  0
 43 44  1  0
 44 45  1  0
 45 46  1  0
 46 47  1  0
 47 48  1  0
 48 49  1  0
 49 50  1  0
 50 51  1  0
 51 52  1  0
 52 53  1  0
 53 54  1  0
 54 55  1  0
 55 56  1  0
 56 57  1  0
 57 58  1  0
 58 59  1  0
 59 60  1  0
 60 61  1  0
 61 62  1  0
 62 63  1  0
 63 64  1  0
 64 65  1  0
 65 66  1  0
 66 67  1  0
 67 68  1  0
 68 69  1  0
 69 70  1  0
 70 71  1  0
 71 72  1  0
 72 73  1  0
 73 74  1  0
 74 75  1  0
 75 76  1  0
 76 77  1  0
 77 78  1  0
 78 79  1  0
 79 80  1  0
 80 81  1  0
 81 82  1  0
 82 83  1  0
 83 84  1  0
 84 85  1  0
 85 86  1  0
 86 87  1  0
 87 88  1  0
 88 89  1  0
 89 90  1  0
 90 91  1  0
 91 92  1  0
 92 93  1  0
 93 94  1  0
 94 95  1  0
 95 96  1  0
 96 97  1  0
 97 98  1  0
 98 99  1  0
 99100  1  0
100101  1  0
101102  1  0
102103  1  0
103104  1  0
104105  1  0
105106  1  0
106107  1  0
107108  1  0
108109  1  0
109110  1  0
110111  1  0
111112  1  0
112113  1  0
113114  1  0
114115  1  0
115116  1  0
116117  1  0
117118  1  0
118  2  1  0
M  END
>  <Title>  (814) 
idABDJgen8

$$$$

     RDKit          2D

 11 11  0  0  0  0  0  0  0  0999 V2000
    3.2286   -0.0000    0.0000 C   0  0  0  0  0  0  0  0  0  0  0  0
    1.7286    0.0000    0.0000 C   0  0  0  0  0  0  0  0  0  0  0  0
    1.0777    1.3515    0.0000 C   0  0  0  0  0  0  0  0  0  0  0  0
   -0.3846    1.6852    0.0000 C   0  0  0  0  0  0  0  0  0  0  0  0
   -0.7184    3.1476    0.0000 O   0  0  0  0  0  0  0  0  0  0  0  0
   -1.5574    0.7500    0.0000 C   0  0  0  0  0  0  0  0  0  0  0  0
   -2.9088    1.4008    0.0000 C   0  0  0  0  0  0  0  0  0  0  0  0
   -1.5574   -0.7500    0.0000 C   0  0  0  0  0  0  0  0  0  0  0  0
   -2.9088   -1.4008    0.0000 O   0  0  0  0  0  0  0  0  0  0  0  0
   -0.3846   -1.6852    0.0000 C   0  0  0  0  0  0  0  0  0  0  0  0
    1.0777   -1.3515    0.0000 C   0  0  0  0  0  0  0  0  0  0  0  0
  1  2  1  0
  2  3  2  0
  3  4  1  0
  4  5  1  0
  4  6  2  0
  6  7  1  0
  6  8  1  0
  8  9  2  0
  8 10  1  0
 10 11  2  0
 11  2  1  0
M  END
>  <Title>  (815) 
idABDKgen8

$$$$

     RDKit          2D

  8  8  0  0  0  0  0  0  0  0999 V2000
    3.2286   -0.0000    0.0000 C   0  0  0  0  0  0  0  0  0  0  0  0
    1.7286    0.0000    0.0000 C   0  0  0  0  0  0  0  0  0  0  0  0
    1.0777    1.3515    0.0000 C   0  0  0  0  0  0  0  0  0  0  0  0
   -0.3846    1.6852    0.0000 C   0  0  0  0  0  0  0  0  0  0  0  0
   -1.5574    0.7500    0.0000 C   0  0  0  0  0  0  0  0  0  0  0  0
   -1.5574   -0.7500    0.0000 C   0  0  0  0  0  0  0  0  0  0  0  0
   -0.3846   -1.6852    0.0000 C   0  0  0  0  0  0  0  0  0  0  0  0
    1.0777   -1.3515    0.0000 C   0  0  0  0  0  0  0  0  0  0  0  0
  1  2  1  0
  2  3  1  0
  3  4  1  0
  4  5  1  0
  5  6  1  0
  6  7  1  0
  7  8  1  0
  8  2  1  0
M  END
>  <Title>  (816) 
idABDLgen8

$$$$

     RDKit          2D

  8  8  0  0  0  0  0  0  0  0999 V2000
    5.7760   -0.0000    0.0000 C   0  0  0  0  0  0  0  0  0  0  0  0
    4.2760   -0.0000    0.0000 C   0  0  0  0  0  0  0  0  0  0  0  0
    2.7760    0.0000    0.0000 C   0  0  0  0  0  0  0  0  0  0  0  0
    1.2760    0.0000    0.0000 C   0  0  0  0  0  0  0  0  0  0  0  0
    0.3943    1.2135    0.0000 C   0  0  0  0  0  0  0  0  0  0  0  0
   -1.0323    0.7500    0.0000 C   0  0  0  0  0  0  0  0  0  0  0  0
   -1.0323   -0.7500    0.0000 C   0  0  0  0  0  0  0  0  0  0  0  0
    0.3943   -1.2135    0.0000 C   0  0  0  0  0  0  0  0  0  0  0  0
  1  2  1  0
  2  3  3  0
  3  4  1  0
  4  5  2  0
  5  6  1  0
  6  7  1  0
  7  8  2  0
  8  4  1  0
M  END
>  <Title>  (817) 
idABDMgen8

$$$$

     RDKit          2D

  8  8  0  0  0  0  0  0  0  0999 V2000
    2.7760    0.0000    0.0000 C   0  0  0  0  0  0  0  0  0  0  0  0
    1.2760    0.0000    0.0000 C   0  0  0  0  0  0  0  0  0  0  0  0
    0.3943    1.2135    0.0000 C   0  0  0  0  0  0  0  0  0  0  0  0
   -1.0323    0.7500    0.0000 C   0  0  0  0  0  0  0  0  0  0  0  0
   -1.0323   -0.7500    0.0000 C   0  0  0  0  0  0  0  0  0  0  0  0
   -2.2458   -1.6317    0.0000 C   0  0  0  0  0  0  0  0  0  0  0  0
   -3.4593   -2.5134    0.0000 N   0  0  0  0  0  0  0  0  0  0  0  0
    0.3943   -1.2135    0.0000 C   0  0  0  0  0  0  0  0  0  0  0  0
  1  2  1  0
  2  3  1  0
  3  4  1  0
  4  5  1  0
  5  6  1  0
  6  7  3  0
  5  8  1  0
  8  2  1  0
M  END
>  <Title>  (818) 
idABDNgen8

$$$$

     RDKit          2D

 50 57  0  0  0  0  0  0  0  0999 V2000
    5.2417   -6.1122    0.0000 C   0  0  0  0  0  0  0  0  0  0  0  0
    3.7705   -5.8195    0.0000 C   0  0  0  0  0  0  0  0  0  0  0  0
    3.7705   -4.3195    0.0000 C   0  0  0  0  0  0  0  0  0  0  0  0
    3.1965   -2.9337    0.0000 C   0  0  0  0  0  0  0  0  0  0  0  0
    2.1358   -1.8731    0.0000 C   0  0  0  0  0  0  0  0  0  0  0  0
    2.9692   -0.6259    0.0000 C   0  0  0  0  0  0  0  0  0  0  0  0
    2.3057    0.7195    0.0000 O   0  0  0  0  0  0  0  0  0  0  0  0
    4.4660   -0.7240    0.0000 N   0  0  0  0  0  0  0  0  0  0  0  0
    5.2993    0.5232    0.0000 C   0  0  0  0  0  0  0  0  0  0  0  0
    6.7961    0.4251    0.0000 N   0  0  0  0  0  0  0  0  0  0  0  0
    7.6295    1.6723    0.0000 N   0  0  0  0  0  0  0  0  0  0  0  0
    6.9660    3.0176    0.0000 N   0  0  0  0  0  0  0  0  0  0  0  0
    5.4692    3.1158    0.0000 N   0  0  0  0  0  0  0  0  0  0  0  0
    4.6359    1.8686    0.0000 N   0  0  0  0  0  0  0  0  0  0  0  0
    0.7500   -1.2990    0.0000 C   0  0  0  0  0  0  0  0  0  0  0  0
    1.5000    0.0000    0.0000 C   0  0  0  0  0  0  0  0  0  0  0  0
    0.7500    1.2990    0.0000 C   0  0  0  0  0  0  0  0  0  0  0  0
   -0.7500    1.2990    0.0000 C   0  0  0  0  0  0  0  0  0  0  0  0
   -1.5000    0.0000    0.0000 C   0  0  0  0  0  0  0  0  0  0  0  0
   -0.7500   -1.2990    0.0000 C   0  0  0  0  0  0  0  0  0  0  0  0
   -2.1358   -1.8731    0.0000 C   0  0  0  0  0  0  0  0  0  0  0  0
   -2.5240   -0.4242    0.0000 C   0  0  0  0  0  0  0  0  0  0  0  0
   -3.9729   -0.0359    0.0000 C   0  0  0  0  0  0  0  0  0  0  0  0
   -5.0336   -1.0966    0.0000 C   0  0  0  0  0  0  0  0  0  0  0  0
   -4.6454   -2.5455    0.0000 C   0  0  0  0  0  0  0  0  0  0  0  0
   -3.1965   -2.9337    0.0000 C   0  0  0  0  0  0  0  0  0  0  0  0
   -3.7705   -4.3195    0.0000 C   0  0  0  0  0  0  0  0  0  0  0  0
   -5.0695   -3.5695    0.0000 C   0  0  0  0  0  0  0  0  0  0  0  0
   -6.3686   -4.3195    0.0000 C   0  0  0  0  0  0  0  0  0  0  0  0
   -6.3686   -5.8195    0.0000 C   0  0  0  0  0  0  0  0  0  0  0  0
   -5.0695   -6.5695    0.0000 C   0  0  0  0  0  0  0  0  0  0  0  0
   -3.7705   -5.8195    0.0000 C   0  0  0  0  0  0  0  0  0  0  0  0
   -3.1965   -7.2054    0.0000 C   0  0  0  0  0  0  0  0  0  0  0  0
   -4.6454   -7.5936    0.0000 C   0  0  0  0  0  0  0  0  0  0  0  0
   -5.0336   -9.0425    0.0000 C   0  0  0  0  0  0  0  0  0  0  0  0
   -3.9729  -10.1031    0.0000 C   0  0  0  0  0  0  0  0  0  0  0  0
   -2.5240   -9.7149    0.0000 C   0  0  0  0  0  0  0  0  0  0  0  0
   -2.1358   -8.2660    0.0000 C   0  0  0  0  0  0  0  0  0  0  0  0
   -0.7500   -8.8400    0.0000 C   0  0  0  0  0  0  0  0  0  0  0  0
   -1.5000  -10.1391    0.0000 C   0  0  0  0  0  0  0  0  0  0  0  0
   -0.7500  -11.4381    0.0000 C   0  0  0  0  0  0  0  0  0  0  0  0
    0.7500  -11.4381    0.0000 C   0  0  0  0  0  0  0  0  0  0  0  0
    1.5000  -10.1391    0.0000 C   0  0  0  0  0  0  0  0  0  0  0  0
    0.7500   -8.8400    0.0000 C   0  0  0  0  0  0  0  0  0  0  0  0
    2.1358   -8.2660    0.0000 C   0  0  0  0  0  0  0  0  0  0  0  0
    2.5240   -9.7149    0.0000 C   0  0  0  0  0  0  0  0  0  0  0  0
    3.9729  -10.1031    0.0000 C   0  0  0  0  0  0  0  0  0  0  0  0
    5.0336   -9.0425    0.0000 C   0  0  0  0  0  0  0  0  0  0  0  0
    4.6454   -7.5936    0.0000 C   0  0  0  0  0  0  0  0  0  0  0  0
    3.1965   -7.2054    0.0000 C   0  0  0  0  0  0  0  0  0  0  0  0
  1  2  1  0
  2  3  1  0
  3  4  2  0
  4  5  1  0
  5  6  1  0
  6  7  2  0
  6  8  1  0
  8  9  1  0
  9 10  2  0
 10 11  1  0
 11 12  2  0
 12 13  1  0
 13 14  2  0
  5 15  1  0
 15 16  2  0
 16 17  1  0
 17 18  2  0
 18 19  1  0
 19 20  2  0
 20 21  1  0
 21 22  2  0
 22 23  1  0
 23 24  2  0
 24 25  1  0
 25 26  2  0
 26 27  1  0
 27 28  2  0
 28 29  1  0
 29 30  2  0
 30 31  1  0
 31 32  2  0
 32 33  1  0
 33 34  2  0
 34 35  1  0
 35 36  2  0
 36 37  1  0
 37 38  2  0
 38 39  1  0
 39 40  2  0
 40 41  1  0
 41 42  2  0
 42 43  1  0
 43 44  2  0
 44 45  1  0
 45 46  2  0
 46 47  1  0
 47 48  2  0
 48 49  1  0
 49 50  2  0
 50  2  1  0
 14  9  1  0
 20 15  1  0
 26 21  1  0
 32 27  1  0
 38 33  1  0
 44 39  1  0
 50 45  1  0
M  END
>  <Title>  (819) 
idABDOgen8

$$$$

     RDKit          2D

 12 11  0  0  0  0  0  0  0  0999 V2000
    0.0000    0.0000    0.0000 C   0  0  0  0  0  0  0  0  0  0  0  0
    1.2990    0.7500    0.0000 C   0  0  0  0  0  0  0  0  0  0  0  0
    2.5981   -0.0000    0.0000 C   0  0  0  0  0  0  0  0  0  0  0  0
    3.8971    0.7500    0.0000 C   0  0  0  0  0  0  0  0  0  0  0  0
    3.8971    2.2500    0.0000 O   0  0  0  0  0  0  0  0  0  0  0  0
    5.1962   -0.0000    0.0000 N   0  0  0  0  0  0  0  0  0  0  0  0
    6.4952    0.7500    0.0000 C   0  0  0  0  0  0  0  0  0  0  0  0
    7.7942   -0.0000    0.0000 C   0  0  0  0  0  0  0  0  0  0  0  0
    7.7942   -1.5000    0.0000 O   0  0  0  0  0  0  0  0  0  0  0  0
    9.0933    0.7500    0.0000 C   0  0  0  0  0  0  0  0  0  0  0  0
   10.3923   -0.0000    0.0000 C   0  0  0  0  0  0  0  0  0  0  0  0
    9.0933    2.2500    0.0000 C   0  0  0  0  0  0  0  0  0  0  0  0
  1  2  1  0
  2  3  2  3
  3  4  1  0
  4  5  2  0
  4  6  1  0
  6  7  1  0
  7  8  1  0
  8  9  2  0
  8 10  1  0
 10 11  1  0
 10 12  1  0
M  END
>  <Title>  (820) 
idABDPgen8

$$$$

     RDKit          2D

 11 11  0  0  0  0  0  0  0  0999 V2000
    3.6929    0.0000    0.0000 C   0  0  0  0  0  0  0  0  0  0  0  0
    2.1929    0.0000    0.0000 C   0  0  0  0  0  0  0  0  0  0  0  0
    1.6798    1.4095    0.0000 C   0  0  0  0  0  0  0  0  0  0  0  0
    0.3808    2.1595    0.0000 C   0  0  0  0  0  0  0  0  0  0  0  0
   -1.0964    1.8991    0.0000 C   0  0  0  0  0  0  0  0  0  0  0  0
   -2.0606    0.7500    0.0000 C   0  0  0  0  0  0  0  0  0  0  0  0
   -2.0606   -0.7500    0.0000 C   0  0  0  0  0  0  0  0  0  0  0  0
   -1.0964   -1.8991    0.0000 C   0  0  0  0  0  0  0  0  0  0  0  0
   -1.8464   -3.1981    0.0000 O   0  0  0  0  0  0  0  0  0  0  0  0
    0.3808   -2.1595    0.0000 C   0  0  0  0  0  0  0  0  0  0  0  0
    1.6798   -1.4095    0.0000 C   0  0  0  0  0  0  0  0  0  0  0  0
  1  2  1  0
  2  3  1  0
  3  4  1  0
  4  5  3  0
  5  6  1  0
  6  7  1  0
  7  8  1  0
  8  9  1  0
  8 10  1  0
 10 11  1  0
 11  2  1  0
M  END
>  <Title>  (821) 
idABDQgen8

$$$$

     RDKit          2D

  9  9  0  0  0  0  0  0  0  0999 V2000
    4.5000    0.0000    0.0000 N   0  0  0  0  0  0  0  0  0  0  0  0
    3.0000    0.0000    0.0000 C   0  0  0  0  0  0  0  0  0  0  0  0
    1.5000    0.0000    0.0000 C   0  0  0  0  0  0  0  0  0  0  0  0
    0.7500   -1.2990    0.0000 C   0  0  0  0  0  0  0  0  0  0  0  0
   -0.7500   -1.2990    0.0000 C   0  0  0  0  0  0  0  0  0  0  0  0
   -1.5000    0.0000    0.0000 C   0  0  0  0  0  0  0  0  0  0  0  0
   -0.7500    1.2990    0.0000 C   0  0  0  0  0  0  0  0  0  0  0  0
   -1.5000    2.5981    0.0000 O   0  0  0  0  0  0  0  0  0  0  0  0
    0.7500    1.2990    0.0000 C   0  0  0  0  0  0  0  0  0  0  0  0
  1  2  3  0
  2  3  1  0
  3  4  1  0
  4  5  1  0
  5  6  1  0
  6  7  2  0
  7  8  1  0
  7  9  1  0
  9  3  1  0
M  END
>  <Title>  (822) 
idABDRgen8

$$$$

     RDKit          2D

 36 41  0  0  0  0  0  0  0  0999 V2000
    3.7860   -5.5823    0.0000 C   0  0  0  0  0  0  0  0  0  0  0  0
    2.4215   -4.9592    0.0000 C   0  0  0  0  0  0  0  0  0  0  0  0
    2.6350   -3.4744    0.0000 C   0  0  0  0  0  0  0  0  0  0  0  0
    2.0119   -2.1100    0.0000 C   0  0  0  0  0  0  0  0  0  0  0  0
    3.1455   -1.1277    0.0000 N   0  0  0  0  0  0  0  0  0  0  0  0
    4.5630   -1.6183    0.0000 C   0  0  0  0  0  0  0  0  0  0  0  0
    2.8616    0.3452    0.0000 C   0  0  0  0  0  0  0  0  0  0  0  0
    3.9953    1.3275    0.0000 N   0  0  0  0  0  0  0  0  0  0  0  0
    3.7114    2.8004    0.0000 N   0  0  0  0  0  0  0  0  0  0  0  0
    2.2939    3.2910    0.0000 N   0  0  0  0  0  0  0  0  0  0  0  0
    1.1602    2.3087    0.0000 N   0  0  0  0  0  0  0  0  0  0  0  0
    1.4441    0.8358    0.0000 N   0  0  0  0  0  0  0  0  0  0  0  0
    0.7500   -1.2990    0.0000 C   0  0  0  0  0  0  0  0  0  0  0  0
    1.5000    0.0000    0.0000 C   0  0  0  0  0  0  0  0  0  0  0  0
    0.7500    1.2990    0.0000 C   0  0  0  0  0  0  0  0  0  0  0  0
   -0.7500    1.2990    0.0000 C   0  0  0  0  0  0  0  0  0  0  0  0
   -1.5000    0.0000    0.0000 C   0  0  0  0  0  0  0  0  0  0  0  0
   -0.7500   -1.2990    0.0000 C   0  0  0  0  0  0  0  0  0  0  0  0
   -2.0119   -2.1100    0.0000 C   0  0  0  0  0  0  0  0  0  0  0  0
   -2.8820   -0.8881    0.0000 C   0  0  0  0  0  0  0  0  0  0  0  0
   -4.3752   -1.0307    0.0000 C   0  0  0  0  0  0  0  0  0  0  0  0
   -4.9983   -2.3952    0.0000 C   0  0  0  0  0  0  0  0  0  0  0  0
   -4.1282   -3.6170    0.0000 C   0  0  0  0  0  0  0  0  0  0  0  0
   -2.6350   -3.4744    0.0000 C   0  0  0  0  0  0  0  0  0  0  0  0
   -2.4215   -4.9592    0.0000 C   0  0  0  0  0  0  0  0  0  0  0  0
   -3.8944   -5.2431    0.0000 C   0  0  0  0  0  0  0  0  0  0  0  0
   -4.3850   -6.6606    0.0000 C   0  0  0  0  0  0  0  0  0  0  0  0
   -3.4027   -7.7942    0.0000 C   0  0  0  0  0  0  0  0  0  0  0  0
   -1.9298   -7.5103    0.0000 C   0  0  0  0  0  0  0  0  0  0  0  0
   -1.4392   -6.0928    0.0000 C   0  0  0  0  0  0  0  0  0  0  0  0
   -0.0000   -6.5154    0.0000 C   0  0  0  0  0  0  0  0  0  0  0  0
   -0.3536   -7.9731    0.0000 C   0  0  0  0  0  0  0  0  0  0  0  0
    0.7320   -9.0082    0.0000 C   0  0  0  0  0  0  0  0  0  0  0  0
    2.1712   -8.5856    0.0000 C   0  0  0  0  0  0  0  0  0  0  0  0
    2.5248   -7.1279    0.0000 C   0  0  0  0  0  0  0  0  0  0  0  0
    1.4392   -6.0928    0.0000 C   0  0  0  0  0  0  0  0  0  0  0  0
  1  2  1  0
  2  3  2  0
  3  4  1  0
  4  5  1  0
  5  6  1  0
  5  7  1  0
  7  8  2  0
  8  9  1  0
  9 10  2  0
 10 11  1  0
 11 12  2  0
  4 13  1  0
 13 14  2  0
 14 15  1  0
 15 16  2  0
 16 17  1  0
 17 18  2  0
 18 19  1  0
 19 20  2  0
 20 21  1  0
 21 22  2  0
 22 23  1  0
 23 24  2  0
 24 25  1  0
 25 26  2  0
 26 27  1  0
 27 28  2  0
 28 29  1  0
 29 30  2  0
 30 31  1  0
 31 32  2  0
 32 33  1  0
 33 34  2  0
 34 35  1  0
 35 36  2  0
 36  2  1  0
 12  7  1  0
 18 13  1  0
 24 19  1  0
 30 25  1  0
 36 31  1  0
M  END
>  <Title>  (823) 
idABDSgen8

$$$$

     RDKit          2D

  8  7  0  0  0  0  0  0  0  0999 V2000
    0.0000    0.0000    0.0000 C   0  0  0  0  0  0  0  0  0  0  0  0
    1.2990    0.7500    0.0000 C   0  0  0  0  0  0  0  0  0  0  0  0
    2.5981   -0.0000    0.0000 C   0  0  0  0  0  0  0  0  0  0  0  0
    3.8971    0.7500    0.0000 C   0  0  0  0  0  0  0  0  0  0  0  0
    5.1962    1.5000    0.0000 C   0  0  0  0  0  0  0  0  0  0  0  0
    6.4952    2.2500    0.0000 C   0  0  0  0  0  0  0  0  0  0  0  0
    7.7942    1.5000    0.0000 C   0  0  0  0  0  0  0  0  0  0  0  0
    9.0933    0.7500    0.0000 N   0  0  0  0  0  0  0  0  0  0  0  0
  1  2  1  0
  2  3  2  3
  3  4  1  0
  4  5  3  0
  5  6  1  0
  6  7  1  0
  7  8  3  0
M  END
>  <Title>  (824) 
idABDTgen8

$$$$

     RDKit          2D

 72 74  0  0  0  0  0  0  0  0999 V2000
   -2.4839    0.0190    0.0000 C   0  0  0  0  0  0  0  0  0  0  0  0
   -2.2412   -1.4612    0.0000 C   0  0  0  0  0  0  0  0  0  0  0  0
   -3.7061   -1.7837    0.0000 C   0  0  0  0  0  0  0  0  0  0  0  0
   -5.1276   -2.2626    0.0000 C   0  0  0  0  0  0  0  0  0  0  0  0
   -6.4890   -2.8925    0.0000 C   0  0  0  0  0  0  0  0  0  0  0  0
   -7.7743   -3.6658    0.0000 C   0  0  0  0  0  0  0  0  0  0  0  0
   -8.9684   -4.5736    0.0000 C   0  0  0  0  0  0  0  0  0  0  0  0
  -10.0574   -5.6051    0.0000 C   0  0  0  0  0  0  0  0  0  0  0  0
  -11.0285   -6.7483    0.0000 C   0  0  0  0  0  0  0  0  0  0  0  0
  -11.8703   -7.9899    0.0000 C   0  0  0  0  0  0  0  0  0  0  0  0
  -12.5729   -9.3151    0.0000 C   0  0  0  0  0  0  0  0  0  0  0  0
  -13.1281  -10.7086    0.0000 C   0  0  0  0  0  0  0  0  0  0  0  0
  -13.5294  -12.1539    0.0000 C   0  0  0  0  0  0  0  0  0  0  0  0
  -13.7720  -13.6342    0.0000 C   0  0  0  0  0  0  0  0  0  0  0  0
  -13.8533  -15.1320    0.0000 C   0  0  0  0  0  0  0  0  0  0  0  0
  -13.7720  -16.6298    0.0000 C   0  0  0  0  0  0  0  0  0  0  0  0
  -13.5294  -18.1100    0.0000 C   0  0  0  0  0  0  0  0  0  0  0  0
  -13.1281  -19.5553    0.0000 C   0  0  0  0  0  0  0  0  0  0  0  0
  -12.5729  -20.9488    0.0000 C   0  0  0  0  0  0  0  0  0  0  0  0
  -11.8703  -22.2741    0.0000 C   0  0  0  0  0  0  0  0  0  0  0  0
  -11.0285  -23.5156    0.0000 C   0  0  0  0  0  0  0  0  0  0  0  0
  -10.0574  -24.6588    0.0000 C   0  0  0  0  0  0  0  0  0  0  0  0
   -8.9684  -25.6904    0.0000 C   0  0  0  0  0  0  0  0  0  0  0  0
   -7.7743  -26.5982    0.0000 C   0  0  0  0  0  0  0  0  0  0  0  0
   -6.4890  -27.3715    0.0000 C   0  0  0  0  0  0  0  0  0  0  0  0
   -5.1276  -28.0013    0.0000 C   0  0  0  0  0  0  0  0  0  0  0  0
   -3.7061  -28.4803    0.0000 C   0  0  0  0  0  0  0  0  0  0  0  0
   -2.2412  -28.8027    0.0000 C   0  0  0  0  0  0  0  0  0  0  0  0
   -0.7500  -28.9649    0.0000 C   0  0  0  0  0  0  0  0  0  0  0  0
    0.7500  -28.9649    0.0000 C   0  0  0  0  0  0  0  0  0  0  0  0
    2.2412  -28.8027    0.0000 C   0  0  0  0  0  0  0  0  0  0  0  0
    3.7061  -28.4803    0.0000 C   0  0  0  0  0  0  0  0  0  0  0  0
    5.1276  -28.0013    0.0000 C   0  0  0  0  0  0  0  0  0  0  0  0
    6.4890  -27.3715    0.0000 C   0  0  0  0  0  0  0  0  0  0  0  0
    7.7743  -26.5982    0.0000 C   0  0  0  0  0  0  0  0  0  0  0  0
    8.9684  -25.6904    0.0000 C   0  0  0  0  0  0  0  0  0  0  0  0
   10.0574  -24.6588    0.0000 C   0  0  0  0  0  0  0  0  0  0  0  0
   11.0285  -23.5156    0.0000 C   0  0  0  0  0  0  0  0  0  0  0  0
   11.8703  -22.2741    0.0000 C   0  0  0  0  0  0  0  0  0  0  0  0
   12.5729  -20.9488    0.0000 C   0  0  0  0  0  0  0  0  0  0  0  0
   13.1281  -19.5553    0.0000 C   0  0  0  0  0  0  0  0  0  0  0  0
   13.5294  -18.1100    0.0000 C   0  0  0  0  0  0  0  0  0  0  0  0
   13.7720  -16.6298    0.0000 C   0  0  0  0  0  0  0  0  0  0  0  0
   13.8533  -15.1320    0.0000 C   0  0  0  0  0  0  0  0  0  0  0  0
   13.7720  -13.6342    0.0000 C   0  0  0  0  0  0  0  0  0  0  0  0
   13.5294  -12.1539    0.0000 C   0  0  0  0  0  0  0  0  0  0  0  0
   13.1281  -10.7086    0.0000 C   0  0  0  0  0  0  0  0  0  0  0  0
   12.5729   -9.3151    0.0000 C   0  0  0  0  0  0  0  0  0  0  0  0
   11.8703   -7.9899    0.0000 C   0  0  0  0  0  0  0  0  0  0  0  0
   11.0285   -6.7483    0.0000 C   0  0  0  0  0  0  0  0  0  0  0  0
   10.0574   -5.6051    0.0000 C   0  0  0  0  0  0  0  0  0  0  0  0
    8.9684   -4.5736    0.0000 C   0  0  0  0  0  0  0  0  0  0  0  0
    7.7743   -3.6658    0.0000 C   0  0  0  0  0  0  0  0  0  0  0  0
    6.4890   -2.8925    0.0000 C   0  0  0  0  0  0  0  0  0  0  0  0
    5.1276   -2.2626    0.0000 C   0  0  0  0  0  0  0  0  0  0  0  0
    3.7061   -1.7837    0.0000 C   0  0  0  0  0  0  0  0  0  0  0  0
    2.2412   -1.4612    0.0000 C   0  0  0  0  0  0  0  0  0  0  0  0
    2.4839    0.0190    0.0000 N   0  0  0  0  0  0  0  0  0  0  0  0
    3.8871    0.5490    0.0000 C   0  0  0  0  0  0  0  0  0  0  0  0
    5.0477   -0.4013    0.0000 O   0  0  0  0  0  0  0  0  0  0  0  0
    4.1298    2.0292    0.0000 C   0  0  0  0  0  0  0  0  0  0  0  0
    5.5331    2.5592    0.0000 C   0  0  0  0  0  0  0  0  0  0  0  0
    5.7757    4.0394    0.0000 C   0  0  0  0  0  0  0  0  0  0  0  0
    4.6152    4.9897    0.0000 C   0  0  0  0  0  0  0  0  0  0  0  0
    3.2119    4.4597    0.0000 C   0  0  0  0  0  0  0  0  0  0  0  0
    2.9692    2.9795    0.0000 N   0  0  0  0  0  0  0  0  0  0  0  0
    0.7500   -1.2990    0.0000 C   0  0  0  0  0  0  0  0  0  0  0  0
    1.5000    0.0000    0.0000 C   0  0  0  0  0  0  0  0  0  0  0  0
    0.7500    1.2990    0.0000 C   0  0  0  0  0  0  0  0  0  0  0  0
   -0.7500    1.2990    0.0000 C   0  0  0  0  0  0  0  0  0  0  0  0
   -1.5000    0.0000    0.0000 C   0  0  0  0  0  0  0  0  0  0  0  0
   -0.7500   -1.2990    0.0000 C   0  0  0  0  0  0  0  0  0  0  0  0
  1  2  1  0
  2  3  1  0
  3  4  1  0
  4  5  1  0
  5  6  1  0
  6  7  1  0
  7  8  1  0
  8  9  1  0
  9 10  1  0
 10 11  1  0
 11 12  1  0
 12 13  1  0
 13 14  1  0
 14 15  1  0
 15 16  1  0
 16 17  1  0
 17 18  1  0
 18 19  1  0
 19 20  1  0
 20 21  1  0
 21 22  1  0
 22 23  1  0
 23 24  1  0
 24 25  1  0
 25 26  1  0
 26 27  1  0
 27 28  1  0
 28 29  1  0
 29 30  1  0
 30 31  1  0
 31 32  1  0
 32 33  1  0
 33 34  1  0
 34 35  1  0
 35 36  1  0
 36 37  1  0
 37 38  1  0
 38 39  1  0
 39 40  1  0
 40 41  1  0
 41 42  1  0
 42 43  1  0
 43 44  1  0
 44 45  1  0
 45 46  1  0
 46 47  1  0
 47 48  1  0
 48 49  1  0
 49 50  1  0
 50 51  1  0
 51 52  1  0
 52 53  1  0
 53 54  1  0
 54 55  1  0
 55 56  1  0
 56 57  1  0
 57 58  1  0
 58 59  1  0
 59 60  2  0
 59 61  1  0
 61 62  2  0
 62 63  1  0
 63 64  2  0
 64 65  1  0
 65 66  2  0
 57 67  1  0
 67 68  2  0
 68 69  1  0
 69 70  2  0
 70 71  1  0
 71 72  2  0
 72  2  1  0
 66 61  1  0
 72 67  1  0
M  END
>  <Title>  (825) 
idABDUgen8

$$$$

     RDKit          2D

 10 10  0  0  0  0  0  0  0  0999 V2000
    3.4598   -0.0000    0.0000 C   0  0  0  0  0  0  0  0  0  0  0  0
    1.9598    0.0000    0.0000 C   0  0  0  0  0  0  0  0  0  0  0  0
    1.3858   -1.3858    0.0000 C   0  0  0  0  0  0  0  0  0  0  0  0
   -0.0000   -1.9598    0.0000 C   0  0  0  0  0  0  0  0  0  0  0  0
   -1.3858   -1.3858    0.0000 C   0  0  0  0  0  0  0  0  0  0  0  0
   -1.9598    0.0000    0.0000 C   0  0  0  0  0  0  0  0  0  0  0  0
   -1.3858    1.3858    0.0000 C   0  0  0  0  0  0  0  0  0  0  0  0
   -2.4465    2.4465    0.0000 C   0  0  0  0  0  0  0  0  0  0  0  0
    0.0000    1.9598    0.0000 C   0  0  0  0  0  0  0  0  0  0  0  0
    1.3858    1.3858    0.0000 C   0  0  0  0  0  0  0  0  0  0  0  0
  1  2  1  0
  2  3  1  0
  3  4  2  0
  4  5  1  0
  5  6  1  0
  6  7  1  0
  7  8  1  0
  7  9  1  0
  9 10  1  0
 10  2  1  0
M  END
>  <Title>  (826) 
idABDVgen8

$$$$

     RDKit          2D

  9  9  0  0  0  0  0  0  0  0999 V2000
    3.0000    0.0000    0.0000 C   0  0  0  0  0  0  0  0  0  0  0  0
    1.5000    0.0000    0.0000 C   0  0  0  0  0  0  0  0  0  0  0  0
    0.7500   -1.2990    0.0000 C   0  0  0  0  0  0  0  0  0  0  0  0
   -0.7500   -1.2990    0.0000 C   0  0  0  0  0  0  0  0  0  0  0  0
   -1.5000   -2.5981    0.0000 O   0  0  0  0  0  0  0  0  0  0  0  0
   -1.5000    0.0000    0.0000 C   0  0  0  0  0  0  0  0  0  0  0  0
   -0.7500    1.2990    0.0000 C   0  0  0  0  0  0  0  0  0  0  0  0
   -1.5000    2.5981    0.0000 O   0  0  0  0  0  0  0  0  0  0  0  0
    0.7500    1.2990    0.0000 C   0  0  0  0  0  0  0  0  0  0  0  0
  1  2  1  0
  2  3  2  0
  3  4  1  0
  4  5  1  0
  4  6  1  0
  6  7  1  0
  7  8  1  0
  7  9  1  0
  9  2  1  0
M  END
>  <Title>  (827) 
idABDWgen8

$$$$

     RDKit          2D

  7  7  0  0  0  0  0  0  0  0999 V2000
    2.7760    0.0000    0.0000 C   0  0  0  0  0  0  0  0  0  0  0  0
    1.2760    0.0000    0.0000 C   0  0  0  0  0  0  0  0  0  0  0  0
    0.3943    1.2135    0.0000 C   0  0  0  0  0  0  0  0  0  0  0  0
   -1.0323    0.7500    0.0000 C   0  0  0  0  0  0  0  0  0  0  0  0
   -2.2458    1.6317    0.0000 O   0  0  0  0  0  0  0  0  0  0  0  0
   -1.0323   -0.7500    0.0000 C   0  0  0  0  0  0  0  0  0  0  0  0
    0.3943   -1.2135    0.0000 C   0  0  0  0  0  0  0  0  0  0  0  0
  1  2  1  0
  2  3  2  0
  3  4  1  0
  4  5  1  0
  4  6  2  0
  6  7  1  0
  7  2  1  0
M  END
>  <Title>  (828) 
idABDXgen8

$$$$

     RDKit          2D

 51 58  0  0  0  0  0  0  0  0999 V2000
    3.5534   11.0273    0.0000 C   0  0  0  0  0  0  0  0  0  0  0  0
    2.9707    9.6451    0.0000 C   0  0  0  0  0  0  0  0  0  0  0  0
    4.2308    8.8313    0.0000 C   0  0  0  0  0  0  0  0  0  0  0  0
    5.1365    7.6356    0.0000 C   0  0  0  0  0  0  0  0  0  0  0  0
    5.5786    6.2022    0.0000 C   0  0  0  0  0  0  0  0  0  0  0  0
    7.0670    6.3887    0.0000 C   0  0  0  0  0  0  0  0  0  0  0  0
    7.9727    5.1930    0.0000 O   0  0  0  0  0  0  0  0  0  0  0  0
    7.6496    7.7709    0.0000 O   0  0  0  0  0  0  0  0  0  0  0  0
    5.5038    4.7041    0.0000 C   0  0  0  0  0  0  0  0  0  0  0  0
    6.9922    4.8906    0.0000 C   0  0  0  0  0  0  0  0  0  0  0  0
    7.8979    3.6949    0.0000 C   0  0  0  0  0  0  0  0  0  0  0  0
    7.3152    2.3127    0.0000 C   0  0  0  0  0  0  0  0  0  0  0  0
    5.8269    2.1262    0.0000 C   0  0  0  0  0  0  0  0  0  0  0  0
    4.9212    3.3219    0.0000 C   0  0  0  0  0  0  0  0  0  0  0  0
    3.9009    2.2223    0.0000 C   0  0  0  0  0  0  0  0  0  0  0  0
    5.1610    1.4085    0.0000 C   0  0  0  0  0  0  0  0  0  0  0  0
    5.0862   -0.0897    0.0000 C   0  0  0  0  0  0  0  0  0  0  0  0
    3.7514   -0.7740    0.0000 C   0  0  0  0  0  0  0  0  0  0  0  0
    2.4913    0.0398    0.0000 C   0  0  0  0  0  0  0  0  0  0  0  0
    2.5661    1.5380    0.0000 C   0  0  0  0  0  0  0  0  0  0  0  0
    1.0777    1.3515    0.0000 C   0  0  0  0  0  0  0  0  0  0  0  0
    1.7286    0.0000    0.0000 C   0  0  0  0  0  0  0  0  0  0  0  0
    1.0777   -1.3515    0.0000 C   0  0  0  0  0  0  0  0  0  0  0  0
   -0.3846   -1.6852    0.0000 C   0  0  0  0  0  0  0  0  0  0  0  0
   -1.5574   -0.7500    0.0000 C   0  0  0  0  0  0  0  0  0  0  0  0
   -1.5574    0.7500    0.0000 C   0  0  0  0  0  0  0  0  0  0  0  0
   -0.3846    1.6852    0.0000 C   0  0  0  0  0  0  0  0  0  0  0  0
   -1.6447    2.4991    0.0000 C   0  0  0  0  0  0  0  0  0  0  0  0
   -2.2273    1.1168    0.0000 C   0  0  0  0  0  0  0  0  0  0  0  0
   -3.7157    0.9303    0.0000 C   0  0  0  0  0  0  0  0  0  0  0  0
   -4.6214    2.1260    0.0000 C   0  0  0  0  0  0  0  0  0  0  0  0
   -4.0387    3.5082    0.0000 C   0  0  0  0  0  0  0  0  0  0  0  0
   -2.5504    3.6948    0.0000 C   0  0  0  0  0  0  0  0  0  0  0  0
   -2.9925    5.1281    0.0000 C   0  0  0  0  0  0  0  0  0  0  0  0
   -4.3273    4.4438    0.0000 C   0  0  0  0  0  0  0  0  0  0  0  0
   -5.5874    5.2576    0.0000 C   0  0  0  0  0  0  0  0  0  0  0  0
   -5.5126    6.7558    0.0000 C   0  0  0  0  0  0  0  0  0  0  0  0
   -4.1778    7.4401    0.0000 C   0  0  0  0  0  0  0  0  0  0  0  0
   -2.9178    6.6262    0.0000 C   0  0  0  0  0  0  0  0  0  0  0  0
   -2.3351    8.0085    0.0000 C   0  0  0  0  0  0  0  0  0  0  0  0
   -3.7975    8.3422    0.0000 C   0  0  0  0  0  0  0  0  0  0  0  0
   -4.2396    9.7756    0.0000 C   0  0  0  0  0  0  0  0  0  0  0  0
   -3.2194   10.8752    0.0000 C   0  0  0  0  0  0  0  0  0  0  0  0
   -1.7570   10.5414    0.0000 C   0  0  0  0  0  0  0  0  0  0  0  0
   -1.3148    9.1080    0.0000 C   0  0  0  0  0  0  0  0  0  0  0  0
    0.0200    9.7924    0.0000 C   0  0  0  0  0  0  0  0  0  0  0  0
   -0.8857   10.9881    0.0000 C   0  0  0  0  0  0  0  0  0  0  0  0
   -0.3031   12.3703    0.0000 C   0  0  0  0  0  0  0  0  0  0  0  0
    1.1853   12.5568    0.0000 C   0  0  0  0  0  0  0  0  0  0  0  0
    2.0910   11.3611    0.0000 C   0  0  0  0  0  0  0  0  0  0  0  0
    1.5083    9.9789    0.0000 C   0  0  0  0  0  0  0  0  0  0  0  0
  1  2  1  0
  2  3  1  0
  3  4  1  0
  4  5  1  0
  5  6  1  0
  6  7  2  0
  6  8  1  0
  5  9  1  0
  9 10  2  0
 10 11  1  0
 11 12  2  0
 12 13  1  0
 13 14  2  0
 14 15  1  0
 15 16  2  0
 16 17  1  0
 17 18  2  0
 18 19  1  0
 19 20  2  0
 20 21  1  0
 21 22  2  0
 22 23  1  0
 23 24  1  0
 24 25  1  0
 25 26  1  0
 26 27  2  0
 27 28  1  0
 28 29  2  0
 29 30  1  0
 30 31  2  0
 31 32  1  0
 32 33  2  0
 33 34  1  0
 34 35  2  0
 35 36  1  0
 36 37  2  0
 37 38  1  0
 38 39  2  0
 39 40  1  0
 40 41  2  0
 41 42  1  0
 42 43  2  0
 43 44  1  0
 44 45  2  0
 45 46  1  0
 46 47  2  0
 47 48  1  0
 48 49  2  0
 49 50  1  0
 50 51  2  0
 51  2  1  0
 14  9  1  0
 20 15  1  0
 27 21  1  0
 33 28  1  0
 39 34  1  0
 45 40  1  0
 51 46  1  0
M  END
>  <Title>  (829) 
idABDYgen8

$$$$

     RDKit          2D

105105  0  0  0  0  0  0  0  0999 V2000
   26.3319    0.0000    0.0000 C   0  0  0  0  0  0  0  0  0  0  0  0
   24.8319    0.0000    0.0000 C   0  0  0  0  0  0  0  0  0  0  0  0
   24.7866   -1.4993    0.0000 C   0  0  0  0  0  0  0  0  0  0  0  0
   24.6509   -2.9932    0.0000 C   0  0  0  0  0  0  0  0  0  0  0  0
   24.4252   -4.4761    0.0000 C   0  0  0  0  0  0  0  0  0  0  0  0
   24.1104   -5.9427    0.0000 C   0  0  0  0  0  0  0  0  0  0  0  0
   23.7076   -7.3876    0.0000 C   0  0  0  0  0  0  0  0  0  0  0  0
   23.2183   -8.8055    0.0000 C   0  0  0  0  0  0  0  0  0  0  0  0
   22.6442  -10.1913    0.0000 C   0  0  0  0  0  0  0  0  0  0  0  0
   21.9876  -11.5400    0.0000 C   0  0  0  0  0  0  0  0  0  0  0  0
   21.2507  -12.8465    0.0000 C   0  0  0  0  0  0  0  0  0  0  0  0
   20.4363  -14.1062    0.0000 C   0  0  0  0  0  0  0  0  0  0  0  0
   19.5473  -15.3143    0.0000 C   0  0  0  0  0  0  0  0  0  0  0  0
   18.5870  -16.4666    0.0000 C   0  0  0  0  0  0  0  0  0  0  0  0
   17.5588  -17.5588    0.0000 C   0  0  0  0  0  0  0  0  0  0  0  0
   16.4666  -18.5870    0.0000 C   0  0  0  0  0  0  0  0  0  0  0  0
   15.3143  -19.5473    0.0000 C   0  0  0  0  0  0  0  0  0  0  0  0
   14.1062  -20.4363    0.0000 C   0  0  0  0  0  0  0  0  0  0  0  0
   12.8465  -21.2507    0.0000 C   0  0  0  0  0  0  0  0  0  0  0  0
   11.5400  -21.9876    0.0000 C   0  0  0  0  0  0  0  0  0  0  0  0
   10.1913  -22.6442    0.0000 C   0  0  0  0  0  0  0  0  0  0  0  0
    8.8055  -23.2183    0.0000 C   0  0  0  0  0  0  0  0  0  0  0  0
    7.3876  -23.7076    0.0000 C   0  0  0  0  0  0  0  0  0  0  0  0
    5.9427  -24.1104    0.0000 C   0  0  0  0  0  0  0  0  0  0  0  0
    4.4761  -24.4252    0.0000 C   0  0  0  0  0  0  0  0  0  0  0  0
    2.9932  -24.6509    0.0000 C   0  0  0  0  0  0  0  0  0  0  0  0
    1.4993  -24.7866    0.0000 C   0  0  0  0  0  0  0  0  0  0  0  0
   -0.0000  -24.8319    0.0000 C   0  0  0  0  0  0  0  0  0  0  0  0
   -1.4993  -24.7866    0.0000 C   0  0  0  0  0  0  0  0  0  0  0  0
   -2.9932  -24.6509    0.0000 C   0  0  0  0  0  0  0  0  0  0  0  0
   -4.4761  -24.4252    0.0000 C   0  0  0  0  0  0  0  0  0  0  0  0
   -5.9427  -24.1104    0.0000 C   0  0  0  0  0  0  0  0  0  0  0  0
   -7.3876  -23.7076    0.0000 C   0  0  0  0  0  0  0  0  0  0  0  0
   -8.8055  -23.2183    0.0000 C   0  0  0  0  0  0  0  0  0  0  0  0
  -10.1913  -22.6442    0.0000 C   0  0  0  0  0  0  0  0  0  0  0  0
  -11.5400  -21.9876    0.0000 C   0  0  0  0  0  0  0  0  0  0  0  0
  -12.8465  -21.2507    0.0000 C   0  0  0  0  0  0  0  0  0  0  0  0
  -14.1062  -20.4363    0.0000 C   0  0  0  0  0  0  0  0  0  0  0  0
  -15.3143  -19.5473    0.0000 C   0  0  0  0  0  0  0  0  0  0  0  0
  -16.4666  -18.5870    0.0000 C   0  0  0  0  0  0  0  0  0  0  0  0
  -17.5588  -17.5588    0.0000 C   0  0  0  0  0  0  0  0  0  0  0  0
  -18.5870  -16.4666    0.0000 C   0  0  0  0  0  0  0  0  0  0  0  0
  -19.5473  -15.3143    0.0000 C   0  0  0  0  0  0  0  0  0  0  0  0
  -20.4363  -14.1062    0.0000 C   0  0  0  0  0  0  0  0  0  0  0  0
  -21.2507  -12.8465    0.0000 C   0  0  0  0  0  0  0  0  0  0  0  0
  -21.9876  -11.5400    0.0000 C   0  0  0  0  0  0  0  0  0  0  0  0
  -22.6442  -10.1913    0.0000 C   0  0  0  0  0  0  0  0  0  0  0  0
  -23.2183   -8.8055    0.0000 C   0  0  0  0  0  0  0  0  0  0  0  0
  -23.7076   -7.3876    0.0000 C   0  0  0  0  0  0  0  0  0  0  0  0
  -24.1104   -5.9427    0.0000 C   0  0  0  0  0  0  0  0  0  0  0  0
  -24.4252   -4.4761    0.0000 C   0  0  0  0  0  0  0  0  0  0  0  0
  -24.6509   -2.9932    0.0000 C   0  0  0  0  0  0  0  0  0  0  0  0
  -24.7866   -1.4993    0.0000 C   0  0  0  0  0  0  0  0  0  0  0  0
  -24.8319    0.0000    0.0000 C   0  0  0  0  0  0  0  0  0  0  0  0
  -24.7866    1.4993    0.0000 C   0  0  0  0  0  0  0  0  0  0  0  0
  -24.6509    2.9932    0.0000 C   0  0  0  0  0  0  0  0  0  0  0  0
  -24.4252    4.4761    0.0000 C   0  0  0  0  0  0  0  0  0  0  0  0
  -24.1104    5.9427    0.0000 C   0  0  0  0  0  0  0  0  0  0  0  0
  -23.7076    7.3876    0.0000 C   0  0  0  0  0  0  0  0  0  0  0  0
  -23.2183    8.8055    0.0000 C   0  0  0  0  0  0  0  0  0  0  0  0
  -22.6442   10.1913    0.0000 C   0  0  0  0  0  0  0  0  0  0  0  0
  -21.9876   11.5400    0.0000 C   0  0  0  0  0  0  0  0  0  0  0  0
  -21.2507   12.8465    0.0000 C   0  0  0  0  0  0  0  0  0  0  0  0
  -20.4363   14.1062    0.0000 C   0  0  0  0  0  0  0  0  0  0  0  0
  -19.5473   15.3143    0.0000 C   0  0  0  0  0  0  0  0  0  0  0  0
  -18.5870   16.4666    0.0000 C   0  0  0  0  0  0  0  0  0  0  0  0
  -17.5588   17.5588    0.0000 C   0  0  0  0  0  0  0  0  0  0  0  0
  -16.4666   18.5870    0.0000 C   0  0  0  0  0  0  0  0  0  0  0  0
  -15.3143   19.5473    0.0000 C   0  0  0  0  0  0  0  0  0  0  0  0
  -14.1062   20.4363    0.0000 C   0  0  0  0  0  0  0  0  0  0  0  0
  -12.8465   21.2507    0.0000 C   0  0  0  0  0  0  0  0  0  0  0  0
  -11.5400   21.9876    0.0000 C   0  0  0  0  0  0  0  0  0  0  0  0
  -10.1913   22.6442    0.0000 C   0  0  0  0  0  0  0  0  0  0  0  0
   -8.8055   23.2183    0.0000 C   0  0  0  0  0  0  0  0  0  0  0  0
   -7.3876   23.7076    0.0000 C   0  0  0  0  0  0  0  0  0  0  0  0
   -5.9427   24.1104    0.0000 C   0  0  0  0  0  0  0  0  0  0  0  0
   -4.4761   24.4252    0.0000 C   0  0  0  0  0  0  0  0  0  0  0  0
   -2.9932   24.6509    0.0000 C   0  0  0  0  0  0  0  0  0  0  0  0
   -1.4993   24.7866    0.0000 C   0  0  0  0  0  0  0  0  0  0  0  0
    0.0000   24.8319    0.0000 C   0  0  0  0  0  0  0  0  0  0  0  0
    1.4993   24.7866    0.0000 C   0  0  0  0  0  0  0  0  0  0  0  0
    2.9932   24.6509    0.0000 C   0  0  0  0  0  0  0  0  0  0  0  0
    4.4761   24.4252    0.0000 C   0  0  0  0  0  0  0  0  0  0  0  0
    5.9427   24.1104    0.0000 C   0  0  0  0  0  0  0  0  0  0  0  0
    7.3876   23.7076    0.0000 C   0  0  0  0  0  0  0  0  0  0  0  0
    8.8055   23.2183    0.0000 C   0  0  0  0  0  0  0  0  0  0  0  0
   10.1913   22.6442    0.0000 C   0  0  0  0  0  0  0  0  0  0  0  0
   11.5400   21.9876    0.0000 C   0  0  0  0  0  0  0  0  0  0  0  0
   12.8465   21.2507    0.0000 C   0  0  0  0  0  0  0  0  0  0  0  0
   14.1062   20.4363    0.0000 C   0  0  0  0  0  0  0  0  0  0  0  0
   15.3143   19.5473    0.0000 C   0  0  0  0  0  0  0  0  0  0  0  0
   16.4666   18.5870    0.0000 C   0  0  0  0  0  0  0  0  0  0  0  0
   17.5588   17.5588    0.0000 C   0  0  0  0  0  0  0  0  0  0  0  0
   18.5870   16.4666    0.0000 C   0  0  0  0  0  0  0  0  0  0  0  0
   19.5473   15.3143    0.0000 C   0  0  0  0  0  0  0  0  0  0  0  0
   20.4363   14.1062    0.0000 C   0  0  0  0  0  0  0  0  0  0  0  0
   21.2507   12.8465    0.0000 C   0  0  0  0  0  0  0  0  0  0  0  0
   21.9876   11.5400    0.0000 C   0  0  0  0  0  0  0  0  0  0  0  0
   22.6442   10.1913    0.0000 C   0  0  0  0  0  0  0  0  0  0  0  0
   23.2183    8.8055    0.0000 C   0  0  0  0  0  0  0  0  0  0  0  0
   23.7076    7.3876    0.0000 C   0  0  0  0  0  0  0  0  0  0  0  0
   24.1104    5.9427    0.0000 C   0  0  0  0  0  0  0  0  0  0  0  0
   24.4252    4.4761    0.0000 C   0  0  0  0  0  0  0  0  0  0  0  0
   24.6509    2.9932    0.0000 C   0  0  0  0  0  0  0  0  0  0  0  0
   24.7866    1.4993    0.0000 C   0  0  0  0  0  0  0  0  0  0  0  0
  1  2  1  0
  2  3  1  0
  3  4  2  0
  4  5  1  0
  5  6  2  0
  6  7  1  0
  7  8  2  0
  8  9  1  0
  9 10  1  0
 10 11  1  0
 11 12  1  0
 12 13  1  0
 13 14  1  0
 14 15  1  0
 15 16  1  0
 16 17  1  0
 17 18  1  0
 18 19  1  0
 19 20  1  0
 20 21  1  0
 21 22  1  0
 22 23  1  0
 23 24  1  0
 24 25  1  0
 25 26  1  0
 26 27  1  0
 27 28  1  0
 28 29  1  0
 29 30  1  0
 30 31  1  0
 31 32  1  0
 32 33  1  0
 33 34  1  0
 34 35  1  0
 35 36  1  0
 36 37  1  0
 37 38  1  0
 38 39  1  0
 39 40  1  0
 40 41  1  0
 41 42  1  0
 42 43  1  0
 43 44  1  0
 44 45  1  0
 45 46  1  0
 46 47  1  0
 47 48  1  0
 48 49  1  0
 49 50  1  0
 50 51  1  0
 51 52  1  0
 52 53  1  0
 53 54  1  0
 54 55  1  0
 55 56  1  0
 56 57  1  0
 57 58  1  0
 58 59  1  0
 59 60  1  0
 60 61  1  0
 61 62  1  0
 62 63  1  0
 63 64  1  0
 64 65  1  0
 65 66  1  0
 66 67  1  0
 67 68  1  0
 68 69  1  0
 69 70  1  0
 70 71  1  0
 71 72  1  0
 72 73  1  0
 73 74  1  0
 74 75  1  0
 75 76  1  0
 76 77  1  0
 77 78  1  0
 78 79  1  0
 79 80  1  0
 80 81  1  0
 81 82  1  0
 82 83  1  0
 83 84  1  0
 84 85  1  0
 85 86  1  0
 86 87  1  0
 87 88  1  0
 88 89  1  0
 89 90  1  0
 90 91  1  0
 91 92  1  0
 92 93  1  0
 93 94  1  0
 94 95  1  0
 95 96  1  0
 96 97  1  0
 97 98  1  0
 98 99  1  0
 99100  1  0
100101  1  0
101102  1  0
102103  1  0
103104  1  0
104105  1  0
105  2  1  0
M  END
>  <Title>  (830) 
idABDZgen8

$$$$

     RDKit          2D

 95 95  0  0  0  0  0  0  0  0999 V2000
   23.4677   -0.0000    0.0000 C   0  0  0  0  0  0  0  0  0  0  0  0
   21.9677    0.0000    0.0000 C   0  0  0  0  0  0  0  0  0  0  0  0
   21.9164   -1.4991    0.0000 C   0  0  0  0  0  0  0  0  0  0  0  0
   21.7630   -2.9913    0.0000 C   0  0  0  0  0  0  0  0  0  0  0  0
   21.5082   -4.4695    0.0000 C   0  0  0  0  0  0  0  0  0  0  0  0
   21.1530   -5.9268    0.0000 C   0  0  0  0  0  0  0  0  0  0  0  0
   20.6993   -7.3565    0.0000 C   0  0  0  0  0  0  0  0  0  0  0  0
   20.1490   -8.7519    0.0000 C   0  0  0  0  0  0  0  0  0  0  0  0
   19.5048  -10.1065    0.0000 C   0  0  0  0  0  0  0  0  0  0  0  0
   18.7696  -11.4140    0.0000 C   0  0  0  0  0  0  0  0  0  0  0  0
   17.9469  -12.6683    0.0000 C   0  0  0  0  0  0  0  0  0  0  0  0
   17.0406  -13.8635    0.0000 C   0  0  0  0  0  0  0  0  0  0  0  0
   16.0547  -14.9941    0.0000 C   0  0  0  0  0  0  0  0  0  0  0  0
   14.9941  -16.0547    0.0000 C   0  0  0  0  0  0  0  0  0  0  0  0
   13.8635  -17.0406    0.0000 C   0  0  0  0  0  0  0  0  0  0  0  0
   12.6683  -17.9469    0.0000 C   0  0  0  0  0  0  0  0  0  0  0  0
   11.4140  -18.7696    0.0000 C   0  0  0  0  0  0  0  0  0  0  0  0
   10.1065  -19.5048    0.0000 C   0  0  0  0  0  0  0  0  0  0  0  0
    8.7519  -20.1490    0.0000 C   0  0  0  0  0  0  0  0  0  0  0  0
    7.3565  -20.6993    0.0000 C   0  0  0  0  0  0  0  0  0  0  0  0
    5.9268  -21.1530    0.0000 C   0  0  0  0  0  0  0  0  0  0  0  0
    4.4695  -21.5082    0.0000 C   0  0  0  0  0  0  0  0  0  0  0  0
    2.9913  -21.7630    0.0000 C   0  0  0  0  0  0  0  0  0  0  0  0
    1.4991  -21.9164    0.0000 C   0  0  0  0  0  0  0  0  0  0  0  0
   -0.0000  -21.9677    0.0000 C   0  0  0  0  0  0  0  0  0  0  0  0
   -1.4991  -21.9164    0.0000 C   0  0  0  0  0  0  0  0  0  0  0  0
   -2.9913  -21.7630    0.0000 C   0  0  0  0  0  0  0  0  0  0  0  0
   -4.4695  -21.5082    0.0000 C   0  0  0  0  0  0  0  0  0  0  0  0
   -5.9268  -21.1530    0.0000 C   0  0  0  0  0  0  0  0  0  0  0  0
   -7.3565  -20.6993    0.0000 C   0  0  0  0  0  0  0  0  0  0  0  0
   -8.7519  -20.1490    0.0000 C   0  0  0  0  0  0  0  0  0  0  0  0
  -10.1065  -19.5048    0.0000 C   0  0  0  0  0  0  0  0  0  0  0  0
  -11.4140  -18.7696    0.0000 C   0  0  0  0  0  0  0  0  0  0  0  0
  -12.6683  -17.9469    0.0000 C   0  0  0  0  0  0  0  0  0  0  0  0
  -13.8635  -17.0406    0.0000 C   0  0  0  0  0  0  0  0  0  0  0  0
  -14.9941  -16.0547    0.0000 C   0  0  0  0  0  0  0  0  0  0  0  0
  -16.0547  -14.9941    0.0000 C   0  0  0  0  0  0  0  0  0  0  0  0
  -17.0406  -13.8635    0.0000 C   0  0  0  0  0  0  0  0  0  0  0  0
  -17.9469  -12.6683    0.0000 C   0  0  0  0  0  0  0  0  0  0  0  0
  -18.7696  -11.4140    0.0000 C   0  0  0  0  0  0  0  0  0  0  0  0
  -19.5048  -10.1065    0.0000 C   0  0  0  0  0  0  0  0  0  0  0  0
  -20.1490   -8.7519    0.0000 C   0  0  0  0  0  0  0  0  0  0  0  0
  -20.6993   -7.3565    0.0000 C   0  0  0  0  0  0  0  0  0  0  0  0
  -21.1530   -5.9268    0.0000 C   0  0  0  0  0  0  0  0  0  0  0  0
  -21.5082   -4.4695    0.0000 C   0  0  0  0  0  0  0  0  0  0  0  0
  -21.7630   -2.9913    0.0000 C   0  0  0  0  0  0  0  0  0  0  0  0
  -21.9164   -1.4991    0.0000 C   0  0  0  0  0  0  0  0  0  0  0  0
  -21.9677    0.0000    0.0000 C   0  0  0  0  0  0  0  0  0  0  0  0
  -21.9164    1.4991    0.0000 C   0  0  0  0  0  0  0  0  0  0  0  0
  -21.7630    2.9913    0.0000 C   0  0  0  0  0  0  0  0  0  0  0  0
  -21.5082    4.4695    0.0000 C   0  0  0  0  0  0  0  0  0  0  0  0
  -21.1530    5.9268    0.0000 C   0  0  0  0  0  0  0  0  0  0  0  0
  -20.6993    7.3565    0.0000 C   0  0  0  0  0  0  0  0  0  0  0  0
  -20.1490    8.7519    0.0000 C   0  0  0  0  0  0  0  0  0  0  0  0
  -19.5048   10.1065    0.0000 C   0  0  0  0  0  0  0  0  0  0  0  0
  -18.7696   11.4140    0.0000 C   0  0  0  0  0  0  0  0  0  0  0  0
  -17.9469   12.6683    0.0000 C   0  0  0  0  0  0  0  0  0  0  0  0
  -17.0406   13.8635    0.0000 C   0  0  0  0  0  0  0  0  0  0  0  0
  -16.0547   14.9941    0.0000 C   0  0  0  0  0  0  0  0  0  0  0  0
  -14.9941   16.0547    0.0000 C   0  0  0  0  0  0  0  0  0  0  0  0
  -13.8635   17.0406    0.0000 C   0  0  0  0  0  0  0  0  0  0  0  0
  -12.6683   17.9469    0.0000 C   0  0  0  0  0  0  0  0  0  0  0  0
  -11.4140   18.7696    0.0000 C   0  0  0  0  0  0  0  0  0  0  0  0
  -10.1065   19.5048    0.0000 C   0  0  0  0  0  0  0  0  0  0  0  0
   -8.7519   20.1490    0.0000 C   0  0  0  0  0  0  0  0  0  0  0  0
   -7.3565   20.6993    0.0000 C   0  0  0  0  0  0  0  0  0  0  0  0
   -5.9268   21.1530    0.0000 C   0  0  0  0  0  0  0  0  0  0  0  0
   -4.4695   21.5082    0.0000 C   0  0  0  0  0  0  0  0  0  0  0  0
   -2.9913   21.7630    0.0000 C   0  0  0  0  0  0  0  0  0  0  0  0
   -1.4991   21.9164    0.0000 C   0  0  0  0  0  0  0  0  0  0  0  0
    0.0000   21.9677    0.0000 C   0  0  0  0  0  0  0  0  0  0  0  0
    1.4991   21.9164    0.0000 C   0  0  0  0  0  0  0  0  0  0  0  0
    2.9913   21.7630    0.0000 C   0  0  0  0  0  0  0  0  0  0  0  0
    4.4695   21.5082    0.0000 C   0  0  0  0  0  0  0  0  0  0  0  0
    5.9268   21.1530    0.0000 C   0  0  0  0  0  0  0  0  0  0  0  0
    7.3565   20.6993    0.0000 C   0  0  0  0  0  0  0  0  0  0  0  0
    8.7519   20.1490    0.0000 C   0  0  0  0  0  0  0  0  0  0  0  0
   10.1065   19.5048    0.0000 C   0  0  0  0  0  0  0  0  0  0  0  0
   11.4140   18.7696    0.0000 C   0  0  0  0  0  0  0  0  0  0  0  0
   12.6683   17.9469    0.0000 C   0  0  0  0  0  0  0  0  0  0  0  0
   13.8635   17.0406    0.0000 C   0  0  0  0  0  0  0  0  0  0  0  0
   14.9941   16.0547    0.0000 C   0  0  0  0  0  0  0  0  0  0  0  0
   16.0547   14.9941    0.0000 C   0  0  0  0  0  0  0  0  0  0  0  0
   17.0406   13.8635    0.0000 C   0  0  0  0  0  0  0  0  0  0  0  0
   17.9469   12.6683    0.0000 C   0  0  0  0  0  0  0  0  0  0  0  0
   18.7696   11.4140    0.0000 C   0  0  0  0  0  0  0  0  0  0  0  0
   19.5048   10.1065    0.0000 C   0  0  0  0  0  0  0  0  0  0  0  0
   20.1490    8.7519    0.0000 C   0  0  0  0  0  0  0  0  0  0  0  0
   20.6993    7.3565    0.0000 C   0  0  0  0  0  0  0  0  0  0  0  0
   21.1530    5.9268    0.0000 C   0  0  0  0  0  0  0  0  0  0  0  0
   22.5974    6.3315    0.0000 C   0  0  0  0  0  0  0  0  0  0  0  0
   21.5082    4.4695    0.0000 C   0  0  0  0  0  0  0  0  0  0  0  0
   22.9768    4.7746    0.0000 O   0  0  0  0  0  0  0  0  0  0  0  0
   21.7630    2.9913    0.0000 C   0  0  0  0  0  0  0  0  0  0  0  0
   21.9164    1.4991    0.0000 C   0  0  0  0  0  0  0  0  0  0  0  0
  1  2  1  0
  2  3  1  0
  3  4  1  0
  4  5  1  0
  5  6  1  0
  6  7  1  0
  7  8  1  0
  8  9  1  0
  9 10  1  0
 10 11  1  0
 11 12  1  0
 12 13  1  0
 13 14  1  0
 14 15  1  0
 15 16  1  0
 16 17  1  0
 17 18  1  0
 18 19  1  0
 19 20  1  0
 20 21  1  0
 21 22  1  0
 22 23  1  0
 23 24  1  0
 24 25  1  0
 25 26  1  0
 26 27  1  0
 27 28  1  0
 28 29  1  0
 29 30  1  0
 30 31  1  0
 31 32  1  0
 32 33  1  0
 33 34  1  0
 34 35  1  0
 35 36  1  0
 36 37  1  0
 37 38  1  0
 38 39  1  0
 39 40  1  0
 40 41  1  0
 41 42  1  0
 42 43  1  0
 43 44  1  0
 44 45  1  0
 45 46  1  0
 46 47  1  0
 47 48  1  0
 48 49  1  0
 49 50  1  0
 50 51  1  0
 51 52  1  0
 52 53  1  0
 53 54  1  0
 54 55  1  0
 55 56  1  0
 56 57  1  0
 57 58  1  0
 58 59  1  0
 59 60  1  0
 60 61  1  0
 61 62  1  0
 62 63  1  0
 63 64  1  0
 64 65  1  0
 65 66  1  0
 66 67  1  0
 67 68  1  0
 68 69  1  0
 69 70  1  0
 70 71  1  0
 71 72  1  0
 72 73  1  0
 73 74  1  0
 74 75  1  0
 75 76  1  0
 76 77  1  0
 77 78  1  0
 78 79  1  0
 79 80  1  0
 80 81  1  0
 81 82  1  0
 82 83  1  0
 83 84  1  0
 84 85  1  0
 85 86  1  0
 86 87  1  0
 87 88  1  0
 88 89  1  0
 89 90  1  0
 90 91  1  0
 90 92  1  0
 92 93  2  0
 92 94  1  0
 94 95  1  0
 95  2  1  0
M  END
>  <Title>  (831) 
idABEAgen8

$$$$

     RDKit          2D

  6  6  0  0  0  0  0  0  0  0999 V2000
    2.7760    0.0000    0.0000 C   0  0  0  0  0  0  0  0  0  0  0  0
    1.2760    0.0000    0.0000 C   0  0  0  0  0  0  0  0  0  0  0  0
    0.3943    1.2135    0.0000 C   0  0  0  0  0  0  0  0  0  0  0  0
   -1.0323    0.7500    0.0000 C   0  0  0  0  0  0  0  0  0  0  0  0
   -1.0323   -0.7500    0.0000 C   0  0  0  0  0  0  0  0  0  0  0  0
    0.3943   -1.2135    0.0000 C   0  0  0  0  0  0  0  0  0  0  0  0
  1  2  1  0
  2  3  2  0
  3  4  1  0
  4  5  1  0
  5  6  2  0
  6  2  1  0
M  END
>  <Title>  (832) 
idABEBgen8

$$$$

     RDKit          2D

 40 45  0  0  0  0  0  0  0  0999 V2000
    4.1704   -8.2684    0.0000 C   0  0  0  0  0  0  0  0  0  0  0  0
    3.1097   -7.2078    0.0000 C   0  0  0  0  0  0  0  0  0  0  0  0
    2.0490   -6.1471    0.0000 C   0  0  0  0  0  0  0  0  0  0  0  0
    2.7990   -4.8481    0.0000 C   0  0  0  0  0  0  0  0  0  0  0  0
    2.7990   -3.3481    0.0000 C   0  0  0  0  0  0  0  0  0  0  0  0
    4.2479   -2.9598    0.0000 O   0  0  0  0  0  0  0  0  0  0  0  0
    2.0490   -2.0490    0.0000 C   0  0  0  0  0  0  0  0  0  0  0  0
    3.1097   -0.9884    0.0000 C   0  0  0  0  0  0  0  0  0  0  0  0
    2.7215    0.4605    0.0000 O   0  0  0  0  0  0  0  0  0  0  0  0
    4.5586   -1.3766    0.0000 N   0  0  0  0  0  0  0  0  0  0  0  0
    5.6192   -0.3159    0.0000 C   0  0  0  0  0  0  0  0  0  0  0  0
    7.0681   -0.7042    0.0000 N   0  0  0  0  0  0  0  0  0  0  0  0
    8.1288    0.3565    0.0000 N   0  0  0  0  0  0  0  0  0  0  0  0
    7.7406    1.8054    0.0000 N   0  0  0  0  0  0  0  0  0  0  0  0
    6.2917    2.1936    0.0000 N   0  0  0  0  0  0  0  0  0  0  0  0
    5.2310    1.1329    0.0000 N   0  0  0  0  0  0  0  0  0  0  0  0
    0.7500   -1.2990    0.0000 C   0  0  0  0  0  0  0  0  0  0  0  0
    1.5000    0.0000    0.0000 C   0  0  0  0  0  0  0  0  0  0  0  0
    0.7500    1.2990    0.0000 C   0  0  0  0  0  0  0  0  0  0  0  0
   -0.7500    1.2990    0.0000 C   0  0  0  0  0  0  0  0  0  0  0  0
   -1.5000    0.0000    0.0000 C   0  0  0  0  0  0  0  0  0  0  0  0
   -0.7500   -1.2990    0.0000 C   0  0  0  0  0  0  0  0  0  0  0  0
   -2.0490   -2.0490    0.0000 C   0  0  0  0  0  0  0  0  0  0  0  0
   -2.7990   -0.7500    0.0000 C   0  0  0  0  0  0  0  0  0  0  0  0
   -4.2990   -0.7500    0.0000 C   0  0  0  0  0  0  0  0  0  0  0  0
   -5.0490   -2.0490    0.0000 C   0  0  0  0  0  0  0  0  0  0  0  0
   -4.2990   -3.3481    0.0000 C   0  0  0  0  0  0  0  0  0  0  0  0
   -2.7990   -3.3481    0.0000 C   0  0  0  0  0  0  0  0  0  0  0  0
   -2.7990   -4.8481    0.0000 C   0  0  0  0  0  0  0  0  0  0  0  0
   -4.2990   -4.8481    0.0000 C   0  0  0  0  0  0  0  0  0  0  0  0
   -5.0490   -6.1471    0.0000 C   0  0  0  0  0  0  0  0  0  0  0  0
   -4.2990   -7.4462    0.0000 C   0  0  0  0  0  0  0  0  0  0  0  0
   -2.7990   -7.4462    0.0000 C   0  0  0  0  0  0  0  0  0  0  0  0
   -2.0490   -6.1471    0.0000 C   0  0  0  0  0  0  0  0  0  0  0  0
   -0.7500   -6.8971    0.0000 C   0  0  0  0  0  0  0  0  0  0  0  0
   -1.5000   -8.1962    0.0000 C   0  0  0  0  0  0  0  0  0  0  0  0
   -0.7500   -9.4952    0.0000 C   0  0  0  0  0  0  0  0  0  0  0  0
    0.7500   -9.4952    0.0000 C   0  0  0  0  0  0  0  0  0  0  0  0
    1.5000   -8.1962    0.0000 C   0  0  0  0  0  0  0  0  0  0  0  0
    0.7500   -6.8971    0.0000 C   0  0  0  0  0  0  0  0  0  0  0  0
  1  2  3  0
  2  3  1  0
  3  4  2  0
  4  5  1  0
  5  6  1  0
  5  7  2  0
  7  8  1  0
  8  9  2  0
  8 10  1  0
 10 11  1  0
 11 12  2  0
 12 13  1  0
 13 14  2  0
 14 15  1  0
 15 16  2  0
  7 17  1  0
 17 18  2  0
 18 19  1  0
 19 20  2  0
 20 21  1  0
 21 22  2  0
 22 23  1  0
 23 24  2  0
 24 25  1  0
 25 26  2  0
 26 27  1  0
 27 28  2  0
 28 29  1  0
 29 30  2  0
 30 31  1  0
 31 32  2  0
 32 33  1  0
 33 34  2  0
 34 35  1  0
 35 36  2  0
 36 37  1  0
 37 38  2  0
 38 39  1  0
 39 40  2  0
 40  3  1  0
 16 11  1  0
 22 17  1  0
 28 23  1  0
 34 29  1  0
 40 35  1  0
M  END
>  <Title>  (833) 
idABECgen8

$$$$

     RDKit          2D

 66 66  0  0  0  0  0  0  0  0999 V2000
   17.0237    0.0000    0.0000 C   0  0  0  0  0  0  0  0  0  0  0  0
   15.5237    0.0000    0.0000 C   0  0  0  0  0  0  0  0  0  0  0  0
   15.4512    1.4982    0.0000 C   0  0  0  0  0  0  0  0  0  0  0  0
   15.2344    2.9825    0.0000 C   0  0  0  0  0  0  0  0  0  0  0  0
   14.8755    4.4389    0.0000 C   0  0  0  0  0  0  0  0  0  0  0  0
   14.3776    5.8539    0.0000 C   0  0  0  0  0  0  0  0  0  0  0  0
   13.7455    7.2142    0.0000 C   0  0  0  0  0  0  0  0  0  0  0  0
   12.9851    8.5072    0.0000 C   0  0  0  0  0  0  0  0  0  0  0  0
   12.1034    9.7207    0.0000 C   0  0  0  0  0  0  0  0  0  0  0  0
   11.1087   10.8434    0.0000 C   0  0  0  0  0  0  0  0  0  0  0  0
   10.0103   11.8650    0.0000 C   0  0  0  0  0  0  0  0  0  0  0  0
    8.8184   12.7757    0.0000 C   0  0  0  0  0  0  0  0  0  0  0  0
    7.5442   13.5672    0.0000 C   0  0  0  0  0  0  0  0  0  0  0  0
    6.1996   14.2320    0.0000 C   0  0  0  0  0  0  0  0  0  0  0  0
    4.7971   14.7639    0.0000 C   0  0  0  0  0  0  0  0  0  0  0  0
    3.3498   15.1579    0.0000 C   0  0  0  0  0  0  0  0  0  0  0  0
    1.8712   15.4105    0.0000 C   0  0  0  0  0  0  0  0  0  0  0  0
    0.3751   15.5191    0.0000 C   0  0  0  0  0  0  0  0  0  0  0  0
   -1.1245   15.4829    0.0000 C   0  0  0  0  0  0  0  0  0  0  0  0
   -2.6135   15.3021    0.0000 C   0  0  0  0  0  0  0  0  0  0  0  0
   -4.0782   14.9784    0.0000 C   0  0  0  0  0  0  0  0  0  0  0  0
   -5.5048   14.5149    0.0000 C   0  0  0  0  0  0  0  0  0  0  0  0
   -6.8800   13.9158    0.0000 C   0  0  0  0  0  0  0  0  0  0  0  0
   -8.1909   13.1868    0.0000 C   0  0  0  0  0  0  0  0  0  0  0  0
   -9.4254   12.3347    0.0000 C   0  0  0  0  0  0  0  0  0  0  0  0
  -10.5719   11.3675    0.0000 C   0  0  0  0  0  0  0  0  0  0  0  0
  -11.6196   10.2941    0.0000 C   0  0  0  0  0  0  0  0  0  0  0  0
  -12.5589    9.1246    0.0000 C   0  0  0  0  0  0  0  0  0  0  0  0
  -13.3809    7.8699    0.0000 C   0  0  0  0  0  0  0  0  0  0  0  0
  -14.0780    6.5417    0.0000 C   0  0  0  0  0  0  0  0  0  0  0  0
  -14.6436    5.1524    0.0000 C   0  0  0  0  0  0  0  0  0  0  0  0
  -15.0726    3.7151    0.0000 C   0  0  0  0  0  0  0  0  0  0  0  0
  -15.3608    2.2430    0.0000 C   0  0  0  0  0  0  0  0  0  0  0  0
  -15.5055    0.7500    0.0000 C   0  0  0  0  0  0  0  0  0  0  0  0
  -15.5055   -0.7500    0.0000 C   0  0  0  0  0  0  0  0  0  0  0  0
  -15.3608   -2.2430    0.0000 C   0  0  0  0  0  0  0  0  0  0  0  0
  -15.0726   -3.7151    0.0000 C   0  0  0  0  0  0  0  0  0  0  0  0
  -14.6436   -5.1524    0.0000 C   0  0  0  0  0  0  0  0  0  0  0  0
  -14.0780   -6.5417    0.0000 C   0  0  0  0  0  0  0  0  0  0  0  0
  -13.3809   -7.8699    0.0000 C   0  0  0  0  0  0  0  0  0  0  0  0
  -12.5589   -9.1246    0.0000 C   0  0  0  0  0  0  0  0  0  0  0  0
  -11.6196  -10.2941    0.0000 C   0  0  0  0  0  0  0  0  0  0  0  0
  -10.5719  -11.3675    0.0000 C   0  0  0  0  0  0  0  0  0  0  0  0
   -9.4254  -12.3347    0.0000 C   0  0  0  0  0  0  0  0  0  0  0  0
   -8.1909  -13.1868    0.0000 C   0  0  0  0  0  0  0  0  0  0  0  0
   -6.8800  -13.9158    0.0000 C   0  0  0  0  0  0  0  0  0  0  0  0
   -5.5048  -14.5149    0.0000 C   0  0  0  0  0  0  0  0  0  0  0  0
   -4.0782  -14.9784    0.0000 C   0  0  0  0  0  0  0  0  0  0  0  0
   -2.6135  -15.3021    0.0000 C   0  0  0  0  0  0  0  0  0  0  0  0
   -1.1245  -15.4829    0.0000 C   0  0  0  0  0  0  0  0  0  0  0  0
    0.3751  -15.5191    0.0000 C   0  0  0  0  0  0  0  0  0  0  0  0
    1.8712  -15.4105    0.0000 C   0  0  0  0  0  0  0  0  0  0  0  0
    3.3498  -15.1579    0.0000 C   0  0  0  0  0  0  0  0  0  0  0  0
    4.7971  -14.7639    0.0000 C   0  0  0  0  0  0  0  0  0  0  0  0
    6.1996  -14.2320    0.0000 C   0  0  0  0  0  0  0  0  0  0  0  0
    7.5442  -13.5672    0.0000 C   0  0  0  0  0  0  0  0  0  0  0  0
    8.8184  -12.7757    0.0000 C   0  0  0  0  0  0  0  0  0  0  0  0
   10.0103  -11.8650    0.0000 C   0  0  0  0  0  0  0  0  0  0  0  0
   11.1087  -10.8434    0.0000 C   0  0  0  0  0  0  0  0  0  0  0  0
   12.1034   -9.7207    0.0000 C   0  0  0  0  0  0  0  0  0  0  0  0
   12.9851   -8.5072    0.0000 C   0  0  0  0  0  0  0  0  0  0  0  0
   13.7455   -7.2142    0.0000 C   0  0  0  0  0  0  0  0  0  0  0  0
   14.3776   -5.8539    0.0000 C   0  0  0  0  0  0  0  0  0  0  0  0
   14.8755   -4.4389    0.0000 C   0  0  0  0  0  0  0  0  0  0  0  0
   15.2344   -2.9825    0.0000 C   0  0  0  0  0  0  0  0  0  0  0  0
   15.4512   -1.4982    0.0000 C   0  0  0  0  0  0  0  0  0  0  0  0
  1  2  1  0
  2  3  1  0
  3  4  1  0
  4  5  1  0
  5  6  1  0
  6  7  1  0
  7  8  1  0
  8  9  1  0
  9 10  1  0
 10 11  1  0
 11 12  1  0
 12 13  1  0
 13 14  1  0
 14 15  1  0
 15 16  1  0
 16 17  1  0
 17 18  1  0
 18 19  1  0
 19 20  1  0
 20 21  1  0
 21 22  1  0
 22 23  1  0
 23 24  1  0
 24 25  1  0
 25 26  1  0
 26 27  1  0
 27 28  1  0
 28 29  1  0
 29 30  1  0
 30 31  1  0
 31 32  1  0
 32 33  1  0
 33 34  1  0
 34 35  1  0
 35 36  1  0
 36 37  1  0
 37 38  1  0
 38 39  1  0
 39 40  1  0
 40 41  1  0
 41 42  1  0
 42 43  1  0
 43 44  1  0
 44 45  1  0
 45 46  1  0
 46 47  1  0
 47 48  1  0
 48 49  1  0
 49 50  1  0
 50 51  1  0
 51 52  1  0
 52 53  1  0
 53 54  1  0
 54 55  1  0
 55 56  1  0
 56 57  1  0
 57 58  1  0
 58 59  1  0
 59 60  1  0
 60 61  1  0
 61 62  1  0
 62 63  1  0
 63 64  1  0
 64 65  1  0
 65 66  1  0
 66  2  1  0
M  END
>  <Title>  (834) 
idABEDgen8

$$$$

     RDKit          2D

 27 30  0  0  0  0  0  0  0  0999 V2000
   -1.3240   -6.3062    0.0000 C   0  0  0  0  0  0  0  0  0  0  0  0
   -0.7500   -4.9204    0.0000 C   0  0  0  0  0  0  0  0  0  0  0  0
    0.7500   -4.9204    0.0000 C   0  0  0  0  0  0  0  0  0  0  0  0
    1.8107   -3.8597    0.0000 C   0  0  0  0  0  0  0  0  0  0  0  0
    3.1965   -4.4337    0.0000 O   0  0  0  0  0  0  0  0  0  0  0  0
    1.8107   -2.3597    0.0000 C   0  0  0  0  0  0  0  0  0  0  0  0
    3.1965   -1.7857    0.0000 C   0  0  0  0  0  0  0  0  0  0  0  0
    3.3923   -0.2985    0.0000 O   0  0  0  0  0  0  0  0  0  0  0  0
    4.3865   -2.6988    0.0000 N   0  0  0  0  0  0  0  0  0  0  0  0
    5.7723   -2.1248    0.0000 C   0  0  0  0  0  0  0  0  0  0  0  0
    6.9624   -3.0379    0.0000 N   0  0  0  0  0  0  0  0  0  0  0  0
    8.3482   -2.4639    0.0000 N   0  0  0  0  0  0  0  0  0  0  0  0
    8.5440   -0.9767    0.0000 N   0  0  0  0  0  0  0  0  0  0  0  0
    7.3539   -0.0636    0.0000 N   0  0  0  0  0  0  0  0  0  0  0  0
    5.9681   -0.6376    0.0000 N   0  0  0  0  0  0  0  0  0  0  0  0
    0.7500   -1.2990    0.0000 C   0  0  0  0  0  0  0  0  0  0  0  0
    1.5000    0.0000    0.0000 C   0  0  0  0  0  0  0  0  0  0  0  0
    0.7500    1.2990    0.0000 C   0  0  0  0  0  0  0  0  0  0  0  0
   -0.7500    1.2990    0.0000 C   0  0  0  0  0  0  0  0  0  0  0  0
   -1.5000    0.0000    0.0000 C   0  0  0  0  0  0  0  0  0  0  0  0
   -0.7500   -1.2990    0.0000 C   0  0  0  0  0  0  0  0  0  0  0  0
   -1.8107   -2.3597    0.0000 C   0  0  0  0  0  0  0  0  0  0  0  0
   -3.1097   -1.6097    0.0000 C   0  0  0  0  0  0  0  0  0  0  0  0
   -4.4087   -2.3597    0.0000 C   0  0  0  0  0  0  0  0  0  0  0  0
   -4.4087   -3.8597    0.0000 C   0  0  0  0  0  0  0  0  0  0  0  0
   -3.1097   -4.6097    0.0000 C   0  0  0  0  0  0  0  0  0  0  0  0
   -1.8107   -3.8597    0.0000 C   0  0  0  0  0  0  0  0  0  0  0  0
  1  2  1  0
  2  3  2  0
  3  4  1  0
  4  5  1  0
  4  6  2  0
  6  7  1  0
  7  8  2  0
  7  9  1  0
  9 10  1  0
 10 11  2  0
 11 12  1  0
 12 13  2  0
 13 14  1  0
 14 15  2  0
  6 16  1  0
 16 17  2  0
 17 18  1  0
 18 19  2  0
 19 20  1  0
 20 21  2  0
 21 22  1  0
 22 23  2  0
 23 24  1  0
 24 25  2  0
 25 26  1  0
 26 27  2  0
 27  2  1  0
 15 10  1  0
 21 16  1  0
 27 22  1  0
M  END
>  <Title>  (835) 
idABEEgen8

$$$$

     RDKit          2D

 15 14  0  0  0  0  0  0  0  0999 V2000
    0.0000    0.0000    0.0000 C   0  0  0  0  0  0  0  0  0  0  0  0
    1.2990    0.7500    0.0000 C   0  0  0  0  0  0  0  0  0  0  0  0
    2.5981    1.5000    0.0000 C   0  0  0  0  0  0  0  0  0  0  0  0
    3.8971    2.2500    0.0000 C   0  0  0  0  0  0  0  0  0  0  0  0
    5.1962    3.0000    0.0000 C   0  0  0  0  0  0  0  0  0  0  0  0
    6.4952    3.7500    0.0000 C   0  0  0  0  0  0  0  0  0  0  0  0
    7.7942    4.5000    0.0000 C   0  0  0  0  0  0  0  0  0  0  0  0
    9.0933    5.2500    0.0000 C   0  0  0  0  0  0  0  0  0  0  0  0
   10.3923    6.0000    0.0000 C   0  0  0  0  0  0  0  0  0  0  0  0
   11.6913    6.7500    0.0000 C   0  0  0  0  0  0  0  0  0  0  0  0
   12.9904    7.5000    0.0000 C   0  0  0  0  0  0  0  0  0  0  0  0
   14.2894    8.2500    0.0000 C   0  0  0  0  0  0  0  0  0  0  0  0
   15.5885    9.0000    0.0000 C   0  0  0  0  0  0  0  0  0  0  0  0
   16.8875    9.7500    0.0000 C   0  0  0  0  0  0  0  0  0  0  0  0
   18.1865   10.5000    0.0000 N   0  0  0  0  0  0  0  0  0  0  0  0
  1  2  1  0
  2  3  3  0
  3  4  1  0
  4  5  3  0
  5  6  1  0
  6  7  3  0
  7  8  1  0
  8  9  3  0
  9 10  1  0
 10 11  3  0
 11 12  1  0
 12 13  3  0
 13 14  1  0
 14 15  3  0
M  END
>  <Title>  (836) 
idABEFgen8

$$$$

     RDKit          2D

 68 78  0  0  0  0  0  0  0  0999 V2000
    6.4958   -4.6081    0.0000 C   0  0  0  0  0  0  0  0  0  0  0  0
    5.0565   -5.0307    0.0000 C   0  0  0  0  0  0  0  0  0  0  0  0
    4.4334   -3.6662    0.0000 C   0  0  0  0  0  0  0  0  0  0  0  0
    3.4511   -2.5326    0.0000 C   0  0  0  0  0  0  0  0  0  0  0  0
    2.1892   -1.7216    0.0000 C   0  0  0  0  0  0  0  0  0  0  0  0
    2.8124   -0.3572    0.0000 C   0  0  0  0  0  0  0  0  0  0  0  0
    1.9423    0.8647    0.0000 O   0  0  0  0  0  0  0  0  0  0  0  0
    4.3056   -0.2146    0.0000 N   0  0  0  0  0  0  0  0  0  0  0  0
    4.9287    1.1498    0.0000 C   0  0  0  0  0  0  0  0  0  0  0  0
    6.4219    1.2924    0.0000 N   0  0  0  0  0  0  0  0  0  0  0  0
    7.0450    2.6569    0.0000 N   0  0  0  0  0  0  0  0  0  0  0  0
    6.1749    3.8787    0.0000 N   0  0  0  0  0  0  0  0  0  0  0  0
    4.6817    3.7362    0.0000 N   0  0  0  0  0  0  0  0  0  0  0  0
    4.0586    2.3717    0.0000 N   0  0  0  0  0  0  0  0  0  0  0  0
    0.7500   -1.2990    0.0000 C   0  0  0  0  0  0  0  0  0  0  0  0
    1.5000    0.0000    0.0000 C   0  0  0  0  0  0  0  0  0  0  0  0
    0.7500    1.2990    0.0000 C   0  0  0  0  0  0  0  0  0  0  0  0
   -0.7500    1.2990    0.0000 C   0  0  0  0  0  0  0  0  0  0  0  0
   -1.5000    0.0000    0.0000 C   0  0  0  0  0  0  0  0  0  0  0  0
   -0.7500   -1.2990    0.0000 C   0  0  0  0  0  0  0  0  0  0  0  0
   -2.1892   -1.7216    0.0000 C   0  0  0  0  0  0  0  0  0  0  0  0
   -2.2606   -0.2233    0.0000 C   0  0  0  0  0  0  0  0  0  0  0  0
   -3.5939    0.4640    0.0000 C   0  0  0  0  0  0  0  0  0  0  0  0
   -4.8557   -0.3470    0.0000 C   0  0  0  0  0  0  0  0  0  0  0  0
   -4.7844   -1.8453    0.0000 C   0  0  0  0  0  0  0  0  0  0  0  0
   -3.4511   -2.5326    0.0000 C   0  0  0  0  0  0  0  0  0  0  0  0
   -4.4334   -3.6662    0.0000 C   0  0  0  0  0  0  0  0  0  0  0  0
   -5.3035   -2.4444    0.0000 C   0  0  0  0  0  0  0  0  0  0  0  0
   -6.7967   -2.5869    0.0000 C   0  0  0  0  0  0  0  0  0  0  0  0
   -7.4198   -3.9514    0.0000 C   0  0  0  0  0  0  0  0  0  0  0  0
   -6.5497   -5.1733    0.0000 C   0  0  0  0  0  0  0  0  0  0  0  0
   -5.0565   -5.0307    0.0000 C   0  0  0  0  0  0  0  0  0  0  0  0
   -5.2700   -6.5154    0.0000 C   0  0  0  0  0  0  0  0  0  0  0  0
   -6.6626   -5.9579    0.0000 C   0  0  0  0  0  0  0  0  0  0  0  0
   -7.8416   -6.8851    0.0000 C   0  0  0  0  0  0  0  0  0  0  0  0
   -7.6282   -8.3699    0.0000 C   0  0  0  0  0  0  0  0  0  0  0  0
   -6.2356   -8.9274    0.0000 C   0  0  0  0  0  0  0  0  0  0  0  0
   -5.0565   -8.0001    0.0000 C   0  0  0  0  0  0  0  0  0  0  0  0
   -4.4334   -9.3646    0.0000 C   0  0  0  0  0  0  0  0  0  0  0  0
   -5.9063   -9.6485    0.0000 C   0  0  0  0  0  0  0  0  0  0  0  0
   -6.3969  -11.0660    0.0000 C   0  0  0  0  0  0  0  0  0  0  0  0
   -5.4146  -12.1996    0.0000 C   0  0  0  0  0  0  0  0  0  0  0  0
   -3.9417  -11.9157    0.0000 C   0  0  0  0  0  0  0  0  0  0  0  0
   -3.4511  -10.4982    0.0000 C   0  0  0  0  0  0  0  0  0  0  0  0
   -2.1892  -11.3092    0.0000 C   0  0  0  0  0  0  0  0  0  0  0  0
   -3.2748  -12.3443    0.0000 C   0  0  0  0  0  0  0  0  0  0  0  0
   -2.9212  -13.8020    0.0000 C   0  0  0  0  0  0  0  0  0  0  0  0
   -1.4820  -14.2246    0.0000 C   0  0  0  0  0  0  0  0  0  0  0  0
   -0.3964  -13.1895    0.0000 C   0  0  0  0  0  0  0  0  0  0  0  0
   -0.7500  -11.7318    0.0000 C   0  0  0  0  0  0  0  0  0  0  0  0
    0.7500  -11.7318    0.0000 C   0  0  0  0  0  0  0  0  0  0  0  0
    0.3964  -13.1895    0.0000 C   0  0  0  0  0  0  0  0  0  0  0  0
    1.4820  -14.2246    0.0000 C   0  0  0  0  0  0  0  0  0  0  0  0
    2.9212  -13.8020    0.0000 C   0  0  0  0  0  0  0  0  0  0  0  0
    3.2748  -12.3443    0.0000 C   0  0  0  0  0  0  0  0  0  0  0  0
    2.1892  -11.3092    0.0000 C   0  0  0  0  0  0  0  0  0  0  0  0
    3.4511  -10.4982    0.0000 C   0  0  0  0  0  0  0  0  0  0  0  0
    3.9417  -11.9157    0.0000 C   0  0  0  0  0  0  0  0  0  0  0  0
    5.4146  -12.1996    0.0000 C   0  0  0  0  0  0  0  0  0  0  0  0
    6.3969  -11.0660    0.0000 C   0  0  0  0  0  0  0  0  0  0  0  0
    5.9063   -9.6485    0.0000 C   0  0  0  0  0  0  0  0  0  0  0  0
    4.4334   -9.3646    0.0000 C   0  0  0  0  0  0  0  0  0  0  0  0
    5.0565   -8.0001    0.0000 C   0  0  0  0  0  0  0  0  0  0  0  0
    6.3352   -8.2345    0.0000 N   0  0  0  0  0  0  0  0  0  0  0  0
    7.0779   -7.9372    0.0000 C   0  0  0  0  0  0  0  0  0  0  0  0
    7.1918   -7.1453    0.0000 C   0  0  0  0  0  0  0  0  0  0  0  0
    6.5629   -6.6508    0.0000 C   0  0  0  0  0  0  0  0  0  0  0  0
    5.2700   -6.5154    0.0000 C   0  0  0  0  0  0  0  0  0  0  0  0
  1  2  1  0
  2  3  1  0
  3  4  1  0
  4  5  1  0
  5  6  1  0
  6  7  2  0
  6  8  1  0
  8  9  1  0
  9 10  2  0
 10 11  1  0
 11 12  2  0
 12 13  1  0
 13 14  2  0
  5 15  1  0
 15 16  2  0
 16 17  1  0
 17 18  2  0
 18 19  1  0
 19 20  2  0
 20 21  1  0
 21 22  2  0
 22 23  1  0
 23 24  2  0
 24 25  1  0
 25 26  2  0
 26 27  1  0
 27 28  2  0
 28 29  1  0
 29 30  2  0
 30 31  1  0
 31 32  2  0
 32 33  1  0
 33 34  2  0
 34 35  1  0
 35 36  2  0
 36 37  1  0
 37 38  2  0
 38 39  1  0
 39 40  2  0
 40 41  1  0
 41 42  2  0
 42 43  1  0
 43 44  2  0
 44 45  1  0
 45 46  2  0
 46 47  1  0
 47 48  2  0
 48 49  1  0
 49 50  2  0
 50 51  1  0
 51 52  2  0
 52 53  1  0
 53 54  2  0
 54 55  1  0
 55 56  2  0
 56 57  1  0
 57 58  2  0
 58 59  1  0
 59 60  2  0
 60 61  1  0
 61 62  2  0
 62 63  1  0
 63 64  2  0
 64 65  1  0
 65 66  2  0
 66 67  1  0
 67 68  2  0
 68  2  1  0
 14  9  1  0
 20 15  1  0
 26 21  1  0
 32 27  1  0
 38 33  1  0
 44 39  1  0
 50 45  1  0
 56 51  1  0
 62 57  1  0
 68 63  1  0
M  END
>  <Title>  (837) 
idABEGgen8

$$$$

     RDKit          2D

 31 34  0  0  0  0  0  0  0  0999 V2000
   -0.6458  -11.4579    0.0000 C   0  0  0  0  0  0  0  0  0  0  0  0
   -0.0718  -10.0721    0.0000 C   0  0  0  0  0  0  0  0  0  0  0  0
   -0.9849   -8.8820    0.0000 C   0  0  0  0  0  0  0  0  0  0  0  0
   -0.4109   -7.4962    0.0000 C   0  0  0  0  0  0  0  0  0  0  0  0
    1.0763   -7.3004    0.0000 O   0  0  0  0  0  0  0  0  0  0  0  0
   -1.3240   -6.3062    0.0000 N   0  0  0  0  0  0  0  0  0  0  0  0
   -0.7500   -4.9204    0.0000 C   0  0  0  0  0  0  0  0  0  0  0  0
    0.7500   -4.9204    0.0000 C   0  0  0  0  0  0  0  0  0  0  0  0
    1.8107   -3.8597    0.0000 C   0  0  0  0  0  0  0  0  0  0  0  0
    1.8107   -2.3597    0.0000 C   0  0  0  0  0  0  0  0  0  0  0  0
    3.1965   -1.7857    0.0000 C   0  0  0  0  0  0  0  0  0  0  0  0
    3.3923   -0.2985    0.0000 O   0  0  0  0  0  0  0  0  0  0  0  0
    4.3865   -2.6988    0.0000 N   0  0  0  0  0  0  0  0  0  0  0  0
    5.7723   -2.1248    0.0000 C   0  0  0  0  0  0  0  0  0  0  0  0
    6.9624   -3.0379    0.0000 N   0  0  0  0  0  0  0  0  0  0  0  0
    8.3482   -2.4639    0.0000 N   0  0  0  0  0  0  0  0  0  0  0  0
    8.5440   -0.9767    0.0000 N   0  0  0  0  0  0  0  0  0  0  0  0
    7.3539   -0.0636    0.0000 N   0  0  0  0  0  0  0  0  0  0  0  0
    5.9681   -0.6376    0.0000 N   0  0  0  0  0  0  0  0  0  0  0  0
    0.7500   -1.2990    0.0000 C   0  0  0  0  0  0  0  0  0  0  0  0
    1.5000    0.0000    0.0000 C   0  0  0  0  0  0  0  0  0  0  0  0
    0.7500    1.2990    0.0000 C   0  0  0  0  0  0  0  0  0  0  0  0
   -0.7500    1.2990    0.0000 C   0  0  0  0  0  0  0  0  0  0  0  0
   -1.5000    0.0000    0.0000 C   0  0  0  0  0  0  0  0  0  0  0  0
   -0.7500   -1.2990    0.0000 C   0  0  0  0  0  0  0  0  0  0  0  0
   -1.8107   -2.3597    0.0000 C   0  0  0  0  0  0  0  0  0  0  0  0
   -3.1097   -1.6097    0.0000 C   0  0  0  0  0  0  0  0  0  0  0  0
   -4.4087   -2.3597    0.0000 C   0  0  0  0  0  0  0  0  0  0  0  0
   -4.4087   -3.8597    0.0000 C   0  0  0  0  0  0  0  0  0  0  0  0
   -3.1097   -4.6097    0.0000 C   0  0  0  0  0  0  0  0  0  0  0  0
   -1.8107   -3.8597    0.0000 C   0  0  0  0  0  0  0  0  0  0  0  0
  1  2  1  0
  2  3  2  3
  3  4  1  0
  4  5  2  0
  4  6  1  0
  6  7  1  0
  7  8  1  0
  8  9  1  0
  9 10  1  0
 10 11  1  0
 11 12  2  0
 11 13  1  0
 13 14  1  0
 14 15  2  0
 15 16  1  0
 16 17  2  0
 17 18  1  0
 18 19  2  0
 10 20  1  0
 20 21  2  0
 21 22  1  0
 22 23  2  0
 23 24  1  0
 24 25  2  0
 25 26  1  0
 26 27  2  0
 27 28  1  0
 28 29  2  0
 29 30  1  0
 30 31  2  0
 31  7  1  0
 19 14  1  0
 25 20  1  0
 31 26  1  0
M  END
>  <Title>  (838) 
idABEHgen8

$$$$

     RDKit          2D

 70 80  0  0  0  0  0  0  0  0999 V2000
    7.1840   -7.9416    0.0000 C   0  0  0  0  0  0  0  0  0  0  0  0
    5.6968   -7.7459    0.0000 C   0  0  0  0  0  0  0  0  0  0  0  0
    5.6968   -6.2459    0.0000 C   0  0  0  0  0  0  0  0  0  0  0  0
    5.3086   -4.7970    0.0000 C   0  0  0  0  0  0  0  0  0  0  0  0
    4.5586   -3.4979    0.0000 C   0  0  0  0  0  0  0  0  0  0  0  0
    3.4979   -2.4373    0.0000 C   0  0  0  0  0  0  0  0  0  0  0  0
    2.1989   -1.6873    0.0000 C   0  0  0  0  0  0  0  0  0  0  0  0
    2.7729   -0.3014    0.0000 C   0  0  0  0  0  0  0  0  0  0  0  0
    1.8598    0.8886    0.0000 O   0  0  0  0  0  0  0  0  0  0  0  0
    4.2601   -0.1057    0.0000 N   0  0  0  0  0  0  0  0  0  0  0  0
    4.8341    1.2802    0.0000 C   0  0  0  0  0  0  0  0  0  0  0  0
    6.3213    1.4760    0.0000 N   0  0  0  0  0  0  0  0  0  0  0  0
    6.8953    2.8618    0.0000 N   0  0  0  0  0  0  0  0  0  0  0  0
    5.9822    4.0518    0.0000 N   0  0  0  0  0  0  0  0  0  0  0  0
    4.4950    3.8560    0.0000 N   0  0  0  0  0  0  0  0  0  0  0  0
    3.9210    2.4702    0.0000 N   0  0  0  0  0  0  0  0  0  0  0  0
    0.7500   -1.2990    0.0000 C   0  0  0  0  0  0  0  0  0  0  0  0
    1.5000    0.0000    0.0000 C   0  0  0  0  0  0  0  0  0  0  0  0
    0.7500    1.2990    0.0000 C   0  0  0  0  0  0  0  0  0  0  0  0
   -0.7500    1.2990    0.0000 C   0  0  0  0  0  0  0  0  0  0  0  0
   -1.5000    0.0000    0.0000 C   0  0  0  0  0  0  0  0  0  0  0  0
   -0.7500   -1.2990    0.0000 C   0  0  0  0  0  0  0  0  0  0  0  0
   -2.1989   -1.6873    0.0000 C   0  0  0  0  0  0  0  0  0  0  0  0
   -2.1989   -0.1873    0.0000 C   0  0  0  0  0  0  0  0  0  0  0  0
   -3.4979    0.5627    0.0000 C   0  0  0  0  0  0  0  0  0  0  0  0
   -4.7970   -0.1873    0.0000 C   0  0  0  0  0  0  0  0  0  0  0  0
   -4.7970   -1.6873    0.0000 C   0  0  0  0  0  0  0  0  0  0  0  0
   -3.4979   -2.4373    0.0000 C   0  0  0  0  0  0  0  0  0  0  0  0
   -4.5586   -3.4979    0.0000 C   0  0  0  0  0  0  0  0  0  0  0  0
   -5.3086   -2.1989    0.0000 C   0  0  0  0  0  0  0  0  0  0  0  0
   -6.8086   -2.1989    0.0000 C   0  0  0  0  0  0  0  0  0  0  0  0
   -7.5586   -3.4979    0.0000 C   0  0  0  0  0  0  0  0  0  0  0  0
   -6.8086   -4.7970    0.0000 C   0  0  0  0  0  0  0  0  0  0  0  0
   -5.3086   -4.7970    0.0000 C   0  0  0  0  0  0  0  0  0  0  0  0
   -5.6968   -6.2459    0.0000 C   0  0  0  0  0  0  0  0  0  0  0  0
   -6.9959   -5.4959    0.0000 C   0  0  0  0  0  0  0  0  0  0  0  0
   -8.2949   -6.2459    0.0000 C   0  0  0  0  0  0  0  0  0  0  0  0
   -8.2949   -7.7459    0.0000 C   0  0  0  0  0  0  0  0  0  0  0  0
   -6.9959   -8.4959    0.0000 C   0  0  0  0  0  0  0  0  0  0  0  0
   -5.6968   -7.7459    0.0000 C   0  0  0  0  0  0  0  0  0  0  0  0
   -5.3086   -9.1947    0.0000 C   0  0  0  0  0  0  0  0  0  0  0  0
   -6.8086   -9.1947    0.0000 C   0  0  0  0  0  0  0  0  0  0  0  0
   -7.5586  -10.4938    0.0000 C   0  0  0  0  0  0  0  0  0  0  0  0
   -6.8086  -11.7928    0.0000 C   0  0  0  0  0  0  0  0  0  0  0  0
   -5.3086  -11.7928    0.0000 C   0  0  0  0  0  0  0  0  0  0  0  0
   -4.5586  -10.4938    0.0000 C   0  0  0  0  0  0  0  0  0  0  0  0
   -3.4979  -11.5544    0.0000 C   0  0  0  0  0  0  0  0  0  0  0  0
   -4.7970  -12.3044    0.0000 C   0  0  0  0  0  0  0  0  0  0  0  0
   -4.7970  -13.8044    0.0000 C   0  0  0  0  0  0  0  0  0  0  0  0
   -3.4979  -14.5544    0.0000 C   0  0  0  0  0  0  0  0  0  0  0  0
   -2.1989  -13.8044    0.0000 C   0  0  0  0  0  0  0  0  0  0  0  0
   -2.1989  -12.3044    0.0000 C   0  0  0  0  0  0  0  0  0  0  0  0
   -0.7500  -12.6927    0.0000 C   0  0  0  0  0  0  0  0  0  0  0  0
   -1.5000  -13.9917    0.0000 C   0  0  0  0  0  0  0  0  0  0  0  0
   -0.7500  -15.2907    0.0000 C   0  0  0  0  0  0  0  0  0  0  0  0
    0.7500  -15.2907    0.0000 C   0  0  0  0  0  0  0  0  0  0  0  0
    1.5000  -13.9917    0.0000 C   0  0  0  0  0  0  0  0  0  0  0  0
    0.7500  -12.6927    0.0000 C   0  0  0  0  0  0  0  0  0  0  0  0
    2.1989  -12.3044    0.0000 C   0  0  0  0  0  0  0  0  0  0  0  0
    2.1989  -13.8044    0.0000 C   0  0  0  0  0  0  0  0  0  0  0  0
    3.4979  -14.5544    0.0000 C   0  0  0  0  0  0  0  0  0  0  0  0
    4.7970  -13.8044    0.0000 C   0  0  0  0  0  0  0  0  0  0  0  0
    4.7970  -12.3044    0.0000 C   0  0  0  0  0  0  0  0  0  0  0  0
    3.4979  -11.5544    0.0000 C   0  0  0  0  0  0  0  0  0  0  0  0
    4.5586  -10.4938    0.0000 C   0  0  0  0  0  0  0  0  0  0  0  0
    5.3086  -11.7928    0.0000 C   0  0  0  0  0  0  0  0  0  0  0  0
    6.8086  -11.7928    0.0000 C   0  0  0  0  0  0  0  0  0  0  0  0
    7.5586  -10.4938    0.0000 C   0  0  0  0  0  0  0  0  0  0  0  0
    6.8086   -9.1947    0.0000 C   0  0  0  0  0  0  0  0  0  0  0  0
    5.3086   -9.1947    0.0000 C   0  0  0  0  0  0  0  0  0  0  0  0
  1  2  1  0
  2  3  1  0
  3  4  1  0
  4  5  1  0
  5  6  1  0
  6  7  1  0
  7  8  1  0
  8  9  2  0
  8 10  1  0
 10 11  1  0
 11 12  2  0
 12 13  1  0
 13 14  2  0
 14 15  1  0
 15 16  2  0
  7 17  1  0
 17 18  2  0
 18 19  1  0
 19 20  2  0
 20 21  1  0
 21 22  2  0
 22 23  1  0
 23 24  2  0
 24 25  1  0
 25 26  2  0
 26 27  1  0
 27 28  2  0
 28 29  1  0
 29 30  2  0
 30 31  1  0
 31 32  2  0
 32 33  1  0
 33 34  2  0
 34 35  1  0
 35 36  2  0
 36 37  1  0
 37 38  2  0
 38 39  1  0
 39 40  2  0
 40 41  1  0
 41 42  2  0
 42 43  1  0
 43 44  2  0
 44 45  1  0
 45 46  2  0
 46 47  1  0
 47 48  2  0
 48 49  1  0
 49 50  2  0
 50 51  1  0
 51 52  2  0
 52 53  1  0
 53 54  2  0
 54 55  1  0
 55 56  2  0
 56 57  1  0
 57 58  2  0
 58 59  1  0
 59 60  2  0
 60 61  1  0
 61 62  2  0
 62 63  1  0
 63 64  2  0
 64 65  1  0
 65 66  2  0
 66 67  1  0
 67 68  2  0
 68 69  1  0
 69 70  2  0
 70  2  1  0
 16 11  1  0
 22 17  1  0
 28 23  1  0
 34 29  1  0
 40 35  1  0
 46 41  1  0
 52 47  1  0
 58 53  1  0
 64 59  1  0
 70 65  1  0
M  END
>  <Title>  (839) 
idABEIgen8

$$$$

     RDKit          2D

116116  0  0  0  0  0  0  0  0999 V2000
   28.7189    0.0000    0.0000 C   0  0  0  0  0  0  0  0  0  0  0  0
   27.2189    0.0000    0.0000 C   0  0  0  0  0  0  0  0  0  0  0  0
   27.1776   -1.4994    0.0000 C   0  0  0  0  0  0  0  0  0  0  0  0
   27.0537   -2.9943    0.0000 C   0  0  0  0  0  0  0  0  0  0  0  0
   26.8477   -4.4801    0.0000 C   0  0  0  0  0  0  0  0  0  0  0  0
   26.5601   -5.9523    0.0000 C   0  0  0  0  0  0  0  0  0  0  0  0
   26.1919   -7.4064    0.0000 C   0  0  0  0  0  0  0  0  0  0  0  0
   25.7441   -8.8380    0.0000 C   0  0  0  0  0  0  0  0  0  0  0  0
   25.2182  -10.2427    0.0000 C   0  0  0  0  0  0  0  0  0  0  0  0
   24.6156  -11.6164    0.0000 C   0  0  0  0  0  0  0  0  0  0  0  0
   23.9383  -12.9548    0.0000 C   0  0  0  0  0  0  0  0  0  0  0  0
   23.1883  -14.2538    0.0000 C   0  0  0  0  0  0  0  0  0  0  0  0
   22.3679  -15.5096    0.0000 C   0  0  0  0  0  0  0  0  0  0  0  0
   21.4796  -16.7182    0.0000 C   0  0  0  0  0  0  0  0  0  0  0  0
   20.5260  -17.8761    0.0000 C   0  0  0  0  0  0  0  0  0  0  0  0
   19.5101  -18.9797    0.0000 C   0  0  0  0  0  0  0  0  0  0  0  0
   18.4349  -20.0256    0.0000 C   0  0  0  0  0  0  0  0  0  0  0  0
   17.3037  -21.0108    0.0000 C   0  0  0  0  0  0  0  0  0  0  0  0
   16.1200  -21.9321    0.0000 C   0  0  0  0  0  0  0  0  0  0  0  0
   14.8873  -22.7868    0.0000 C   0  0  0  0  0  0  0  0  0  0  0  0
   13.6095  -23.5723    0.0000 C   0  0  0  0  0  0  0  0  0  0  0  0
   12.2903  -24.2862    0.0000 C   0  0  0  0  0  0  0  0  0  0  0  0
   10.9337  -24.9264    0.0000 C   0  0  0  0  0  0  0  0  0  0  0  0
    9.5440  -25.4908    0.0000 C   0  0  0  0  0  0  0  0  0  0  0  0
    8.1253  -25.9779    0.0000 C   0  0  0  0  0  0  0  0  0  0  0  0
    6.6819  -26.3860    0.0000 C   0  0  0  0  0  0  0  0  0  0  0  0
    5.2182  -26.7141    0.0000 C   0  0  0  0  0  0  0  0  0  0  0  0
    3.7386  -26.9610    0.0000 C   0  0  0  0  0  0  0  0  0  0  0  0
    2.2477  -27.1260    0.0000 C   0  0  0  0  0  0  0  0  0  0  0  0
    0.7500  -27.2086    0.0000 C   0  0  0  0  0  0  0  0  0  0  0  0
   -0.7500  -27.2086    0.0000 C   0  0  0  0  0  0  0  0  0  0  0  0
   -2.2477  -27.1260    0.0000 C   0  0  0  0  0  0  0  0  0  0  0  0
   -3.7386  -26.9610    0.0000 C   0  0  0  0  0  0  0  0  0  0  0  0
   -5.2182  -26.7141    0.0000 C   0  0  0  0  0  0  0  0  0  0  0  0
   -6.6819  -26.3860    0.0000 C   0  0  0  0  0  0  0  0  0  0  0  0
   -8.1253  -25.9779    0.0000 C   0  0  0  0  0  0  0  0  0  0  0  0
   -9.5440  -25.4908    0.0000 C   0  0  0  0  0  0  0  0  0  0  0  0
  -10.9337  -24.9264    0.0000 C   0  0  0  0  0  0  0  0  0  0  0  0
  -12.2903  -24.2862    0.0000 C   0  0  0  0  0  0  0  0  0  0  0  0
  -13.6095  -23.5723    0.0000 C   0  0  0  0  0  0  0  0  0  0  0  0
  -14.8873  -22.7868    0.0000 C   0  0  0  0  0  0  0  0  0  0  0  0
  -16.1200  -21.9321    0.0000 C   0  0  0  0  0  0  0  0  0  0  0  0
  -17.3037  -21.0108    0.0000 C   0  0  0  0  0  0  0  0  0  0  0  0
  -18.4349  -20.0256    0.0000 C   0  0  0  0  0  0  0  0  0  0  0  0
  -19.5101  -18.9797    0.0000 C   0  0  0  0  0  0  0  0  0  0  0  0
  -20.5260  -17.8761    0.0000 C   0  0  0  0  0  0  0  0  0  0  0  0
  -21.4796  -16.7182    0.0000 C   0  0  0  0  0  0  0  0  0  0  0  0
  -22.3679  -15.5096    0.0000 C   0  0  0  0  0  0  0  0  0  0  0  0
  -23.1883  -14.2538    0.0000 C   0  0  0  0  0  0  0  0  0  0  0  0
  -23.9383  -12.9548    0.0000 C   0  0  0  0  0  0  0  0  0  0  0  0
  -24.6156  -11.6164    0.0000 C   0  0  0  0  0  0  0  0  0  0  0  0
  -25.2182  -10.2427    0.0000 C   0  0  0  0  0  0  0  0  0  0  0  0
  -25.7441   -8.8380    0.0000 C   0  0  0  0  0  0  0  0  0  0  0  0
  -26.1919   -7.4064    0.0000 C   0  0  0  0  0  0  0  0  0  0  0  0
  -26.5601   -5.9523    0.0000 C   0  0  0  0  0  0  0  0  0  0  0  0
  -26.8477   -4.4801    0.0000 C   0  0  0  0  0  0  0  0  0  0  0  0
  -27.0537   -2.9943    0.0000 C   0  0  0  0  0  0  0  0  0  0  0  0
  -27.1776   -1.4994    0.0000 C   0  0  0  0  0  0  0  0  0  0  0  0
  -27.2189    0.0000    0.0000 C   0  0  0  0  0  0  0  0  0  0  0  0
  -27.1776    1.4994    0.0000 C   0  0  0  0  0  0  0  0  0  0  0  0
  -27.0537    2.9943    0.0000 C   0  0  0  0  0  0  0  0  0  0  0  0
  -26.8477    4.4801    0.0000 C   0  0  0  0  0  0  0  0  0  0  0  0
  -26.5601    5.9523    0.0000 C   0  0  0  0  0  0  0  0  0  0  0  0
  -26.1919    7.4064    0.0000 C   0  0  0  0  0  0  0  0  0  0  0  0
  -25.7441    8.8380    0.0000 C   0  0  0  0  0  0  0  0  0  0  0  0
  -25.2182   10.2427    0.0000 C   0  0  0  0  0  0  0  0  0  0  0  0
  -24.6156   11.6164    0.0000 C   0  0  0  0  0  0  0  0  0  0  0  0
  -23.9383   12.9548    0.0000 C   0  0  0  0  0  0  0  0  0  0  0  0
  -23.1883   14.2538    0.0000 C   0  0  0  0  0  0  0  0  0  0  0  0
  -22.3679   15.5096    0.0000 C   0  0  0  0  0  0  0  0  0  0  0  0
  -21.4796   16.7182    0.0000 C   0  0  0  0  0  0  0  0  0  0  0  0
  -20.5260   17.8761    0.0000 C   0  0  0  0  0  0  0  0  0  0  0  0
  -19.5101   18.9797    0.0000 C   0  0  0  0  0  0  0  0  0  0  0  0
  -18.4349   20.0256    0.0000 C   0  0  0  0  0  0  0  0  0  0  0  0
  -17.3037   21.0108    0.0000 C   0  0  0  0  0  0  0  0  0  0  0  0
  -16.1200   21.9321    0.0000 C   0  0  0  0  0  0  0  0  0  0  0  0
  -14.8873   22.7868    0.0000 C   0  0  0  0  0  0  0  0  0  0  0  0
  -13.6095   23.5723    0.0000 C   0  0  0  0  0  0  0  0  0  0  0  0
  -12.2903   24.2862    0.0000 C   0  0  0  0  0  0  0  0  0  0  0  0
  -10.9337   24.9264    0.0000 C   0  0  0  0  0  0  0  0  0  0  0  0
   -9.5440   25.4908    0.0000 C   0  0  0  0  0  0  0  0  0  0  0  0
   -8.1253   25.9779    0.0000 C   0  0  0  0  0  0  0  0  0  0  0  0
   -6.6819   26.3860    0.0000 C   0  0  0  0  0  0  0  0  0  0  0  0
   -5.2182   26.7141    0.0000 C   0  0  0  0  0  0  0  0  0  0  0  0
   -3.7386   26.9610    0.0000 C   0  0  0  0  0  0  0  0  0  0  0  0
   -2.2477   27.1260    0.0000 C   0  0  0  0  0  0  0  0  0  0  0  0
   -0.7500   27.2086    0.0000 C   0  0  0  0  0  0  0  0  0  0  0  0
    0.7500   27.2086    0.0000 C   0  0  0  0  0  0  0  0  0  0  0  0
    2.2477   27.1260    0.0000 C   0  0  0  0  0  0  0  0  0  0  0  0
    3.7386   26.9610    0.0000 C   0  0  0  0  0  0  0  0  0  0  0  0
    5.2182   26.7141    0.0000 C   0  0  0  0  0  0  0  0  0  0  0  0
    6.6819   26.3860    0.0000 C   0  0  0  0  0  0  0  0  0  0  0  0
    8.1253   25.9779    0.0000 C   0  0  0  0  0  0  0  0  0  0  0  0
    9.5440   25.4908    0.0000 C   0  0  0  0  0  0  0  0  0  0  0  0
   10.9337   24.9264    0.0000 C   0  0  0  0  0  0  0  0  0  0  0  0
   12.2903   24.2862    0.0000 C   0  0  0  0  0  0  0  0  0  0  0  0
   13.6095   23.5723    0.0000 C   0  0  0  0  0  0  0  0  0  0  0  0
   14.8873   22.7868    0.0000 C   0  0  0  0  0  0  0  0  0  0  0  0
   16.1200   21.9321    0.0000 C   0  0  0  0  0  0  0  0  0  0  0  0
   17.3037   21.0108    0.0000 C   0  0  0  0  0  0  0  0  0  0  0  0
   18.4349   20.0256    0.0000 C   0  0  0  0  0  0  0  0  0  0  0  0
   19.5101   18.9797    0.0000 C   0  0  0  0  0  0  0  0  0  0  0  0
   20.5260   17.8761    0.0000 C   0  0  0  0  0  0  0  0  0  0  0  0
   21.4796   16.7182    0.0000 C   0  0  0  0  0  0  0  0  0  0  0  0
   22.3679   15.5096    0.0000 C   0  0  0  0  0  0  0  0  0  0  0  0
   23.1883   14.2538    0.0000 C   0  0  0  0  0  0  0  0  0  0  0  0
   23.9383   12.9548    0.0000 C   0  0  0  0  0  0  0  0  0  0  0  0
   24.6156   11.6164    0.0000 C   0  0  0  0  0  0  0  0  0  0  0  0
   25.2182   10.2427    0.0000 C   0  0  0  0  0  0  0  0  0  0  0  0
   25.7441    8.8380    0.0000 C   0  0  0  0  0  0  0  0  0  0  0  0
   26.1919    7.4064    0.0000 C   0  0  0  0  0  0  0  0  0  0  0  0
   26.5601    5.9523    0.0000 C   0  0  0  0  0  0  0  0  0  0  0  0
   26.8477    4.4801    0.0000 C   0  0  0  0  0  0  0  0  0  0  0  0
   28.3273    4.7270    0.0000 C   0  0  0  0  0  0  0  0  0  0  0  0
   27.0537    2.9943    0.0000 C   0  0  0  0  0  0  0  0  0  0  0  0
   27.1776    1.4994    0.0000 C   0  0  0  0  0  0  0  0  0  0  0  0
  1  2  1  0
  2  3  1  0
  3  4  2  0
  4  5  1  0
  5  6  1  0
  6  7  1  0
  7  8  1  0
  8  9  1  0
  9 10  1  0
 10 11  1  0
 11 12  1  0
 12 13  1  0
 13 14  1  0
 14 15  1  0
 15 16  1  0
 16 17  1  0
 17 18  1  0
 18 19  1  0
 19 20  1  0
 20 21  1  0
 21 22  1  0
 22 23  1  0
 23 24  1  0
 24 25  1  0
 25 26  1  0
 26 27  1  0
 27 28  1  0
 28 29  1  0
 29 30  1  0
 30 31  1  0
 31 32  1  0
 32 33  1  0
 33 34  1  0
 34 35  1  0
 35 36  1  0
 36 37  1  0
 37 38  1  0
 38 39  1  0
 39 40  1  0
 40 41  1  0
 41 42  1  0
 42 43  1  0
 43 44  1  0
 44 45  1  0
 45 46  1  0
 46 47  1  0
 47 48  1  0
 48 49  1  0
 49 50  1  0
 50 51  1  0
 51 52  1  0
 52 53  1  0
 53 54  1  0
 54 55  1  0
 55 56  1  0
 56 57  1  0
 57 58  1  0
 58 59  1  0
 59 60  1  0
 60 61  1  0
 61 62  1  0
 62 63  1  0
 63 64  1  0
 64 65  1  0
 65 66  1  0
 66 67  1  0
 67 68  1  0
 68 69  1  0
 69 70  1  0
 70 71  1  0
 71 72  1  0
 72 73  1  0
 73 74  1  0
 74 75  1  0
 75 76  1  0
 76 77  1  0
 77 78  1  0
 78 79  1  0
 79 80  1  0
 80 81  1  0
 81 82  1  0
 82 83  1  0
 83 84  1  0
 84 85  1  0
 85 86  1  0
 86 87  1  0
 87 88  1  0
 88 89  1  0
 89 90  1  0
 90 91  1  0
 91 92  1  0
 92 93  1  0
 93 94  1  0
 94 95  1  0
 95 96  1  0
 96 97  1  0
 97 98  1  0
 98 99  1  0
 99100  1  0
100101  1  0
101102  1  0
102103  1  0
103104  1  0
104105  1  0
105106  1  0
106107  1  0
107108  1  0
108109  2  0
109110  1  0
110111  1  0
111112  1  0
112113  1  0
113114  1  0
113115  1  0
115116  1  0
116  2  1  0
M  END
>  <Title>  (840) 
idABEJgen8

$$$$

     RDKit          2D

 87 88  0  0  0  0  0  0  0  0999 V2000
  -20.5112   35.2206    0.0000 C   0  0  0  0  0  0  0  0  0  0  0  0
  -19.5046   34.1085    0.0000 C   0  0  0  0  0  0  0  0  0  0  0  0
  -18.3547   35.0717    0.0000 C   0  0  0  0  0  0  0  0  0  0  0  0
  -17.1345   35.9440    0.0000 C   0  0  0  0  0  0  0  0  0  0  0  0
  -15.8511   36.7204    0.0000 C   0  0  0  0  0  0  0  0  0  0  0  0
  -14.5120   37.3963    0.0000 C   0  0  0  0  0  0  0  0  0  0  0  0
  -13.1250   37.9677    0.0000 C   0  0  0  0  0  0  0  0  0  0  0  0
  -11.6985   38.4312    0.0000 C   0  0  0  0  0  0  0  0  0  0  0  0
  -10.2406   38.7841    0.0000 C   0  0  0  0  0  0  0  0  0  0  0  0
   -8.7599   39.0245    0.0000 C   0  0  0  0  0  0  0  0  0  0  0  0
   -7.2653   39.1507    0.0000 C   0  0  0  0  0  0  0  0  0  0  0  0
   -5.7653   39.1622    0.0000 C   0  0  0  0  0  0  0  0  0  0  0  0
   -4.2689   39.0589    0.0000 C   0  0  0  0  0  0  0  0  0  0  0  0
   -2.7847   38.8413    0.0000 C   0  0  0  0  0  0  0  0  0  0  0  0
   -1.3216   38.5107    0.0000 C   0  0  0  0  0  0  0  0  0  0  0  0
    0.1119   38.0691    0.0000 C   0  0  0  0  0  0  0  0  0  0  0  0
    1.5074   37.5190    0.0000 C   0  0  0  0  0  0  0  0  0  0  0  0
    2.8567   36.8638    0.0000 C   0  0  0  0  0  0  0  0  0  0  0  0
    4.1519   36.1071    0.0000 C   0  0  0  0  0  0  0  0  0  0  0  0
    5.3854   35.2536    0.0000 C   0  0  0  0  0  0  0  0  0  0  0  0
    6.5499   34.3081    0.0000 C   0  0  0  0  0  0  0  0  0  0  0  0
    7.6386   33.2763    0.0000 C   0  0  0  0  0  0  0  0  0  0  0  0
    8.6451   32.1641    0.0000 C   0  0  0  0  0  0  0  0  0  0  0  0
    9.5636   30.9782    0.0000 C   0  0  0  0  0  0  0  0  0  0  0  0
   10.3886   29.7254    0.0000 C   0  0  0  0  0  0  0  0  0  0  0  0
   11.1152   28.4132    0.0000 C   0  0  0  0  0  0  0  0  0  0  0  0
   11.7393   27.0492    0.0000 C   0  0  0  0  0  0  0  0  0  0  0  0
   12.2571   25.6414    0.0000 C   0  0  0  0  0  0  0  0  0  0  0  0
   12.6657   24.1981    0.0000 C   0  0  0  0  0  0  0  0  0  0  0  0
   12.9625   22.7278    0.0000 C   0  0  0  0  0  0  0  0  0  0  0  0
   13.1460   21.2390    0.0000 C   0  0  0  0  0  0  0  0  0  0  0  0
   13.2149   19.7406    0.0000 C   0  0  0  0  0  0  0  0  0  0  0  0
   13.1689   18.2413    0.0000 C   0  0  0  0  0  0  0  0  0  0  0  0
   13.0083   16.7500    0.0000 C   0  0  0  0  0  0  0  0  0  0  0  0
   12.7340   15.2752    0.0000 C   0  0  0  0  0  0  0  0  0  0  0  0
   12.3477   13.8259    0.0000 C   0  0  0  0  0  0  0  0  0  0  0  0
   11.8515   12.4103    0.0000 C   0  0  0  0  0  0  0  0  0  0  0  0
   11.2484   11.0369    0.0000 C   0  0  0  0  0  0  0  0  0  0  0  0
   10.5419    9.7137    0.0000 C   0  0  0  0  0  0  0  0  0  0  0  0
    9.7362    8.4484    0.0000 C   0  0  0  0  0  0  0  0  0  0  0  0
    8.8361    7.2485    0.0000 C   0  0  0  0  0  0  0  0  0  0  0  0
    7.8467    6.1211    0.0000 C   0  0  0  0  0  0  0  0  0  0  0  0
    6.7739    5.0727    0.0000 C   0  0  0  0  0  0  0  0  0  0  0  0
    5.6240    4.1095    0.0000 C   0  0  0  0  0  0  0  0  0  0  0  0
    4.4038    3.2371    0.0000 C   0  0  0  0  0  0  0  0  0  0  0  0
    3.1203    2.4608    0.0000 C   0  0  0  0  0  0  0  0  0  0  0  0
    1.7812    1.7849    0.0000 C   0  0  0  0  0  0  0  0  0  0  0  0
    0.3943    1.2135    0.0000 C   0  0  0  0  0  0  0  0  0  0  0  0
    1.2760    0.0000    0.0000 C   0  0  0  0  0  0  0  0  0  0  0  0
    0.3943   -1.2135    0.0000 C   0  0  0  0  0  0  0  0  0  0  0  0
   -1.0323   -0.7500    0.0000 C   0  0  0  0  0  0  0  0  0  0  0  0
   -1.0323    0.7500    0.0000 C   0  0  0  0  0  0  0  0  0  0  0  0
   -2.4902    0.3970    0.0000 C   0  0  0  0  0  0  0  0  0  0  0  0
   -2.1933   -1.0733    0.0000 C   0  0  0  0  0  0  0  0  0  0  0  0
   -3.9708    0.1567    0.0000 C   0  0  0  0  0  0  0  0  0  0  0  0
   -5.4655    0.0304    0.0000 C   0  0  0  0  0  0  0  0  0  0  0  0
   -6.9654    0.0189    0.0000 C   0  0  0  0  0  0  0  0  0  0  0  0
   -8.4619    0.1223    0.0000 C   0  0  0  0  0  0  0  0  0  0  0  0
   -9.9460    0.3399    0.0000 C   0  0  0  0  0  0  0  0  0  0  0  0
  -11.4091    0.6705    0.0000 C   0  0  0  0  0  0  0  0  0  0  0  0
  -12.8426    1.1121    0.0000 C   0  0  0  0  0  0  0  0  0  0  0  0
  -14.2381    1.6621    0.0000 C   0  0  0  0  0  0  0  0  0  0  0  0
  -15.5874    2.3174    0.0000 C   0  0  0  0  0  0  0  0  0  0  0  0
  -16.8826    3.0740    0.0000 C   0  0  0  0  0  0  0  0  0  0  0  0
  -18.1161    3.9276    0.0000 C   0  0  0  0  0  0  0  0  0  0  0  0
  -19.2806    4.8731    0.0000 C   0  0  0  0  0  0  0  0  0  0  0  0
  -20.3693    5.9049    0.0000 C   0  0  0  0  0  0  0  0  0  0  0  0
  -21.3759    7.0170    0.0000 C   0  0  0  0  0  0  0  0  0  0  0  0
  -22.2943    8.2030    0.0000 C   0  0  0  0  0  0  0  0  0  0  0  0
  -23.1193    9.4557    0.0000 C   0  0  0  0  0  0  0  0  0  0  0  0
  -23.8460   10.7680    0.0000 C   0  0  0  0  0  0  0  0  0  0  0  0
  -24.4700   12.1320    0.0000 C   0  0  0  0  0  0  0  0  0  0  0  0
  -24.9879   13.5398    0.0000 C   0  0  0  0  0  0  0  0  0  0  0  0
  -25.3964   14.9831    0.0000 C   0  0  0  0  0  0  0  0  0  0  0  0
  -25.6933   16.4534    0.0000 C   0  0  0  0  0  0  0  0  0  0  0  0
  -25.8767   17.9421    0.0000 C   0  0  0  0  0  0  0  0  0  0  0  0
  -25.9456   19.4406    0.0000 C   0  0  0  0  0  0  0  0  0  0  0  0
  -25.8997   20.9399    0.0000 C   0  0  0  0  0  0  0  0  0  0  0  0
  -25.7391   22.4312    0.0000 C   0  0  0  0  0  0  0  0  0  0  0  0
  -25.4648   23.9059    0.0000 C   0  0  0  0  0  0  0  0  0  0  0  0
  -25.0784   25.3553    0.0000 C   0  0  0  0  0  0  0  0  0  0  0  0
  -24.5822   26.7709    0.0000 C   0  0  0  0  0  0  0  0  0  0  0  0
  -23.9791   28.1443    0.0000 C   0  0  0  0  0  0  0  0  0  0  0  0
  -23.2726   29.4675    0.0000 C   0  0  0  0  0  0  0  0  0  0  0  0
  -22.4670   30.7328    0.0000 C   0  0  0  0  0  0  0  0  0  0  0  0
  -21.5668   31.9326    0.0000 C   0  0  0  0  0  0  0  0  0  0  0  0
  -20.5774   33.0601    0.0000 C   0  0  0  0  0  0  0  0  0  0  0  0
  1  2  1  0
  2  3  1  0
  3  4  2  0
  4  5  1  0
  5  6  2  0
  6  7  1  0
  7  8  2  0
  8  9  1  0
  9 10  2  0
 10 11  1  0
 11 12  2  0
 12 13  1  0
 13 14  2  0
 14 15  1  0
 15 16  2  0
 16 17  1  0
 17 18  2  0
 18 19  1  0
 19 20  2  0
 20 21  1  0
 21 22  2  0
 22 23  1  0
 23 24  2  0
 24 25  1  0
 25 26  2  0
 26 27  1  0
 27 28  2  0
 28 29  1  0
 29 30  2  0
 30 31  1  0
 31 32  2  0
 32 33  1  0
 33 34  2  0
 34 35  1  0
 35 36  2  0
 36 37  1  0
 37 38  2  0
 38 39  1  0
 39 40  2  0
 40 41  1  0
 41 42  2  0
 42 43  1  0
 43 44  2  0
 44 45  1  0
 45 46  2  0
 46 47  1  0
 47 48  2  0
 48 49  1  0
 49 50  2  0
 50 51  1  0
 51 52  2  0
 52 53  1  0
 53 54  1  0
 53 55  1  0
 55 56  1  0
 56 57  1  0
 57 58  1  0
 58 59  1  0
 59 60  1  0
 60 61  1  0
 61 62  1  0
 62 63  1  0
 63 64  1  0
 64 65  1  0
 65 66  1  0
 66 67  1  0
 67 68  1  0
 68 69  1  0
 69 70  1  0
 70 71  1  0
 71 72  1  0
 72 73  1  0
 73 74  1  0
 74 75  1  0
 75 76  1  0
 76 77  1  0
 77 78  1  0
 78 79  1  0
 79 80  1  0
 80 81  1  0
 81 82  1  0
 82 83  1  0
 83 84  1  0
 84 85  1  0
 85 86  1  0
 86 87  1  0
 87  2  1  0
 52 48  1  0
M  END
>  <Title>  (841) 
idABEKgen8

$$$$

     RDKit          2D

 10 10  0  0  0  0  0  0  0  0999 V2000
    3.4598   -0.0000    0.0000 C   0  0  0  0  0  0  0  0  0  0  0  0
    1.9598    0.0000    0.0000 C   0  0  0  0  0  0  0  0  0  0  0  0
    1.3858   -1.3858    0.0000 C   0  0  0  0  0  0  0  0  0  0  0  0
   -0.0000   -1.9598    0.0000 C   0  0  0  0  0  0  0  0  0  0  0  0
   -1.3858   -1.3858    0.0000 C   0  0  0  0  0  0  0  0  0  0  0  0
   -1.9598    0.0000    0.0000 C   0  0  0  0  0  0  0  0  0  0  0  0
   -1.3858    1.3858    0.0000 C   0  0  0  0  0  0  0  0  0  0  0  0
   -2.4465    2.4465    0.0000 O   0  0  0  0  0  0  0  0  0  0  0  0
    0.0000    1.9598    0.0000 C   0  0  0  0  0  0  0  0  0  0  0  0
    1.3858    1.3858    0.0000 C   0  0  0  0  0  0  0  0  0  0  0  0
  1  2  1  0
  2  3  2  0
  3  4  1  0
  4  5  1  0
  5  6  1  0
  6  7  1  0
  7  8  1  0
  7  9  1  0
  9 10  1  0
 10  2  1  0
M  END
>  <Title>  (842) 
idABELgen8

$$$$

     RDKit          2D

 24 23  0  0  0  0  0  0  0  0999 V2000
    0.0000    0.0000    0.0000 C   0  0  0  0  0  0  0  0  0  0  0  0
    1.2990    0.7500    0.0000 C   0  0  0  0  0  0  0  0  0  0  0  0
    2.5981   -0.0000    0.0000 C   0  0  0  0  0  0  0  0  0  0  0  0
    3.8971    0.7500    0.0000 C   0  0  0  0  0  0  0  0  0  0  0  0
    5.1962   -0.0000    0.0000 C   0  0  0  0  0  0  0  0  0  0  0  0
    6.4952    0.7500    0.0000 C   0  0  0  0  0  0  0  0  0  0  0  0
    7.7942   -0.0000    0.0000 C   0  0  0  0  0  0  0  0  0  0  0  0
    9.0933    0.7500    0.0000 C   0  0  0  0  0  0  0  0  0  0  0  0
   10.3923   -0.0000    0.0000 C   0  0  0  0  0  0  0  0  0  0  0  0
   11.6913    0.7500    0.0000 C   0  0  0  0  0  0  0  0  0  0  0  0
   12.9904   -0.0000    0.0000 C   0  0  0  0  0  0  0  0  0  0  0  0
   14.2894    0.7500    0.0000 C   0  0  0  0  0  0  0  0  0  0  0  0
   15.5885   -0.0000    0.0000 C   0  0  0  0  0  0  0  0  0  0  0  0
   16.8875    0.7500    0.0000 C   0  0  0  0  0  0  0  0  0  0  0  0
   18.1865   -0.0000    0.0000 C   0  0  0  0  0  0  0  0  0  0  0  0
   19.4856    0.7500    0.0000 C   0  0  0  0  0  0  0  0  0  0  0  0
   20.7846   -0.0000    0.0000 C   0  0  0  0  0  0  0  0  0  0  0  0
   22.0836    0.7500    0.0000 C   0  0  0  0  0  0  0  0  0  0  0  0
   23.3827   -0.0000    0.0000 N   0  0  0  0  0  0  0  0  0  0  0  0
   24.6817    0.7500    0.0000 C   0  0  0  0  0  0  0  0  0  0  0  0
   25.9808   -0.0000    0.0000 C   0  0  0  0  0  0  0  0  0  0  0  0
   27.2798    0.7500    0.0000 C   0  0  0  0  0  0  0  0  0  0  0  0
   28.5788   -0.0000    0.0000 C   0  0  0  0  0  0  0  0  0  0  0  0
   29.8779    0.7500    0.0000 C   0  0  0  0  0  0  0  0  0  0  0  0
  1  2  1  0
  2  3  2  3
  3  4  1  0
  4  5  1  0
  5  6  1  0
  6  7  1  0
  7  8  1  0
  8  9  1  0
  9 10  1  0
 10 11  1  0
 11 12  1  0
 12 13  1  0
 13 14  1  0
 14 15  1  0
 15 16  1  0
 16 17  1  0
 17 18  1  0
 18 19  1  0
 19 20  1  0
 20 21  1  0
 21 22  2  3
 22 23  1  0
 23 24  1  0
M  END
>  <Title>  (843) 
idABEMgen8

$$$$

     RDKit          2D

  9  9  0  0  0  0  0  0  0  0999 V2000
    3.0000    0.0000    0.0000 C   0  0  0  0  0  0  0  0  0  0  0  0
    1.5000    0.0000    0.0000 C   0  0  0  0  0  0  0  0  0  0  0  0
    0.7500   -1.2990    0.0000 C   0  0  0  0  0  0  0  0  0  0  0  0
   -0.7500   -1.2990    0.0000 C   0  0  0  0  0  0  0  0  0  0  0  0
   -1.5000   -2.5981    0.0000 C   0  0  0  0  0  0  0  0  0  0  0  0
   -2.2500   -3.8971    0.0000 N   0  0  0  0  0  0  0  0  0  0  0  0
   -1.5000    0.0000    0.0000 C   0  0  0  0  0  0  0  0  0  0  0  0
   -0.7500    1.2990    0.0000 C   0  0  0  0  0  0  0  0  0  0  0  0
    0.7500    1.2990    0.0000 C   0  0  0  0  0  0  0  0  0  0  0  0
  1  2  1  0
  2  3  2  0
  3  4  1  0
  4  5  1  0
  5  6  3  0
  4  7  1  0
  7  8  1  0
  8  9  1  0
  9  2  1  0
M  END
>  <Title>  (844) 
idABENgen8

$$$$

     RDKit          2D

 11 11  0  0  0  0  0  0  0  0999 V2000
    5.7760   -2.5981    0.0000 C   0  0  0  0  0  0  0  0  0  0  0  0
    5.0260   -1.2990    0.0000 C   0  0  0  0  0  0  0  0  0  0  0  0
    5.7760    0.0000    0.0000 O   0  0  0  0  0  0  0  0  0  0  0  0
    3.5260   -1.2990    0.0000 C   0  0  0  0  0  0  0  0  0  0  0  0
    2.7760    0.0000    0.0000 C   0  0  0  0  0  0  0  0  0  0  0  0
    3.5260    1.2990    0.0000 O   0  0  0  0  0  0  0  0  0  0  0  0
    1.2760    0.0000    0.0000 C   0  0  0  0  0  0  0  0  0  0  0  0
    0.3943    1.2135    0.0000 C   0  0  0  0  0  0  0  0  0  0  0  0
   -1.0323    0.7500    0.0000 C   0  0  0  0  0  0  0  0  0  0  0  0
   -1.0323   -0.7500    0.0000 C   0  0  0  0  0  0  0  0  0  0  0  0
    0.3943   -1.2135    0.0000 C   0  0  0  0  0  0  0  0  0  0  0  0
  1  2  1  0
  2  3  2  0
  2  4  1  0
  4  5  1  0
  5  6  2  0
  5  7  1  0
  7  8  2  0
  8  9  1  0
  9 10  1  0
 10 11  2  0
 11  7  1  0
M  END
>  <Title>  (845) 
idABEOgen8

$$$$

     RDKit          2D

  8  8  0  0  0  0  0  0  0  0999 V2000
    3.7500   -1.2990    0.0000 C   0  0  0  0  0  0  0  0  0  0  0  0
    3.0000    0.0000    0.0000 C   0  0  0  0  0  0  0  0  0  0  0  0
    1.5000    0.0000    0.0000 C   0  0  0  0  0  0  0  0  0  0  0  0
    0.7500   -1.2990    0.0000 C   0  0  0  0  0  0  0  0  0  0  0  0
   -0.7500   -1.2990    0.0000 C   0  0  0  0  0  0  0  0  0  0  0  0
   -1.5000    0.0000    0.0000 C   0  0  0  0  0  0  0  0  0  0  0  0
   -0.7500    1.2990    0.0000 C   0  0  0  0  0  0  0  0  0  0  0  0
    0.7500    1.2990    0.0000 C   0  0  0  0  0  0  0  0  0  0  0  0
  1  2  2  0
  2  3  1  0
  3  4  2  0
  4  5  1  0
  5  6  1  0
  6  7  1  0
  7  8  2  0
  8  3  1  0
M  END
>  <Title>  (846) 
idABEPgen8

$$$$

     RDKit          2D

121121  0  0  0  0  0  0  0  0999 V2000
   30.1512    0.0000    0.0000 C   0  0  0  0  0  0  0  0  0  0  0  0
   28.6512    0.0000    0.0000 C   0  0  0  0  0  0  0  0  0  0  0  0
   28.6119   -1.4995    0.0000 C   0  0  0  0  0  0  0  0  0  0  0  0
   28.4942   -2.9949    0.0000 C   0  0  0  0  0  0  0  0  0  0  0  0
   28.2984   -4.4820    0.0000 C   0  0  0  0  0  0  0  0  0  0  0  0
   28.0251   -5.9569    0.0000 C   0  0  0  0  0  0  0  0  0  0  0  0
   27.6749   -7.4155    0.0000 C   0  0  0  0  0  0  0  0  0  0  0  0
   27.2489   -8.8537    0.0000 C   0  0  0  0  0  0  0  0  0  0  0  0
   26.7482  -10.2677    0.0000 C   0  0  0  0  0  0  0  0  0  0  0  0
   26.1741  -11.6535    0.0000 C   0  0  0  0  0  0  0  0  0  0  0  0
   25.5284  -13.0074    0.0000 C   0  0  0  0  0  0  0  0  0  0  0  0
   24.8126  -14.3256    0.0000 C   0  0  0  0  0  0  0  0  0  0  0  0
   24.0289  -15.6045    0.0000 C   0  0  0  0  0  0  0  0  0  0  0  0
   23.1793  -16.8407    0.0000 C   0  0  0  0  0  0  0  0  0  0  0  0
   22.2661  -18.0308    0.0000 C   0  0  0  0  0  0  0  0  0  0  0  0
   21.2920  -19.1714    0.0000 C   0  0  0  0  0  0  0  0  0  0  0  0
   20.2594  -20.2594    0.0000 C   0  0  0  0  0  0  0  0  0  0  0  0
   19.1714  -21.2920    0.0000 C   0  0  0  0  0  0  0  0  0  0  0  0
   18.0308  -22.2661    0.0000 C   0  0  0  0  0  0  0  0  0  0  0  0
   16.8407  -23.1793    0.0000 C   0  0  0  0  0  0  0  0  0  0  0  0
   15.6045  -24.0289    0.0000 C   0  0  0  0  0  0  0  0  0  0  0  0
   14.3256  -24.8126    0.0000 C   0  0  0  0  0  0  0  0  0  0  0  0
   13.0074  -25.5284    0.0000 C   0  0  0  0  0  0  0  0  0  0  0  0
   11.6535  -26.1741    0.0000 C   0  0  0  0  0  0  0  0  0  0  0  0
   10.2677  -26.7482    0.0000 C   0  0  0  0  0  0  0  0  0  0  0  0
    8.8537  -27.2489    0.0000 C   0  0  0  0  0  0  0  0  0  0  0  0
    7.4155  -27.6749    0.0000 C   0  0  0  0  0  0  0  0  0  0  0  0
    5.9569  -28.0251    0.0000 C   0  0  0  0  0  0  0  0  0  0  0  0
    4.4820  -28.2984    0.0000 C   0  0  0  0  0  0  0  0  0  0  0  0
    2.9949  -28.4942    0.0000 C   0  0  0  0  0  0  0  0  0  0  0  0
    1.4995  -28.6119    0.0000 C   0  0  0  0  0  0  0  0  0  0  0  0
   -0.0000  -28.6512    0.0000 C   0  0  0  0  0  0  0  0  0  0  0  0
   -1.4995  -28.6119    0.0000 C   0  0  0  0  0  0  0  0  0  0  0  0
   -2.9949  -28.4942    0.0000 C   0  0  0  0  0  0  0  0  0  0  0  0
   -4.4820  -28.2984    0.0000 C   0  0  0  0  0  0  0  0  0  0  0  0
   -5.9569  -28.0251    0.0000 C   0  0  0  0  0  0  0  0  0  0  0  0
   -7.4155  -27.6749    0.0000 C   0  0  0  0  0  0  0  0  0  0  0  0
   -8.8537  -27.2489    0.0000 C   0  0  0  0  0  0  0  0  0  0  0  0
  -10.2677  -26.7482    0.0000 C   0  0  0  0  0  0  0  0  0  0  0  0
  -11.6535  -26.1741    0.0000 C   0  0  0  0  0  0  0  0  0  0  0  0
  -13.0074  -25.5284    0.0000 C   0  0  0  0  0  0  0  0  0  0  0  0
  -14.3256  -24.8126    0.0000 C   0  0  0  0  0  0  0  0  0  0  0  0
  -15.6045  -24.0289    0.0000 C   0  0  0  0  0  0  0  0  0  0  0  0
  -16.8407  -23.1793    0.0000 C   0  0  0  0  0  0  0  0  0  0  0  0
  -18.0308  -22.2661    0.0000 C   0  0  0  0  0  0  0  0  0  0  0  0
  -19.1714  -21.2920    0.0000 C   0  0  0  0  0  0  0  0  0  0  0  0
  -20.2594  -20.2594    0.0000 C   0  0  0  0  0  0  0  0  0  0  0  0
  -21.2920  -19.1714    0.0000 C   0  0  0  0  0  0  0  0  0  0  0  0
  -22.2661  -18.0308    0.0000 C   0  0  0  0  0  0  0  0  0  0  0  0
  -23.1793  -16.8407    0.0000 C   0  0  0  0  0  0  0  0  0  0  0  0
  -24.0289  -15.6045    0.0000 C   0  0  0  0  0  0  0  0  0  0  0  0
  -24.8126  -14.3256    0.0000 C   0  0  0  0  0  0  0  0  0  0  0  0
  -25.5284  -13.0074    0.0000 C   0  0  0  0  0  0  0  0  0  0  0  0
  -26.1741  -11.6535    0.0000 C   0  0  0  0  0  0  0  0  0  0  0  0
  -26.7482  -10.2677    0.0000 C   0  0  0  0  0  0  0  0  0  0  0  0
  -27.2489   -8.8537    0.0000 C   0  0  0  0  0  0  0  0  0  0  0  0
  -27.6749   -7.4155    0.0000 C   0  0  0  0  0  0  0  0  0  0  0  0
  -28.0251   -5.9569    0.0000 C   0  0  0  0  0  0  0  0  0  0  0  0
  -28.2984   -4.4820    0.0000 C   0  0  0  0  0  0  0  0  0  0  0  0
  -28.4942   -2.9949    0.0000 C   0  0  0  0  0  0  0  0  0  0  0  0
  -28.6119   -1.4995    0.0000 C   0  0  0  0  0  0  0  0  0  0  0  0
  -28.6512    0.0000    0.0000 C   0  0  0  0  0  0  0  0  0  0  0  0
  -28.6119    1.4995    0.0000 C   0  0  0  0  0  0  0  0  0  0  0  0
  -28.4942    2.9949    0.0000 C   0  0  0  0  0  0  0  0  0  0  0  0
  -28.2984    4.4820    0.0000 C   0  0  0  0  0  0  0  0  0  0  0  0
  -28.0251    5.9569    0.0000 C   0  0  0  0  0  0  0  0  0  0  0  0
  -27.6749    7.4155    0.0000 C   0  0  0  0  0  0  0  0  0  0  0  0
  -27.2489    8.8537    0.0000 C   0  0  0  0  0  0  0  0  0  0  0  0
  -26.7482   10.2677    0.0000 C   0  0  0  0  0  0  0  0  0  0  0  0
  -26.1741   11.6535    0.0000 C   0  0  0  0  0  0  0  0  0  0  0  0
  -25.5284   13.0074    0.0000 C   0  0  0  0  0  0  0  0  0  0  0  0
  -24.8126   14.3256    0.0000 C   0  0  0  0  0  0  0  0  0  0  0  0
  -24.0289   15.6045    0.0000 C   0  0  0  0  0  0  0  0  0  0  0  0
  -23.1793   16.8407    0.0000 C   0  0  0  0  0  0  0  0  0  0  0  0
  -22.2661   18.0308    0.0000 C   0  0  0  0  0  0  0  0  0  0  0  0
  -21.2920   19.1714    0.0000 C   0  0  0  0  0  0  0  0  0  0  0  0
  -20.2594   20.2594    0.0000 C   0  0  0  0  0  0  0  0  0  0  0  0
  -19.1714   21.2920    0.0000 C   0  0  0  0  0  0  0  0  0  0  0  0
  -18.0308   22.2661    0.0000 C   0  0  0  0  0  0  0  0  0  0  0  0
  -16.8407   23.1793    0.0000 C   0  0  0  0  0  0  0  0  0  0  0  0
  -15.6045   24.0289    0.0000 C   0  0  0  0  0  0  0  0  0  0  0  0
  -14.3256   24.8126    0.0000 C   0  0  0  0  0  0  0  0  0  0  0  0
  -13.0074   25.5284    0.0000 C   0  0  0  0  0  0  0  0  0  0  0  0
  -11.6535   26.1741    0.0000 C   0  0  0  0  0  0  0  0  0  0  0  0
  -10.2677   26.7482    0.0000 C   0  0  0  0  0  0  0  0  0  0  0  0
   -8.8537   27.2489    0.0000 C   0  0  0  0  0  0  0  0  0  0  0  0
   -7.4155   27.6749    0.0000 C   0  0  0  0  0  0  0  0  0  0  0  0
   -5.9569   28.0251    0.0000 C   0  0  0  0  0  0  0  0  0  0  0  0
   -4.4820   28.2984    0.0000 C   0  0  0  0  0  0  0  0  0  0  0  0
   -2.9949   28.4942    0.0000 C   0  0  0  0  0  0  0  0  0  0  0  0
   -1.4995   28.6119    0.0000 C   0  0  0  0  0  0  0  0  0  0  0  0
    0.0000   28.6512    0.0000 C   0  0  0  0  0  0  0  0  0  0  0  0
    1.4995   28.6119    0.0000 C   0  0  0  0  0  0  0  0  0  0  0  0
    2.9949   28.4942    0.0000 C   0  0  0  0  0  0  0  0  0  0  0  0
    4.4820   28.2984    0.0000 C   0  0  0  0  0  0  0  0  0  0  0  0
    5.9569   28.0251    0.0000 C   0  0  0  0  0  0  0  0  0  0  0  0
    7.4155   27.6749    0.0000 C   0  0  0  0  0  0  0  0  0  0  0  0
    8.8537   27.2489    0.0000 C   0  0  0  0  0  0  0  0  0  0  0  0
   10.2677   26.7482    0.0000 C   0  0  0  0  0  0  0  0  0  0  0  0
   11.6535   26.1741    0.0000 C   0  0  0  0  0  0  0  0  0  0  0  0
   13.0074   25.5284    0.0000 C   0  0  0  0  0  0  0  0  0  0  0  0
   14.3256   24.8126    0.0000 C   0  0  0  0  0  0  0  0  0  0  0  0
   15.6045   24.0289    0.0000 C   0  0  0  0  0  0  0  0  0  0  0  0
   16.8407   23.1793    0.0000 C   0  0  0  0  0  0  0  0  0  0  0  0
   18.0308   22.2661    0.0000 C   0  0  0  0  0  0  0  0  0  0  0  0
   19.1714   21.2920    0.0000 C   0  0  0  0  0  0  0  0  0  0  0  0
   20.2594   20.2594    0.0000 C   0  0  0  0  0  0  0  0  0  0  0  0
   21.2920   19.1714    0.0000 C   0  0  0  0  0  0  0  0  0  0  0  0
   22.2661   18.0308    0.0000 C   0  0  0  0  0  0  0  0  0  0  0  0
   23.1793   16.8407    0.0000 C   0  0  0  0  0  0  0  0  0  0  0  0
   24.0289   15.6045    0.0000 C   0  0  0  0  0  0  0  0  0  0  0  0
   24.8126   14.3256    0.0000 C   0  0  0  0  0  0  0  0  0  0  0  0
   25.5284   13.0074    0.0000 C   0  0  0  0  0  0  0  0  0  0  0  0
   26.1741   11.6535    0.0000 C   0  0  0  0  0  0  0  0  0  0  0  0
   26.7482   10.2677    0.0000 C   0  0  0  0  0  0  0  0  0  0  0  0
   27.2489    8.8537    0.0000 C   0  0  0  0  0  0  0  0  0  0  0  0
   27.6749    7.4155    0.0000 C   0  0  0  0  0  0  0  0  0  0  0  0
   28.0251    5.9569    0.0000 C   0  0  0  0  0  0  0  0  0  0  0  0
   28.2984    4.4820    0.0000 C   0  0  0  0  0  0  0  0  0  0  0  0
   28.4942    2.9949    0.0000 C   0  0  0  0  0  0  0  0  0  0  0  0
   28.6119    1.4995    0.0000 C   0  0  0  0  0  0  0  0  0  0  0  0
  1  2  1  0
  2  3  1  0
  3  4  1  0
  4  5  1  0
  5  6  1  0
  6  7  1  0
  7  8  1  0
  8  9  1  0
  9 10  1  0
 10 11  1  0
 11 12  1  0
 12 13  1  0
 13 14  1  0
 14 15  1  0
 15 16  1  0
 16 17  1  0
 17 18  1  0
 18 19  1  0
 19 20  1  0
 20 21  1  0
 21 22  1  0
 22 23  1  0
 23 24  1  0
 24 25  1  0
 25 26  1  0
 26 27  1  0
 27 28  1  0
 28 29  1  0
 29 30  1  0
 30 31  1  0
 31 32  1  0
 32 33  1  0
 33 34  1  0
 34 35  1  0
 35 36  1  0
 36 37  1  0
 37 38  1  0
 38 39  1  0
 39 40  1  0
 40 41  1  0
 41 42  1  0
 42 43  1  0
 43 44  1  0
 44 45  1  0
 45 46  1  0
 46 47  1  0
 47 48  1  0
 48 49  1  0
 49 50  1  0
 50 51  1  0
 51 52  1  0
 52 53  1  0
 53 54  1  0
 54 55  1  0
 55 56  1  0
 56 57  1  0
 57 58  1  0
 58 59  1  0
 59 60  1  0
 60 61  1  0
 61 62  1  0
 62 63  1  0
 63 64  1  0
 64 65  1  0
 65 66  1  0
 66 67  1  0
 67 68  1  0
 68 69  1  0
 69 70  1  0
 70 71  1  0
 71 72  1  0
 72 73  1  0
 73 74  1  0
 74 75  1  0
 75 76  1  0
 76 77  1  0
 77 78  1  0
 78 79  1  0
 79 80  1  0
 80 81  1  0
 81 82  1  0
 82 83  1  0
 83 84  1  0
 84 85  1  0
 85 86  1  0
 86 87  1  0
 87 88  1  0
 88 89  1  0
 89 90  1  0
 90 91  1  0
 91 92  1  0
 92 93  1  0
 93 94  1  0
 94 95  1  0
 95 96  1  0
 96 97  1  0
 97 98  1  0
 98 99  1  0
 99100  1  0
100101  1  0
101102  1  0
102103  1  0
103104  1  0
104105  1  0
105106  1  0
106107  1  0
107108  1  0
108109  1  0
109110  1  0
110111  1  0
111112  1  0
112113  1  0
113114  1  0
114115  1  0
115116  1  0
116117  1  0
117118  1  0
118119  1  0
119120  1  0
120121  1  0
121  2  1  0
M  END
>  <Title>  (847) 
idABEQgen8

$$$$

     RDKit          2D

  8  8  0  0  0  0  0  0  0  0999 V2000
    3.7500   -1.2990    0.0000 O   0  0  0  0  0  0  0  0  0  0  0  0
    3.0000    0.0000    0.0000 O   0  0  0  0  0  0  0  0  0  0  0  0
    1.5000    0.0000    0.0000 C   0  0  0  0  0  0  0  0  0  0  0  0
    0.7500   -1.2990    0.0000 C   0  0  0  0  0  0  0  0  0  0  0  0
   -0.7500   -1.2990    0.0000 C   0  0  0  0  0  0  0  0  0  0  0  0
   -1.5000    0.0000    0.0000 C   0  0  0  0  0  0  0  0  0  0  0  0
   -0.7500    1.2990    0.0000 C   0  0  0  0  0  0  0  0  0  0  0  0
    0.7500    1.2990    0.0000 C   0  0  0  0  0  0  0  0  0  0  0  0
  1  2  1  0
  2  3  1  0
  3  4  2  0
  4  5  1  0
  5  6  1  0
  6  7  1  0
  7  8  2  0
  8  3  1  0
M  END
>  <Title>  (848) 
idABERgen8

$$$$

     RDKit          2D

 94 94  0  0  0  0  0  0  0  0999 V2000
   23.7063    0.0000    0.0000 C   0  0  0  0  0  0  0  0  0  0  0  0
   22.2063    0.0000    0.0000 C   0  0  0  0  0  0  0  0  0  0  0  0
   22.1557    1.4991    0.0000 C   0  0  0  0  0  0  0  0  0  0  0  0
   22.0039    2.9914    0.0000 C   0  0  0  0  0  0  0  0  0  0  0  0
   21.7518    4.4701    0.0000 C   0  0  0  0  0  0  0  0  0  0  0  0
   21.4004    5.9284    0.0000 C   0  0  0  0  0  0  0  0  0  0  0  0
   20.9513    7.3596    0.0000 C   0  0  0  0  0  0  0  0  0  0  0  0
   20.4067    8.7572    0.0000 C   0  0  0  0  0  0  0  0  0  0  0  0
   19.7689   10.1149    0.0000 C   0  0  0  0  0  0  0  0  0  0  0  0
   19.0410   11.4264    0.0000 C   0  0  0  0  0  0  0  0  0  0  0  0
   18.2262   12.6858    0.0000 C   0  0  0  0  0  0  0  0  0  0  0  0
   17.3282   13.8873    0.0000 C   0  0  0  0  0  0  0  0  0  0  0  0
   16.3511   15.0254    0.0000 C   0  0  0  0  0  0  0  0  0  0  0  0
   15.2994   16.0950    0.0000 C   0  0  0  0  0  0  0  0  0  0  0  0
   14.1780   17.0911    0.0000 C   0  0  0  0  0  0  0  0  0  0  0  0
   12.9918   18.0093    0.0000 C   0  0  0  0  0  0  0  0  0  0  0  0
   11.7464   18.8453    0.0000 C   0  0  0  0  0  0  0  0  0  0  0  0
   10.4473   19.5953    0.0000 C   0  0  0  0  0  0  0  0  0  0  0  0
    9.1006   20.2559    0.0000 C   0  0  0  0  0  0  0  0  0  0  0  0
    7.7124   20.8240    0.0000 C   0  0  0  0  0  0  0  0  0  0  0  0
    6.2890   21.2972    0.0000 C   0  0  0  0  0  0  0  0  0  0  0  0
    4.8368   21.6732    0.0000 C   0  0  0  0  0  0  0  0  0  0  0  0
    3.3627   21.9503    0.0000 C   0  0  0  0  0  0  0  0  0  0  0  0
    1.8731   22.1272    0.0000 C   0  0  0  0  0  0  0  0  0  0  0  0
    0.3751   22.2032    0.0000 C   0  0  0  0  0  0  0  0  0  0  0  0
   -1.1247   22.1778    0.0000 C   0  0  0  0  0  0  0  0  0  0  0  0
   -2.6194   22.0513    0.0000 C   0  0  0  0  0  0  0  0  0  0  0  0
   -4.1021   21.8242    0.0000 C   0  0  0  0  0  0  0  0  0  0  0  0
   -5.5661   21.4974    0.0000 C   0  0  0  0  0  0  0  0  0  0  0  0
   -7.0047   21.0726    0.0000 C   0  0  0  0  0  0  0  0  0  0  0  0
   -8.4113   20.5517    0.0000 C   0  0  0  0  0  0  0  0  0  0  0  0
   -9.7795   19.9370    0.0000 C   0  0  0  0  0  0  0  0  0  0  0  0
  -11.1032   19.2313    0.0000 C   0  0  0  0  0  0  0  0  0  0  0  0
  -12.3761   18.4378    0.0000 C   0  0  0  0  0  0  0  0  0  0  0  0
  -13.5926   17.5602    0.0000 C   0  0  0  0  0  0  0  0  0  0  0  0
  -14.7471   16.6025    0.0000 C   0  0  0  0  0  0  0  0  0  0  0  0
  -15.8343   15.5691    0.0000 C   0  0  0  0  0  0  0  0  0  0  0  0
  -16.8492   14.4646    0.0000 C   0  0  0  0  0  0  0  0  0  0  0  0
  -17.7873   13.2941    0.0000 C   0  0  0  0  0  0  0  0  0  0  0  0
  -18.6442   12.0630    0.0000 C   0  0  0  0  0  0  0  0  0  0  0  0
  -19.4160   10.7768    0.0000 C   0  0  0  0  0  0  0  0  0  0  0  0
  -20.0993    9.4414    0.0000 C   0  0  0  0  0  0  0  0  0  0  0  0
  -20.6908    8.0630    0.0000 C   0  0  0  0  0  0  0  0  0  0  0  0
  -21.1879    6.6478    0.0000 C   0  0  0  0  0  0  0  0  0  0  0  0
  -21.5884    5.2022    0.0000 C   0  0  0  0  0  0  0  0  0  0  0  0
  -21.8903    3.7329    0.0000 C   0  0  0  0  0  0  0  0  0  0  0  0
  -22.0924    2.2466    0.0000 C   0  0  0  0  0  0  0  0  0  0  0  0
  -22.1937    0.7500    0.0000 C   0  0  0  0  0  0  0  0  0  0  0  0
  -22.1937   -0.7500    0.0000 C   0  0  0  0  0  0  0  0  0  0  0  0
  -22.0924   -2.2466    0.0000 C   0  0  0  0  0  0  0  0  0  0  0  0
  -21.8903   -3.7329    0.0000 C   0  0  0  0  0  0  0  0  0  0  0  0
  -21.5884   -5.2022    0.0000 C   0  0  0  0  0  0  0  0  0  0  0  0
  -21.1879   -6.6478    0.0000 C   0  0  0  0  0  0  0  0  0  0  0  0
  -20.6908   -8.0630    0.0000 C   0  0  0  0  0  0  0  0  0  0  0  0
  -20.0993   -9.4414    0.0000 C   0  0  0  0  0  0  0  0  0  0  0  0
  -19.4160  -10.7768    0.0000 C   0  0  0  0  0  0  0  0  0  0  0  0
  -18.6442  -12.0630    0.0000 C   0  0  0  0  0  0  0  0  0  0  0  0
  -17.7873  -13.2941    0.0000 C   0  0  0  0  0  0  0  0  0  0  0  0
  -16.8492  -14.4646    0.0000 C   0  0  0  0  0  0  0  0  0  0  0  0
  -15.8343  -15.5691    0.0000 C   0  0  0  0  0  0  0  0  0  0  0  0
  -14.7471  -16.6025    0.0000 C   0  0  0  0  0  0  0  0  0  0  0  0
  -13.5926  -17.5602    0.0000 C   0  0  0  0  0  0  0  0  0  0  0  0
  -12.3761  -18.4378    0.0000 C   0  0  0  0  0  0  0  0  0  0  0  0
  -11.1032  -19.2313    0.0000 C   0  0  0  0  0  0  0  0  0  0  0  0
   -9.7795  -19.9370    0.0000 C   0  0  0  0  0  0  0  0  0  0  0  0
   -8.4113  -20.5517    0.0000 C   0  0  0  0  0  0  0  0  0  0  0  0
   -7.0047  -21.0726    0.0000 C   0  0  0  0  0  0  0  0  0  0  0  0
   -5.5661  -21.4974    0.0000 C   0  0  0  0  0  0  0  0  0  0  0  0
   -4.1021  -21.8242    0.0000 C   0  0  0  0  0  0  0  0  0  0  0  0
   -2.6194  -22.0513    0.0000 C   0  0  0  0  0  0  0  0  0  0  0  0
   -1.1247  -22.1778    0.0000 C   0  0  0  0  0  0  0  0  0  0  0  0
    0.3751  -22.2032    0.0000 C   0  0  0  0  0  0  0  0  0  0  0  0
    1.8731  -22.1272    0.0000 C   0  0  0  0  0  0  0  0  0  0  0  0
    3.3627  -21.9503    0.0000 C   0  0  0  0  0  0  0  0  0  0  0  0
    4.8368  -21.6732    0.0000 C   0  0  0  0  0  0  0  0  0  0  0  0
    6.2890  -21.2972    0.0000 C   0  0  0  0  0  0  0  0  0  0  0  0
    7.7124  -20.8240    0.0000 C   0  0  0  0  0  0  0  0  0  0  0  0
    9.1006  -20.2559    0.0000 C   0  0  0  0  0  0  0  0  0  0  0  0
   10.4473  -19.5953    0.0000 C   0  0  0  0  0  0  0  0  0  0  0  0
   11.7464  -18.8453    0.0000 C   0  0  0  0  0  0  0  0  0  0  0  0
   12.9918  -18.0093    0.0000 C   0  0  0  0  0  0  0  0  0  0  0  0
   14.1780  -17.0911    0.0000 C   0  0  0  0  0  0  0  0  0  0  0  0
   15.2994  -16.0950    0.0000 C   0  0  0  0  0  0  0  0  0  0  0  0
   16.3511  -15.0254    0.0000 C   0  0  0  0  0  0  0  0  0  0  0  0
   17.3282  -13.8873    0.0000 C   0  0  0  0  0  0  0  0  0  0  0  0
   18.2262  -12.6858    0.0000 C   0  0  0  0  0  0  0  0  0  0  0  0
   19.0410  -11.4264    0.0000 C   0  0  0  0  0  0  0  0  0  0  0  0
   19.7689  -10.1149    0.0000 C   0  0  0  0  0  0  0  0  0  0  0  0
   20.4067   -8.7572    0.0000 N   0  0  0  0  0  0  0  0  0  0  0  0
   20.9513   -7.3596    0.0000 C   0  0  0  0  0  0  0  0  0  0  0  0
   21.4004   -5.9284    0.0000 C   0  0  0  0  0  0  0  0  0  0  0  0
   21.7518   -4.4701    0.0000 C   0  0  0  0  0  0  0  0  0  0  0  0
   22.0039   -2.9914    0.0000 C   0  0  0  0  0  0  0  0  0  0  0  0
   22.1557   -1.4991    0.0000 C   0  0  0  0  0  0  0  0  0  0  0  0
  1  2  1  0
  2  3  1  0
  3  4  1  0
  4  5  1  0
  5  6  1  0
  6  7  1  0
  7  8  1  0
  8  9  1  0
  9 10  1  0
 10 11  1  0
 11 12  1  0
 12 13  1  0
 13 14  1  0
 14 15  1  0
 15 16  1  0
 16 17  1  0
 17 18  1  0
 18 19  1  0
 19 20  1  0
 20 21  1  0
 21 22  1  0
 22 23  1  0
 23 24  1  0
 24 25  1  0
 25 26  1  0
 26 27  1  0
 27 28  1  0
 28 29  1  0
 29 30  1  0
 30 31  1  0
 31 32  1  0
 32 33  1  0
 33 34  1  0
 34 35  1  0
 35 36  1  0
 36 37  1  0
 37 38  1  0
 38 39  1  0
 39 40  1  0
 40 41  1  0
 41 42  1  0
 42 43  1  0
 43 44  1  0
 44 45  1  0
 45 46  1  0
 46 47  1  0
 47 48  1  0
 48 49  1  0
 49 50  1  0
 50 51  1  0
 51 52  1  0
 52 53  1  0
 53 54  1  0
 54 55  1  0
 55 56  1  0
 56 57  1  0
 57 58  1  0
 58 59  1  0
 59 60  1  0
 60 61  1  0
 61 62  1  0
 62 63  1  0
 63 64  1  0
 64 65  1  0
 65 66  1  0
 66 67  1  0
 67 68  1  0
 68 69  1  0
 69 70  1  0
 70 71  1  0
 71 72  1  0
 72 73  1  0
 73 74  1  0
 74 75  1  0
 75 76  1  0
 76 77  1  0
 77 78  1  0
 78 79  1  0
 79 80  1  0
 80 81  1  0
 81 82  1  0
 82 83  1  0
 83 84  1  0
 84 85  1  0
 85 86  1  0
 86 87  1  0
 87 88  1  0
 88 89  1  0
 89 90  1  0
 90 91  1  0
 91 92  1  0
 92 93  1  0
 93 94  1  0
 94  2  1  0
M  END
>  <Title>  (849) 
idABESgen8

$$$$

     RDKit          2D

  7  7  0  0  0  0  0  0  0  0999 V2000
    3.0000    0.0000    0.0000 C   0  0  0  0  0  0  0  0  0  0  0  0
    1.5000    0.0000    0.0000 C   0  0  0  0  0  0  0  0  0  0  0  0
    0.7500   -1.2990    0.0000 C   0  0  0  0  0  0  0  0  0  0  0  0
   -0.7500   -1.2990    0.0000 C   0  0  0  0  0  0  0  0  0  0  0  0
   -1.5000    0.0000    0.0000 C   0  0  0  0  0  0  0  0  0  0  0  0
   -0.7500    1.2990    0.0000 C   0  0  0  0  0  0  0  0  0  0  0  0
    0.7500    1.2990    0.0000 C   0  0  0  0  0  0  0  0  0  0  0  0
  1  2  1  0
  2  3  1  0
  3  4  1  0
  4  5  2  0
  5  6  1  0
  6  7  1  0
  7  2  1  0
M  END
>  <Title>  (850) 
idABETgen8

$$$$

     RDKit          2D

 85 85  0  0  0  0  0  0  0  0999 V2000
   20.2969    0.0000    0.0000 C   0  0  0  0  0  0  0  0  0  0  0  0
   20.2414    1.4990    0.0000 C   0  0  0  0  0  0  0  0  0  0  0  0
   20.0755    2.9898    0.0000 C   0  0  0  0  0  0  0  0  0  0  0  0
   19.7998    4.4642    0.0000 C   0  0  0  0  0  0  0  0  0  0  0  0
   19.4161    5.9143    0.0000 C   0  0  0  0  0  0  0  0  0  0  0  0
   18.9263    7.3321    0.0000 C   0  0  0  0  0  0  0  0  0  0  0  0
   18.3331    8.7098    0.0000 C   0  0  0  0  0  0  0  0  0  0  0  0
   17.6398   10.0400    0.0000 C   0  0  0  0  0  0  0  0  0  0  0  0
   16.8501   11.3153    0.0000 C   0  0  0  0  0  0  0  0  0  0  0  0
   15.9685   12.5288    0.0000 C   0  0  0  0  0  0  0  0  0  0  0  0
   14.9996   13.6739    0.0000 C   0  0  0  0  0  0  0  0  0  0  0  0
   13.9488   14.7443    0.0000 C   0  0  0  0  0  0  0  0  0  0  0  0
   12.8218   15.7342    0.0000 C   0  0  0  0  0  0  0  0  0  0  0  0
   11.6247   16.6382    0.0000 C   0  0  0  0  0  0  0  0  0  0  0  0
   10.3642   17.4513    0.0000 C   0  0  0  0  0  0  0  0  0  0  0  0
    9.0471   18.1690    0.0000 C   0  0  0  0  0  0  0  0  0  0  0  0
    7.6806   18.7876    0.0000 C   0  0  0  0  0  0  0  0  0  0  0  0
    6.2721   19.3035    0.0000 C   0  0  0  0  0  0  0  0  0  0  0  0
    4.8293   19.7140    0.0000 C   0  0  0  0  0  0  0  0  0  0  0  0
    3.3602   20.0168    0.0000 C   0  0  0  0  0  0  0  0  0  0  0  0
    1.8728   20.2103    0.0000 C   0  0  0  0  0  0  0  0  0  0  0  0
    0.3751   20.2934    0.0000 C   0  0  0  0  0  0  0  0  0  0  0  0
   -1.1247   20.2657    0.0000 C   0  0  0  0  0  0  0  0  0  0  0  0
   -2.6183   20.1273    0.0000 C   0  0  0  0  0  0  0  0  0  0  0  0
   -4.0976   19.8790    0.0000 C   0  0  0  0  0  0  0  0  0  0  0  0
   -5.5545   19.5221    0.0000 C   0  0  0  0  0  0  0  0  0  0  0  0
   -6.9811   19.0585    0.0000 C   0  0  0  0  0  0  0  0  0  0  0  0
   -8.3695   18.4909    0.0000 C   0  0  0  0  0  0  0  0  0  0  0  0
   -9.7123   17.8223    0.0000 C   0  0  0  0  0  0  0  0  0  0  0  0
  -11.0020   17.0564    0.0000 C   0  0  0  0  0  0  0  0  0  0  0  0
  -12.2316   16.1973    0.0000 C   0  0  0  0  0  0  0  0  0  0  0  0
  -13.3944   15.2497    0.0000 C   0  0  0  0  0  0  0  0  0  0  0  0
  -14.4841   14.2188    0.0000 C   0  0  0  0  0  0  0  0  0  0  0  0
  -15.4946   13.1103    0.0000 C   0  0  0  0  0  0  0  0  0  0  0  0
  -16.4205   11.9302    0.0000 C   0  0  0  0  0  0  0  0  0  0  0  0
  -17.2568   10.6849    0.0000 C   0  0  0  0  0  0  0  0  0  0  0  0
  -17.9987    9.3813    0.0000 C   0  0  0  0  0  0  0  0  0  0  0  0
  -18.6424    8.0264    0.0000 C   0  0  0  0  0  0  0  0  0  0  0  0
  -19.1843    6.6277    0.0000 C   0  0  0  0  0  0  0  0  0  0  0  0
  -19.6214    5.1928    0.0000 C   0  0  0  0  0  0  0  0  0  0  0  0
  -19.9513    3.7295    0.0000 C   0  0  0  0  0  0  0  0  0  0  0  0
  -20.1722    2.2459    0.0000 C   0  0  0  0  0  0  0  0  0  0  0  0
  -20.2830    0.7500    0.0000 C   0  0  0  0  0  0  0  0  0  0  0  0
  -20.2830   -0.7500    0.0000 C   0  0  0  0  0  0  0  0  0  0  0  0
  -20.1722   -2.2459    0.0000 C   0  0  0  0  0  0  0  0  0  0  0  0
  -19.9513   -3.7295    0.0000 C   0  0  0  0  0  0  0  0  0  0  0  0
  -19.6214   -5.1928    0.0000 C   0  0  0  0  0  0  0  0  0  0  0  0
  -19.1843   -6.6277    0.0000 C   0  0  0  0  0  0  0  0  0  0  0  0
  -18.6424   -8.0264    0.0000 C   0  0  0  0  0  0  0  0  0  0  0  0
  -17.9987   -9.3813    0.0000 C   0  0  0  0  0  0  0  0  0  0  0  0
  -17.2568  -10.6849    0.0000 C   0  0  0  0  0  0  0  0  0  0  0  0
  -16.4205  -11.9302    0.0000 C   0  0  0  0  0  0  0  0  0  0  0  0
  -15.4946  -13.1103    0.0000 C   0  0  0  0  0  0  0  0  0  0  0  0
  -14.4841  -14.2188    0.0000 C   0  0  0  0  0  0  0  0  0  0  0  0
  -13.3944  -15.2497    0.0000 C   0  0  0  0  0  0  0  0  0  0  0  0
  -12.2316  -16.1973    0.0000 C   0  0  0  0  0  0  0  0  0  0  0  0
  -11.0020  -17.0564    0.0000 C   0  0  0  0  0  0  0  0  0  0  0  0
   -9.7123  -17.8223    0.0000 C   0  0  0  0  0  0  0  0  0  0  0  0
   -8.3695  -18.4909    0.0000 C   0  0  0  0  0  0  0  0  0  0  0  0
   -6.9811  -19.0585    0.0000 C   0  0  0  0  0  0  0  0  0  0  0  0
   -5.5545  -19.5221    0.0000 C   0  0  0  0  0  0  0  0  0  0  0  0
   -4.0976  -19.8790    0.0000 C   0  0  0  0  0  0  0  0  0  0  0  0
   -2.6183  -20.1273    0.0000 C   0  0  0  0  0  0  0  0  0  0  0  0
   -1.1247  -20.2657    0.0000 C   0  0  0  0  0  0  0  0  0  0  0  0
    0.3751  -20.2934    0.0000 C   0  0  0  0  0  0  0  0  0  0  0  0
    1.8728  -20.2103    0.0000 C   0  0  0  0  0  0  0  0  0  0  0  0
    3.3602  -20.0168    0.0000 C   0  0  0  0  0  0  0  0  0  0  0  0
    4.8293  -19.7140    0.0000 C   0  0  0  0  0  0  0  0  0  0  0  0
    6.2721  -19.3035    0.0000 C   0  0  0  0  0  0  0  0  0  0  0  0
    7.6806  -18.7876    0.0000 C   0  0  0  0  0  0  0  0  0  0  0  0
    9.0471  -18.1690    0.0000 C   0  0  0  0  0  0  0  0  0  0  0  0
   10.3642  -17.4513    0.0000 C   0  0  0  0  0  0  0  0  0  0  0  0
   11.6247  -16.6382    0.0000 C   0  0  0  0  0  0  0  0  0  0  0  0
   12.8218  -15.7342    0.0000 C   0  0  0  0  0  0  0  0  0  0  0  0
   13.9488  -14.7443    0.0000 C   0  0  0  0  0  0  0  0  0  0  0  0
   14.9996  -13.6739    0.0000 C   0  0  0  0  0  0  0  0  0  0  0  0
   15.9685  -12.5288    0.0000 C   0  0  0  0  0  0  0  0  0  0  0  0
   16.8501  -11.3153    0.0000 C   0  0  0  0  0  0  0  0  0  0  0  0
   17.6398  -10.0400    0.0000 C   0  0  0  0  0  0  0  0  0  0  0  0
   18.3331   -8.7098    0.0000 C   0  0  0  0  0  0  0  0  0  0  0  0
   18.9263   -7.3321    0.0000 C   0  0  0  0  0  0  0  0  0  0  0  0
   19.4161   -5.9143    0.0000 C   0  0  0  0  0  0  0  0  0  0  0  0
   19.7998   -4.4642    0.0000 C   0  0  0  0  0  0  0  0  0  0  0  0
   20.0755   -2.9898    0.0000 C   0  0  0  0  0  0  0  0  0  0  0  0
   20.2414   -1.4990    0.0000 C   0  0  0  0  0  0  0  0  0  0  0  0
  1  2  2  0
  2  3  1  0
  3  4  2  0
  4  5  1  0
  5  6  1  0
  6  7  1  0
  7  8  1  0
  8  9  1  0
  9 10  1  0
 10 11  1  0
 11 12  1  0
 12 13  1  0
 13 14  1  0
 14 15  1  0
 15 16  1  0
 16 17  1  0
 17 18  1  0
 18 19  1  0
 19 20  1  0
 20 21  1  0
 21 22  1  0
 22 23  1  0
 23 24  1  0
 24 25  1  0
 25 26  1  0
 26 27  1  0
 27 28  1  0
 28 29  1  0
 29 30  1  0
 30 31  1  0
 31 32  1  0
 32 33  1  0
 33 34  1  0
 34 35  1  0
 35 36  1  0
 36 37  1  0
 37 38  1  0
 38 39  1  0
 39 40  1  0
 40 41  1  0
 41 42  1  0
 42 43  1  0
 43 44  1  0
 44 45  1  0
 45 46  1  0
 46 47  1  0
 47 48  1  0
 48 49  1  0
 49 50  1  0
 50 51  1  0
 51 52  1  0
 52 53  1  0
 53 54  1  0
 54 55  1  0
 55 56  1  0
 56 57  1  0
 57 58  1  0
 58 59  1  0
 59 60  1  0
 60 61  1  0
 61 62  1  0
 62 63  1  0
 63 64  1  0
 64 65  1  0
 65 66  1  0
 66 67  1  0
 67 68  1  0
 68 69  1  0
 69 70  1  0
 70 71  1  0
 71 72  1  0
 72 73  1  0
 73 74  1  0
 74 75  1  0
 75 76  1  0
 76 77  1  0
 77 78  1  0
 78 79  1  0
 79 80  1  0
 80 81  1  0
 81 82  1  0
 82 83  1  0
 83 84  1  0
 84 85  2  0
 85  1  1  0
M  END
>  <Title>  (851) 
idABEUgen8

$$$$

     RDKit          2D

 10 10  0  0  0  0  0  0  0  0999 V2000
    4.5000    0.0000    0.0000 N   0  0  0  0  0  0  0  0  0  0  0  0
    3.0000    0.0000    0.0000 C   0  0  0  0  0  0  0  0  0  0  0  0
    1.5000    0.0000    0.0000 C   0  0  0  0  0  0  0  0  0  0  0  0
    0.7500   -1.2990    0.0000 C   0  0  0  0  0  0  0  0  0  0  0  0
   -0.7500   -1.2990    0.0000 C   0  0  0  0  0  0  0  0  0  0  0  0
   -1.5000    0.0000    0.0000 C   0  0  0  0  0  0  0  0  0  0  0  0
   -0.7500    1.2990    0.0000 C   0  0  0  0  0  0  0  0  0  0  0  0
   -1.5000    2.5981    0.0000 C   0  0  0  0  0  0  0  0  0  0  0  0
   -2.2500    3.8971    0.0000 N   0  0  0  0  0  0  0  0  0  0  0  0
    0.7500    1.2990    0.0000 C   0  0  0  0  0  0  0  0  0  0  0  0
  1  2  3  0
  2  3  1  0
  3  4  2  0
  4  5  1  0
  5  6  1  0
  6  7  1  0
  7  8  1  0
  8  9  3  0
  7 10  2  0
 10  3  1  0
M  END
>  <Title>  (852) 
idABEVgen8

$$$$

     RDKit          2D

  8  8  0  0  0  0  0  0  0  0999 V2000
    3.0000    0.0000    0.0000 C   0  0  0  0  0  0  0  0  0  0  0  0
    1.5000    0.0000    0.0000 C   0  0  0  0  0  0  0  0  0  0  0  0
    0.7500   -1.2990    0.0000 C   0  0  0  0  0  0  0  0  0  0  0  0
   -0.7500   -1.2990    0.0000 C   0  0  0  0  0  0  0  0  0  0  0  0
   -1.5000    0.0000    0.0000 C   0  0  0  0  0  0  0  0  0  0  0  0
   -3.0000    0.0000    0.0000 C   0  0  0  0  0  0  0  0  0  0  0  0
   -0.7500    1.2990    0.0000 C   0  0  0  0  0  0  0  0  0  0  0  0
    0.7500    1.2990    0.0000 C   0  0  0  0  0  0  0  0  0  0  0  0
  1  2  1  0
  2  3  1  0
  3  4  2  0
  4  5  1  0
  5  6  1  0
  5  7  1  0
  7  8  1  0
  8  2  1  0
M  END
>  <Title>  (853) 
idABEWgen8

$$$$

     RDKit          2D

 17 18  0  0  0  0  0  0  0  0999 V2000
    3.0000    0.0000    0.0000 C   0  0  0  0  0  0  0  0  0  0  0  0
    1.5000    0.0000    0.0000 C   0  0  0  0  0  0  0  0  0  0  0  0
    0.7500   -1.2990    0.0000 C   0  0  0  0  0  0  0  0  0  0  0  0
   -0.7500   -1.2990    0.0000 C   0  0  0  0  0  0  0  0  0  0  0  0
   -1.5000    0.0000    0.0000 C   0  0  0  0  0  0  0  0  0  0  0  0
   -0.7500    1.2990    0.0000 C   0  0  0  0  0  0  0  0  0  0  0  0
   -1.5000    2.5981    0.0000 C   0  0  0  0  0  0  0  0  0  0  0  0
   -3.0000    2.5981    0.0000 O   0  0  0  0  0  0  0  0  0  0  0  0
   -0.7500    3.8971    0.0000 N   0  0  0  0  0  0  0  0  0  0  0  0
   -1.5000    5.1962    0.0000 C   0  0  0  0  0  0  0  0  0  0  0  0
   -0.7500    6.4952    0.0000 N   0  0  0  0  0  0  0  0  0  0  0  0
   -1.5000    7.7942    0.0000 N   0  0  0  0  0  0  0  0  0  0  0  0
   -3.0000    7.7942    0.0000 N   0  0  0  0  0  0  0  0  0  0  0  0
   -3.7500    6.4952    0.0000 N   0  0  0  0  0  0  0  0  0  0  0  0
   -3.0000    5.1962    0.0000 N   0  0  0  0  0  0  0  0  0  0  0  0
    0.7500    1.2990    0.0000 C   0  0  0  0  0  0  0  0  0  0  0  0
    1.5000    2.5981    0.0000 O   0  0  0  0  0  0  0  0  0  0  0  0
  1  2  1  0
  2  3  2  0
  3  4  1  0
  4  5  1  0
  5  6  1  0
  6  7  1  0
  7  8  2  0
  7  9  1  0
  9 10  1  0
 10 11  2  0
 11 12  1  0
 12 13  2  0
 13 14  1  0
 14 15  2  0
  6 16  1  0
 16 17  2  0
 16  2  1  0
 15 10  1  0
M  END
>  <Title>  (854) 
idABEXgen8

$$$$

     RDKit          2D

 75 75  0  0  0  0  0  0  0  0999 V2000
   19.1715    0.0000    0.0000 C   0  0  0  0  0  0  0  0  0  0  0  0
   17.6715    0.0000    0.0000 C   0  0  0  0  0  0  0  0  0  0  0  0
   17.6078   -1.4986    0.0000 C   0  0  0  0  0  0  0  0  0  0  0  0
   17.4173   -2.9865    0.0000 C   0  0  0  0  0  0  0  0  0  0  0  0
   17.1013   -4.4528    0.0000 C   0  0  0  0  0  0  0  0  0  0  0  0
   16.6621   -5.8871    0.0000 C   0  0  0  0  0  0  0  0  0  0  0  0
   16.1028   -7.2789    0.0000 C   0  0  0  0  0  0  0  0  0  0  0  0
   15.4275   -8.6183    0.0000 C   0  0  0  0  0  0  0  0  0  0  0  0
   14.6410   -9.8956    0.0000 C   0  0  0  0  0  0  0  0  0  0  0  0
   13.7491  -11.1016    0.0000 C   0  0  0  0  0  0  0  0  0  0  0  0
   12.7581  -12.2276    0.0000 C   0  0  0  0  0  0  0  0  0  0  0  0
   11.6751  -13.2655    0.0000 C   0  0  0  0  0  0  0  0  0  0  0  0
   10.5081  -14.2078    0.0000 C   0  0  0  0  0  0  0  0  0  0  0  0
    9.2653  -15.0478    0.0000 C   0  0  0  0  0  0  0  0  0  0  0  0
    7.9558  -15.7793    0.0000 C   0  0  0  0  0  0  0  0  0  0  0  0
    6.5889  -16.3972    0.0000 C   0  0  0  0  0  0  0  0  0  0  0  0
    5.1746  -16.8969    0.0000 C   0  0  0  0  0  0  0  0  0  0  0  0
    3.7230  -17.2749    0.0000 C   0  0  0  0  0  0  0  0  0  0  0  0
    2.2446  -17.5284    0.0000 C   0  0  0  0  0  0  0  0  0  0  0  0
    0.7500  -17.6556    0.0000 C   0  0  0  0  0  0  0  0  0  0  0  0
   -0.7500  -17.6556    0.0000 C   0  0  0  0  0  0  0  0  0  0  0  0
   -2.2446  -17.5284    0.0000 C   0  0  0  0  0  0  0  0  0  0  0  0
   -3.7230  -17.2749    0.0000 C   0  0  0  0  0  0  0  0  0  0  0  0
   -5.1746  -16.8969    0.0000 C   0  0  0  0  0  0  0  0  0  0  0  0
   -6.5889  -16.3972    0.0000 C   0  0  0  0  0  0  0  0  0  0  0  0
   -7.9558  -15.7793    0.0000 C   0  0  0  0  0  0  0  0  0  0  0  0
   -9.2653  -15.0478    0.0000 C   0  0  0  0  0  0  0  0  0  0  0  0
  -10.5081  -14.2078    0.0000 C   0  0  0  0  0  0  0  0  0  0  0  0
  -11.6751  -13.2655    0.0000 C   0  0  0  0  0  0  0  0  0  0  0  0
  -12.7581  -12.2276    0.0000 C   0  0  0  0  0  0  0  0  0  0  0  0
  -13.7491  -11.1016    0.0000 C   0  0  0  0  0  0  0  0  0  0  0  0
  -14.6410   -9.8956    0.0000 C   0  0  0  0  0  0  0  0  0  0  0  0
  -15.4275   -8.6183    0.0000 C   0  0  0  0  0  0  0  0  0  0  0  0
  -16.1028   -7.2789    0.0000 C   0  0  0  0  0  0  0  0  0  0  0  0
  -16.6621   -5.8871    0.0000 C   0  0  0  0  0  0  0  0  0  0  0  0
  -17.1013   -4.4528    0.0000 C   0  0  0  0  0  0  0  0  0  0  0  0
  -17.4173   -2.9865    0.0000 C   0  0  0  0  0  0  0  0  0  0  0  0
  -17.6078   -1.4986    0.0000 C   0  0  0  0  0  0  0  0  0  0  0  0
  -17.6715    0.0000    0.0000 C   0  0  0  0  0  0  0  0  0  0  0  0
  -17.6078    1.4986    0.0000 C   0  0  0  0  0  0  0  0  0  0  0  0
  -17.4173    2.9865    0.0000 C   0  0  0  0  0  0  0  0  0  0  0  0
  -17.1013    4.4528    0.0000 C   0  0  0  0  0  0  0  0  0  0  0  0
  -16.6621    5.8871    0.0000 C   0  0  0  0  0  0  0  0  0  0  0  0
  -16.1028    7.2789    0.0000 C   0  0  0  0  0  0  0  0  0  0  0  0
  -15.4275    8.6183    0.0000 C   0  0  0  0  0  0  0  0  0  0  0  0
  -14.6410    9.8956    0.0000 C   0  0  0  0  0  0  0  0  0  0  0  0
  -13.7491   11.1016    0.0000 C   0  0  0  0  0  0  0  0  0  0  0  0
  -12.7581   12.2276    0.0000 C   0  0  0  0  0  0  0  0  0  0  0  0
  -11.6751   13.2655    0.0000 C   0  0  0  0  0  0  0  0  0  0  0  0
  -10.5081   14.2078    0.0000 C   0  0  0  0  0  0  0  0  0  0  0  0
   -9.2653   15.0478    0.0000 C   0  0  0  0  0  0  0  0  0  0  0  0
   -7.9558   15.7793    0.0000 C   0  0  0  0  0  0  0  0  0  0  0  0
   -6.5889   16.3972    0.0000 C   0  0  0  0  0  0  0  0  0  0  0  0
   -5.1746   16.8969    0.0000 C   0  0  0  0  0  0  0  0  0  0  0  0
   -3.7230   17.2749    0.0000 C   0  0  0  0  0  0  0  0  0  0  0  0
   -2.2446   17.5284    0.0000 C   0  0  0  0  0  0  0  0  0  0  0  0
   -0.7500   17.6556    0.0000 C   0  0  0  0  0  0  0  0  0  0  0  0
    0.7500   17.6556    0.0000 C   0  0  0  0  0  0  0  0  0  0  0  0
    2.2446   17.5284    0.0000 C   0  0  0  0  0  0  0  0  0  0  0  0
    3.7230   17.2749    0.0000 C   0  0  0  0  0  0  0  0  0  0  0  0
    5.1746   16.8969    0.0000 C   0  0  0  0  0  0  0  0  0  0  0  0
    6.5889   16.3972    0.0000 C   0  0  0  0  0  0  0  0  0  0  0  0
    7.9558   15.7793    0.0000 C   0  0  0  0  0  0  0  0  0  0  0  0
    9.2653   15.0478    0.0000 C   0  0  0  0  0  0  0  0  0  0  0  0
   10.5081   14.2078    0.0000 C   0  0  0  0  0  0  0  0  0  0  0  0
   11.6751   13.2655    0.0000 C   0  0  0  0  0  0  0  0  0  0  0  0
   12.7581   12.2276    0.0000 C   0  0  0  0  0  0  0  0  0  0  0  0
   13.7491   11.1016    0.0000 C   0  0  0  0  0  0  0  0  0  0  0  0
   14.6410    9.8956    0.0000 C   0  0  0  0  0  0  0  0  0  0  0  0
   15.4275    8.6183    0.0000 C   0  0  0  0  0  0  0  0  0  0  0  0
   16.1028    7.2789    0.0000 C   0  0  0  0  0  0  0  0  0  0  0  0
   16.6621    5.8871    0.0000 C   0  0  0  0  0  0  0  0  0  0  0  0
   17.1013    4.4528    0.0000 C   0  0  0  0  0  0  0  0  0  0  0  0
   17.4173    2.9865    0.0000 C   0  0  0  0  0  0  0  0  0  0  0  0
   17.6078    1.4986    0.0000 C   0  0  0  0  0  0  0  0  0  0  0  0
  1  2  1  0
  2  3  1  0
  3  4  2  0
  4  5  1  0
  5  6  2  0
  6  7  1  0
  7  8  2  0
  8  9  1  0
  9 10  2  0
 10 11  1  0
 11 12  2  0
 12 13  1  0
 13 14  2  0
 14 15  1  0
 15 16  2  0
 16 17  1  0
 17 18  2  0
 18 19  1  0
 19 20  2  0
 20 21  1  0
 21 22  2  0
 22 23  1  0
 23 24  2  0
 24 25  1  0
 25 26  2  0
 26 27  1  0
 27 28  2  0
 28 29  1  0
 29 30  2  0
 30 31  1  0
 31 32  2  0
 32 33  1  0
 33 34  2  0
 34 35  1  0
 35 36  2  0
 36 37  1  0
 37 38  2  0
 38 39  1  0
 39 40  2  0
 40 41  1  0
 41 42  2  0
 42 43  1  0
 43 44  1  0
 44 45  1  0
 45 46  1  0
 46 47  1  0
 47 48  1  0
 48 49  1  0
 49 50  1  0
 50 51  1  0
 51 52  1  0
 52 53  1  0
 53 54  1  0
 54 55  1  0
 55 56  1  0
 56 57  1  0
 57 58  1  0
 58 59  1  0
 59 60  1  0
 60 61  1  0
 61 62  1  0
 62 63  1  0
 63 64  1  0
 64 65  1  0
 65 66  1  0
 66 67  1  0
 67 68  1  0
 68 69  1  0
 69 70  1  0
 70 71  1  0
 71 72  1  0
 72 73  1  0
 73 74  1  0
 74 75  1  0
 75  2  1  0
M  END
>  <Title>  (855) 
idABEYgen8

$$$$

     RDKit          2D

 96 97  0  0  0  0  0  0  0  0999 V2000
   22.9903   -0.0000    0.0000 C   0  0  0  0  0  0  0  0  0  0  0  0
   21.4903    0.0000    0.0000 C   0  0  0  0  0  0  0  0  0  0  0  0
   21.4379   -1.4991    0.0000 C   0  0  0  0  0  0  0  0  0  0  0  0
   21.2811   -2.9909    0.0000 C   0  0  0  0  0  0  0  0  0  0  0  0
   21.0207   -4.4681    0.0000 C   0  0  0  0  0  0  0  0  0  0  0  0
   20.6578   -5.9235    0.0000 C   0  0  0  0  0  0  0  0  0  0  0  0
   20.1943   -7.3501    0.0000 C   0  0  0  0  0  0  0  0  0  0  0  0
   19.6323   -8.7409    0.0000 C   0  0  0  0  0  0  0  0  0  0  0  0
   18.9748  -10.0891    0.0000 C   0  0  0  0  0  0  0  0  0  0  0  0
   18.2248  -11.3881    0.0000 C   0  0  0  0  0  0  0  0  0  0  0  0
   17.3860  -12.6317    0.0000 C   0  0  0  0  0  0  0  0  0  0  0  0
   16.4625  -13.8137    0.0000 C   0  0  0  0  0  0  0  0  0  0  0  0
   15.4588  -14.9284    0.0000 C   0  0  0  0  0  0  0  0  0  0  0  0
   14.3798  -15.9704    0.0000 C   0  0  0  0  0  0  0  0  0  0  0  0
   13.2307  -16.9346    0.0000 C   0  0  0  0  0  0  0  0  0  0  0  0
   12.0172  -17.8163    0.0000 C   0  0  0  0  0  0  0  0  0  0  0  0
   10.7451  -18.6111    0.0000 C   0  0  0  0  0  0  0  0  0  0  0  0
    9.4207  -19.3153    0.0000 C   0  0  0  0  0  0  0  0  0  0  0  0
    8.0504  -19.9254    0.0000 C   0  0  0  0  0  0  0  0  0  0  0  0
    6.6409  -20.4385    0.0000 C   0  0  0  0  0  0  0  0  0  0  0  0
    5.1990  -20.8519    0.0000 C   0  0  0  0  0  0  0  0  0  0  0  0
    3.7317  -21.1638    0.0000 C   0  0  0  0  0  0  0  0  0  0  0  0
    2.2463  -21.3726    0.0000 C   0  0  0  0  0  0  0  0  0  0  0  0
    0.7500  -21.4772    0.0000 C   0  0  0  0  0  0  0  0  0  0  0  0
   -0.7500  -21.4772    0.0000 C   0  0  0  0  0  0  0  0  0  0  0  0
   -2.2463  -21.3726    0.0000 C   0  0  0  0  0  0  0  0  0  0  0  0
   -3.7317  -21.1638    0.0000 C   0  0  0  0  0  0  0  0  0  0  0  0
   -5.1990  -20.8519    0.0000 C   0  0  0  0  0  0  0  0  0  0  0  0
   -6.6409  -20.4385    0.0000 C   0  0  0  0  0  0  0  0  0  0  0  0
   -8.0504  -19.9254    0.0000 C   0  0  0  0  0  0  0  0  0  0  0  0
   -9.4207  -19.3153    0.0000 C   0  0  0  0  0  0  0  0  0  0  0  0
  -10.7451  -18.6111    0.0000 C   0  0  0  0  0  0  0  0  0  0  0  0
  -12.0172  -17.8163    0.0000 C   0  0  0  0  0  0  0  0  0  0  0  0
  -13.2307  -16.9346    0.0000 C   0  0  0  0  0  0  0  0  0  0  0  0
  -14.3798  -15.9704    0.0000 C   0  0  0  0  0  0  0  0  0  0  0  0
  -15.4588  -14.9284    0.0000 C   0  0  0  0  0  0  0  0  0  0  0  0
  -16.4625  -13.8137    0.0000 C   0  0  0  0  0  0  0  0  0  0  0  0
  -17.3860  -12.6317    0.0000 C   0  0  0  0  0  0  0  0  0  0  0  0
  -18.2248  -11.3881    0.0000 C   0  0  0  0  0  0  0  0  0  0  0  0
  -18.9748  -10.0891    0.0000 C   0  0  0  0  0  0  0  0  0  0  0  0
  -19.6323   -8.7409    0.0000 C   0  0  0  0  0  0  0  0  0  0  0  0
  -20.1943   -7.3501    0.0000 C   0  0  0  0  0  0  0  0  0  0  0  0
  -20.6578   -5.9235    0.0000 C   0  0  0  0  0  0  0  0  0  0  0  0
  -21.0207   -4.4681    0.0000 C   0  0  0  0  0  0  0  0  0  0  0  0
  -21.2811   -2.9909    0.0000 C   0  0  0  0  0  0  0  0  0  0  0  0
  -21.4379   -1.4991    0.0000 C   0  0  0  0  0  0  0  0  0  0  0  0
  -21.4903    0.0000    0.0000 C   0  0  0  0  0  0  0  0  0  0  0  0
  -21.4379    1.4991    0.0000 C   0  0  0  0  0  0  0  0  0  0  0  0
  -21.2811    2.9909    0.0000 C   0  0  0  0  0  0  0  0  0  0  0  0
  -21.0207    4.4681    0.0000 C   0  0  0  0  0  0  0  0  0  0  0  0
  -20.6578    5.9235    0.0000 C   0  0  0  0  0  0  0  0  0  0  0  0
  -20.1943    7.3501    0.0000 C   0  0  0  0  0  0  0  0  0  0  0  0
  -19.6323    8.7409    0.0000 C   0  0  0  0  0  0  0  0  0  0  0  0
  -18.9748   10.0891    0.0000 C   0  0  0  0  0  0  0  0  0  0  0  0
  -18.2248   11.3881    0.0000 C   0  0  0  0  0  0  0  0  0  0  0  0
  -17.3860   12.6317    0.0000 C   0  0  0  0  0  0  0  0  0  0  0  0
  -16.4625   13.8137    0.0000 C   0  0  0  0  0  0  0  0  0  0  0  0
  -15.4588   14.9284    0.0000 C   0  0  0  0  0  0  0  0  0  0  0  0
  -14.3798   15.9704    0.0000 C   0  0  0  0  0  0  0  0  0  0  0  0
  -13.2307   16.9346    0.0000 C   0  0  0  0  0  0  0  0  0  0  0  0
  -12.0172   17.8163    0.0000 C   0  0  0  0  0  0  0  0  0  0  0  0
  -10.7451   18.6111    0.0000 C   0  0  0  0  0  0  0  0  0  0  0  0
   -9.4207   19.3153    0.0000 C   0  0  0  0  0  0  0  0  0  0  0  0
   -8.0504   19.9254    0.0000 C   0  0  0  0  0  0  0  0  0  0  0  0
   -6.6409   20.4385    0.0000 C   0  0  0  0  0  0  0  0  0  0  0  0
   -5.1990   20.8519    0.0000 C   0  0  0  0  0  0  0  0  0  0  0  0
   -3.7317   21.1638    0.0000 C   0  0  0  0  0  0  0  0  0  0  0  0
   -2.2463   21.3726    0.0000 C   0  0  0  0  0  0  0  0  0  0  0  0
   -0.7500   21.4772    0.0000 C   0  0  0  0  0  0  0  0  0  0  0  0
    0.7500   21.4772    0.0000 C   0  0  0  0  0  0  0  0  0  0  0  0
    2.2463   21.3726    0.0000 C   0  0  0  0  0  0  0  0  0  0  0  0
    3.7317   21.1638    0.0000 C   0  0  0  0  0  0  0  0  0  0  0  0
    5.1990   20.8519    0.0000 C   0  0  0  0  0  0  0  0  0  0  0  0
    6.6409   20.4385    0.0000 C   0  0  0  0  0  0  0  0  0  0  0  0
    8.0504   19.9254    0.0000 C   0  0  0  0  0  0  0  0  0  0  0  0
    9.4207   19.3153    0.0000 C   0  0  0  0  0  0  0  0  0  0  0  0
   10.7451   18.6111    0.0000 C   0  0  0  0  0  0  0  0  0  0  0  0
   12.0172   17.8163    0.0000 C   0  0  0  0  0  0  0  0  0  0  0  0
   13.2307   16.9346    0.0000 C   0  0  0  0  0  0  0  0  0  0  0  0
   14.3798   15.9704    0.0000 C   0  0  0  0  0  0  0  0  0  0  0  0
   15.4588   14.9284    0.0000 C   0  0  0  0  0  0  0  0  0  0  0  0
   16.4625   13.8137    0.0000 C   0  0  0  0  0  0  0  0  0  0  0  0
   17.3860   12.6317    0.0000 C   0  0  0  0  0  0  0  0  0  0  0  0
   18.2248   11.3881    0.0000 C   0  0  0  0  0  0  0  0  0  0  0  0
   18.9748   10.0891    0.0000 C   0  0  0  0  0  0  0  0  0  0  0  0
   19.6323    8.7409    0.0000 C   0  0  0  0  0  0  0  0  0  0  0  0
   20.1943    7.3501    0.0000 C   0  0  0  0  0  0  0  0  0  0  0  0
   20.6578    5.9235    0.0000 C   0  0  0  0  0  0  0  0  0  0  0  0
   21.0207    4.4681    0.0000 C   0  0  0  0  0  0  0  0  0  0  0  0
   21.2811    2.9909    0.0000 C   0  0  0  0  0  0  0  0  0  0  0  0
   22.6515    3.6010    0.0000 C   0  0  0  0  0  0  0  0  0  0  0  0
   23.6552    2.4863    0.0000 C   0  0  0  0  0  0  0  0  0  0  0  0
   25.1469    2.6430    0.0000 C   0  0  0  0  0  0  0  0  0  0  0  0
   26.6387    2.7998    0.0000 N   0  0  0  0  0  0  0  0  0  0  0  0
   22.9052    1.1872    0.0000 C   0  0  0  0  0  0  0  0  0  0  0  0
   21.4379    1.4991    0.0000 C   0  0  0  0  0  0  0  0  0  0  0  0
  1  2  1  0
  2  3  1  0
  3  4  2  0
  4  5  1  0
  5  6  1  0
  6  7  1  0
  7  8  2  0
  8  9  1  0
  9 10  2  0
 10 11  1  0
 11 12  2  0
 12 13  1  0
 13 14  2  0
 14 15  1  0
 15 16  1  0
 16 17  1  0
 17 18  1  0
 18 19  1  0
 19 20  1  0
 20 21  1  0
 21 22  1  0
 22 23  1  0
 23 24  1  0
 24 25  1  0
 25 26  1  0
 26 27  1  0
 27 28  1  0
 28 29  1  0
 29 30  1  0
 30 31  1  0
 31 32  1  0
 32 33  1  0
 33 34  1  0
 34 35  1  0
 35 36  1  0
 36 37  1  0
 37 38  1  0
 38 39  1  0
 39 40  1  0
 40 41  1  0
 41 42  1  0
 42 43  1  0
 43 44  1  0
 44 45  1  0
 45 46  1  0
 46 47  1  0
 47 48  1  0
 48 49  1  0
 49 50  1  0
 50 51  1  0
 51 52  1  0
 52 53  1  0
 53 54  1  0
 54 55  1  0
 55 56  1  0
 56 57  1  0
 57 58  1  0
 58 59  1  0
 59 60  1  0
 60 61  1  0
 61 62  1  0
 62 63  1  0
 63 64  1  0
 64 65  1  0
 65 66  1  0
 66 67  1  0
 67 68  1  0
 68 69  1  0
 69 70  1  0
 70 71  1  0
 71 72  2  0
 72 73  1  0
 73 74  2  0
 74 75  1  0
 75 76  2  0
 76 77  1  0
 77 78  2  0
 78 79  1  0
 79 80  2  0
 80 81  1  0
 81 82  2  0
 82 83  1  0
 83 84  2  0
 84 85  1  0
 85 86  2  0
 86 87  1  0
 87 88  2  0
 88 89  1  0
 89 90  2  0
 90 91  1  0
 91 92  1  0
 92 93  1  0
 93 94  3  0
 92 95  1  0
 95 96  2  0
 96  2  1  0
 96 90  1  0
M  END
>  <Title>  (856) 
idABEZgen8

$$$$

     RDKit          2D

 15 15  0  0  0  0  0  0  0  0999 V2000
    4.3978    0.0000    0.0000 C   0  0  0  0  0  0  0  0  0  0  0  0
    2.8978    0.0000    0.0000 C   0  0  0  0  0  0  0  0  0  0  0  0
    2.5095   -1.4489    0.0000 C   0  0  0  0  0  0  0  0  0  0  0  0
    1.4489   -2.5095    0.0000 C   0  0  0  0  0  0  0  0  0  0  0  0
   -0.0000   -2.8978    0.0000 C   0  0  0  0  0  0  0  0  0  0  0  0
   -1.4489   -2.5095    0.0000 C   0  0  0  0  0  0  0  0  0  0  0  0
   -2.5095   -1.4489    0.0000 C   0  0  0  0  0  0  0  0  0  0  0  0
   -2.8978    0.0000    0.0000 C   0  0  0  0  0  0  0  0  0  0  0  0
   -2.5095    1.4489    0.0000 C   0  0  0  0  0  0  0  0  0  0  0  0
   -1.4489    2.5095    0.0000 C   0  0  0  0  0  0  0  0  0  0  0  0
    0.0000    2.8978    0.0000 C   0  0  0  0  0  0  0  0  0  0  0  0
    0.0000    4.3978    0.0000 C   0  0  0  0  0  0  0  0  0  0  0  0
   -0.0000    5.8978    0.0000 N   0  0  0  0  0  0  0  0  0  0  0  0
    1.4489    2.5095    0.0000 C   0  0  0  0  0  0  0  0  0  0  0  0
    2.5095    1.4489    0.0000 C   0  0  0  0  0  0  0  0  0  0  0  0
  1  2  1  0
  2  3  1  0
  3  4  2  0
  4  5  1  0
  5  6  3  0
  6  7  1  0
  7  8  2  0
  8  9  1  0
  9 10  2  0
 10 11  1  0
 11 12  1  0
 12 13  3  0
 11 14  1  0
 14 15  1  0
 15  2  1  0
M  END
>  <Title>  (857) 
idABFAgen8

$$$$

     RDKit          2D

 61 69  0  0  0  0  0  0  0  0999 V2000
    7.6761  -10.7349    0.0000 C   0  0  0  0  0  0  0  0  0  0  0  0
    6.5033   -9.7997    0.0000 C   0  0  0  0  0  0  0  0  0  0  0  0
    5.1070  -10.3477    0.0000 C   0  0  0  0  0  0  0  0  0  0  0  0
    3.9343   -9.4124    0.0000 C   0  0  0  0  0  0  0  0  0  0  0  0
    4.6843   -8.1134    0.0000 C   0  0  0  0  0  0  0  0  0  0  0  0
    5.0181   -6.6510    0.0000 C   0  0  0  0  0  0  0  0  0  0  0  0
    4.9060   -5.1552    0.0000 C   0  0  0  0  0  0  0  0  0  0  0  0
    4.3580   -3.7589    0.0000 C   0  0  0  0  0  0  0  0  0  0  0  0
    3.4227   -2.5862    0.0000 C   0  0  0  0  0  0  0  0  0  0  0  0
    2.1834   -1.7412    0.0000 C   0  0  0  0  0  0  0  0  0  0  0  0
    2.8342   -0.3897    0.0000 C   0  0  0  0  0  0  0  0  0  0  0  0
    1.9892    0.8496    0.0000 O   0  0  0  0  0  0  0  0  0  0  0  0
    4.3300   -0.2776    0.0000 N   0  0  0  0  0  0  0  0  0  0  0  0
    4.9808    1.0738    0.0000 C   0  0  0  0  0  0  0  0  0  0  0  0
    6.4766    1.1859    0.0000 N   0  0  0  0  0  0  0  0  0  0  0  0
    7.1274    2.5374    0.0000 N   0  0  0  0  0  0  0  0  0  0  0  0
    6.2825    3.7767    0.0000 N   0  0  0  0  0  0  0  0  0  0  0  0
    4.7867    3.6646    0.0000 N   0  0  0  0  0  0  0  0  0  0  0  0
    4.1358    2.3132    0.0000 N   0  0  0  0  0  0  0  0  0  0  0  0
    0.7500   -1.2990    0.0000 C   0  0  0  0  0  0  0  0  0  0  0  0
    1.5000    0.0000    0.0000 C   0  0  0  0  0  0  0  0  0  0  0  0
    0.7500    1.2990    0.0000 C   0  0  0  0  0  0  0  0  0  0  0  0
   -0.7500    1.2990    0.0000 C   0  0  0  0  0  0  0  0  0  0  0  0
   -1.5000    0.0000    0.0000 C   0  0  0  0  0  0  0  0  0  0  0  0
   -0.7500   -1.2990    0.0000 C   0  0  0  0  0  0  0  0  0  0  0  0
   -2.1834   -1.7412    0.0000 C   0  0  0  0  0  0  0  0  0  0  0  0
   -2.2955   -0.2454    0.0000 C   0  0  0  0  0  0  0  0  0  0  0  0
   -3.6469    0.4055    0.0000 C   0  0  0  0  0  0  0  0  0  0  0  0
   -4.8863   -0.4395    0.0000 C   0  0  0  0  0  0  0  0  0  0  0  0
   -4.7742   -1.9353    0.0000 C   0  0  0  0  0  0  0  0  0  0  0  0
   -3.4227   -2.5862    0.0000 C   0  0  0  0  0  0  0  0  0  0  0  0
   -4.3580   -3.7589    0.0000 C   0  0  0  0  0  0  0  0  0  0  0  0
   -5.2932   -2.5862    0.0000 C   0  0  0  0  0  0  0  0  0  0  0  0
   -6.7764   -2.8097    0.0000 C   0  0  0  0  0  0  0  0  0  0  0  0
   -7.3244   -4.2060    0.0000 C   0  0  0  0  0  0  0  0  0  0  0  0
   -6.3892   -5.3788    0.0000 C   0  0  0  0  0  0  0  0  0  0  0  0
   -4.9060   -5.1552    0.0000 C   0  0  0  0  0  0  0  0  0  0  0  0
   -5.0181   -6.6510    0.0000 C   0  0  0  0  0  0  0  0  0  0  0  0
   -6.4514   -6.2089    0.0000 C   0  0  0  0  0  0  0  0  0  0  0  0
   -7.5510   -7.2291    0.0000 C   0  0  0  0  0  0  0  0  0  0  0  0
   -7.2172   -8.6915    0.0000 C   0  0  0  0  0  0  0  0  0  0  0  0
   -5.7839   -9.1337    0.0000 C   0  0  0  0  0  0  0  0  0  0  0  0
   -4.6843   -8.1134    0.0000 C   0  0  0  0  0  0  0  0  0  0  0  0
   -3.9343   -9.4124    0.0000 C   0  0  0  0  0  0  0  0  0  0  0  0
   -5.3676   -9.8546    0.0000 C   0  0  0  0  0  0  0  0  0  0  0  0
   -5.7014  -11.3170    0.0000 C   0  0  0  0  0  0  0  0  0  0  0  0
   -4.6018  -12.3372    0.0000 C   0  0  0  0  0  0  0  0  0  0  0  0
   -3.1685  -11.8951    0.0000 C   0  0  0  0  0  0  0  0  0  0  0  0
   -2.8347  -10.4327    0.0000 C   0  0  0  0  0  0  0  0  0  0  0  0
   -1.4832  -11.0835    0.0000 C   0  0  0  0  0  0  0  0  0  0  0  0
   -2.4185  -12.2563    0.0000 C   0  0  0  0  0  0  0  0  0  0  0  0
   -1.8705  -13.6526    0.0000 C   0  0  0  0  0  0  0  0  0  0  0  0
   -0.3872  -13.8762    0.0000 C   0  0  0  0  0  0  0  0  0  0  0  0
    0.5480  -12.7034    0.0000 C   0  0  0  0  0  0  0  0  0  0  0  0
   -0.0000  -11.3071    0.0000 C   0  0  0  0  0  0  0  0  0  0  0  0
    1.4832  -11.0835    0.0000 C   0  0  0  0  0  0  0  0  0  0  0  0
    1.3712  -12.5793    0.0000 C   0  0  0  0  0  0  0  0  0  0  0  0
    2.6105  -13.4243    0.0000 C   0  0  0  0  0  0  0  0  0  0  0  0
    3.9620  -12.7735    0.0000 C   0  0  0  0  0  0  0  0  0  0  0  0
    4.0741  -11.2777    0.0000 C   0  0  0  0  0  0  0  0  0  0  0  0
    2.8347  -10.4327    0.0000 C   0  0  0  0  0  0  0  0  0  0  0  0
  1  2  1  0
  2  3  1  0
  3  4  1  0
  4  5  1  0
  5  6  1  0
  6  7  1  0
  7  8  1  0
  8  9  1  0
  9 10  1  0
 10 11  1  0
 11 12  2  0
 11 13  1  0
 13 14  1  0
 14 15  2  0
 15 16  1  0
 16 17  2  0
 17 18  1  0
 18 19  2  0
 10 20  1  0
 20 21  2  0
 21 22  1  0
 22 23  2  0
 23 24  1  0
 24 25  2  0
 25 26  1  0
 26 27  2  0
 27 28  1  0
 28 29  2  0
 29 30  1  0
 30 31  2  0
 31 32  1  0
 32 33  2  0
 33 34  1  0
 34 35  2  0
 35 36  1  0
 36 37  2  0
 37 38  1  0
 38 39  2  0
 39 40  1  0
 40 41  2  0
 41 42  1  0
 42 43  2  0
 43 44  1  0
 44 45  2  0
 45 46  1  0
 46 47  2  0
 47 48  1  0
 48 49  2  0
 49 50  1  0
 50 51  2  0
 51 52  1  0
 52 53  2  0
 53 54  1  0
 54 55  2  0
 55 56  1  0
 56 57  2  0
 57 58  1  0
 58 59  2  0
 59 60  1  0
 60 61  2  0
 61  4  1  0
 19 14  1  0
 25 20  1  0
 31 26  1  0
 37 32  1  0
 43 38  1  0
 49 44  1  0
 55 50  1  0
 61 56  1  0
M  END
>  <Title>  (858) 
idABFBgen8

$$$$

     RDKit          2D

  9  9  0  0  0  0  0  0  0  0999 V2000
    4.9320    1.5439    0.0000 C   0  0  0  0  0  0  0  0  0  0  0  0
    3.8173    0.5402    0.0000 C   0  0  0  0  0  0  0  0  0  0  0  0
    2.3907    1.0037    0.0000 C   0  0  0  0  0  0  0  0  0  0  0  0
    1.2760    0.0000    0.0000 C   0  0  0  0  0  0  0  0  0  0  0  0
    2.3907   -1.0037    0.0000 O   0  0  0  0  0  0  0  0  0  0  0  0
    0.3943    1.2135    0.0000 C   0  0  0  0  0  0  0  0  0  0  0  0
   -1.0323    0.7500    0.0000 C   0  0  0  0  0  0  0  0  0  0  0  0
   -1.0323   -0.7500    0.0000 O   0  0  0  0  0  0  0  0  0  0  0  0
    0.3943   -1.2135    0.0000 C   0  0  0  0  0  0  0  0  0  0  0  0
  1  2  1  0
  2  3  1  0
  3  4  1  0
  4  5  1  0
  4  6  1  0
  6  7  1  0
  7  8  1  0
  8  9  1  0
  9  4  1  0
M  END
>  <Title>  (859) 
idABFCgen8

$$$$

     RDKit          2D

  8  8  0  0  0  0  0  0  0  0999 V2000
    3.7500   -1.2990    0.0000 C   0  0  0  0  0  0  0  0  0  0  0  0
    3.0000    0.0000    0.0000 O   0  0  0  0  0  0  0  0  0  0  0  0
    1.5000    0.0000    0.0000 C   0  0  0  0  0  0  0  0  0  0  0  0
    0.7500   -1.2990    0.0000 C   0  0  0  0  0  0  0  0  0  0  0  0
   -0.7500   -1.2990    0.0000 C   0  0  0  0  0  0  0  0  0  0  0  0
   -1.5000    0.0000    0.0000 C   0  0  0  0  0  0  0  0  0  0  0  0
   -0.7500    1.2990    0.0000 C   0  0  0  0  0  0  0  0  0  0  0  0
    0.7500    1.2990    0.0000 C   0  0  0  0  0  0  0  0  0  0  0  0
  1  2  1  0
  2  3  1  0
  3  4  1  0
  4  5  2  0
  5  6  1  0
  6  7  2  0
  7  8  1  0
  8  3  1  0
M  END
>  <Title>  (860) 
idABFDgen8

$$$$

     RDKit          2D

 15 16  0  0  0  0  0  0  0  0999 V2000
   -0.7500   -3.8971    0.0000 O   0  0  0  0  0  0  0  0  0  0  0  0
    0.7500   -3.8971    0.0000 C   0  0  0  0  0  0  0  0  0  0  0  0
    1.5000   -2.5981    0.0000 N   0  0  0  0  0  0  0  0  0  0  0  0
    0.7500   -1.2990    0.0000 C   0  0  0  0  0  0  0  0  0  0  0  0
    1.5000    0.0000    0.0000 N   0  0  0  0  0  0  0  0  0  0  0  0
    0.7500    1.2990    0.0000 N   0  0  0  0  0  0  0  0  0  0  0  0
   -0.7500    1.2990    0.0000 N   0  0  0  0  0  0  0  0  0  0  0  0
   -1.5000    0.0000    0.0000 N   0  0  0  0  0  0  0  0  0  0  0  0
   -0.7500   -1.2990    0.0000 N   0  0  0  0  0  0  0  0  0  0  0  0
    1.5000   -5.1962    0.0000 C   0  0  0  0  0  0  0  0  0  0  0  0
    2.9918   -5.3529    0.0000 C   0  0  0  0  0  0  0  0  0  0  0  0
    3.3037   -6.8202    0.0000 C   0  0  0  0  0  0  0  0  0  0  0  0
    2.0046   -7.5702    0.0000 C   0  0  0  0  0  0  0  0  0  0  0  0
    1.8478   -9.0619    0.0000 O   0  0  0  0  0  0  0  0  0  0  0  0
    0.8899   -6.5665    0.0000 C   0  0  0  0  0  0  0  0  0  0  0  0
  1  2  2  0
  2  3  1  0
  3  4  1  0
  4  5  2  0
  5  6  1  0
  6  7  2  0
  7  8  1  0
  8  9  2  0
  2 10  1  0
 10 11  2  0
 11 12  1  0
 12 13  2  0
 13 14  1  0
 13 15  1  0
  9  4  1  0
 15 10  1  0
M  END
>  <Title>  (861) 
idABFEgen8

$$$$

     RDKit          2D

  8  8  0  0  0  0  0  0  0  0999 V2000
    5.0260   -1.2990    0.0000 C   0  0  0  0  0  0  0  0  0  0  0  0
    3.5260   -1.2990    0.0000 C   0  0  0  0  0  0  0  0  0  0  0  0
    2.7760    0.0000    0.0000 C   0  0  0  0  0  0  0  0  0  0  0  0
    1.2760    0.0000    0.0000 C   0  0  0  0  0  0  0  0  0  0  0  0
    0.3943    1.2135    0.0000 C   0  0  0  0  0  0  0  0  0  0  0  0
   -1.0323    0.7500    0.0000 C   0  0  0  0  0  0  0  0  0  0  0  0
   -1.0323   -0.7500    0.0000 C   0  0  0  0  0  0  0  0  0  0  0  0
    0.3943   -1.2135    0.0000 C   0  0  0  0  0  0  0  0  0  0  0  0
  1  2  1  0
  2  3  1  0
  3  4  1  0
  4  5  2  0
  5  6  1  0
  6  7  2  0
  7  8  1  0
  8  4  1  0
M  END
>  <Title>  (862) 
idABFFgen8

$$$$

     RDKit          2D

  7  7  0  0  0  0  0  0  0  0999 V2000
    2.3907    1.0037    0.0000 C   0  0  0  0  0  0  0  0  0  0  0  0
    1.2760    0.0000    0.0000 C   0  0  0  0  0  0  0  0  0  0  0  0
    2.3907   -1.0037    0.0000 C   0  0  0  0  0  0  0  0  0  0  0  0
    0.3943    1.2135    0.0000 C   0  0  0  0  0  0  0  0  0  0  0  0
   -1.0323    0.7500    0.0000 C   0  0  0  0  0  0  0  0  0  0  0  0
   -1.0323   -0.7500    0.0000 C   0  0  0  0  0  0  0  0  0  0  0  0
    0.3943   -1.2135    0.0000 C   0  0  0  0  0  0  0  0  0  0  0  0
  1  2  1  0
  2  3  1  0
  2  4  1  0
  4  5  1  0
  5  6  2  0
  6  7  1  0
  7  2  1  0
M  END
>  <Title>  (863) 
idABFGgen8

$$$$

     RDKit          2D

 86 86  0  0  0  0  0  0  0  0999 V2000
   21.0808    0.0000    0.0000 C   0  0  0  0  0  0  0  0  0  0  0  0
   19.5808    0.0000    0.0000 C   0  0  0  0  0  0  0  0  0  0  0  0
   19.5234   -1.4989    0.0000 C   0  0  0  0  0  0  0  0  0  0  0  0
   19.3514   -2.9890    0.0000 C   0  0  0  0  0  0  0  0  0  0  0  0
   19.0658   -4.4616    0.0000 C   0  0  0  0  0  0  0  0  0  0  0  0
   18.6683   -5.9079    0.0000 C   0  0  0  0  0  0  0  0  0  0  0  0
   18.1613   -7.3197    0.0000 C   0  0  0  0  0  0  0  0  0  0  0  0
   17.5477   -8.6884    0.0000 C   0  0  0  0  0  0  0  0  0  0  0  0
   16.8311  -10.0062    0.0000 C   0  0  0  0  0  0  0  0  0  0  0  0
   16.0158  -11.2652    0.0000 C   0  0  0  0  0  0  0  0  0  0  0  0
   15.1064  -12.4582    0.0000 C   0  0  0  0  0  0  0  0  0  0  0  0
   14.1084  -13.5780    0.0000 C   0  0  0  0  0  0  0  0  0  0  0  0
   13.0276  -14.6181    0.0000 C   0  0  0  0  0  0  0  0  0  0  0  0
   11.8704  -15.5725    0.0000 C   0  0  0  0  0  0  0  0  0  0  0  0
   10.6435  -16.4355    0.0000 C   0  0  0  0  0  0  0  0  0  0  0  0
    9.3542  -17.2020    0.0000 C   0  0  0  0  0  0  0  0  0  0  0  0
    8.0099  -17.8676    0.0000 C   0  0  0  0  0  0  0  0  0  0  0  0
    6.6187  -18.4283    0.0000 C   0  0  0  0  0  0  0  0  0  0  0  0
    5.1886  -18.8809    0.0000 C   0  0  0  0  0  0  0  0  0  0  0  0
    3.7280  -19.2227    0.0000 C   0  0  0  0  0  0  0  0  0  0  0  0
    2.2456  -19.4517    0.0000 C   0  0  0  0  0  0  0  0  0  0  0  0
    0.7500  -19.5665    0.0000 C   0  0  0  0  0  0  0  0  0  0  0  0
   -0.7500  -19.5665    0.0000 C   0  0  0  0  0  0  0  0  0  0  0  0
   -2.2456  -19.4517    0.0000 C   0  0  0  0  0  0  0  0  0  0  0  0
   -3.7280  -19.2227    0.0000 C   0  0  0  0  0  0  0  0  0  0  0  0
   -5.1886  -18.8809    0.0000 C   0  0  0  0  0  0  0  0  0  0  0  0
   -6.6187  -18.4283    0.0000 C   0  0  0  0  0  0  0  0  0  0  0  0
   -8.0099  -17.8676    0.0000 C   0  0  0  0  0  0  0  0  0  0  0  0
   -9.3542  -17.2020    0.0000 C   0  0  0  0  0  0  0  0  0  0  0  0
  -10.6435  -16.4355    0.0000 C   0  0  0  0  0  0  0  0  0  0  0  0
  -11.8704  -15.5725    0.0000 C   0  0  0  0  0  0  0  0  0  0  0  0
  -13.0276  -14.6181    0.0000 C   0  0  0  0  0  0  0  0  0  0  0  0
  -14.1084  -13.5780    0.0000 C   0  0  0  0  0  0  0  0  0  0  0  0
  -15.1064  -12.4582    0.0000 C   0  0  0  0  0  0  0  0  0  0  0  0
  -16.0158  -11.2652    0.0000 C   0  0  0  0  0  0  0  0  0  0  0  0
  -16.8311  -10.0062    0.0000 C   0  0  0  0  0  0  0  0  0  0  0  0
  -17.5477   -8.6884    0.0000 C   0  0  0  0  0  0  0  0  0  0  0  0
  -18.1613   -7.3197    0.0000 C   0  0  0  0  0  0  0  0  0  0  0  0
  -18.6683   -5.9079    0.0000 C   0  0  0  0  0  0  0  0  0  0  0  0
  -19.0658   -4.4616    0.0000 C   0  0  0  0  0  0  0  0  0  0  0  0
  -19.3514   -2.9890    0.0000 C   0  0  0  0  0  0  0  0  0  0  0  0
  -19.5234   -1.4989    0.0000 C   0  0  0  0  0  0  0  0  0  0  0  0
  -19.5808   -0.0000    0.0000 C   0  0  0  0  0  0  0  0  0  0  0  0
  -19.5234    1.4989    0.0000 C   0  0  0  0  0  0  0  0  0  0  0  0
  -19.3514    2.9890    0.0000 C   0  0  0  0  0  0  0  0  0  0  0  0
  -19.0658    4.4616    0.0000 C   0  0  0  0  0  0  0  0  0  0  0  0
  -18.6683    5.9079    0.0000 C   0  0  0  0  0  0  0  0  0  0  0  0
  -18.1613    7.3197    0.0000 C   0  0  0  0  0  0  0  0  0  0  0  0
  -17.5477    8.6884    0.0000 C   0  0  0  0  0  0  0  0  0  0  0  0
  -16.8311   10.0062    0.0000 C   0  0  0  0  0  0  0  0  0  0  0  0
  -16.0158   11.2652    0.0000 C   0  0  0  0  0  0  0  0  0  0  0  0
  -15.1064   12.4582    0.0000 C   0  0  0  0  0  0  0  0  0  0  0  0
  -14.1084   13.5780    0.0000 C   0  0  0  0  0  0  0  0  0  0  0  0
  -13.0276   14.6181    0.0000 C   0  0  0  0  0  0  0  0  0  0  0  0
  -11.8704   15.5725    0.0000 C   0  0  0  0  0  0  0  0  0  0  0  0
  -10.6435   16.4355    0.0000 C   0  0  0  0  0  0  0  0  0  0  0  0
   -9.3542   17.2020    0.0000 C   0  0  0  0  0  0  0  0  0  0  0  0
   -8.0099   17.8676    0.0000 C   0  0  0  0  0  0  0  0  0  0  0  0
   -6.6187   18.4283    0.0000 C   0  0  0  0  0  0  0  0  0  0  0  0
   -5.1886   18.8809    0.0000 C   0  0  0  0  0  0  0  0  0  0  0  0
   -3.7280   19.2227    0.0000 C   0  0  0  0  0  0  0  0  0  0  0  0
   -2.2456   19.4517    0.0000 C   0  0  0  0  0  0  0  0  0  0  0  0
   -0.7500   19.5665    0.0000 C   0  0  0  0  0  0  0  0  0  0  0  0
    0.7500   19.5665    0.0000 C   0  0  0  0  0  0  0  0  0  0  0  0
    2.2456   19.4517    0.0000 C   0  0  0  0  0  0  0  0  0  0  0  0
    3.7280   19.2227    0.0000 C   0  0  0  0  0  0  0  0  0  0  0  0
    5.1886   18.8809    0.0000 C   0  0  0  0  0  0  0  0  0  0  0  0
    6.6187   18.4283    0.0000 C   0  0  0  0  0  0  0  0  0  0  0  0
    8.0099   17.8676    0.0000 C   0  0  0  0  0  0  0  0  0  0  0  0
    9.3542   17.2020    0.0000 C   0  0  0  0  0  0  0  0  0  0  0  0
   10.6435   16.4355    0.0000 C   0  0  0  0  0  0  0  0  0  0  0  0
   11.8704   15.5725    0.0000 C   0  0  0  0  0  0  0  0  0  0  0  0
   13.0276   14.6181    0.0000 C   0  0  0  0  0  0  0  0  0  0  0  0
   14.1084   13.5780    0.0000 C   0  0  0  0  0  0  0  0  0  0  0  0
   15.1064   12.4582    0.0000 C   0  0  0  0  0  0  0  0  0  0  0  0
   16.0158   11.2652    0.0000 C   0  0  0  0  0  0  0  0  0  0  0  0
   16.8311   10.0062    0.0000 C   0  0  0  0  0  0  0  0  0  0  0  0
   17.5477    8.6884    0.0000 C   0  0  0  0  0  0  0  0  0  0  0  0
   18.1613    7.3197    0.0000 C   0  0  0  0  0  0  0  0  0  0  0  0
   18.6683    5.9079    0.0000 C   0  0  0  0  0  0  0  0  0  0  0  0
   19.0658    4.4616    0.0000 C   0  0  0  0  0  0  0  0  0  0  0  0
   20.5263    4.8033    0.0000 C   0  0  0  0  0  0  0  0  0  0  0  0
   19.3514    2.9890    0.0000 C   0  0  0  0  0  0  0  0  0  0  0  0
   20.8338    3.2180    0.0000 C   0  0  0  0  0  0  0  0  0  0  0  0
   21.7733    2.0486    0.0000 O   0  0  0  0  0  0  0  0  0  0  0  0
   19.5234    1.4989    0.0000 N   0  0  0  0  0  0  0  0  0  0  0  0
  1  2  1  0
  2  3  1  0
  3  4  1  0
  4  5  1  0
  5  6  1  0
  6  7  1  0
  7  8  1  0
  8  9  1  0
  9 10  1  0
 10 11  1  0
 11 12  1  0
 12 13  1  0
 13 14  1  0
 14 15  1  0
 15 16  1  0
 16 17  1  0
 17 18  1  0
 18 19  1  0
 19 20  1  0
 20 21  1  0
 21 22  1  0
 22 23  1  0
 23 24  1  0
 24 25  1  0
 25 26  1  0
 26 27  1  0
 27 28  1  0
 28 29  1  0
 29 30  1  0
 30 31  1  0
 31 32  1  0
 32 33  1  0
 33 34  1  0
 34 35  1  0
 35 36  1  0
 36 37  1  0
 37 38  1  0
 38 39  1  0
 39 40  1  0
 40 41  1  0
 41 42  1  0
 42 43  1  0
 43 44  1  0
 44 45  1  0
 45 46  1  0
 46 47  1  0
 47 48  1  0
 48 49  1  0
 49 50  1  0
 50 51  1  0
 51 52  1  0
 52 53  1  0
 53 54  1  0
 54 55  1  0
 55 56  1  0
 56 57  1  0
 57 58  1  0
 58 59  1  0
 59 60  1  0
 60 61  1  0
 61 62  1  0
 62 63  1  0
 63 64  1  0
 64 65  1  0
 65 66  1  0
 66 67  1  0
 67 68  1  0
 68 69  1  0
 69 70  1  0
 70 71  1  0
 71 72  1  0
 72 73  1  0
 73 74  1  0
 74 75  1  0
 75 76  1  0
 76 77  1  0
 77 78  1  0
 78 79  1  0
 79 80  1  0
 80 81  1  0
 81 82  1  0
 81 83  1  0
 83 84  1  0
 84 85  1  0
 83 86  1  0
 86  2  1  0
M  END
>  <Title>  (864) 
idABFHgen8

$$$$

     RDKit          2D

  7  7  0  0  0  0  0  0  0  0999 V2000
    2.7760    0.0000    0.0000 C   0  0  0  0  0  0  0  0  0  0  0  0
    1.2760    0.0000    0.0000 C   0  0  0  0  0  0  0  0  0  0  0  0
    0.3943    1.2135    0.0000 C   0  0  0  0  0  0  0  0  0  0  0  0
   -1.0323    0.7500    0.0000 C   0  0  0  0  0  0  0  0  0  0  0  0
   -1.0323   -0.7500    0.0000 C   0  0  0  0  0  0  0  0  0  0  0  0
   -2.2458   -1.6317    0.0000 O   0  0  0  0  0  0  0  0  0  0  0  0
    0.3943   -1.2135    0.0000 C   0  0  0  0  0  0  0  0  0  0  0  0
  1  2  1  0
  2  3  2  0
  3  4  1  0
  4  5  1  0
  5  6  1  0
  5  7  1  0
  7  2  1  0
M  END
>  <Title>  (865) 
idABFIgen8

$$$$

     RDKit          2D

 46 52  0  0  0  0  0  0  0  0999 V2000
    4.3881   -6.6982    0.0000 C   0  0  0  0  0  0  0  0  0  0  0  0
    3.0367   -6.0474    0.0000 C   0  0  0  0  0  0  0  0  0  0  0  0
    3.3705   -4.5850    0.0000 C   0  0  0  0  0  0  0  0  0  0  0  0
    3.0367   -3.1226    0.0000 C   0  0  0  0  0  0  0  0  0  0  0  0
    2.1015   -1.9499    0.0000 C   0  0  0  0  0  0  0  0  0  0  0  0
    3.0367   -0.7771    0.0000 C   0  0  0  0  0  0  0  0  0  0  0  0
    2.4887    0.6192    0.0000 O   0  0  0  0  0  0  0  0  0  0  0  0
    4.5199   -1.0007    0.0000 N   0  0  0  0  0  0  0  0  0  0  0  0
    5.4552    0.1721    0.0000 C   0  0  0  0  0  0  0  0  0  0  0  0
    6.9384   -0.0515    0.0000 N   0  0  0  0  0  0  0  0  0  0  0  0
    7.8736    1.1213    0.0000 N   0  0  0  0  0  0  0  0  0  0  0  0
    7.3256    2.5176    0.0000 N   0  0  0  0  0  0  0  0  0  0  0  0
    5.8424    2.7411    0.0000 N   0  0  0  0  0  0  0  0  0  0  0  0
    4.9072    1.5684    0.0000 N   0  0  0  0  0  0  0  0  0  0  0  0
    0.7500   -1.2990    0.0000 C   0  0  0  0  0  0  0  0  0  0  0  0
    1.5000    0.0000    0.0000 C   0  0  0  0  0  0  0  0  0  0  0  0
    0.7500    1.2990    0.0000 C   0  0  0  0  0  0  0  0  0  0  0  0
   -0.7500    1.2990    0.0000 C   0  0  0  0  0  0  0  0  0  0  0  0
   -1.5000    0.0000    0.0000 C   0  0  0  0  0  0  0  0  0  0  0  0
   -0.7500   -1.2990    0.0000 C   0  0  0  0  0  0  0  0  0  0  0  0
   -2.1015   -1.9499    0.0000 C   0  0  0  0  0  0  0  0  0  0  0  0
   -2.6495   -0.5536    0.0000 C   0  0  0  0  0  0  0  0  0  0  0  0
   -4.1327   -0.3300    0.0000 C   0  0  0  0  0  0  0  0  0  0  0  0
   -5.0679   -1.5027    0.0000 C   0  0  0  0  0  0  0  0  0  0  0  0
   -4.5199   -2.8990    0.0000 C   0  0  0  0  0  0  0  0  0  0  0  0
   -3.0367   -3.1226    0.0000 C   0  0  0  0  0  0  0  0  0  0  0  0
   -3.3705   -4.5850    0.0000 C   0  0  0  0  0  0  0  0  0  0  0  0
   -4.8038   -4.1429    0.0000 C   0  0  0  0  0  0  0  0  0  0  0  0
   -5.9034   -5.1631    0.0000 C   0  0  0  0  0  0  0  0  0  0  0  0
   -5.5696   -6.6255    0.0000 C   0  0  0  0  0  0  0  0  0  0  0  0
   -4.1363   -7.0677    0.0000 C   0  0  0  0  0  0  0  0  0  0  0  0
   -3.0367   -6.0474    0.0000 C   0  0  0  0  0  0  0  0  0  0  0  0
   -2.1015   -7.2201    0.0000 C   0  0  0  0  0  0  0  0  0  0  0  0
   -3.1380   -8.3043    0.0000 C   0  0  0  0  0  0  0  0  0  0  0  0
   -2.4272   -9.6252    0.0000 C   0  0  0  0  0  0  0  0  0  0  0  0
   -3.0781  -10.9767    0.0000 C   0  0  0  0  0  0  0  0  0  0  0  0
   -2.2331  -12.2160    0.0000 O   0  0  0  0  0  0  0  0  0  0  0  0
   -4.5739  -11.0888    0.0000 O   0  0  0  0  0  0  0  0  0  0  0  0
   -0.9513   -9.3574    0.0000 C   0  0  0  0  0  0  0  0  0  0  0  0
   -0.7500   -7.8710    0.0000 C   0  0  0  0  0  0  0  0  0  0  0  0
    0.7500   -7.8710    0.0000 C   0  0  0  0  0  0  0  0  0  0  0  0
    0.6379   -9.3668    0.0000 C   0  0  0  0  0  0  0  0  0  0  0  0
    1.8773  -10.2118    0.0000 C   0  0  0  0  0  0  0  0  0  0  0  0
    3.2287   -9.5609    0.0000 C   0  0  0  0  0  0  0  0  0  0  0  0
    3.3408   -8.0651    0.0000 C   0  0  0  0  0  0  0  0  0  0  0  0
    2.1015   -7.2201    0.0000 C   0  0  0  0  0  0  0  0  0  0  0  0
  1  2  1  0
  2  3  1  0
  3  4  1  0
  4  5  1  0
  5  6  1  0
  6  7  2  0
  6  8  1  0
  8  9  1  0
  9 10  2  0
 10 11  1  0
 11 12  2  0
 12 13  1  0
 13 14  2  0
  5 15  1  0
 15 16  2  0
 16 17  1  0
 17 18  2  0
 18 19  1  0
 19 20  2  0
 20 21  1  0
 21 22  2  0
 22 23  1  0
 23 24  2  0
 24 25  1  0
 25 26  2  0
 26 27  1  0
 27 28  2  0
 28 29  1  0
 29 30  2  0
 30 31  1  0
 31 32  2  0
 32 33  1  0
 33 34  2  0
 34 35  1  0
 35 36  1  0
 36 37  2  0
 36 38  1  0
 35 39  1  0
 39 40  2  0
 40 41  1  0
 41 42  2  0
 42 43  1  0
 43 44  2  0
 44 45  1  0
 45 46  2  0
 46  2  1  0
 14  9  1  0
 20 15  1  0
 26 21  1  0
 32 27  1  0
 40 33  1  0
 46 41  1  0
M  END
>  <Title>  (866) 
idABFJgen8

$$$$

     RDKit          2D

 56 64  0  0  0  0  0  0  0  0999 V2000
    5.8191   -5.5525    0.0000 C   0  0  0  0  0  0  0  0  0  0  0  0
    4.3191   -5.5525    0.0000 C   0  0  0  0  0  0  0  0  0  0  0  0
    4.0586   -4.0753    0.0000 C   0  0  0  0  0  0  0  0  0  0  0  0
    3.3086   -2.7762    0.0000 C   0  0  0  0  0  0  0  0  0  0  0  0
    2.1595   -1.8121    0.0000 C   0  0  0  0  0  0  0  0  0  0  0  0
    2.9095   -0.5130    0.0000 C   0  0  0  0  0  0  0  0  0  0  0  0
    2.1595    0.7860    0.0000 O   0  0  0  0  0  0  0  0  0  0  0  0
    4.4095   -0.5130    0.0000 N   0  0  0  0  0  0  0  0  0  0  0  0
    5.1595    0.7860    0.0000 C   0  0  0  0  0  0  0  0  0  0  0  0
    6.6595    0.7860    0.0000 N   0  0  0  0  0  0  0  0  0  0  0  0
    7.4095    2.0850    0.0000 N   0  0  0  0  0  0  0  0  0  0  0  0
    6.6595    3.3841    0.0000 N   0  0  0  0  0  0  0  0  0  0  0  0
    5.1595    3.3841    0.0000 N   0  0  0  0  0  0  0  0  0  0  0  0
    4.4095    2.0850    0.0000 N   0  0  0  0  0  0  0  0  0  0  0  0
    0.7500   -1.2990    0.0000 C   0  0  0  0  0  0  0  0  0  0  0  0
    1.5000    0.0000    0.0000 C   0  0  0  0  0  0  0  0  0  0  0  0
    0.7500    1.2990    0.0000 C   0  0  0  0  0  0  0  0  0  0  0  0
   -0.7500    1.2990    0.0000 C   0  0  0  0  0  0  0  0  0  0  0  0
   -1.5000    0.0000    0.0000 C   0  0  0  0  0  0  0  0  0  0  0  0
   -0.7500   -1.2990    0.0000 C   0  0  0  0  0  0  0  0  0  0  0  0
   -2.1595   -1.8121    0.0000 C   0  0  0  0  0  0  0  0  0  0  0  0
   -2.4200   -0.3349    0.0000 C   0  0  0  0  0  0  0  0  0  0  0  0
   -3.8296    0.1782    0.0000 C   0  0  0  0  0  0  0  0  0  0  0  0
   -4.9786   -0.7860    0.0000 C   0  0  0  0  0  0  0  0  0  0  0  0
   -4.7181   -2.2632    0.0000 C   0  0  0  0  0  0  0  0  0  0  0  0
   -3.3086   -2.7762    0.0000 C   0  0  0  0  0  0  0  0  0  0  0  0
   -4.0586   -4.0753    0.0000 C   0  0  0  0  0  0  0  0  0  0  0  0
   -5.2077   -3.1111    0.0000 C   0  0  0  0  0  0  0  0  0  0  0  0
   -6.6172   -3.6241    0.0000 C   0  0  0  0  0  0  0  0  0  0  0  0
   -6.8777   -5.1013    0.0000 C   0  0  0  0  0  0  0  0  0  0  0  0
   -5.7286   -6.0655    0.0000 C   0  0  0  0  0  0  0  0  0  0  0  0
   -4.3191   -5.5525    0.0000 C   0  0  0  0  0  0  0  0  0  0  0  0
   -4.0586   -7.0297    0.0000 C   0  0  0  0  0  0  0  0  0  0  0  0
   -5.5586   -7.0297    0.0000 C   0  0  0  0  0  0  0  0  0  0  0  0
   -6.3086   -8.3287    0.0000 C   0  0  0  0  0  0  0  0  0  0  0  0
   -5.5586   -9.6278    0.0000 C   0  0  0  0  0  0  0  0  0  0  0  0
   -4.0586   -9.6278    0.0000 C   0  0  0  0  0  0  0  0  0  0  0  0
   -3.3086   -8.3287    0.0000 C   0  0  0  0  0  0  0  0  0  0  0  0
   -2.1595   -9.2929    0.0000 C   0  0  0  0  0  0  0  0  0  0  0  0
   -3.3086  -10.2571    0.0000 C   0  0  0  0  0  0  0  0  0  0  0  0
   -3.0481  -11.7343    0.0000 C   0  0  0  0  0  0  0  0  0  0  0  0
   -1.6386  -12.2474    0.0000 C   0  0  0  0  0  0  0  0  0  0  0  0
   -0.4895  -11.2832    0.0000 C   0  0  0  0  0  0  0  0  0  0  0  0
   -0.7500   -9.8060    0.0000 C   0  0  0  0  0  0  0  0  0  0  0  0
    0.7500   -9.8060    0.0000 C   0  0  0  0  0  0  0  0  0  0  0  0
    0.4895  -11.2832    0.0000 C   0  0  0  0  0  0  0  0  0  0  0  0
    1.6386  -12.2474    0.0000 C   0  0  0  0  0  0  0  0  0  0  0  0
    3.0481  -11.7343    0.0000 C   0  0  0  0  0  0  0  0  0  0  0  0
    3.3086  -10.2571    0.0000 C   0  0  0  0  0  0  0  0  0  0  0  0
    2.1595   -9.2929    0.0000 C   0  0  0  0  0  0  0  0  0  0  0  0
    3.3086   -8.3287    0.0000 C   0  0  0  0  0  0  0  0  0  0  0  0
    4.0586   -9.6278    0.0000 C   0  0  0  0  0  0  0  0  0  0  0  0
    5.5586   -9.6278    0.0000 C   0  0  0  0  0  0  0  0  0  0  0  0
    6.3086   -8.3287    0.0000 C   0  0  0  0  0  0  0  0  0  0  0  0
    5.5586   -7.0297    0.0000 C   0  0  0  0  0  0  0  0  0  0  0  0
    4.0586   -7.0297    0.0000 C   0  0  0  0  0  0  0  0  0  0  0  0
  1  2  1  0
  2  3  1  0
  3  4  1  0
  4  5  1  0
  5  6  1  0
  6  7  2  0
  6  8  1  0
  8  9  1  0
  9 10  2  0
 10 11  1  0
 11 12  2  0
 12 13  1  0
 13 14  2  0
  5 15  1  0
 15 16  2  0
 16 17  1  0
 17 18  2  0
 18 19  1  0
 19 20  2  0
 20 21  1  0
 21 22  2  0
 22 23  1  0
 23 24  2  0
 24 25  1  0
 25 26  2  0
 26 27  1  0
 27 28  2  0
 28 29  1  0
 29 30  2  0
 30 31  1  0
 31 32  2  0
 32 33  1  0
 33 34  2  0
 34 35  1  0
 35 36  2  0
 36 37  1  0
 37 38  2  0
 38 39  1  0
 39 40  2  0
 40 41  1  0
 41 42  2  0
 42 43  1  0
 43 44  2  0
 44 45  1  0
 45 46  2  0
 46 47  1  0
 47 48  2  0
 48 49  1  0
 49 50  2  0
 50 51  1  0
 51 52  2  0
 52 53  1  0
 53 54  2  0
 54 55  1  0
 55 56  2  0
 56  2  1  0
 14  9  1  0
 20 15  1  0
 26 21  1  0
 32 27  1  0
 38 33  1  0
 44 39  1  0
 50 45  1  0
 56 51  1  0
M  END
>  <Title>  (867) 
idABFKgen8

$$$$

     RDKit          2D

  8  7  0  0  0  0  0  0  0  0999 V2000
    0.0000    0.0000    0.0000 C   0  0  0  0  0  0  0  0  0  0  0  0
    1.2990    0.7500    0.0000 C   0  0  0  0  0  0  0  0  0  0  0  0
    2.5981   -0.0000    0.0000 C   0  0  0  0  0  0  0  0  0  0  0  0
    3.8971   -0.7500    0.0000 C   0  0  0  0  0  0  0  0  0  0  0  0
    5.1962   -1.5000    0.0000 C   0  0  0  0  0  0  0  0  0  0  0  0
    6.4952   -0.7500    0.0000 C   0  0  0  0  0  0  0  0  0  0  0  0
    7.7942   -1.5000    0.0000 C   0  0  0  0  0  0  0  0  0  0  0  0
    9.0933   -0.7500    0.0000 C   0  0  0  0  0  0  0  0  0  0  0  0
  1  2  1  0
  2  3  1  0
  3  4  3  0
  4  5  1  0
  5  6  2  3
  6  7  1  0
  7  8  1  0
M  END
>  <Title>  (868) 
idABFLgen8

$$$$

     RDKit          2D

 14 14  0  0  0  0  0  0  0  0999 V2000
    7.7286   -2.5981    0.0000 C   0  0  0  0  0  0  0  0  0  0  0  0
    6.2286   -2.5981    0.0000 C   0  0  0  0  0  0  0  0  0  0  0  0
    5.4786   -1.2990    0.0000 C   0  0  0  0  0  0  0  0  0  0  0  0
    3.9786   -1.2990    0.0000 C   0  0  0  0  0  0  0  0  0  0  0  0
    3.2286   -2.5981    0.0000 O   0  0  0  0  0  0  0  0  0  0  0  0
    3.2286   -0.0000    0.0000 N   0  0  0  0  0  0  0  0  0  0  0  0
    1.7286    0.0000    0.0000 C   0  0  0  0  0  0  0  0  0  0  0  0
    1.0777    1.3515    0.0000 C   0  0  0  0  0  0  0  0  0  0  0  0
   -0.3846    1.6852    0.0000 C   0  0  0  0  0  0  0  0  0  0  0  0
   -1.5574    0.7500    0.0000 C   0  0  0  0  0  0  0  0  0  0  0  0
   -1.5574   -0.7500    0.0000 C   0  0  0  0  0  0  0  0  0  0  0  0
   -0.3846   -1.6852    0.0000 O   0  0  0  0  0  0  0  0  0  0  0  0
    1.0777   -1.3515    0.0000 C   0  0  0  0  0  0  0  0  0  0  0  0
    2.0130   -2.5242    0.0000 C   0  0  0  0  0  0  0  0  0  0  0  0
  1  2  1  0
  2  3  2  3
  3  4  1  0
  4  5  2  0
  4  6  1  0
  6  7  1  0
  7  8  2  0
  8  9  1  0
  9 10  1  0
 10 11  1  0
 11 12  1  0
 12 13  1  0
 13 14  1  0
 13  7  1  0
M  END
>  <Title>  (869) 
idABFMgen8

$$$$

     RDKit          2D

  6  6  0  0  0  0  0  0  0  0999 V2000
    2.7760    0.0000    0.0000 C   0  0  0  0  0  0  0  0  0  0  0  0
    1.2760    0.0000    0.0000 C   0  0  0  0  0  0  0  0  0  0  0  0
    0.3943    1.2135    0.0000 C   0  0  0  0  0  0  0  0  0  0  0  0
   -1.0323    0.7500    0.0000 C   0  0  0  0  0  0  0  0  0  0  0  0
   -1.0323   -0.7500    0.0000 C   0  0  0  0  0  0  0  0  0  0  0  0
    0.3943   -1.2135    0.0000 C   0  0  0  0  0  0  0  0  0  0  0  0
  1  2  1  0
  2  3  1  0
  3  4  1  0
  4  5  2  0
  5  6  1  0
  6  2  1  0
M  END
>  <Title>  (870) 
idABFNgen8

$$$$

     RDKit          2D

  8  8  0  0  0  0  0  0  0  0999 V2000
    4.5000    0.0000    0.0000 C   0  0  0  0  0  0  0  0  0  0  0  0
    3.0000    0.0000    0.0000 C   0  0  0  0  0  0  0  0  0  0  0  0
    1.5000    0.0000    0.0000 C   0  0  0  0  0  0  0  0  0  0  0  0
    0.7500   -1.2990    0.0000 C   0  0  0  0  0  0  0  0  0  0  0  0
   -0.7500   -1.2990    0.0000 C   0  0  0  0  0  0  0  0  0  0  0  0
   -1.5000    0.0000    0.0000 C   0  0  0  0  0  0  0  0  0  0  0  0
   -0.7500    1.2990    0.0000 C   0  0  0  0  0  0  0  0  0  0  0  0
    0.7500    1.2990    0.0000 C   0  0  0  0  0  0  0  0  0  0  0  0
  1  2  3  0
  2  3  1  0
  3  4  1  0
  4  5  2  0
  5  6  1  0
  6  7  2  0
  7  8  1  0
  8  3  1  0
M  END
>  <Title>  (871) 
idABFOgen8

$$$$

     RDKit          2D

 26 29  0  0  0  0  0  0  0  0999 V2000
   -1.3240   -6.3062    0.0000 C   0  0  0  0  0  0  0  0  0  0  0  0
   -0.7500   -4.9204    0.0000 C   0  0  0  0  0  0  0  0  0  0  0  0
    0.7500   -4.9204    0.0000 C   0  0  0  0  0  0  0  0  0  0  0  0
    1.8107   -3.8597    0.0000 C   0  0  0  0  0  0  0  0  0  0  0  0
    1.8107   -2.3597    0.0000 C   0  0  0  0  0  0  0  0  0  0  0  0
    3.1965   -1.7857    0.0000 C   0  0  0  0  0  0  0  0  0  0  0  0
    3.3923   -0.2985    0.0000 O   0  0  0  0  0  0  0  0  0  0  0  0
    4.3865   -2.6988    0.0000 N   0  0  0  0  0  0  0  0  0  0  0  0
    5.7723   -2.1248    0.0000 C   0  0  0  0  0  0  0  0  0  0  0  0
    6.9624   -3.0379    0.0000 N   0  0  0  0  0  0  0  0  0  0  0  0
    8.3482   -2.4639    0.0000 N   0  0  0  0  0  0  0  0  0  0  0  0
    8.5440   -0.9767    0.0000 N   0  0  0  0  0  0  0  0  0  0  0  0
    7.3539   -0.0636    0.0000 N   0  0  0  0  0  0  0  0  0  0  0  0
    5.9681   -0.6376    0.0000 N   0  0  0  0  0  0  0  0  0  0  0  0
    0.7500   -1.2990    0.0000 C   0  0  0  0  0  0  0  0  0  0  0  0
    1.5000    0.0000    0.0000 C   0  0  0  0  0  0  0  0  0  0  0  0
    0.7500    1.2990    0.0000 C   0  0  0  0  0  0  0  0  0  0  0  0
   -0.7500    1.2990    0.0000 C   0  0  0  0  0  0  0  0  0  0  0  0
   -1.5000    0.0000    0.0000 C   0  0  0  0  0  0  0  0  0  0  0  0
   -0.7500   -1.2990    0.0000 C   0  0  0  0  0  0  0  0  0  0  0  0
   -1.8107   -2.3597    0.0000 C   0  0  0  0  0  0  0  0  0  0  0  0
   -3.1097   -1.6097    0.0000 C   0  0  0  0  0  0  0  0  0  0  0  0
   -4.4087   -2.3597    0.0000 C   0  0  0  0  0  0  0  0  0  0  0  0
   -4.4087   -3.8597    0.0000 C   0  0  0  0  0  0  0  0  0  0  0  0
   -3.1097   -4.6097    0.0000 C   0  0  0  0  0  0  0  0  0  0  0  0
   -1.8107   -3.8597    0.0000 C   0  0  0  0  0  0  0  0  0  0  0  0
  1  2  1  0
  2  3  2  0
  3  4  1  0
  4  5  1  0
  5  6  1  0
  6  7  2  0
  6  8  1  0
  8  9  1  0
  9 10  2  0
 10 11  1  0
 11 12  2  0
 12 13  1  0
 13 14  2  0
  5 15  1  0
 15 16  2  0
 16 17  1  0
 17 18  2  0
 18 19  1  0
 19 20  2  0
 20 21  1  0
 21 22  2  0
 22 23  1  0
 23 24  2  0
 24 25  1  0
 25 26  2  0
 26  2  1  0
 14  9  1  0
 20 15  1  0
 26 21  1  0
M  END
>  <Title>  (872) 
idABFPgen8

$$$$

     RDKit          2D

 27 29  0  0  0  0  0  0  0  0999 V2000
   -5.2500   -9.0933    0.0000 C   0  0  0  0  0  0  0  0  0  0  0  0
   -4.5000   -7.7942    0.0000 C   0  0  0  0  0  0  0  0  0  0  0  0
   -3.7500   -6.4952    0.0000 C   0  0  0  0  0  0  0  0  0  0  0  0
   -3.0000   -5.1962    0.0000 C   0  0  0  0  0  0  0  0  0  0  0  0
   -3.7500   -3.8971    0.0000 N   0  0  0  0  0  0  0  0  0  0  0  0
   -5.2500   -3.8971    0.0000 C   0  0  0  0  0  0  0  0  0  0  0  0
   -3.0000   -2.5981    0.0000 C   0  0  0  0  0  0  0  0  0  0  0  0
   -3.7500   -1.2990    0.0000 O   0  0  0  0  0  0  0  0  0  0  0  0
   -1.5000   -2.5981    0.0000 C   0  0  0  0  0  0  0  0  0  0  0  0
   -0.7500   -3.8971    0.0000 C   0  0  0  0  0  0  0  0  0  0  0  0
    0.7500   -3.8971    0.0000 C   0  0  0  0  0  0  0  0  0  0  0  0
    1.5000   -2.5981    0.0000 C   0  0  0  0  0  0  0  0  0  0  0  0
    3.0000   -2.5981    0.0000 C   0  0  0  0  0  0  0  0  0  0  0  0
    3.7500   -1.2990    0.0000 O   0  0  0  0  0  0  0  0  0  0  0  0
    3.7500   -3.8971    0.0000 N   0  0  0  0  0  0  0  0  0  0  0  0
    5.2500   -3.8971    0.0000 C   0  0  0  0  0  0  0  0  0  0  0  0
    6.0000   -5.1962    0.0000 N   0  0  0  0  0  0  0  0  0  0  0  0
    7.5000   -5.1962    0.0000 N   0  0  0  0  0  0  0  0  0  0  0  0
    8.2500   -3.8971    0.0000 N   0  0  0  0  0  0  0  0  0  0  0  0
    7.5000   -2.5981    0.0000 N   0  0  0  0  0  0  0  0  0  0  0  0
    6.0000   -2.5981    0.0000 N   0  0  0  0  0  0  0  0  0  0  0  0
    0.7500   -1.2990    0.0000 C   0  0  0  0  0  0  0  0  0  0  0  0
    1.5000    0.0000    0.0000 C   0  0  0  0  0  0  0  0  0  0  0  0
    0.7500    1.2990    0.0000 C   0  0  0  0  0  0  0  0  0  0  0  0
   -0.7500    1.2990    0.0000 C   0  0  0  0  0  0  0  0  0  0  0  0
   -1.5000    0.0000    0.0000 C   0  0  0  0  0  0  0  0  0  0  0  0
   -0.7500   -1.2990    0.0000 C   0  0  0  0  0  0  0  0  0  0  0  0
  1  2  1  0
  2  3  3  0
  3  4  1  0
  4  5  1  0
  5  6  1  0
  5  7  1  0
  7  8  2  0
  7  9  1  0
  9 10  1  0
 10 11  1  0
 11 12  1  0
 12 13  1  0
 13 14  2  0
 13 15  1  0
 15 16  1  0
 16 17  2  0
 17 18  1  0
 18 19  2  0
 19 20  1  0
 20 21  2  0
 12 22  1  0
 22 23  2  0
 23 24  1  0
 24 25  2  0
 25 26  1  0
 26 27  2  0
 27  9  1  0
 21 16  1  0
 27 22  1  0
M  END
>  <Title>  (873) 
idABFQgen8

$$$$

     RDKit          2D

 58 66  0  0  0  0  0  0  0  0999 V2000
    5.6083   -8.8919    0.0000 C   0  0  0  0  0  0  0  0  0  0  0  0
    4.2718   -8.2109    0.0000 C   0  0  0  0  0  0  0  0  0  0  0  0
    4.7353   -6.7844    0.0000 C   0  0  0  0  0  0  0  0  0  0  0  0
    4.7353   -5.2844    0.0000 C   0  0  0  0  0  0  0  0  0  0  0  0
    4.2718   -3.8578    0.0000 C   0  0  0  0  0  0  0  0  0  0  0  0
    3.3901   -2.6442    0.0000 C   0  0  0  0  0  0  0  0  0  0  0  0
    2.1766   -1.7626    0.0000 C   0  0  0  0  0  0  0  0  0  0  0  0
    2.8576   -0.4261    0.0000 C   0  0  0  0  0  0  0  0  0  0  0  0
    2.0406    0.8320    0.0000 O   0  0  0  0  0  0  0  0  0  0  0  0
    4.3555   -0.3475    0.0000 N   0  0  0  0  0  0  0  0  0  0  0  0
    5.0365    0.9890    0.0000 C   0  0  0  0  0  0  0  0  0  0  0  0
    6.5344    1.0675    0.0000 N   0  0  0  0  0  0  0  0  0  0  0  0
    7.2154    2.4040    0.0000 N   0  0  0  0  0  0  0  0  0  0  0  0
    6.3985    3.6620    0.0000 N   0  0  0  0  0  0  0  0  0  0  0  0
    4.9005    3.5835    0.0000 N   0  0  0  0  0  0  0  0  0  0  0  0
    4.2195    2.2470    0.0000 N   0  0  0  0  0  0  0  0  0  0  0  0
    0.7500   -1.2990    0.0000 C   0  0  0  0  0  0  0  0  0  0  0  0
    1.5000    0.0000    0.0000 C   0  0  0  0  0  0  0  0  0  0  0  0
    0.7500    1.2990    0.0000 C   0  0  0  0  0  0  0  0  0  0  0  0
   -0.7500    1.2990    0.0000 C   0  0  0  0  0  0  0  0  0  0  0  0
   -1.5000    0.0000    0.0000 C   0  0  0  0  0  0  0  0  0  0  0  0
   -0.7500   -1.2990    0.0000 C   0  0  0  0  0  0  0  0  0  0  0  0
   -2.1766   -1.7626    0.0000 C   0  0  0  0  0  0  0  0  0  0  0  0
   -2.3334   -0.2708    0.0000 C   0  0  0  0  0  0  0  0  0  0  0  0
   -3.7037    0.3393    0.0000 C   0  0  0  0  0  0  0  0  0  0  0  0
   -4.9172   -0.5424    0.0000 C   0  0  0  0  0  0  0  0  0  0  0  0
   -4.7604   -2.0341    0.0000 C   0  0  0  0  0  0  0  0  0  0  0  0
   -3.3901   -2.6442    0.0000 C   0  0  0  0  0  0  0  0  0  0  0  0
   -4.2718   -3.8578    0.0000 C   0  0  0  0  0  0  0  0  0  0  0  0
   -5.2755   -2.7430    0.0000 C   0  0  0  0  0  0  0  0  0  0  0  0
   -6.7427   -3.0549    0.0000 C   0  0  0  0  0  0  0  0  0  0  0  0
   -7.2062   -4.4815    0.0000 C   0  0  0  0  0  0  0  0  0  0  0  0
   -6.2025   -5.5962    0.0000 C   0  0  0  0  0  0  0  0  0  0  0  0
   -4.7353   -5.2844    0.0000 C   0  0  0  0  0  0  0  0  0  0  0  0
   -4.7353   -6.7844    0.0000 C   0  0  0  0  0  0  0  0  0  0  0  0
   -6.2025   -6.4725    0.0000 C   0  0  0  0  0  0  0  0  0  0  0  0
   -7.2062   -7.5872    0.0000 C   0  0  0  0  0  0  0  0  0  0  0  0
   -6.7427   -9.0138    0.0000 C   0  0  0  0  0  0  0  0  0  0  0  0
   -5.2755   -9.3257    0.0000 C   0  0  0  0  0  0  0  0  0  0  0  0
   -4.2718   -8.2109    0.0000 C   0  0  0  0  0  0  0  0  0  0  0  0
   -3.3901   -9.4245    0.0000 C   0  0  0  0  0  0  0  0  0  0  0  0
   -4.7604  -10.0346    0.0000 C   0  0  0  0  0  0  0  0  0  0  0  0
   -4.9172  -11.5263    0.0000 C   0  0  0  0  0  0  0  0  0  0  0  0
   -3.7037  -12.4080    0.0000 C   0  0  0  0  0  0  0  0  0  0  0  0
   -2.3334  -11.7979    0.0000 C   0  0  0  0  0  0  0  0  0  0  0  0
   -2.1766  -10.3061    0.0000 C   0  0  0  0  0  0  0  0  0  0  0  0
   -0.7500  -10.7697    0.0000 C   0  0  0  0  0  0  0  0  0  0  0  0
   -1.5000  -12.0687    0.0000 C   0  0  0  0  0  0  0  0  0  0  0  0
   -0.7500  -13.3677    0.0000 C   0  0  0  0  0  0  0  0  0  0  0  0
    0.7500  -13.3677    0.0000 C   0  0  0  0  0  0  0  0  0  0  0  0
    1.5000  -12.0687    0.0000 C   0  0  0  0  0  0  0  0  0  0  0  0
    0.7500  -10.7697    0.0000 C   0  0  0  0  0  0  0  0  0  0  0  0
    2.1766  -10.3061    0.0000 C   0  0  0  0  0  0  0  0  0  0  0  0
    2.3334  -11.7979    0.0000 C   0  0  0  0  0  0  0  0  0  0  0  0
    3.7037  -12.4080    0.0000 C   0  0  0  0  0  0  0  0  0  0  0  0
    4.9172  -11.5263    0.0000 C   0  0  0  0  0  0  0  0  0  0  0  0
    4.7604  -10.0346    0.0000 C   0  0  0  0  0  0  0  0  0  0  0  0
    3.3901   -9.4245    0.0000 C   0  0  0  0  0  0  0  0  0  0  0  0
  1  2  1  0
  2  3  2  0
  3  4  1  0
  4  5  1  0
  5  6  1  0
  6  7  1  0
  7  8  1  0
  8  9  2  0
  8 10  1  0
 10 11  1  0
 11 12  2  0
 12 13  1  0
 13 14  2  0
 14 15  1  0
 15 16  2  0
  7 17  1  0
 17 18  2  0
 18 19  1  0
 19 20  2  0
 20 21  1  0
 21 22  2  0
 22 23  1  0
 23 24  2  0
 24 25  1  0
 25 26  2  0
 26 27  1  0
 27 28  2  0
 28 29  1  0
 29 30  2  0
 30 31  1  0
 31 32  2  0
 32 33  1  0
 33 34  2  0
 34 35  1  0
 35 36  2  0
 36 37  1  0
 37 38  2  0
 38 39  1  0
 39 40  2  0
 40 41  1  0
 41 42  2  0
 42 43  1  0
 43 44  2  0
 44 45  1  0
 45 46  2  0
 46 47  1  0
 47 48  2  0
 48 49  1  0
 49 50  2  0
 50 51  1  0
 51 52  2  0
 52 53  1  0
 53 54  2  0
 54 55  1  0
 55 56  2  0
 56 57  1  0
 57 58  2  0
 58  2  1  0
 16 11  1  0
 22 17  1  0
 28 23  1  0
 34 29  1  0
 40 35  1  0
 46 41  1  0
 52 47  1  0
 58 53  1  0
M  END
>  <Title>  (874) 
idABFRgen8

$$$$

     RDKit          2D

 10 10  0  0  0  0  0  0  0  0999 V2000
    3.2286   -0.0000    0.0000 C   0  0  0  0  0  0  0  0  0  0  0  0
    1.7286    0.0000    0.0000 C   0  0  0  0  0  0  0  0  0  0  0  0
    1.0777    1.3515    0.0000 C   0  0  0  0  0  0  0  0  0  0  0  0
   -0.3846    1.6852    0.0000 C   0  0  0  0  0  0  0  0  0  0  0  0
   -1.5574    0.7500    0.0000 C   0  0  0  0  0  0  0  0  0  0  0  0
   -2.9088    1.4008    0.0000 O   0  0  0  0  0  0  0  0  0  0  0  0
   -1.5574   -0.7500    0.0000 C   0  0  0  0  0  0  0  0  0  0  0  0
   -0.3846   -1.6852    0.0000 C   0  0  0  0  0  0  0  0  0  0  0  0
    1.0777   -1.3515    0.0000 C   0  0  0  0  0  0  0  0  0  0  0  0
    2.0130   -2.5242    0.0000 C   0  0  0  0  0  0  0  0  0  0  0  0
  1  2  1  0
  2  3  2  0
  3  4  1  0
  4  5  1  0
  5  6  1  0
  5  7  1  0
  7  8  1  0
  8  9  1  0
  9 10  1  0
  9  2  1  0
M  END
>  <Title>  (875) 
idABFSgen8

$$$$

     RDKit          2D

 48 54  0  0  0  0  0  0  0  0999 V2000
    6.9384   -6.7730    0.0000 C   0  0  0  0  0  0  0  0  0  0  0  0
    5.4552   -6.9966    0.0000 C   0  0  0  0  0  0  0  0  0  0  0  0
    4.5199   -5.8238    0.0000 C   0  0  0  0  0  0  0  0  0  0  0  0
    3.0367   -6.0474    0.0000 C   0  0  0  0  0  0  0  0  0  0  0  0
    3.7867   -7.3464    0.0000 C   0  0  0  0  0  0  0  0  0  0  0  0
    3.3705   -4.5850    0.0000 C   0  0  0  0  0  0  0  0  0  0  0  0
    4.8705   -4.5850    0.0000 O   0  0  0  0  0  0  0  0  0  0  0  0
    3.0367   -3.1226    0.0000 C   0  0  0  0  0  0  0  0  0  0  0  0
    2.1015   -1.9499    0.0000 C   0  0  0  0  0  0  0  0  0  0  0  0
    3.0367   -0.7771    0.0000 C   0  0  0  0  0  0  0  0  0  0  0  0
    2.4887    0.6192    0.0000 O   0  0  0  0  0  0  0  0  0  0  0  0
    4.5199   -1.0007    0.0000 N   0  0  0  0  0  0  0  0  0  0  0  0
    5.4552    0.1721    0.0000 C   0  0  0  0  0  0  0  0  0  0  0  0
    6.9384   -0.0515    0.0000 N   0  0  0  0  0  0  0  0  0  0  0  0
    7.8736    1.1213    0.0000 N   0  0  0  0  0  0  0  0  0  0  0  0
    7.3256    2.5176    0.0000 N   0  0  0  0  0  0  0  0  0  0  0  0
    5.8424    2.7411    0.0000 N   0  0  0  0  0  0  0  0  0  0  0  0
    4.9072    1.5684    0.0000 N   0  0  0  0  0  0  0  0  0  0  0  0
    0.7500   -1.2990    0.0000 C   0  0  0  0  0  0  0  0  0  0  0  0
    1.5000    0.0000    0.0000 C   0  0  0  0  0  0  0  0  0  0  0  0
    0.7500    1.2990    0.0000 C   0  0  0  0  0  0  0  0  0  0  0  0
   -0.7500    1.2990    0.0000 C   0  0  0  0  0  0  0  0  0  0  0  0
   -1.5000    0.0000    0.0000 C   0  0  0  0  0  0  0  0  0  0  0  0
   -0.7500   -1.2990    0.0000 C   0  0  0  0  0  0  0  0  0  0  0  0
   -2.1015   -1.9499    0.0000 C   0  0  0  0  0  0  0  0  0  0  0  0
   -2.6495   -0.5536    0.0000 C   0  0  0  0  0  0  0  0  0  0  0  0
   -4.1327   -0.3300    0.0000 C   0  0  0  0  0  0  0  0  0  0  0  0
   -5.0679   -1.5027    0.0000 C   0  0  0  0  0  0  0  0  0  0  0  0
   -4.5199   -2.8990    0.0000 C   0  0  0  0  0  0  0  0  0  0  0  0
   -3.0367   -3.1226    0.0000 C   0  0  0  0  0  0  0  0  0  0  0  0
   -3.3705   -4.5850    0.0000 C   0  0  0  0  0  0  0  0  0  0  0  0
   -4.8038   -4.1429    0.0000 C   0  0  0  0  0  0  0  0  0  0  0  0
   -5.9034   -5.1631    0.0000 C   0  0  0  0  0  0  0  0  0  0  0  0
   -5.5696   -6.6255    0.0000 C   0  0  0  0  0  0  0  0  0  0  0  0
   -4.1363   -7.0677    0.0000 C   0  0  0  0  0  0  0  0  0  0  0  0
   -3.0367   -6.0474    0.0000 C   0  0  0  0  0  0  0  0  0  0  0  0
   -2.1015   -7.2201    0.0000 C   0  0  0  0  0  0  0  0  0  0  0  0
   -3.3408   -8.0651    0.0000 C   0  0  0  0  0  0  0  0  0  0  0  0
   -3.2287   -9.5609    0.0000 C   0  0  0  0  0  0  0  0  0  0  0  0
   -1.8773  -10.2118    0.0000 C   0  0  0  0  0  0  0  0  0  0  0  0
   -0.6379   -9.3668    0.0000 C   0  0  0  0  0  0  0  0  0  0  0  0
   -0.7500   -7.8710    0.0000 C   0  0  0  0  0  0  0  0  0  0  0  0
    0.7500   -7.8710    0.0000 C   0  0  0  0  0  0  0  0  0  0  0  0
    0.6379   -9.3668    0.0000 C   0  0  0  0  0  0  0  0  0  0  0  0
    1.8773  -10.2118    0.0000 C   0  0  0  0  0  0  0  0  0  0  0  0
    3.2287   -9.5609    0.0000 C   0  0  0  0  0  0  0  0  0  0  0  0
    3.3408   -8.0651    0.0000 C   0  0  0  0  0  0  0  0  0  0  0  0
    2.1015   -7.2201    0.0000 C   0  0  0  0  0  0  0  0  0  0  0  0
  1  2  1  0
  2  3  1  0
  3  4  1  0
  4  5  1  0
  4  6  1  0
  6  7  2  0
  6  8  1  0
  8  9  1  0
  9 10  1  0
 10 11  2  0
 10 12  1  0
 12 13  1  0
 13 14  2  0
 14 15  1  0
 15 16  2  0
 16 17  1  0
 17 18  2  0
  9 19  1  0
 19 20  2  0
 20 21  1  0
 21 22  2  0
 22 23  1  0
 23 24  2  0
 24 25  1  0
 25 26  2  0
 26 27  1  0
 27 28  2  0
 28 29  1  0
 29 30  2  0
 30 31  1  0
 31 32  2  0
 32 33  1  0
 33 34  2  0
 34 35  1  0
 35 36  2  0
 36 37  1  0
 37 38  2  0
 38 39  1  0
 39 40  2  0
 40 41  1  0
 41 42  2  0
 42 43  1  0
 43 44  2  0
 44 45  1  0
 45 46  2  0
 46 47  1  0
 47 48  2  0
 48  4  1  0
 18 13  1  0
 24 19  1  0
 30 25  1  0
 36 31  1  0
 42 37  1  0
 48 43  1  0
M  END
>  <Title>  (876) 
idABFTgen8

$$$$

     RDKit          2D

 11 11  0  0  0  0  0  0  0  0999 V2000
    4.7286   -0.0000    0.0000 C   0  0  0  0  0  0  0  0  0  0  0  0
    3.2286   -0.0000    0.0000 C   0  0  0  0  0  0  0  0  0  0  0  0
    1.7286    0.0000    0.0000 C   0  0  0  0  0  0  0  0  0  0  0  0
    1.0777    1.3515    0.0000 C   0  0  0  0  0  0  0  0  0  0  0  0
   -0.3846    1.6852    0.0000 C   0  0  0  0  0  0  0  0  0  0  0  0
   -1.5574    0.7500    0.0000 C   0  0  0  0  0  0  0  0  0  0  0  0
   -2.9088    1.4008    0.0000 O   0  0  0  0  0  0  0  0  0  0  0  0
   -1.5574   -0.7500    0.0000 C   0  0  0  0  0  0  0  0  0  0  0  0
   -2.9088   -1.4008    0.0000 O   0  0  0  0  0  0  0  0  0  0  0  0
   -0.3846   -1.6852    0.0000 C   0  0  0  0  0  0  0  0  0  0  0  0
    1.0777   -1.3515    0.0000 C   0  0  0  0  0  0  0  0  0  0  0  0
  1  2  3  0
  2  3  1  0
  3  4  2  0
  4  5  1  0
  5  6  1  0
  6  7  1  0
  6  8  2  0
  8  9  1  0
  8 10  1  0
 10 11  2  0
 11  3  1  0
M  END
>  <Title>  (877) 
idABFUgen8

$$$$

     RDKit          2D

 14 14  0  0  0  0  0  0  0  0999 V2000
    7.5000   -2.5981    0.0000 C   0  0  0  0  0  0  0  0  0  0  0  0
    6.0000   -2.5981    0.0000 C   0  0  0  0  0  0  0  0  0  0  0  0
    5.2500   -3.8971    0.0000 C   0  0  0  0  0  0  0  0  0  0  0  0
    5.2500   -1.2990    0.0000 C   0  0  0  0  0  0  0  0  0  0  0  0
    3.7500   -1.2990    0.0000 C   0  0  0  0  0  0  0  0  0  0  0  0
    3.0000   -2.5981    0.0000 C   0  0  0  0  0  0  0  0  0  0  0  0
    3.7500   -3.8971    0.0000 O   0  0  0  0  0  0  0  0  0  0  0  0
    3.0000    0.0000    0.0000 N   0  0  0  0  0  0  0  0  0  0  0  0
    1.5000    0.0000    0.0000 C   0  0  0  0  0  0  0  0  0  0  0  0
    0.7500   -1.2990    0.0000 N   0  0  0  0  0  0  0  0  0  0  0  0
   -0.7500   -1.2990    0.0000 N   0  0  0  0  0  0  0  0  0  0  0  0
   -1.5000    0.0000    0.0000 N   0  0  0  0  0  0  0  0  0  0  0  0
   -0.7500    1.2990    0.0000 N   0  0  0  0  0  0  0  0  0  0  0  0
    0.7500    1.2990    0.0000 N   0  0  0  0  0  0  0  0  0  0  0  0
  1  2  1  0
  2  3  1  0
  2  4  1  0
  4  5  1  0
  5  6  1  0
  6  7  1  0
  5  8  1  0
  8  9  1  0
  9 10  2  0
 10 11  1  0
 11 12  2  0
 12 13  1  0
 13 14  2  0
 14  9  1  0
M  END
>  <Title>  (878) 
idABFVgen8

$$$$

     RDKit          2D

 10 10  0  0  0  0  0  0  0  0999 V2000
    5.2500   -1.2990    0.0000 C   0  0  0  0  0  0  0  0  0  0  0  0
    3.7500   -1.2990    0.0000 O   0  0  0  0  0  0  0  0  0  0  0  0
    3.0000    0.0000    0.0000 C   0  0  0  0  0  0  0  0  0  0  0  0
    1.5000    0.0000    0.0000 C   0  0  0  0  0  0  0  0  0  0  0  0
    0.7500   -1.2990    0.0000 C   0  0  0  0  0  0  0  0  0  0  0  0
   -0.7500   -1.2990    0.0000 C   0  0  0  0  0  0  0  0  0  0  0  0
   -1.5000   -2.5981    0.0000 C   0  0  0  0  0  0  0  0  0  0  0  0
   -1.5000    0.0000    0.0000 C   0  0  0  0  0  0  0  0  0  0  0  0
   -0.7500    1.2990    0.0000 C   0  0  0  0  0  0  0  0  0  0  0  0
    0.7500    1.2990    0.0000 C   0  0  0  0  0  0  0  0  0  0  0  0
  1  2  1  0
  2  3  1  0
  3  4  1  0
  4  5  1  0
  5  6  2  0
  6  7  1  0
  6  8  1  0
  8  9  1  0
  9 10  1  0
 10  4  1  0
M  END
>  <Title>  (879) 
idABFWgen8

$$$$

     RDKit          2D

  5  4  0  0  0  0  0  0  0  0999 V2000
    0.0000    0.0000    0.0000 C   0  0  0  0  0  0  0  0  0  0  0  0
    1.2990    0.7500    0.0000 C   0  0  0  0  0  0  0  0  0  0  0  0
    2.5981   -0.0000    0.0000 C   0  0  0  0  0  0  0  0  0  0  0  0
    3.8971    0.7500    0.0000 C   0  0  0  0  0  0  0  0  0  0  0  0
    5.1962   -0.0000    0.0000 N   0  0  0  0  0  0  0  0  0  0  0  0
  1  2  1  0
  2  3  2  3
  3  4  1  0
  4  5  2  0
M  END
>  <Title>  (880) 
idABFXgen8

$$$$

     RDKit          2D

 29 30  0  0  0  0  0  0  0  0999 V2000
   -6.1216  -18.0008    0.0000 C   0  0  0  0  0  0  0  0  0  0  0  0
   -4.7513  -17.3907    0.0000 C   0  0  0  0  0  0  0  0  0  0  0  0
   -3.3809  -16.7806    0.0000 C   0  0  0  0  0  0  0  0  0  0  0  0
   -2.0106  -16.1705    0.0000 C   0  0  0  0  0  0  0  0  0  0  0  0
   -1.8538  -14.6787    0.0000 C   0  0  0  0  0  0  0  0  0  0  0  0
   -0.4835  -14.0686    0.0000 C   0  0  0  0  0  0  0  0  0  0  0  0
   -0.3267  -12.5768    0.0000 C   0  0  0  0  0  0  0  0  0  0  0  0
    1.0436  -11.9667    0.0000 C   0  0  0  0  0  0  0  0  0  0  0  0
    1.2004  -10.4749    0.0000 C   0  0  0  0  0  0  0  0  0  0  0  0
    2.5707   -9.8648    0.0000 C   0  0  0  0  0  0  0  0  0  0  0  0
    2.7275   -8.3730    0.0000 C   0  0  0  0  0  0  0  0  0  0  0  0
    4.0978   -7.7629    0.0000 C   0  0  0  0  0  0  0  0  0  0  0  0
    4.2546   -6.2711    0.0000 C   0  0  0  0  0  0  0  0  0  0  0  0
    5.5537   -5.5211    0.0000 C   0  0  0  0  0  0  0  0  0  0  0  0
    5.2418   -4.0539    0.0000 C   0  0  0  0  0  0  0  0  0  0  0  0
    3.7500   -3.8971    0.0000 C   0  0  0  0  0  0  0  0  0  0  0  0
    3.0000   -2.5981    0.0000 O   0  0  0  0  0  0  0  0  0  0  0  0
    3.7500   -1.2990    0.0000 C   0  0  0  0  0  0  0  0  0  0  0  0
    5.2500   -1.2990    0.0000 C   0  0  0  0  0  0  0  0  0  0  0  0
    6.0000   -0.0000    0.0000 O   0  0  0  0  0  0  0  0  0  0  0  0
    6.0000   -2.5981    0.0000 O   0  0  0  0  0  0  0  0  0  0  0  0
    3.0000   -0.0000    0.0000 C   0  0  0  0  0  0  0  0  0  0  0  0
    1.5000   -0.0000    0.0000 N   0  0  0  0  0  0  0  0  0  0  0  0
    0.7500    1.2990    0.0000 N   0  0  0  0  0  0  0  0  0  0  0  0
    1.5000    2.5981    0.0000 N   0  0  0  0  0  0  0  0  0  0  0  0
    3.0000    2.5981    0.0000 N   0  0  0  0  0  0  0  0  0  0  0  0
    3.7500    1.2990    0.0000 N   0  0  0  0  0  0  0  0  0  0  0  0
    3.1399   -5.2674    0.0000 C   0  0  0  0  0  0  0  0  0  0  0  0
    1.6727   -5.5793    0.0000 O   0  0  0  0  0  0  0  0  0  0  0  0
  1  2  1  0
  2  3  3  0
  3  4  1  0
  4  5  1  0
  5  6  1  0
  6  7  1  0
  7  8  1  0
  8  9  1  0
  9 10  1  0
 10 11  1  0
 11 12  1  0
 12 13  1  0
 13 14  2  0
 14 15  1  0
 15 16  2  0
 16 17  1  0
 17 18  1  0
 18 19  1  0
 19 20  2  0
 19 21  1  0
 18 22  1  0
 22 23  2  0
 23 24  1  0
 24 25  2  0
 25 26  1  0
 26 27  2  0
 16 28  1  0
 28 29  2  0
 28 13  1  0
 27 22  1  0
M  END
>  <Title>  (881) 
idABFYgen8

$$$$

     RDKit          2D

  8  8  0  0  0  0  0  0  0  0999 V2000
    2.7760    0.0000    0.0000 O   0  0  0  0  0  0  0  0  0  0  0  0
    1.2760    0.0000    0.0000 C   0  0  0  0  0  0  0  0  0  0  0  0
    0.3943    1.2135    0.0000 O   0  0  0  0  0  0  0  0  0  0  0  0
   -1.0323    0.7500    0.0000 C   0  0  0  0  0  0  0  0  0  0  0  0
   -1.0323   -0.7500    0.0000 C   0  0  0  0  0  0  0  0  0  0  0  0
   -2.2458   -1.6317    0.0000 O   0  0  0  0  0  0  0  0  0  0  0  0
    0.3943   -1.2135    0.0000 C   0  0  0  0  0  0  0  0  0  0  0  0
    0.8578   -2.6401    0.0000 O   0  0  0  0  0  0  0  0  0  0  0  0
  1  2  2  0
  2  3  1  0
  3  4  1  0
  4  5  1  0
  5  6  1  0
  5  7  1  0
  7  8  1  0
  7  2  1  0
M  END
>  <Title>  (882) 
idABFZgen8

$$$$

     RDKit          2D

 46 46  0  0  0  0  0  0  0  0999 V2000
   12.2517    0.0000    0.0000 C   0  0  0  0  0  0  0  0  0  0  0  0
   10.7517    0.0000    0.0000 C   0  0  0  0  0  0  0  0  0  0  0  0
   10.6471    1.4963    0.0000 C   0  0  0  0  0  0  0  0  0  0  0  0
   10.3352    2.9636    0.0000 C   0  0  0  0  0  0  0  0  0  0  0  0
    9.8222    4.3731    0.0000 C   0  0  0  0  0  0  0  0  0  0  0  0
    9.1180    5.6975    0.0000 C   0  0  0  0  0  0  0  0  0  0  0  0
    8.2363    6.9111    0.0000 C   0  0  0  0  0  0  0  0  0  0  0  0
    7.1943    7.9901    0.0000 C   0  0  0  0  0  0  0  0  0  0  0  0
    6.0123    8.9136    0.0000 C   0  0  0  0  0  0  0  0  0  0  0  0
    4.7132    9.6636    0.0000 C   0  0  0  0  0  0  0  0  0  0  0  0
    3.3225   10.2255    0.0000 C   0  0  0  0  0  0  0  0  0  0  0  0
    1.8670   10.5883    0.0000 C   0  0  0  0  0  0  0  0  0  0  0  0
    0.3752   10.7451    0.0000 C   0  0  0  0  0  0  0  0  0  0  0  0
   -1.1239   10.6928    0.0000 C   0  0  0  0  0  0  0  0  0  0  0  0
   -2.6011   10.4323    0.0000 C   0  0  0  0  0  0  0  0  0  0  0  0
   -4.0277    9.9688    0.0000 C   0  0  0  0  0  0  0  0  0  0  0  0
   -5.3758    9.3112    0.0000 C   0  0  0  0  0  0  0  0  0  0  0  0
   -6.6194    8.4724    0.0000 C   0  0  0  0  0  0  0  0  0  0  0  0
   -7.7341    7.4688    0.0000 C   0  0  0  0  0  0  0  0  0  0  0  0
   -8.6983    6.3197    0.0000 C   0  0  0  0  0  0  0  0  0  0  0  0
   -9.4932    5.0476    0.0000 C   0  0  0  0  0  0  0  0  0  0  0  0
  -10.1033    3.6773    0.0000 C   0  0  0  0  0  0  0  0  0  0  0  0
  -10.5167    2.2354    0.0000 C   0  0  0  0  0  0  0  0  0  0  0  0
  -10.7255    0.7500    0.0000 C   0  0  0  0  0  0  0  0  0  0  0  0
  -10.7255   -0.7500    0.0000 C   0  0  0  0  0  0  0  0  0  0  0  0
  -10.5167   -2.2354    0.0000 C   0  0  0  0  0  0  0  0  0  0  0  0
  -10.1033   -3.6773    0.0000 C   0  0  0  0  0  0  0  0  0  0  0  0
   -9.4932   -5.0476    0.0000 C   0  0  0  0  0  0  0  0  0  0  0  0
   -8.6983   -6.3197    0.0000 C   0  0  0  0  0  0  0  0  0  0  0  0
   -7.7341   -7.4688    0.0000 C   0  0  0  0  0  0  0  0  0  0  0  0
   -6.6194   -8.4724    0.0000 C   0  0  0  0  0  0  0  0  0  0  0  0
   -5.3758   -9.3112    0.0000 C   0  0  0  0  0  0  0  0  0  0  0  0
   -4.0277   -9.9688    0.0000 C   0  0  0  0  0  0  0  0  0  0  0  0
   -2.6011  -10.4323    0.0000 C   0  0  0  0  0  0  0  0  0  0  0  0
   -1.1239  -10.6928    0.0000 C   0  0  0  0  0  0  0  0  0  0  0  0
    0.3752  -10.7451    0.0000 C   0  0  0  0  0  0  0  0  0  0  0  0
    1.8670  -10.5883    0.0000 C   0  0  0  0  0  0  0  0  0  0  0  0
    3.3225  -10.2255    0.0000 C   0  0  0  0  0  0  0  0  0  0  0  0
    4.7132   -9.6636    0.0000 C   0  0  0  0  0  0  0  0  0  0  0  0
    6.0123   -8.9136    0.0000 C   0  0  0  0  0  0  0  0  0  0  0  0
    7.1943   -7.9901    0.0000 C   0  0  0  0  0  0  0  0  0  0  0  0
    8.2363   -6.9111    0.0000 C   0  0  0  0  0  0  0  0  0  0  0  0
    9.1180   -5.6975    0.0000 C   0  0  0  0  0  0  0  0  0  0  0  0
    9.8222   -4.3731    0.0000 C   0  0  0  0  0  0  0  0  0  0  0  0
   10.3352   -2.9636    0.0000 C   0  0  0  0  0  0  0  0  0  0  0  0
   10.6471   -1.4963    0.0000 C   0  0  0  0  0  0  0  0  0  0  0  0
  1  2  1  0
  2  3  1  0
  3  4  1  0
  4  5  2  0
  5  6  1  0
  6  7  2  0
  7  8  1  0
  8  9  1  0
  9 10  1  0
 10 11  1  0
 11 12  1  0
 12 13  1  0
 13 14  1  0
 14 15  1  0
 15 16  1  0
 16 17  1  0
 17 18  1  0
 18 19  1  0
 19 20  1  0
 20 21  1  0
 21 22  1  0
 22 23  1  0
 23 24  1  0
 24 25  1  0
 25 26  1  0
 26 27  1  0
 27 28  1  0
 28 29  1  0
 29 30  1  0
 30 31  1  0
 31 32  1  0
 32 33  1  0
 33 34  1  0
 34 35  1  0
 35 36  1  0
 36 37  1  0
 37 38  1  0
 38 39  1  0
 39 40  1  0
 40 41  1  0
 41 42  1  0
 42 43  1  0
 43 44  1  0
 44 45  1  0
 45 46  1  0
 46  2  1  0
M  END
>  <Title>  (883) 
idABGAgen8

$$$$

     RDKit          2D

 14 14  0  0  0  0  0  0  0  0999 V2000
    7.5000   -2.5981    0.0000 C   0  0  0  0  0  0  0  0  0  0  0  0
    6.0000   -2.5981    0.0000 C   0  0  0  0  0  0  0  0  0  0  0  0
    5.2500   -1.2990    0.0000 C   0  0  0  0  0  0  0  0  0  0  0  0
    3.7500   -1.2990    0.0000 C   0  0  0  0  0  0  0  0  0  0  0  0
    3.0000   -2.5981    0.0000 O   0  0  0  0  0  0  0  0  0  0  0  0
    3.0000    0.0000    0.0000 N   0  0  0  0  0  0  0  0  0  0  0  0
    1.5000    0.0000    0.0000 C   0  0  0  0  0  0  0  0  0  0  0  0
    0.7500   -1.2990    0.0000 C   0  0  0  0  0  0  0  0  0  0  0  0
   -0.7500   -1.2990    0.0000 C   0  0  0  0  0  0  0  0  0  0  0  0
   -1.5000    0.0000    0.0000 C   0  0  0  0  0  0  0  0  0  0  0  0
   -3.0000    0.0000    0.0000 N   0  0  0  0  0  0  0  0  0  0  0  0
   -0.7500    1.2990    0.0000 C   0  0  0  0  0  0  0  0  0  0  0  0
    0.7500    1.2990    0.0000 C   0  0  0  0  0  0  0  0  0  0  0  0
    1.5000    2.5981    0.0000 O   0  0  0  0  0  0  0  0  0  0  0  0
  1  2  1  0
  2  3  2  3
  3  4  1  0
  4  5  2  0
  4  6  1  0
  6  7  1  0
  7  8  2  0
  8  9  1  0
  9 10  1  0
 10 11  1  0
 10 12  1  0
 12 13  2  0
 13 14  1  0
 13  7  1  0
M  END
>  <Title>  (884) 
idABGBgen8

$$$$

     RDKit          2D

  8  7  0  0  0  0  0  0  0  0999 V2000
    0.0000    0.0000    0.0000 C   0  0  0  0  0  0  0  0  0  0  0  0
   -0.0000   -1.5000    0.0000 C   0  0  0  0  0  0  0  0  0  0  0  0
   -0.0000   -3.0000    0.0000 C   0  0  0  0  0  0  0  0  0  0  0  0
   -0.0000   -4.5000    0.0000 C   0  0  0  0  0  0  0  0  0  0  0  0
   -0.0000   -6.0000    0.0000 C   0  0  0  0  0  0  0  0  0  0  0  0
   -0.0000   -7.5000    0.0000 C   0  0  0  0  0  0  0  0  0  0  0  0
   -0.0000   -9.0000    0.0000 C   0  0  0  0  0  0  0  0  0  0  0  0
   -0.0000  -10.5000    0.0000 C   0  0  0  0  0  0  0  0  0  0  0  0
  1  2  3  0
  2  3  1  0
  3  4  3  0
  4  5  1  0
  5  6  3  0
  6  7  1  0
  7  8  3  0
M  END
>  <Title>  (885) 
idABGCgen8

$$$$

     RDKit          2D

 89 89  0  0  0  0  0  0  0  0999 V2000
   23.7742   -0.0000    0.0000 C   0  0  0  0  0  0  0  0  0  0  0  0
   22.2742   -0.0000    0.0000 C   0  0  0  0  0  0  0  0  0  0  0  0
   20.7742    0.0000    0.0000 C   0  0  0  0  0  0  0  0  0  0  0  0
   20.7201    1.4990    0.0000 C   0  0  0  0  0  0  0  0  0  0  0  0
   20.5579    2.9902    0.0000 C   0  0  0  0  0  0  0  0  0  0  0  0
   20.2885    4.4658    0.0000 C   0  0  0  0  0  0  0  0  0  0  0  0
   19.9134    5.9182    0.0000 C   0  0  0  0  0  0  0  0  0  0  0  0
   19.4345    7.3397    0.0000 C   0  0  0  0  0  0  0  0  0  0  0  0
   18.8542    8.7229    0.0000 C   0  0  0  0  0  0  0  0  0  0  0  0
   18.1756   10.0606    0.0000 C   0  0  0  0  0  0  0  0  0  0  0  0
   17.4023   11.3459    0.0000 C   0  0  0  0  0  0  0  0  0  0  0  0
   16.5382   12.5720    0.0000 C   0  0  0  0  0  0  0  0  0  0  0  0
   15.5879   13.7326    0.0000 C   0  0  0  0  0  0  0  0  0  0  0  0
   14.5564   14.8216    0.0000 C   0  0  0  0  0  0  0  0  0  0  0  0
   13.4490   15.8333    0.0000 C   0  0  0  0  0  0  0  0  0  0  0  0
   12.2714   16.7625    0.0000 C   0  0  0  0  0  0  0  0  0  0  0  0
   11.0299   17.6043    0.0000 C   0  0  0  0  0  0  0  0  0  0  0  0
    9.7308   18.3543    0.0000 C   0  0  0  0  0  0  0  0  0  0  0  0
    8.3811   19.0086    0.0000 C   0  0  0  0  0  0  0  0  0  0  0  0
    6.9876   19.5638    0.0000 C   0  0  0  0  0  0  0  0  0  0  0  0
    5.5577   20.0170    0.0000 C   0  0  0  0  0  0  0  0  0  0  0  0
    4.0988   20.3659    0.0000 C   0  0  0  0  0  0  0  0  0  0  0  0
    2.6186   20.6085    0.0000 C   0  0  0  0  0  0  0  0  0  0  0  0
    1.1247   20.7438    0.0000 C   0  0  0  0  0  0  0  0  0  0  0  0
   -0.3751   20.7708    0.0000 C   0  0  0  0  0  0  0  0  0  0  0  0
   -1.8729   20.6896    0.0000 C   0  0  0  0  0  0  0  0  0  0  0  0
   -3.3609   20.5006    0.0000 C   0  0  0  0  0  0  0  0  0  0  0  0
   -4.8314   20.2046    0.0000 C   0  0  0  0  0  0  0  0  0  0  0  0
   -6.2767   19.8033    0.0000 C   0  0  0  0  0  0  0  0  0  0  0  0
   -7.6893   19.2988    0.0000 C   0  0  0  0  0  0  0  0  0  0  0  0
   -9.0618   18.6936    0.0000 C   0  0  0  0  0  0  0  0  0  0  0  0
  -10.3871   17.9910    0.0000 C   0  0  0  0  0  0  0  0  0  0  0  0
  -11.6582   17.1946    0.0000 C   0  0  0  0  0  0  0  0  0  0  0  0
  -12.8686   16.3086    0.0000 C   0  0  0  0  0  0  0  0  0  0  0  0
  -14.0118   15.3375    0.0000 C   0  0  0  0  0  0  0  0  0  0  0  0
  -15.0820   14.2864    0.0000 C   0  0  0  0  0  0  0  0  0  0  0  0
  -16.0736   13.1609    0.0000 C   0  0  0  0  0  0  0  0  0  0  0  0
  -16.9813   11.9668    0.0000 C   0  0  0  0  0  0  0  0  0  0  0  0
  -17.8006   10.7102    0.0000 C   0  0  0  0  0  0  0  0  0  0  0  0
  -18.5270    9.3979    0.0000 C   0  0  0  0  0  0  0  0  0  0  0  0
  -19.1568    8.0365    0.0000 C   0  0  0  0  0  0  0  0  0  0  0  0
  -19.6868    6.6332    0.0000 C   0  0  0  0  0  0  0  0  0  0  0  0
  -20.1141    5.1954    0.0000 C   0  0  0  0  0  0  0  0  0  0  0  0
  -20.4365    3.7305    0.0000 C   0  0  0  0  0  0  0  0  0  0  0  0
  -20.6525    2.2461    0.0000 C   0  0  0  0  0  0  0  0  0  0  0  0
  -20.7607    0.7500    0.0000 C   0  0  0  0  0  0  0  0  0  0  0  0
  -20.7607   -0.7500    0.0000 C   0  0  0  0  0  0  0  0  0  0  0  0
  -20.6525   -2.2461    0.0000 C   0  0  0  0  0  0  0  0  0  0  0  0
  -20.4365   -3.7305    0.0000 C   0  0  0  0  0  0  0  0  0  0  0  0
  -20.1141   -5.1954    0.0000 C   0  0  0  0  0  0  0  0  0  0  0  0
  -19.6868   -6.6332    0.0000 C   0  0  0  0  0  0  0  0  0  0  0  0
  -19.1568   -8.0365    0.0000 C   0  0  0  0  0  0  0  0  0  0  0  0
  -18.5270   -9.3979    0.0000 C   0  0  0  0  0  0  0  0  0  0  0  0
  -17.8006  -10.7102    0.0000 C   0  0  0  0  0  0  0  0  0  0  0  0
  -16.9813  -11.9668    0.0000 C   0  0  0  0  0  0  0  0  0  0  0  0
  -16.0736  -13.1609    0.0000 C   0  0  0  0  0  0  0  0  0  0  0  0
  -15.0820  -14.2864    0.0000 C   0  0  0  0  0  0  0  0  0  0  0  0
  -14.0118  -15.3375    0.0000 C   0  0  0  0  0  0  0  0  0  0  0  0
  -12.8686  -16.3086    0.0000 C   0  0  0  0  0  0  0  0  0  0  0  0
  -11.6582  -17.1946    0.0000 C   0  0  0  0  0  0  0  0  0  0  0  0
  -10.3871  -17.9910    0.0000 C   0  0  0  0  0  0  0  0  0  0  0  0
   -9.0618  -18.6936    0.0000 C   0  0  0  0  0  0  0  0  0  0  0  0
   -7.6893  -19.2988    0.0000 C   0  0  0  0  0  0  0  0  0  0  0  0
   -6.2767  -19.8033    0.0000 C   0  0  0  0  0  0  0  0  0  0  0  0
   -4.8314  -20.2046    0.0000 C   0  0  0  0  0  0  0  0  0  0  0  0
   -3.3609  -20.5006    0.0000 C   0  0  0  0  0  0  0  0  0  0  0  0
   -1.8729  -20.6896    0.0000 C   0  0  0  0  0  0  0  0  0  0  0  0
   -0.3751  -20.7708    0.0000 C   0  0  0  0  0  0  0  0  0  0  0  0
    1.1247  -20.7438    0.0000 C   0  0  0  0  0  0  0  0  0  0  0  0
    2.6186  -20.6085    0.0000 C   0  0  0  0  0  0  0  0  0  0  0  0
    4.0988  -20.3659    0.0000 C   0  0  0  0  0  0  0  0  0  0  0  0
    5.5577  -20.0170    0.0000 C   0  0  0  0  0  0  0  0  0  0  0  0
    6.9876  -19.5638    0.0000 C   0  0  0  0  0  0  0  0  0  0  0  0
    8.3811  -19.0086    0.0000 C   0  0  0  0  0  0  0  0  0  0  0  0
    9.7308  -18.3543    0.0000 C   0  0  0  0  0  0  0  0  0  0  0  0
   11.0299  -17.6043    0.0000 C   0  0  0  0  0  0  0  0  0  0  0  0
   12.2714  -16.7625    0.0000 C   0  0  0  0  0  0  0  0  0  0  0  0
   13.4490  -15.8333    0.0000 C   0  0  0  0  0  0  0  0  0  0  0  0
   14.5564  -14.8216    0.0000 C   0  0  0  0  0  0  0  0  0  0  0  0
   15.5879  -13.7326    0.0000 C   0  0  0  0  0  0  0  0  0  0  0  0
   16.5382  -12.5720    0.0000 C   0  0  0  0  0  0  0  0  0  0  0  0
   17.4023  -11.3459    0.0000 C   0  0  0  0  0  0  0  0  0  0  0  0
   18.1756  -10.0606    0.0000 C   0  0  0  0  0  0  0  0  0  0  0  0
   18.8542   -8.7229    0.0000 C   0  0  0  0  0  0  0  0  0  0  0  0
   19.4345   -7.3397    0.0000 C   0  0  0  0  0  0  0  0  0  0  0  0
   19.9134   -5.9182    0.0000 C   0  0  0  0  0  0  0  0  0  0  0  0
   20.2885   -4.4658    0.0000 C   0  0  0  0  0  0  0  0  0  0  0  0
   20.5579   -2.9902    0.0000 C   0  0  0  0  0  0  0  0  0  0  0  0
   20.7201   -1.4990    0.0000 C   0  0  0  0  0  0  0  0  0  0  0  0
  1  2  3  0
  2  3  1  0
  3  4  1  0
  4  5  1  0
  5  6  1  0
  6  7  1  0
  7  8  1  0
  8  9  1  0
  9 10  1  0
 10 11  1  0
 11 12  1  0
 12 13  1  0
 13 14  1  0
 14 15  1  0
 15 16  1  0
 16 17  1  0
 17 18  1  0
 18 19  1  0
 19 20  1  0
 20 21  1  0
 21 22  1  0
 22 23  1  0
 23 24  1  0
 24 25  1  0
 25 26  1  0
 26 27  1  0
 27 28  1  0
 28 29  1  0
 29 30  1  0
 30 31  1  0
 31 32  1  0
 32 33  1  0
 33 34  2  0
 34 35  1  0
 35 36  1  0
 36 37  1  0
 37 38  1  0
 38 39  1  0
 39 40  1  0
 40 41  1  0
 41 42  1  0
 42 43  1  0
 43 44  1  0
 44 45  1  0
 45 46  1  0
 46 47  1  0
 47 48  1  0
 48 49  1  0
 49 50  1  0
 50 51  1  0
 51 52  1  0
 52 53  1  0
 53 54  1  0
 54 55  1  0
 55 56  1  0
 56 57  1  0
 57 58  1  0
 58 59  1  0
 59 60  1  0
 60 61  1  0
 61 62  1  0
 62 63  1  0
 63 64  1  0
 64 65  1  0
 65 66  1  0
 66 67  1  0
 67 68  1  0
 68 69  1  0
 69 70  1  0
 70 71  1  0
 71 72  1  0
 72 73  1  0
 73 74  1  0
 74 75  1  0
 75 76  1  0
 76 77  1  0
 77 78  1  0
 78 79  1  0
 79 80  1  0
 80 81  1  0
 81 82  1  0
 82 83  1  0
 83 84  1  0
 84 85  1  0
 85 86  1  0
 86 87  1  0
 87 88  1  0
 88 89  1  0
 89  3  1  0
M  END
>  <Title>  (886) 
idABGDgen8

$$$$

     RDKit          2D

  9  9  0  0  0  0  0  0  0  0999 V2000
    3.2286   -0.0000    0.0000 C   0  0  0  0  0  0  0  0  0  0  0  0
    1.7286    0.0000    0.0000 C   0  0  0  0  0  0  0  0  0  0  0  0
    1.0777    1.3515    0.0000 C   0  0  0  0  0  0  0  0  0  0  0  0
   -0.3846    1.6852    0.0000 C   0  0  0  0  0  0  0  0  0  0  0  0
   -1.5574    0.7500    0.0000 C   0  0  0  0  0  0  0  0  0  0  0  0
   -2.9088    1.4008    0.0000 O   0  0  0  0  0  0  0  0  0  0  0  0
   -1.5574   -0.7500    0.0000 C   0  0  0  0  0  0  0  0  0  0  0  0
   -0.3846   -1.6852    0.0000 C   0  0  0  0  0  0  0  0  0  0  0  0
    1.0777   -1.3515    0.0000 C   0  0  0  0  0  0  0  0  0  0  0  0
  1  2  1  0
  2  3  2  0
  3  4  1  0
  4  5  1  0
  5  6  1  0
  5  7  1  0
  7  8  1  0
  8  9  1  0
  9  2  1  0
M  END
>  <Title>  (887) 
idABGEgen8

$$$$

     RDKit          2D

  9  8  0  0  0  0  0  0  0  0999 V2000
    0.0000    0.0000    0.0000 C   0  0  0  0  0  0  0  0  0  0  0  0
    1.2990    0.7500    0.0000 C   0  0  0  0  0  0  0  0  0  0  0  0
    2.5981   -0.0000    0.0000 C   0  0  0  0  0  0  0  0  0  0  0  0
    3.8971    0.7500    0.0000 C   0  0  0  0  0  0  0  0  0  0  0  0
    5.1962   -0.0000    0.0000 C   0  0  0  0  0  0  0  0  0  0  0  0
    6.4952    0.7500    0.0000 C   0  0  0  0  0  0  0  0  0  0  0  0
    6.4952    2.2500    0.0000 O   0  0  0  0  0  0  0  0  0  0  0  0
    7.7942   -0.0000    0.0000 C   0  0  0  0  0  0  0  0  0  0  0  0
    9.0933    0.7500    0.0000 C   0  0  0  0  0  0  0  0  0  0  0  0
  1  2  1  0
  2  3  1  0
  3  4  2  3
  4  5  1  0
  5  6  1  0
  6  7  2  0
  6  8  1  0
  8  9  1  0
M  END
>  <Title>  (888) 
idABGFgen8

$$$$

     RDKit          2D

 22 23  0  0  0  0  0  0  0  0999 V2000
    3.5260    1.2990    0.0000 O   0  0  0  0  0  0  0  0  0  0  0  0
    2.7760    0.0000    0.0000 C   0  0  0  0  0  0  0  0  0  0  0  0
    3.5260   -1.2990    0.0000 O   0  0  0  0  0  0  0  0  0  0  0  0
    1.2760    0.0000    0.0000 C   0  0  0  0  0  0  0  0  0  0  0  0
    0.3943    1.2135    0.0000 C   0  0  0  0  0  0  0  0  0  0  0  0
   -1.0323    0.7500    0.0000 C   0  0  0  0  0  0  0  0  0  0  0  0
   -1.0323   -0.7500    0.0000 N   0  0  0  0  0  0  0  0  0  0  0  0
   -2.2458   -1.6317    0.0000 C   0  0  0  0  0  0  0  0  0  0  0  0
   -2.0890   -3.1235    0.0000 O   0  0  0  0  0  0  0  0  0  0  0  0
   -3.6161   -1.0216    0.0000 C   0  0  0  0  0  0  0  0  0  0  0  0
   -3.7729    0.4702    0.0000 O   0  0  0  0  0  0  0  0  0  0  0  0
   -4.8297   -1.9033    0.0000 N   0  0  0  0  0  0  0  0  0  0  0  0
   -4.8297   -3.4033    0.0000 C   0  0  0  0  0  0  0  0  0  0  0  0
   -6.2562   -3.8668    0.0000 C   0  0  0  0  0  0  0  0  0  0  0  0
   -7.1379   -2.6533    0.0000 N   0  0  0  0  0  0  0  0  0  0  0  0
   -8.6379   -2.6533    0.0000 C   0  0  0  0  0  0  0  0  0  0  0  0
   -9.3879   -3.9523    0.0000 O   0  0  0  0  0  0  0  0  0  0  0  0
   -9.3879   -1.3542    0.0000 O   0  0  0  0  0  0  0  0  0  0  0  0
   -6.2562   -1.4397    0.0000 C   0  0  0  0  0  0  0  0  0  0  0  0
   -6.7198   -0.0131    0.0000 O   0  0  0  0  0  0  0  0  0  0  0  0
    0.3943   -1.2135    0.0000 C   0  0  0  0  0  0  0  0  0  0  0  0
    0.8578   -2.6401    0.0000 O   0  0  0  0  0  0  0  0  0  0  0  0
  1  2  2  0
  2  3  1  0
  2  4  1  0
  4  5  1  0
  5  6  1  0
  6  7  1  0
  7  8  1  0
  8  9  2  0
  8 10  1  0
 10 11  2  0
 10 12  1  0
 12 13  1  0
 13 14  1  0
 14 15  1  0
 15 16  1  0
 16 17  2  0
 16 18  1  0
 15 19  1  0
 19 20  2  0
  7 21  1  0
 21 22  2  0
 21  4  1  0
 19 12  1  0
M  END
>  <Title>  (889) 
idABGGgen8

$$$$

     RDKit          2D

  7  7  0  0  0  0  0  0  0  0999 V2000
    2.7760    0.0000    0.0000 C   0  0  0  0  0  0  0  0  0  0  0  0
    1.2760    0.0000    0.0000 C   0  0  0  0  0  0  0  0  0  0  0  0
    0.3943    1.2135    0.0000 C   0  0  0  0  0  0  0  0  0  0  0  0
   -1.0323    0.7500    0.0000 C   0  0  0  0  0  0  0  0  0  0  0  0
   -1.0323   -0.7500    0.0000 C   0  0  0  0  0  0  0  0  0  0  0  0
   -2.2458   -1.6317    0.0000 C   0  0  0  0  0  0  0  0  0  0  0  0
    0.3943   -1.2135    0.0000 C   0  0  0  0  0  0  0  0  0  0  0  0
  1  2  1  0
  2  3  2  0
  3  4  1  0
  4  5  1  0
  5  6  1  0
  5  7  2  0
  7  2  1  0
M  END
>  <Title>  (890) 
idABGHgen8

$$$$

     RDKit          2D

  6  5  0  0  0  0  0  0  0  0999 V2000
    0.0000    0.0000    0.0000 C   0  0  0  0  0  0  0  0  0  0  0  0
    1.2990    0.7500    0.0000 C   0  0  0  0  0  0  0  0  0  0  0  0
    2.5981   -0.0000    0.0000 C   0  0  0  0  0  0  0  0  0  0  0  0
    2.5981   -1.5000    0.0000 O   0  0  0  0  0  0  0  0  0  0  0  0
    3.8971    0.7500    0.0000 C   0  0  0  0  0  0  0  0  0  0  0  0
    5.1962   -0.0000    0.0000 C   0  0  0  0  0  0  0  0  0  0  0  0
  1  2  1  0
  2  3  1  0
  3  4  1  0
  3  5  1  0
  5  6  1  0
M  END
>  <Title>  (891) 
idABGIgen8

$$$$

     RDKit          2D

  7  7  0  0  0  0  0  0  0  0999 V2000
    3.0000    0.0000    0.0000 C   0  0  0  0  0  0  0  0  0  0  0  0
    1.5000    0.0000    0.0000 N   0  0  0  0  0  0  0  0  0  0  0  0
    0.7500   -1.2990    0.0000 C   0  0  0  0  0  0  0  0  0  0  0  0
   -0.7500   -1.2990    0.0000 C   0  0  0  0  0  0  0  0  0  0  0  0
   -1.5000    0.0000    0.0000 C   0  0  0  0  0  0  0  0  0  0  0  0
   -0.7500    1.2990    0.0000 C   0  0  0  0  0  0  0  0  0  0  0  0
    0.7500    1.2990    0.0000 C   0  0  0  0  0  0  0  0  0  0  0  0
  1  2  1  0
  2  3  1  0
  3  4  2  0
  4  5  1  0
  5  6  2  0
  6  7  1  0
  7  2  1  0
M  END
>  <Title>  (892) 
idABGJgen8

$$$$

     RDKit          2D

 11 11  0  0  0  0  0  0  0  0999 V2000
    3.1935   -3.4746    0.0000 C   0  0  0  0  0  0  0  0  0  0  0  0
    2.0788   -2.4709    0.0000 C   0  0  0  0  0  0  0  0  0  0  0  0
    2.3907   -1.0037    0.0000 C   0  0  0  0  0  0  0  0  0  0  0  0
    1.2760    0.0000    0.0000 C   0  0  0  0  0  0  0  0  0  0  0  0
    2.3907    1.0037    0.0000 C   0  0  0  0  0  0  0  0  0  0  0  0
    0.3943    1.2135    0.0000 C   0  0  0  0  0  0  0  0  0  0  0  0
   -1.0323    0.7500    0.0000 C   0  0  0  0  0  0  0  0  0  0  0  0
   -2.2458    1.6317    0.0000 N   0  0  0  0  0  0  0  0  0  0  0  0
   -1.0323   -0.7500    0.0000 C   0  0  0  0  0  0  0  0  0  0  0  0
    0.3943   -1.2135    0.0000 C   0  0  0  0  0  0  0  0  0  0  0  0
    0.8578   -2.6401    0.0000 C   0  0  0  0  0  0  0  0  0  0  0  0
  1  2  1  0
  2  3  1  0
  3  4  1  0
  4  5  1  0
  4  6  1  0
  6  7  1  0
  7  8  1  0
  7  9  1  0
  9 10  2  0
 10 11  1  0
 10  4  1  0
M  END
>  <Title>  (893) 
idABGKgen8

$$$$

     RDKit          2D

  7  7  0  0  0  0  0  0  0  0999 V2000
    2.7760    0.0000    0.0000 C   0  0  0  0  0  0  0  0  0  0  0  0
    1.2760    0.0000    0.0000 C   0  0  0  0  0  0  0  0  0  0  0  0
    0.3943    1.2135    0.0000 C   0  0  0  0  0  0  0  0  0  0  0  0
   -1.0323    0.7500    0.0000 C   0  0  0  0  0  0  0  0  0  0  0  0
   -1.0323   -0.7500    0.0000 C   0  0  0  0  0  0  0  0  0  0  0  0
    0.3943   -1.2135    0.0000 C   0  0  0  0  0  0  0  0  0  0  0  0
    0.8578   -2.6401    0.0000 O   0  0  0  0  0  0  0  0  0  0  0  0
  1  2  1  0
  2  3  2  0
  3  4  1  0
  4  5  1  0
  5  6  2  0
  6  7  1  0
  6  2  1  0
M  END
>  <Title>  (894) 
idABGLgen8

$$$$

     RDKit          2D

  7  7  0  0  0  0  0  0  0  0999 V2000
    3.0000    0.0000    0.0000 O   0  0  0  0  0  0  0  0  0  0  0  0
    1.5000    0.0000    0.0000 C   0  0  0  0  0  0  0  0  0  0  0  0
    0.7500   -1.2990    0.0000 C   0  0  0  0  0  0  0  0  0  0  0  0
   -0.7500   -1.2990    0.0000 C   0  0  0  0  0  0  0  0  0  0  0  0
   -1.5000    0.0000    0.0000 C   0  0  0  0  0  0  0  0  0  0  0  0
   -0.7500    1.2990    0.0000 C   0  0  0  0  0  0  0  0  0  0  0  0
    0.7500    1.2990    0.0000 C   0  0  0  0  0  0  0  0  0  0  0  0
  1  2  1  0
  2  3  2  0
  3  4  1  0
  4  5  1  0
  5  6  1  0
  6  7  2  0
  7  2  1  0
M  END
>  <Title>  (895) 
idABGMgen8

$$$$

     RDKit          2D

 22 24  0  0  0  0  0  0  0  0999 V2000
   -4.2135   -5.3237    0.0000 C   0  0  0  0  0  0  0  0  0  0  0  0
   -3.4635   -4.0247    0.0000 C   0  0  0  0  0  0  0  0  0  0  0  0
   -1.9635   -4.0247    0.0000 C   0  0  0  0  0  0  0  0  0  0  0  0
   -1.2135   -2.7256    0.0000 C   0  0  0  0  0  0  0  0  0  0  0  0
   -2.5838   -2.1155    0.0000 O   0  0  0  0  0  0  0  0  0  0  0  0
   -0.0000   -3.6073    0.0000 C   0  0  0  0  0  0  0  0  0  0  0  0
    1.2135   -2.7256    0.0000 C   0  0  0  0  0  0  0  0  0  0  0  0
    2.6401   -3.1891    0.0000 C   0  0  0  0  0  0  0  0  0  0  0  0
    3.7548   -2.1855    0.0000 O   0  0  0  0  0  0  0  0  0  0  0  0
    2.9520   -4.6564    0.0000 O   0  0  0  0  0  0  0  0  0  0  0  0
    4.3786   -5.1199    0.0000 C   0  0  0  0  0  0  0  0  0  0  0  0
    4.6904   -6.5871    0.0000 N   0  0  0  0  0  0  0  0  0  0  0  0
    6.1170   -7.0506    0.0000 N   0  0  0  0  0  0  0  0  0  0  0  0
    7.2317   -6.0469    0.0000 N   0  0  0  0  0  0  0  0  0  0  0  0
    6.9199   -4.5797    0.0000 N   0  0  0  0  0  0  0  0  0  0  0  0
    5.4933   -4.1162    0.0000 N   0  0  0  0  0  0  0  0  0  0  0  0
    0.7500   -1.2990    0.0000 C   0  0  0  0  0  0  0  0  0  0  0  0
    1.5000    0.0000    0.0000 C   0  0  0  0  0  0  0  0  0  0  0  0
    0.7500    1.2990    0.0000 C   0  0  0  0  0  0  0  0  0  0  0  0
   -0.7500    1.2990    0.0000 C   0  0  0  0  0  0  0  0  0  0  0  0
   -1.5000    0.0000    0.0000 C   0  0  0  0  0  0  0  0  0  0  0  0
   -0.7500   -1.2990    0.0000 C   0  0  0  0  0  0  0  0  0  0  0  0
  1  2  1  0
  2  3  1  0
  3  4  1  0
  4  5  1  0
  4  6  1  0
  6  7  1  0
  7  8  1  0
  8  9  2  0
  8 10  1  0
 10 11  1  0
 11 12  2  0
 12 13  1  0
 13 14  2  0
 14 15  1  0
 15 16  2  0
  7 17  1  0
 17 18  2  0
 18 19  1  0
 19 20  2  0
 20 21  1  0
 21 22  2  0
 22  4  1  0
 16 11  1  0
 22 17  1  0
M  END
>  <Title>  (896) 
idABGNgen8

$$$$

     RDKit          2D

  7  7  0  0  0  0  0  0  0  0999 V2000
    2.1213    1.0607    0.0000 C   0  0  0  0  0  0  0  0  0  0  0  0
    1.0607    0.0000    0.0000 C   0  0  0  0  0  0  0  0  0  0  0  0
    2.1213   -1.0607    0.0000 C   0  0  0  0  0  0  0  0  0  0  0  0
   -0.0000   -1.0607    0.0000 C   0  0  0  0  0  0  0  0  0  0  0  0
   -1.0607    0.0000    0.0000 C   0  0  0  0  0  0  0  0  0  0  0  0
    0.0000    1.0607    0.0000 C   0  0  0  0  0  0  0  0  0  0  0  0
    0.0000    2.5607    0.0000 N   0  0  0  0  0  0  0  0  0  0  0  0
  1  2  1  0
  2  3  1  0
  2  4  1  0
  4  5  1  0
  5  6  2  0
  6  7  1  0
  6  2  1  0
M  END
>  <Title>  (897) 
idABGOgen8

$$$$

     RDKit          2D

  8  8  0  0  0  0  0  0  0  0999 V2000
    4.5000    0.0000    0.0000 C   0  0  0  0  0  0  0  0  0  0  0  0
    3.0000    0.0000    0.0000 C   0  0  0  0  0  0  0  0  0  0  0  0
    1.5000    0.0000    0.0000 C   0  0  0  0  0  0  0  0  0  0  0  0
    0.7500   -1.2990    0.0000 C   0  0  0  0  0  0  0  0  0  0  0  0
   -0.7500   -1.2990    0.0000 C   0  0  0  0  0  0  0  0  0  0  0  0
   -1.5000    0.0000    0.0000 C   0  0  0  0  0  0  0  0  0  0  0  0
   -0.7500    1.2990    0.0000 C   0  0  0  0  0  0  0  0  0  0  0  0
    0.7500    1.2990    0.0000 C   0  0  0  0  0  0  0  0  0  0  0  0
  1  2  3  0
  2  3  1  0
  3  4  2  0
  4  5  1  0
  5  6  1  0
  6  7  2  0
  7  8  1  0
  8  3  1  0
M  END
>  <Title>  (898) 
idABGPgen8

$$$$

     RDKit          2D

  7  7  0  0  0  0  0  0  0  0999 V2000
    3.5260   -1.2990    0.0000 C   0  0  0  0  0  0  0  0  0  0  0  0
    2.7760    0.0000    0.0000 C   0  0  0  0  0  0  0  0  0  0  0  0
    1.2760    0.0000    0.0000 C   0  0  0  0  0  0  0  0  0  0  0  0
    0.3943    1.2135    0.0000 C   0  0  0  0  0  0  0  0  0  0  0  0
   -1.0323    0.7500    0.0000 C   0  0  0  0  0  0  0  0  0  0  0  0
   -1.0323   -0.7500    0.0000 C   0  0  0  0  0  0  0  0  0  0  0  0
    0.3943   -1.2135    0.0000 C   0  0  0  0  0  0  0  0  0  0  0  0
  1  2  2  0
  2  3  1  0
  3  4  2  0
  4  5  1  0
  5  6  1  0
  6  7  2  0
  7  3  1  0
M  END
>  <Title>  (899) 
idABGQgen8

$$$$

     RDKit          2D

  8  7  0  0  0  0  0  0  0  0999 V2000
    0.0000    0.0000    0.0000 C   0  0  0  0  0  0  0  0  0  0  0  0
    1.2990    0.7500    0.0000 C   0  0  0  0  0  0  0  0  0  0  0  0
    2.5981   -0.0000    0.0000 C   0  0  0  0  0  0  0  0  0  0  0  0
    3.8971   -0.7500    0.0000 C   0  0  0  0  0  0  0  0  0  0  0  0
    5.1962   -1.5000    0.0000 C   0  0  0  0  0  0  0  0  0  0  0  0
    6.4952   -2.2500    0.0000 C   0  0  0  0  0  0  0  0  0  0  0  0
    7.7942   -3.0000    0.0000 C   0  0  0  0  0  0  0  0  0  0  0  0
    9.0933   -3.7500    0.0000 N   0  0  0  0  0  0  0  0  0  0  0  0
  1  2  2  0
  2  3  1  0
  3  4  3  0
  4  5  1  0
  5  6  3  0
  6  7  1  0
  7  8  3  0
M  END
>  <Title>  (900) 
idABGRgen8

$$$$

     RDKit          2D

  8  7  0  0  0  0  0  0  0  0999 V2000
    0.0000    0.0000    0.0000 C   0  0  0  0  0  0  0  0  0  0  0  0
    1.2990    0.7500    0.0000 C   0  0  0  0  0  0  0  0  0  0  0  0
    2.5981    1.5000    0.0000 C   0  0  0  0  0  0  0  0  0  0  0  0
    3.8971    2.2500    0.0000 C   0  0  0  0  0  0  0  0  0  0  0  0
    5.1962    1.5000    0.0000 C   0  0  0  0  0  0  0  0  0  0  0  0
    6.4952    2.2500    0.0000 C   0  0  0  0  0  0  0  0  0  0  0  0
    7.7942    1.5000    0.0000 C   0  0  0  0  0  0  0  0  0  0  0  0
    9.0933    2.2500    0.0000 C   0  0  0  0  0  0  0  0  0  0  0  0
  1  2  1  0
  2  3  3  0
  3  4  1  0
  4  5  1  0
  5  6  1  0
  6  7  2  3
  7  8  1  0
M  END
>  <Title>  (901) 
idABGSgen8

$$$$

     RDKit          2D

 60 66  0  0  0  0  0  0  0  0999 V2000
   -7.9251  -11.9633    0.0000 C   0  0  0  0  0  0  0  0  0  0  0  0
   -6.5548  -11.3532    0.0000 C   0  0  0  0  0  0  0  0  0  0  0  0
   -5.8048  -12.6522    0.0000 C   0  0  0  0  0  0  0  0  0  0  0  0
   -4.8011  -13.7669    0.0000 C   0  0  0  0  0  0  0  0  0  0  0  0
   -3.5875  -14.6486    0.0000 C   0  0  0  0  0  0  0  0  0  0  0  0
   -2.2172  -15.2587    0.0000 C   0  0  0  0  0  0  0  0  0  0  0  0
   -0.7500  -15.5706    0.0000 C   0  0  0  0  0  0  0  0  0  0  0  0
    0.7500  -15.5706    0.0000 C   0  0  0  0  0  0  0  0  0  0  0  0
    2.2172  -15.2587    0.0000 C   0  0  0  0  0  0  0  0  0  0  0  0
    3.5875  -14.6486    0.0000 C   0  0  0  0  0  0  0  0  0  0  0  0
    4.8011  -13.7669    0.0000 C   0  0  0  0  0  0  0  0  0  0  0  0
    5.8048  -12.6522    0.0000 C   0  0  0  0  0  0  0  0  0  0  0  0
    6.5548  -11.3532    0.0000 C   0  0  0  0  0  0  0  0  0  0  0  0
    7.0183   -9.9266    0.0000 C   0  0  0  0  0  0  0  0  0  0  0  0
    7.1751   -8.4348    0.0000 C   0  0  0  0  0  0  0  0  0  0  0  0
    7.0183   -6.9430    0.0000 C   0  0  0  0  0  0  0  0  0  0  0  0
    6.5548   -5.5164    0.0000 C   0  0  0  0  0  0  0  0  0  0  0  0
    5.8048   -4.2174    0.0000 C   0  0  0  0  0  0  0  0  0  0  0  0
    4.8011   -3.1027    0.0000 C   0  0  0  0  0  0  0  0  0  0  0  0
    3.5875   -2.2210    0.0000 C   0  0  0  0  0  0  0  0  0  0  0  0
    2.2172   -1.6109    0.0000 C   0  0  0  0  0  0  0  0  0  0  0  0
    2.6807   -0.1843    0.0000 C   0  0  0  0  0  0  0  0  0  0  0  0
    1.6771    0.9304    0.0000 O   0  0  0  0  0  0  0  0  0  0  0  0
    4.1480    0.1275    0.0000 N   0  0  0  0  0  0  0  0  0  0  0  0
    4.6115    1.5541    0.0000 C   0  0  0  0  0  0  0  0  0  0  0  0
    6.0787    1.8660    0.0000 N   0  0  0  0  0  0  0  0  0  0  0  0
    6.5422    3.2926    0.0000 N   0  0  0  0  0  0  0  0  0  0  0  0
    5.5385    4.4073    0.0000 N   0  0  0  0  0  0  0  0  0  0  0  0
    4.0713    4.0954    0.0000 N   0  0  0  0  0  0  0  0  0  0  0  0
    3.6078    2.6688    0.0000 N   0  0  0  0  0  0  0  0  0  0  0  0
    0.7500   -1.2990    0.0000 C   0  0  0  0  0  0  0  0  0  0  0  0
    1.5000    0.0000    0.0000 C   0  0  0  0  0  0  0  0  0  0  0  0
    0.7500    1.2990    0.0000 C   0  0  0  0  0  0  0  0  0  0  0  0
   -0.7500    1.2990    0.0000 C   0  0  0  0  0  0  0  0  0  0  0  0
   -1.5000    0.0000    0.0000 C   0  0  0  0  0  0  0  0  0  0  0  0
   -0.7500   -1.2990    0.0000 C   0  0  0  0  0  0  0  0  0  0  0  0
   -2.2172   -1.6109    0.0000 C   0  0  0  0  0  0  0  0  0  0  0  0
   -2.6999   -0.4038    0.0000 C   0  0  0  0  0  0  0  0  0  0  0  0
   -3.3471    0.0664    0.0000 C   0  0  0  0  0  0  0  0  0  0  0  0
   -4.0780   -0.2590    0.0000 C   0  0  0  0  0  0  0  0  0  0  0  0
   -4.1616   -1.0546    0.0000 C   0  0  0  0  0  0  0  0  0  0  0  0
   -3.5875   -2.2210    0.0000 C   0  0  0  0  0  0  0  0  0  0  0  0
   -4.8011   -3.1027    0.0000 C   0  0  0  0  0  0  0  0  0  0  0  0
   -5.2646   -1.6761    0.0000 C   0  0  0  0  0  0  0  0  0  0  0  0
   -6.7318   -1.3642    0.0000 C   0  0  0  0  0  0  0  0  0  0  0  0
   -7.7355   -2.4790    0.0000 C   0  0  0  0  0  0  0  0  0  0  0  0
   -7.2720   -3.9055    0.0000 C   0  0  0  0  0  0  0  0  0  0  0  0
   -5.8048   -4.2174    0.0000 C   0  0  0  0  0  0  0  0  0  0  0  0
   -6.5548   -5.5164    0.0000 C   0  0  0  0  0  0  0  0  0  0  0  0
   -7.7748   -5.0675    0.0000 C   0  0  0  0  0  0  0  0  0  0  0  0
   -8.5573   -5.2338    0.0000 C   0  0  0  0  0  0  0  0  0  0  0  0
   -8.8045   -5.9946    0.0000 C   0  0  0  0  0  0  0  0  0  0  0  0
   -8.2692   -6.5892    0.0000 C   0  0  0  0  0  0  0  0  0  0  0  0
   -7.0183   -6.9430    0.0000 C   0  0  0  0  0  0  0  0  0  0  0  0
   -7.1751   -8.4348    0.0000 C   0  0  0  0  0  0  0  0  0  0  0  0
   -8.5454   -7.8247    0.0000 C   0  0  0  0  0  0  0  0  0  0  0  0
   -9.7589   -8.7064    0.0000 C   0  0  0  0  0  0  0  0  0  0  0  0
   -9.6021  -10.1982    0.0000 C   0  0  0  0  0  0  0  0  0  0  0  0
   -8.2318  -10.8083    0.0000 C   0  0  0  0  0  0  0  0  0  0  0  0
   -7.0183   -9.9266    0.0000 C   0  0  0  0  0  0  0  0  0  0  0  0
  1  2  1  0
  2  3  1  0
  3  4  1  0
  4  5  1  0
  5  6  1  0
  6  7  1  0
  7  8  1  0
  8  9  1  0
  9 10  1  0
 10 11  1  0
 11 12  1  0
 12 13  1  0
 13 14  1  0
 14 15  1  0
 15 16  1  0
 16 17  1  0
 17 18  1  0
 18 19  1  0
 19 20  1  0
 20 21  1  0
 21 22  1  0
 22 23  2  0
 22 24  1  0
 24 25  1  0
 25 26  2  0
 26 27  1  0
 27 28  2  0
 28 29  1  0
 29 30  2  0
 21 31  1  0
 31 32  2  0
 32 33  1  0
 33 34  2  0
 34 35  1  0
 35 36  2  0
 36 37  1  0
 37 38  2  0
 38 39  1  0
 39 40  2  0
 40 41  1  0
 41 42  2  0
 42 43  1  0
 43 44  2  0
 44 45  1  0
 45 46  2  0
 46 47  1  0
 47 48  2  0
 48 49  1  0
 49 50  2  0
 50 51  1  0
 51 52  2  0
 52 53  1  0
 53 54  2  0
 54 55  1  0
 55 56  2  0
 56 57  1  0
 57 58  2  0
 58 59  1  0
 59 60  2  0
 60  2  1  0
 30 25  1  0
 36 31  1  0
 42 37  1  0
 48 43  1  0
 54 49  1  0
 60 55  1  0
M  END
>  <Title>  (902) 
idABGTgen8

$$$$

     RDKit          2D

114114  0  0  0  0  0  0  0  0999 V2000
   28.4802    0.0000    0.0000 C   0  0  0  0  0  0  0  0  0  0  0  0
   26.9802    0.0000    0.0000 C   0  0  0  0  0  0  0  0  0  0  0  0
   26.9385    1.4994    0.0000 C   0  0  0  0  0  0  0  0  0  0  0  0
   26.8136    2.9942    0.0000 C   0  0  0  0  0  0  0  0  0  0  0  0
   26.6057    4.4797    0.0000 C   0  0  0  0  0  0  0  0  0  0  0  0
   26.3157    5.9514    0.0000 C   0  0  0  0  0  0  0  0  0  0  0  0
   25.9442    7.4047    0.0000 C   0  0  0  0  0  0  0  0  0  0  0  0
   25.4926    8.8351    0.0000 C   0  0  0  0  0  0  0  0  0  0  0  0
   24.9622   10.2382    0.0000 C   0  0  0  0  0  0  0  0  0  0  0  0
   24.3547   11.6096    0.0000 C   0  0  0  0  0  0  0  0  0  0  0  0
   23.6718   12.9452    0.0000 C   0  0  0  0  0  0  0  0  0  0  0  0
   22.9158   14.2408    0.0000 C   0  0  0  0  0  0  0  0  0  0  0  0
   22.0890   15.4923    0.0000 C   0  0  0  0  0  0  0  0  0  0  0  0
   21.1938   16.6959    0.0000 C   0  0  0  0  0  0  0  0  0  0  0  0
   20.2332   17.8480    0.0000 C   0  0  0  0  0  0  0  0  0  0  0  0
   19.2100   18.9449    0.0000 C   0  0  0  0  0  0  0  0  0  0  0  0
   18.1275   19.9832    0.0000 C   0  0  0  0  0  0  0  0  0  0  0  0
   16.9889   20.9597    0.0000 C   0  0  0  0  0  0  0  0  0  0  0  0
   15.7978   21.8715    0.0000 C   0  0  0  0  0  0  0  0  0  0  0  0
   14.5579   22.7156    0.0000 C   0  0  0  0  0  0  0  0  0  0  0  0
   13.2730   23.4896    0.0000 C   0  0  0  0  0  0  0  0  0  0  0  0
   11.9471   24.1909    0.0000 C   0  0  0  0  0  0  0  0  0  0  0  0
   10.5842   24.8175    0.0000 C   0  0  0  0  0  0  0  0  0  0  0  0
    9.1886   25.3674    0.0000 C   0  0  0  0  0  0  0  0  0  0  0  0
    7.7646   25.8388    0.0000 C   0  0  0  0  0  0  0  0  0  0  0  0
    6.3166   26.2304    0.0000 C   0  0  0  0  0  0  0  0  0  0  0  0
    4.8491   26.5409    0.0000 C   0  0  0  0  0  0  0  0  0  0  0  0
    3.3666   26.7694    0.0000 C   0  0  0  0  0  0  0  0  0  0  0  0
    1.8737   26.9151    0.0000 C   0  0  0  0  0  0  0  0  0  0  0  0
    0.3750   26.9776    0.0000 C   0  0  0  0  0  0  0  0  0  0  0  0
   -1.1248   26.9568    0.0000 C   0  0  0  0  0  0  0  0  0  0  0  0
   -2.6212   26.8526    0.0000 C   0  0  0  0  0  0  0  0  0  0  0  0
   -4.1095   26.6654    0.0000 C   0  0  0  0  0  0  0  0  0  0  0  0
   -5.5850   26.3958    0.0000 C   0  0  0  0  0  0  0  0  0  0  0  0
   -7.0434   26.0447    0.0000 C   0  0  0  0  0  0  0  0  0  0  0  0
   -8.4799   25.6130    0.0000 C   0  0  0  0  0  0  0  0  0  0  0  0
   -9.8902   25.1021    0.0000 C   0  0  0  0  0  0  0  0  0  0  0  0
  -11.2700   24.5137    0.0000 C   0  0  0  0  0  0  0  0  0  0  0  0
  -12.6149   23.8495    0.0000 C   0  0  0  0  0  0  0  0  0  0  0  0
  -13.9208   23.1115    0.0000 C   0  0  0  0  0  0  0  0  0  0  0  0
  -15.1837   22.3022    0.0000 C   0  0  0  0  0  0  0  0  0  0  0  0
  -16.3997   21.4239    0.0000 C   0  0  0  0  0  0  0  0  0  0  0  0
  -17.5650   20.4794    0.0000 C   0  0  0  0  0  0  0  0  0  0  0  0
  -18.6760   19.4715    0.0000 C   0  0  0  0  0  0  0  0  0  0  0  0
  -19.7293   18.4035    0.0000 C   0  0  0  0  0  0  0  0  0  0  0  0
  -20.7215   17.2786    0.0000 C   0  0  0  0  0  0  0  0  0  0  0  0
  -21.6498   16.1003    0.0000 C   0  0  0  0  0  0  0  0  0  0  0  0
  -22.5111   14.8723    0.0000 C   0  0  0  0  0  0  0  0  0  0  0  0
  -23.3028   13.5982    0.0000 C   0  0  0  0  0  0  0  0  0  0  0  0
  -24.0225   12.2822    0.0000 C   0  0  0  0  0  0  0  0  0  0  0  0
  -24.6680   10.9281    0.0000 C   0  0  0  0  0  0  0  0  0  0  0  0
  -25.2372    9.5403    0.0000 C   0  0  0  0  0  0  0  0  0  0  0  0
  -25.7284    8.1230    0.0000 C   0  0  0  0  0  0  0  0  0  0  0  0
  -26.1401    6.6806    0.0000 C   0  0  0  0  0  0  0  0  0  0  0  0
  -26.4709    5.2176    0.0000 C   0  0  0  0  0  0  0  0  0  0  0  0
  -26.7200    3.7384    0.0000 C   0  0  0  0  0  0  0  0  0  0  0  0
  -26.8864    2.2477    0.0000 C   0  0  0  0  0  0  0  0  0  0  0  0
  -26.9698    0.7500    0.0000 C   0  0  0  0  0  0  0  0  0  0  0  0
  -26.9698   -0.7500    0.0000 C   0  0  0  0  0  0  0  0  0  0  0  0
  -26.8864   -2.2477    0.0000 C   0  0  0  0  0  0  0  0  0  0  0  0
  -26.7200   -3.7384    0.0000 C   0  0  0  0  0  0  0  0  0  0  0  0
  -26.4709   -5.2176    0.0000 C   0  0  0  0  0  0  0  0  0  0  0  0
  -26.1401   -6.6806    0.0000 C   0  0  0  0  0  0  0  0  0  0  0  0
  -25.7284   -8.1230    0.0000 C   0  0  0  0  0  0  0  0  0  0  0  0
  -25.2372   -9.5403    0.0000 C   0  0  0  0  0  0  0  0  0  0  0  0
  -24.6680  -10.9281    0.0000 C   0  0  0  0  0  0  0  0  0  0  0  0
  -24.0225  -12.2822    0.0000 C   0  0  0  0  0  0  0  0  0  0  0  0
  -23.3028  -13.5982    0.0000 C   0  0  0  0  0  0  0  0  0  0  0  0
  -22.5111  -14.8723    0.0000 C   0  0  0  0  0  0  0  0  0  0  0  0
  -21.6498  -16.1003    0.0000 C   0  0  0  0  0  0  0  0  0  0  0  0
  -20.7215  -17.2786    0.0000 C   0  0  0  0  0  0  0  0  0  0  0  0
  -19.7293  -18.4035    0.0000 C   0  0  0  0  0  0  0  0  0  0  0  0
  -18.6760  -19.4715    0.0000 C   0  0  0  0  0  0  0  0  0  0  0  0
  -17.5650  -20.4794    0.0000 C   0  0  0  0  0  0  0  0  0  0  0  0
  -16.3997  -21.4239    0.0000 C   0  0  0  0  0  0  0  0  0  0  0  0
  -15.1837  -22.3022    0.0000 C   0  0  0  0  0  0  0  0  0  0  0  0
  -13.9208  -23.1115    0.0000 C   0  0  0  0  0  0  0  0  0  0  0  0
  -12.6149  -23.8495    0.0000 C   0  0  0  0  0  0  0  0  0  0  0  0
  -11.2700  -24.5137    0.0000 C   0  0  0  0  0  0  0  0  0  0  0  0
   -9.8902  -25.1021    0.0000 C   0  0  0  0  0  0  0  0  0  0  0  0
   -8.4799  -25.6130    0.0000 C   0  0  0  0  0  0  0  0  0  0  0  0
   -7.0434  -26.0447    0.0000 C   0  0  0  0  0  0  0  0  0  0  0  0
   -5.5850  -26.3958    0.0000 C   0  0  0  0  0  0  0  0  0  0  0  0
   -4.1095  -26.6654    0.0000 C   0  0  0  0  0  0  0  0  0  0  0  0
   -2.6212  -26.8526    0.0000 C   0  0  0  0  0  0  0  0  0  0  0  0
   -1.1248  -26.9568    0.0000 C   0  0  0  0  0  0  0  0  0  0  0  0
    0.3750  -26.9776    0.0000 C   0  0  0  0  0  0  0  0  0  0  0  0
    1.8737  -26.9151    0.0000 C   0  0  0  0  0  0  0  0  0  0  0  0
    3.3666  -26.7694    0.0000 C   0  0  0  0  0  0  0  0  0  0  0  0
    4.8491  -26.5409    0.0000 C   0  0  0  0  0  0  0  0  0  0  0  0
    6.3166  -26.2304    0.0000 C   0  0  0  0  0  0  0  0  0  0  0  0
    7.7646  -25.8388    0.0000 C   0  0  0  0  0  0  0  0  0  0  0  0
    9.1886  -25.3674    0.0000 C   0  0  0  0  0  0  0  0  0  0  0  0
   10.5842  -24.8175    0.0000 C   0  0  0  0  0  0  0  0  0  0  0  0
   11.9471  -24.1909    0.0000 C   0  0  0  0  0  0  0  0  0  0  0  0
   13.2730  -23.4896    0.0000 C   0  0  0  0  0  0  0  0  0  0  0  0
   14.5579  -22.7156    0.0000 C   0  0  0  0  0  0  0  0  0  0  0  0
   15.7978  -21.8715    0.0000 C   0  0  0  0  0  0  0  0  0  0  0  0
   16.9889  -20.9597    0.0000 C   0  0  0  0  0  0  0  0  0  0  0  0
   18.1275  -19.9832    0.0000 C   0  0  0  0  0  0  0  0  0  0  0  0
   19.2100  -18.9449    0.0000 C   0  0  0  0  0  0  0  0  0  0  0  0
   20.2332  -17.8480    0.0000 C   0  0  0  0  0  0  0  0  0  0  0  0
   21.1938  -16.6959    0.0000 C   0  0  0  0  0  0  0  0  0  0  0  0
   22.0890  -15.4923    0.0000 C   0  0  0  0  0  0  0  0  0  0  0  0
   22.9158  -14.2408    0.0000 C   0  0  0  0  0  0  0  0  0  0  0  0
   23.6718  -12.9452    0.0000 C   0  0  0  0  0  0  0  0  0  0  0  0
   24.3547  -11.6096    0.0000 C   0  0  0  0  0  0  0  0  0  0  0  0
   24.9622  -10.2382    0.0000 C   0  0  0  0  0  0  0  0  0  0  0  0
   25.4926   -8.8351    0.0000 C   0  0  0  0  0  0  0  0  0  0  0  0
   25.9442   -7.4047    0.0000 C   0  0  0  0  0  0  0  0  0  0  0  0
   26.3157   -5.9514    0.0000 C   0  0  0  0  0  0  0  0  0  0  0  0
   26.6057   -4.4797    0.0000 C   0  0  0  0  0  0  0  0  0  0  0  0
   26.8136   -2.9942    0.0000 C   0  0  0  0  0  0  0  0  0  0  0  0
   26.9385   -1.4994    0.0000 C   0  0  0  0  0  0  0  0  0  0  0  0
  1  2  1  0
  2  3  1  0
  3  4  2  0
  4  5  1  0
  5  6  2  0
  6  7  1  0
  7  8  2  0
  8  9  1  0
  9 10  2  0
 10 11  1  0
 11 12  2  0
 12 13  1  0
 13 14  2  0
 14 15  1  0
 15 16  2  0
 16 17  1  0
 17 18  2  0
 18 19  1  0
 19 20  2  0
 20 21  1  0
 21 22  2  0
 22 23  1  0
 23 24  2  0
 24 25  1  0
 25 26  2  0
 26 27  1  0
 27 28  1  0
 28 29  1  0
 29 30  1  0
 30 31  1  0
 31 32  1  0
 32 33  1  0
 33 34  1  0
 34 35  1  0
 35 36  1  0
 36 37  1  0
 37 38  1  0
 38 39  1  0
 39 40  1  0
 40 41  1  0
 41 42  1  0
 42 43  1  0
 43 44  1  0
 44 45  1  0
 45 46  1  0
 46 47  1  0
 47 48  1  0
 48 49  1  0
 49 50  1  0
 50 51  1  0
 51 52  1  0
 52 53  1  0
 53 54  1  0
 54 55  1  0
 55 56  1  0
 56 57  1  0
 57 58  1  0
 58 59  1  0
 59 60  1  0
 60 61  1  0
 61 62  1  0
 62 63  1  0
 63 64  1  0
 64 65  1  0
 65 66  1  0
 66 67  1  0
 67 68  1  0
 68 69  1  0
 69 70  1  0
 70 71  1  0
 71 72  1  0
 72 73  1  0
 73 74  1  0
 74 75  1  0
 75 76  1  0
 76 77  1  0
 77 78  1  0
 78 79  1  0
 79 80  1  0
 80 81  1  0
 81 82  1  0
 82 83  1  0
 83 84  1  0
 84 85  1  0
 85 86  1  0
 86 87  1  0
 87 88  1  0
 88 89  1  0
 89 90  1  0
 90 91  1  0
 91 92  1  0
 92 93  1  0
 93 94  1  0
 94 95  1  0
 95 96  1  0
 96 97  1  0
 97 98  1  0
 98 99  1  0
 99100  1  0
100101  1  0
101102  1  0
102103  1  0
103104  1  0
104105  1  0
105106  1  0
106107  1  0
107108  1  0
108109  1  0
109110  1  0
110111  1  0
111112  1  0
112113  1  0
113114  1  0
114  2  1  0
M  END
>  <Title>  (903) 
idABGUgen8

$$$$

     RDKit          2D

 10 10  0  0  0  0  0  0  0  0999 V2000
    3.2286   -0.0000    0.0000 C   0  0  0  0  0  0  0  0  0  0  0  0
    1.7286    0.0000    0.0000 C   0  0  0  0  0  0  0  0  0  0  0  0
    1.0777    1.3515    0.0000 C   0  0  0  0  0  0  0  0  0  0  0  0
   -0.3846    1.6852    0.0000 C   0  0  0  0  0  0  0  0  0  0  0  0
   -1.5574    0.7500    0.0000 C   0  0  0  0  0  0  0  0  0  0  0  0
   -1.5574   -0.7500    0.0000 C   0  0  0  0  0  0  0  0  0  0  0  0
   -2.9088   -1.4008    0.0000 C   0  0  0  0  0  0  0  0  0  0  0  0
   -0.3846   -1.6852    0.0000 C   0  0  0  0  0  0  0  0  0  0  0  0
   -0.7184   -3.1476    0.0000 O   0  0  0  0  0  0  0  0  0  0  0  0
    1.0777   -1.3515    0.0000 C   0  0  0  0  0  0  0  0  0  0  0  0
  1  2  1  0
  2  3  2  0
  3  4  1  0
  4  5  1  0
  5  6  1  0
  6  7  1  0
  6  8  1  0
  8  9  2  0
  8 10  1  0
 10  2  1  0
M  END
>  <Title>  (904) 
idABGVgen8

$$$$

     RDKit          2D

 18 20  0  0  0  0  0  0  0  0999 V2000
   -3.1476   -2.1380    0.0000 C   0  0  0  0  0  0  0  0  0  0  0  0
   -1.6852   -2.4718    0.0000 C   0  0  0  0  0  0  0  0  0  0  0  0
   -1.3515   -3.9342    0.0000 N   0  0  0  0  0  0  0  0  0  0  0  0
   -0.0000   -4.5850    0.0000 C   0  0  0  0  0  0  0  0  0  0  0  0
   -0.0000   -6.0850    0.0000 O   0  0  0  0  0  0  0  0  0  0  0  0
    1.3515   -3.9342    0.0000 C   0  0  0  0  0  0  0  0  0  0  0  0
    2.4510   -4.9544    0.0000 C   0  0  0  0  0  0  0  0  0  0  0  0
    3.8844   -4.5123    0.0000 C   0  0  0  0  0  0  0  0  0  0  0  0
    4.2182   -3.0499    0.0000 C   0  0  0  0  0  0  0  0  0  0  0  0
    5.6515   -2.6078    0.0000 O   0  0  0  0  0  0  0  0  0  0  0  0
    3.1186   -2.0297    0.0000 C   0  0  0  0  0  0  0  0  0  0  0  0
    1.6852   -2.4718    0.0000 C   0  0  0  0  0  0  0  0  0  0  0  0
    0.7500   -1.2990    0.0000 C   0  0  0  0  0  0  0  0  0  0  0  0
    1.5000    0.0000    0.0000 C   0  0  0  0  0  0  0  0  0  0  0  0
    0.7500    1.2990    0.0000 C   0  0  0  0  0  0  0  0  0  0  0  0
   -0.7500    1.2990    0.0000 C   0  0  0  0  0  0  0  0  0  0  0  0
   -1.5000    0.0000    0.0000 C   0  0  0  0  0  0  0  0  0  0  0  0
   -0.7500   -1.2990    0.0000 C   0  0  0  0  0  0  0  0  0  0  0  0
  1  2  1  0
  2  3  1  0
  3  4  1  0
  4  5  2  0
  4  6  1  0
  6  7  2  0
  7  8  1  0
  8  9  2  0
  9 10  1  0
  9 11  1  0
 11 12  2  0
 12 13  1  0
 13 14  2  0
 14 15  1  0
 15 16  2  0
 16 17  1  0
 17 18  2  0
 18  2  1  0
 12  6  1  0
 18 13  1  0
M  END
>  <Title>  (905) 
idABGWgen8

$$$$

     RDKit          2D

  5  4  0  0  0  0  0  0  0  0999 V2000
    0.0000    0.0000    0.0000 C   0  0  0  0  0  0  0  0  0  0  0  0
    1.2990    0.7500    0.0000 C   0  0  0  0  0  0  0  0  0  0  0  0
    2.5981    1.5000    0.0000 C   0  0  0  0  0  0  0  0  0  0  0  0
    3.8971    2.2500    0.0000 C   0  0  0  0  0  0  0  0  0  0  0  0
    5.1962    1.5000    0.0000 C   0  0  0  0  0  0  0  0  0  0  0  0
  1  2  1  0
  2  3  3  0
  3  4  1  0
  4  5  1  0
M  END
>  <Title>  (906) 
idABGXgen8

$$$$

     RDKit          2D

 22 23  0  0  0  0  0  0  0  0999 V2000
    5.9147    3.2498    0.0000 C   0  0  0  0  0  0  0  0  0  0  0  0
    4.4315    3.4734    0.0000 C   0  0  0  0  0  0  0  0  0  0  0  0
    3.8835    4.8697    0.0000 N   0  0  0  0  0  0  0  0  0  0  0  0
    4.8187    6.0424    0.0000 C   0  0  0  0  0  0  0  0  0  0  0  0
    6.3019    5.8189    0.0000 O   0  0  0  0  0  0  0  0  0  0  0  0
    4.2707    7.4388    0.0000 C   0  0  0  0  0  0  0  0  0  0  0  0
    2.8189    7.8161    0.0000 C   0  0  0  0  0  0  0  0  0  0  0  0
    2.7292    9.3134    0.0000 C   0  0  0  0  0  0  0  0  0  0  0  0
    4.1255    9.8615    0.0000 C   0  0  0  0  0  0  0  0  0  0  0  0
    5.0782    8.7028    0.0000 C   0  0  0  0  0  0  0  0  0  0  0  0
    3.4962    2.3006    0.0000 N   0  0  0  0  0  0  0  0  0  0  0  0
    2.0130    2.5242    0.0000 C   0  0  0  0  0  0  0  0  0  0  0  0
    1.4650    3.9205    0.0000 O   0  0  0  0  0  0  0  0  0  0  0  0
    1.0777    1.3515    0.0000 C   0  0  0  0  0  0  0  0  0  0  0  0
    1.7286    0.0000    0.0000 C   0  0  0  0  0  0  0  0  0  0  0  0
    1.0777   -1.3515    0.0000 C   0  0  0  0  0  0  0  0  0  0  0  0
   -0.3846   -1.6852    0.0000 C   0  0  0  0  0  0  0  0  0  0  0  0
   -0.7184   -3.1476    0.0000 O   0  0  0  0  0  0  0  0  0  0  0  0
   -1.5574   -0.7500    0.0000 C   0  0  0  0  0  0  0  0  0  0  0  0
   -2.9088   -1.4008    0.0000 O   0  0  0  0  0  0  0  0  0  0  0  0
   -1.5574    0.7500    0.0000 C   0  0  0  0  0  0  0  0  0  0  0  0
   -0.3846    1.6852    0.0000 C   0  0  0  0  0  0  0  0  0  0  0  0
  1  2  1  0
  2  3  1  0
  3  4  1  0
  4  5  2  0
  4  6  1  0
  6  7  2  0
  7  8  1  0
  8  9  1  0
  9 10  2  0
  2 11  1  0
 11 12  1  0
 12 13  2  0
 12 14  1  0
 14 15  2  0
 15 16  1  0
 16 17  1  0
 17 18  1  0
 17 19  1  0
 19 20  1  0
 19 21  1  0
 21 22  1  0
 10  6  1  0
 22 14  1  0
M  END
>  <Title>  (907) 
idABGYgen8

$$$$

     RDKit          2D

110110  0  0  0  0  0  0  0  0999 V2000
   27.5254    0.0000    0.0000 C   0  0  0  0  0  0  0  0  0  0  0  0
   26.0254    0.0000    0.0000 C   0  0  0  0  0  0  0  0  0  0  0  0
   25.9822    1.4994    0.0000 C   0  0  0  0  0  0  0  0  0  0  0  0
   25.8527    2.9938    0.0000 C   0  0  0  0  0  0  0  0  0  0  0  0
   25.6373    4.4782    0.0000 C   0  0  0  0  0  0  0  0  0  0  0  0
   25.3367    5.9478    0.0000 C   0  0  0  0  0  0  0  0  0  0  0  0
   24.9519    7.3976    0.0000 C   0  0  0  0  0  0  0  0  0  0  0  0
   24.4843    8.8229    0.0000 C   0  0  0  0  0  0  0  0  0  0  0  0
   23.9353   10.2188    0.0000 C   0  0  0  0  0  0  0  0  0  0  0  0
   23.3068   11.5808    0.0000 C   0  0  0  0  0  0  0  0  0  0  0  0
   22.6009   12.9043    0.0000 C   0  0  0  0  0  0  0  0  0  0  0  0
   21.8200   14.1850    0.0000 C   0  0  0  0  0  0  0  0  0  0  0  0
   20.9665   15.4185    0.0000 C   0  0  0  0  0  0  0  0  0  0  0  0
   20.0434   16.6008    0.0000 C   0  0  0  0  0  0  0  0  0  0  0  0
   19.0537   17.7280    0.0000 C   0  0  0  0  0  0  0  0  0  0  0  0
   18.0007   18.7962    0.0000 C   0  0  0  0  0  0  0  0  0  0  0  0
   16.8879   19.8021    0.0000 C   0  0  0  0  0  0  0  0  0  0  0  0
   15.7190   20.7421    0.0000 C   0  0  0  0  0  0  0  0  0  0  0  0
   14.4979   21.6133    0.0000 C   0  0  0  0  0  0  0  0  0  0  0  0
   13.2287   22.4126    0.0000 C   0  0  0  0  0  0  0  0  0  0  0  0
   11.9154   23.1375    0.0000 C   0  0  0  0  0  0  0  0  0  0  0  0
   10.5627   23.7856    0.0000 C   0  0  0  0  0  0  0  0  0  0  0  0
    9.1748   24.3546    0.0000 C   0  0  0  0  0  0  0  0  0  0  0  0
    7.7564   24.8427    0.0000 C   0  0  0  0  0  0  0  0  0  0  0  0
    6.3123   25.2483    0.0000 C   0  0  0  0  0  0  0  0  0  0  0  0
    4.8472   25.5701    0.0000 C   0  0  0  0  0  0  0  0  0  0  0  0
    3.3660   25.8068    0.0000 C   0  0  0  0  0  0  0  0  0  0  0  0
    1.8736   25.9579    0.0000 C   0  0  0  0  0  0  0  0  0  0  0  0
    0.3750   26.0227    0.0000 C   0  0  0  0  0  0  0  0  0  0  0  0
   -1.1248   26.0011    0.0000 C   0  0  0  0  0  0  0  0  0  0  0  0
   -2.6209   25.8931    0.0000 C   0  0  0  0  0  0  0  0  0  0  0  0
   -4.1083   25.6991    0.0000 C   0  0  0  0  0  0  0  0  0  0  0  0
   -5.5821   25.4198    0.0000 C   0  0  0  0  0  0  0  0  0  0  0  0
   -7.0373   25.0559    0.0000 C   0  0  0  0  0  0  0  0  0  0  0  0
   -8.4691   24.6089    0.0000 C   0  0  0  0  0  0  0  0  0  0  0  0
   -9.8728   24.0801    0.0000 C   0  0  0  0  0  0  0  0  0  0  0  0
  -11.2437   23.4713    0.0000 C   0  0  0  0  0  0  0  0  0  0  0  0
  -12.5773   22.7845    0.0000 C   0  0  0  0  0  0  0  0  0  0  0  0
  -13.8690   22.0221    0.0000 C   0  0  0  0  0  0  0  0  0  0  0  0
  -15.1147   21.1865    0.0000 C   0  0  0  0  0  0  0  0  0  0  0  0
  -16.3102   20.2805    0.0000 C   0  0  0  0  0  0  0  0  0  0  0  0
  -17.4515   19.3072    0.0000 C   0  0  0  0  0  0  0  0  0  0  0  0
  -18.5349   18.2697    0.0000 C   0  0  0  0  0  0  0  0  0  0  0  0
  -19.5567   17.1715    0.0000 C   0  0  0  0  0  0  0  0  0  0  0  0
  -20.5135   16.0163    0.0000 C   0  0  0  0  0  0  0  0  0  0  0  0
  -21.4021   14.8079    0.0000 C   0  0  0  0  0  0  0  0  0  0  0  0
  -22.2197   13.5503    0.0000 C   0  0  0  0  0  0  0  0  0  0  0  0
  -22.9634   12.2476    0.0000 C   0  0  0  0  0  0  0  0  0  0  0  0
  -23.6309   10.9043    0.0000 C   0  0  0  0  0  0  0  0  0  0  0  0
  -24.2199    9.5248    0.0000 C   0  0  0  0  0  0  0  0  0  0  0  0
  -24.7284    8.1136    0.0000 C   0  0  0  0  0  0  0  0  0  0  0  0
  -25.1547    6.6755    0.0000 C   0  0  0  0  0  0  0  0  0  0  0  0
  -25.4976    5.2152    0.0000 C   0  0  0  0  0  0  0  0  0  0  0  0
  -25.7557    3.7376    0.0000 C   0  0  0  0  0  0  0  0  0  0  0  0
  -25.9282    2.2475    0.0000 C   0  0  0  0  0  0  0  0  0  0  0  0
  -26.0146    0.7500    0.0000 C   0  0  0  0  0  0  0  0  0  0  0  0
  -26.0146   -0.7500    0.0000 C   0  0  0  0  0  0  0  0  0  0  0  0
  -25.9282   -2.2475    0.0000 C   0  0  0  0  0  0  0  0  0  0  0  0
  -25.7557   -3.7376    0.0000 C   0  0  0  0  0  0  0  0  0  0  0  0
  -25.4976   -5.2152    0.0000 C   0  0  0  0  0  0  0  0  0  0  0  0
  -25.1547   -6.6755    0.0000 C   0  0  0  0  0  0  0  0  0  0  0  0
  -24.7284   -8.1136    0.0000 C   0  0  0  0  0  0  0  0  0  0  0  0
  -24.2199   -9.5248    0.0000 C   0  0  0  0  0  0  0  0  0  0  0  0
  -23.6309  -10.9043    0.0000 C   0  0  0  0  0  0  0  0  0  0  0  0
  -22.9634  -12.2476    0.0000 C   0  0  0  0  0  0  0  0  0  0  0  0
  -22.2197  -13.5503    0.0000 C   0  0  0  0  0  0  0  0  0  0  0  0
  -21.4021  -14.8079    0.0000 C   0  0  0  0  0  0  0  0  0  0  0  0
  -20.5135  -16.0163    0.0000 C   0  0  0  0  0  0  0  0  0  0  0  0
  -19.5567  -17.1715    0.0000 C   0  0  0  0  0  0  0  0  0  0  0  0
  -18.5349  -18.2697    0.0000 C   0  0  0  0  0  0  0  0  0  0  0  0
  -17.4515  -19.3072    0.0000 C   0  0  0  0  0  0  0  0  0  0  0  0
  -16.3102  -20.2805    0.0000 C   0  0  0  0  0  0  0  0  0  0  0  0
  -15.1147  -21.1865    0.0000 C   0  0  0  0  0  0  0  0  0  0  0  0
  -13.8690  -22.0221    0.0000 C   0  0  0  0  0  0  0  0  0  0  0  0
  -12.5773  -22.7845    0.0000 C   0  0  0  0  0  0  0  0  0  0  0  0
  -11.2437  -23.4713    0.0000 C   0  0  0  0  0  0  0  0  0  0  0  0
   -9.8728  -24.0801    0.0000 C   0  0  0  0  0  0  0  0  0  0  0  0
   -8.4691  -24.6089    0.0000 C   0  0  0  0  0  0  0  0  0  0  0  0
   -7.0373  -25.0559    0.0000 C   0  0  0  0  0  0  0  0  0  0  0  0
   -5.5821  -25.4198    0.0000 C   0  0  0  0  0  0  0  0  0  0  0  0
   -4.1083  -25.6991    0.0000 C   0  0  0  0  0  0  0  0  0  0  0  0
   -2.6209  -25.8931    0.0000 C   0  0  0  0  0  0  0  0  0  0  0  0
   -1.1248  -26.0011    0.0000 C   0  0  0  0  0  0  0  0  0  0  0  0
    0.3750  -26.0227    0.0000 C   0  0  0  0  0  0  0  0  0  0  0  0
    1.8736  -25.9579    0.0000 C   0  0  0  0  0  0  0  0  0  0  0  0
    3.3660  -25.8068    0.0000 C   0  0  0  0  0  0  0  0  0  0  0  0
    4.8472  -25.5701    0.0000 C   0  0  0  0  0  0  0  0  0  0  0  0
    6.3123  -25.2483    0.0000 C   0  0  0  0  0  0  0  0  0  0  0  0
    7.7564  -24.8427    0.0000 C   0  0  0  0  0  0  0  0  0  0  0  0
    9.1748  -24.3546    0.0000 C   0  0  0  0  0  0  0  0  0  0  0  0
   10.5627  -23.7856    0.0000 C   0  0  0  0  0  0  0  0  0  0  0  0
   11.9154  -23.1375    0.0000 C   0  0  0  0  0  0  0  0  0  0  0  0
   13.2287  -22.4126    0.0000 C   0  0  0  0  0  0  0  0  0  0  0  0
   14.4979  -21.6133    0.0000 C   0  0  0  0  0  0  0  0  0  0  0  0
   15.7190  -20.7421    0.0000 C   0  0  0  0  0  0  0  0  0  0  0  0
   16.8879  -19.8021    0.0000 C   0  0  0  0  0  0  0  0  0  0  0  0
   18.0007  -18.7962    0.0000 C   0  0  0  0  0  0  0  0  0  0  0  0
   19.0537  -17.7280    0.0000 C   0  0  0  0  0  0  0  0  0  0  0  0
   20.0434  -16.6008    0.0000 C   0  0  0  0  0  0  0  0  0  0  0  0
   20.9665  -15.4185    0.0000 C   0  0  0  0  0  0  0  0  0  0  0  0
   21.8200  -14.1850    0.0000 C   0  0  0  0  0  0  0  0  0  0  0  0
   22.6009  -12.9043    0.0000 C   0  0  0  0  0  0  0  0  0  0  0  0
   23.3068  -11.5808    0.0000 C   0  0  0  0  0  0  0  0  0  0  0  0
   23.9353  -10.2188    0.0000 C   0  0  0  0  0  0  0  0  0  0  0  0
   24.4843   -8.8229    0.0000 C   0  0  0  0  0  0  0  0  0  0  0  0
   24.9519   -7.3976    0.0000 C   0  0  0  0  0  0  0  0  0  0  0  0
   25.3367   -5.9478    0.0000 C   0  0  0  0  0  0  0  0  0  0  0  0
   25.6373   -4.4782    0.0000 C   0  0  0  0  0  0  0  0  0  0  0  0
   25.8527   -2.9938    0.0000 C   0  0  0  0  0  0  0  0  0  0  0  0
   25.9822   -1.4994    0.0000 C   0  0  0  0  0  0  0  0  0  0  0  0
  1  2  1  0
  2  3  2  0
  3  4  1  0
  4  5  1  0
  5  6  1  0
  6  7  1  0
  7  8  1  0
  8  9  1  0
  9 10  1  0
 10 11  1  0
 11 12  1  0
 12 13  1  0
 13 14  1  0
 14 15  1  0
 15 16  1  0
 16 17  1  0
 17 18  1  0
 18 19  1  0
 19 20  1  0
 20 21  1  0
 21 22  1  0
 22 23  1  0
 23 24  1  0
 24 25  1  0
 25 26  1  0
 26 27  1  0
 27 28  1  0
 28 29  1  0
 29 30  1  0
 30 31  1  0
 31 32  1  0
 32 33  1  0
 33 34  1  0
 34 35  1  0
 35 36  1  0
 36 37  1  0
 37 38  1  0
 38 39  1  0
 39 40  1  0
 40 41  1  0
 41 42  1  0
 42 43  1  0
 43 44  1  0
 44 45  1  0
 45 46  1  0
 46 47  1  0
 47 48  1  0
 48 49  1  0
 49 50  1  0
 50 51  1  0
 51 52  1  0
 52 53  1  0
 53 54  1  0
 54 55  1  0
 55 56  1  0
 56 57  1  0
 57 58  1  0
 58 59  1  0
 59 60  1  0
 60 61  1  0
 61 62  1  0
 62 63  1  0
 63 64  1  0
 64 65  1  0
 65 66  1  0
 66 67  1  0
 67 68  1  0
 68 69  1  0
 69 70  1  0
 70 71  1  0
 71 72  1  0
 72 73  1  0
 73 74  1  0
 74 75  1  0
 75 76  1  0
 76 77  1  0
 77 78  1  0
 78 79  1  0
 79 80  1  0
 80 81  1  0
 81 82  1  0
 82 83  1  0
 83 84  1  0
 84 85  1  0
 85 86  1  0
 86 87  1  0
 87 88  1  0
 88 89  1  0
 89 90  1  0
 90 91  1  0
 91 92  1  0
 92 93  1  0
 93 94  1  0
 94 95  1  0
 95 96  1  0
 96 97  1  0
 97 98  1  0
 98 99  1  0
 99100  1  0
100101  1  0
101102  1  0
102103  1  0
103104  1  0
104105  1  0
105106  1  0
106107  1  0
107108  1  0
108109  1  0
109110  1  0
110  2  1  0
M  END
>  <Title>  (908) 
idABGZgen8

$$$$

     RDKit          2D

  9  9  0  0  0  0  0  0  0  0999 V2000
    3.2286   -0.0000    0.0000 C   0  0  0  0  0  0  0  0  0  0  0  0
    1.7286    0.0000    0.0000 C   0  0  0  0  0  0  0  0  0  0  0  0
    1.0777    1.3515    0.0000 C   0  0  0  0  0  0  0  0  0  0  0  0
   -0.3846    1.6852    0.0000 C   0  0  0  0  0  0  0  0  0  0  0  0
   -1.5574    0.7500    0.0000 C   0  0  0  0  0  0  0  0  0  0  0  0
   -1.5574   -0.7500    0.0000 C   0  0  0  0  0  0  0  0  0  0  0  0
   -2.9088   -1.4008    0.0000 O   0  0  0  0  0  0  0  0  0  0  0  0
   -0.3846   -1.6852    0.0000 C   0  0  0  0  0  0  0  0  0  0  0  0
    1.0777   -1.3515    0.0000 C   0  0  0  0  0  0  0  0  0  0  0  0
  1  2  1  0
  2  3  2  0
  3  4  1  0
  4  5  1  0
  5  6  1  0
  6  7  1  0
  6  8  1  0
  8  9  2  0
  9  2  1  0
M  END
>  <Title>  (909) 
idABHAgen8

$$$$

     RDKit          2D

  9  9  0  0  0  0  0  0  0  0999 V2000
    3.0000    0.0000    0.0000 C   0  0  0  0  0  0  0  0  0  0  0  0
    1.5000    0.0000    0.0000 C   0  0  0  0  0  0  0  0  0  0  0  0
    0.7500   -1.2990    0.0000 C   0  0  0  0  0  0  0  0  0  0  0  0
   -0.7500   -1.2990    0.0000 C   0  0  0  0  0  0  0  0  0  0  0  0
   -1.5000    0.0000    0.0000 C   0  0  0  0  0  0  0  0  0  0  0  0
   -3.0000    0.0000    0.0000 O   0  0  0  0  0  0  0  0  0  0  0  0
   -0.7500    1.2990    0.0000 C   0  0  0  0  0  0  0  0  0  0  0  0
    0.7500    1.2990    0.0000 C   0  0  0  0  0  0  0  0  0  0  0  0
    1.5000    2.5981    0.0000 C   0  0  0  0  0  0  0  0  0  0  0  0
  1  2  1  0
  2  3  1  0
  3  4  1  0
  4  5  1  0
  5  6  1  0
  5  7  1  0
  7  8  1  0
  8  9  1  0
  8  2  1  0
M  END
>  <Title>  (910) 
idABHBgen8

$$$$

     RDKit          2D

  9  9  0  0  0  0  0  0  0  0999 V2000
    4.7286   -0.0000    0.0000 C   0  0  0  0  0  0  0  0  0  0  0  0
    3.2286   -0.0000    0.0000 C   0  0  0  0  0  0  0  0  0  0  0  0
    1.7286    0.0000    0.0000 C   0  0  0  0  0  0  0  0  0  0  0  0
    1.0777    1.3515    0.0000 C   0  0  0  0  0  0  0  0  0  0  0  0
   -0.3846    1.6852    0.0000 C   0  0  0  0  0  0  0  0  0  0  0  0
   -1.5574    0.7500    0.0000 C   0  0  0  0  0  0  0  0  0  0  0  0
   -1.5574   -0.7500    0.0000 C   0  0  0  0  0  0  0  0  0  0  0  0
   -0.3846   -1.6852    0.0000 C   0  0  0  0  0  0  0  0  0  0  0  0
    1.0777   -1.3515    0.0000 C   0  0  0  0  0  0  0  0  0  0  0  0
  1  2  3  0
  2  3  1  0
  3  4  2  0
  4  5  1  0
  5  6  1  0
  6  7  1  0
  7  8  1  0
  8  9  2  0
  9  3  1  0
M  END
>  <Title>  (911) 
idABHCgen8

$$$$

     RDKit          2D

  5  5  0  0  0  0  0  0  0  0999 V2000
    1.2760    0.0000    0.0000 C   0  0  0  0  0  0  0  0  0  0  0  0
    0.3943    1.2135    0.0000 C   0  0  0  0  0  0  0  0  0  0  0  0
   -1.0323    0.7500    0.0000 C   0  0  0  0  0  0  0  0  0  0  0  0
   -1.0323   -0.7500    0.0000 C   0  0  0  0  0  0  0  0  0  0  0  0
    0.3943   -1.2135    0.0000 C   0  0  0  0  0  0  0  0  0  0  0  0
  1  2  2  0
  2  3  1  0
  3  4  1  0
  4  5  2  0
  5  1  1  0
M  END
>  <Title>  (912) 
idABHDgen8

$$$$

     RDKit          2D

  6  6  0  0  0  0  0  0  0  0999 V2000
    2.7760    0.0000    0.0000 O   0  0  0  0  0  0  0  0  0  0  0  0
    1.2760    0.0000    0.0000 C   0  0  0  0  0  0  0  0  0  0  0  0
    0.3943    1.2135    0.0000 C   0  0  0  0  0  0  0  0  0  0  0  0
   -1.0323    0.7500    0.0000 C   0  0  0  0  0  0  0  0  0  0  0  0
   -1.0323   -0.7500    0.0000 C   0  0  0  0  0  0  0  0  0  0  0  0
    0.3943   -1.2135    0.0000 C   0  0  0  0  0  0  0  0  0  0  0  0
  1  2  1  0
  2  3  2  0
  3  4  1  0
  4  5  1  0
  5  6  1  0
  6  2  1  0
M  END
>  <Title>  (913) 
idABHEgen8

$$$$

     RDKit          2D

 10 10  0  0  0  0  0  0  0  0999 V2000
    3.7500   -1.2990    0.0000 C   0  0  0  0  0  0  0  0  0  0  0  0
    3.0000    0.0000    0.0000 O   0  0  0  0  0  0  0  0  0  0  0  0
    1.5000    0.0000    0.0000 C   0  0  0  0  0  0  0  0  0  0  0  0
    0.7500   -1.2990    0.0000 C   0  0  0  0  0  0  0  0  0  0  0  0
   -0.7500   -1.2990    0.0000 C   0  0  0  0  0  0  0  0  0  0  0  0
   -1.5000    0.0000    0.0000 C   0  0  0  0  0  0  0  0  0  0  0  0
   -0.7500    1.2990    0.0000 C   0  0  0  0  0  0  0  0  0  0  0  0
   -1.5000    2.5981    0.0000 C   0  0  0  0  0  0  0  0  0  0  0  0
   -2.2500    3.8971    0.0000 N   0  0  0  0  0  0  0  0  0  0  0  0
    0.7500    1.2990    0.0000 C   0  0  0  0  0  0  0  0  0  0  0  0
  1  2  1  0
  2  3  1  0
  3  4  2  0
  4  5  1  0
  5  6  1  0
  6  7  1  0
  7  8  1  0
  8  9  3  0
  7 10  2  0
 10  3  1  0
M  END
>  <Title>  (914) 
idABHFgen8

$$$$

     RDKit          2D

  9  9  0  0  0  0  0  0  0  0999 V2000
    3.9786   -1.2990    0.0000 C   0  0  0  0  0  0  0  0  0  0  0  0
    3.2286   -0.0000    0.0000 O   0  0  0  0  0  0  0  0  0  0  0  0
    1.7286    0.0000    0.0000 C   0  0  0  0  0  0  0  0  0  0  0  0
    1.0777    1.3515    0.0000 C   0  0  0  0  0  0  0  0  0  0  0  0
   -0.3846    1.6852    0.0000 C   0  0  0  0  0  0  0  0  0  0  0  0
   -1.5574    0.7500    0.0000 C   0  0  0  0  0  0  0  0  0  0  0  0
   -1.5574   -0.7500    0.0000 C   0  0  0  0  0  0  0  0  0  0  0  0
   -0.3846   -1.6852    0.0000 C   0  0  0  0  0  0  0  0  0  0  0  0
    1.0777   -1.3515    0.0000 C   0  0  0  0  0  0  0  0  0  0  0  0
  1  2  1  0
  2  3  1  0
  3  4  2  0
  4  5  1  0
  5  6  1  0
  6  7  1  0
  7  8  1  0
  8  9  2  0
  9  3  1  0
M  END
>  <Title>  (915) 
idABHGgen8

$$$$

     RDKit          2D

 74 74  0  0  0  0  0  0  0  0999 V2000
   18.4555    0.0000    0.0000 C   0  0  0  0  0  0  0  0  0  0  0  0
   16.9555    0.0000    0.0000 C   0  0  0  0  0  0  0  0  0  0  0  0
   16.8892    1.4985    0.0000 C   0  0  0  0  0  0  0  0  0  0  0  0
   16.6907    2.9853    0.0000 C   0  0  0  0  0  0  0  0  0  0  0  0
   16.3615    4.4488    0.0000 C   0  0  0  0  0  0  0  0  0  0  0  0
   15.9043    5.8774    0.0000 C   0  0  0  0  0  0  0  0  0  0  0  0
   15.3226    7.2600    0.0000 C   0  0  0  0  0  0  0  0  0  0  0  0
   14.6210    8.5858    0.0000 C   0  0  0  0  0  0  0  0  0  0  0  0
   13.8050    9.8444    0.0000 C   0  0  0  0  0  0  0  0  0  0  0  0
   12.8809   11.0260    0.0000 C   0  0  0  0  0  0  0  0  0  0  0  0
   11.8560   12.1213    0.0000 C   0  0  0  0  0  0  0  0  0  0  0  0
   10.7383   13.1217    0.0000 C   0  0  0  0  0  0  0  0  0  0  0  0
    9.5366   14.0194    0.0000 C   0  0  0  0  0  0  0  0  0  0  0  0
    8.2603   14.8074    0.0000 C   0  0  0  0  0  0  0  0  0  0  0  0
    6.9193   15.4795    0.0000 C   0  0  0  0  0  0  0  0  0  0  0  0
    5.5241   16.0304    0.0000 C   0  0  0  0  0  0  0  0  0  0  0  0
    4.0857   16.4559    0.0000 C   0  0  0  0  0  0  0  0  0  0  0  0
    2.6154   16.7526    0.0000 C   0  0  0  0  0  0  0  0  0  0  0  0
    1.1245   16.9182    0.0000 C   0  0  0  0  0  0  0  0  0  0  0  0
   -0.3751   16.9514    0.0000 C   0  0  0  0  0  0  0  0  0  0  0  0
   -1.8718   16.8519    0.0000 C   0  0  0  0  0  0  0  0  0  0  0  0
   -3.3538   16.6205    0.0000 C   0  0  0  0  0  0  0  0  0  0  0  0
   -4.8096   16.2591    0.0000 C   0  0  0  0  0  0  0  0  0  0  0  0
   -6.2278   15.7704    0.0000 C   0  0  0  0  0  0  0  0  0  0  0  0
   -7.5972   15.1582    0.0000 C   0  0  0  0  0  0  0  0  0  0  0  0
   -8.9072   14.4275    0.0000 C   0  0  0  0  0  0  0  0  0  0  0  0
  -10.1474   13.5838    0.0000 C   0  0  0  0  0  0  0  0  0  0  0  0
  -11.3082   12.6338    0.0000 C   0  0  0  0  0  0  0  0  0  0  0  0
  -12.3806   11.5850    0.0000 C   0  0  0  0  0  0  0  0  0  0  0  0
  -13.3560   10.4454    0.0000 C   0  0  0  0  0  0  0  0  0  0  0  0
  -14.2269    9.2242    0.0000 C   0  0  0  0  0  0  0  0  0  0  0  0
  -14.9865    7.9307    0.0000 C   0  0  0  0  0  0  0  0  0  0  0  0
  -15.6287    6.5751    0.0000 C   0  0  0  0  0  0  0  0  0  0  0  0
  -16.1487    5.1681    0.0000 C   0  0  0  0  0  0  0  0  0  0  0  0
  -16.5423    3.7207    0.0000 C   0  0  0  0  0  0  0  0  0  0  0  0
  -16.8064    2.2441    0.0000 C   0  0  0  0  0  0  0  0  0  0  0  0
  -16.9389    0.7500    0.0000 C   0  0  0  0  0  0  0  0  0  0  0  0
  -16.9389   -0.7500    0.0000 C   0  0  0  0  0  0  0  0  0  0  0  0
  -16.8064   -2.2441    0.0000 C   0  0  0  0  0  0  0  0  0  0  0  0
  -16.5423   -3.7207    0.0000 C   0  0  0  0  0  0  0  0  0  0  0  0
  -16.1487   -5.1681    0.0000 C   0  0  0  0  0  0  0  0  0  0  0  0
  -15.6287   -6.5751    0.0000 C   0  0  0  0  0  0  0  0  0  0  0  0
  -14.9865   -7.9307    0.0000 C   0  0  0  0  0  0  0  0  0  0  0  0
  -14.2269   -9.2242    0.0000 C   0  0  0  0  0  0  0  0  0  0  0  0
  -13.3560  -10.4454    0.0000 C   0  0  0  0  0  0  0  0  0  0  0  0
  -12.3806  -11.5850    0.0000 C   0  0  0  0  0  0  0  0  0  0  0  0
  -11.3082  -12.6338    0.0000 C   0  0  0  0  0  0  0  0  0  0  0  0
  -10.1474  -13.5838    0.0000 C   0  0  0  0  0  0  0  0  0  0  0  0
   -8.9072  -14.4275    0.0000 C   0  0  0  0  0  0  0  0  0  0  0  0
   -7.5972  -15.1582    0.0000 C   0  0  0  0  0  0  0  0  0  0  0  0
   -6.2278  -15.7704    0.0000 C   0  0  0  0  0  0  0  0  0  0  0  0
   -4.8096  -16.2591    0.0000 C   0  0  0  0  0  0  0  0  0  0  0  0
   -3.3538  -16.6205    0.0000 C   0  0  0  0  0  0  0  0  0  0  0  0
   -1.8718  -16.8519    0.0000 C   0  0  0  0  0  0  0  0  0  0  0  0
   -0.3751  -16.9514    0.0000 C   0  0  0  0  0  0  0  0  0  0  0  0
    1.1245  -16.9182    0.0000 C   0  0  0  0  0  0  0  0  0  0  0  0
    2.6154  -16.7526    0.0000 C   0  0  0  0  0  0  0  0  0  0  0  0
    4.0857  -16.4559    0.0000 C   0  0  0  0  0  0  0  0  0  0  0  0
    5.5241  -16.0304    0.0000 C   0  0  0  0  0  0  0  0  0  0  0  0
    6.9193  -15.4795    0.0000 C   0  0  0  0  0  0  0  0  0  0  0  0
    8.2603  -14.8074    0.0000 C   0  0  0  0  0  0  0  0  0  0  0  0
    9.5366  -14.0194    0.0000 C   0  0  0  0  0  0  0  0  0  0  0  0
   10.7383  -13.1217    0.0000 C   0  0  0  0  0  0  0  0  0  0  0  0
   11.8560  -12.1213    0.0000 C   0  0  0  0  0  0  0  0  0  0  0  0
   12.8809  -11.0260    0.0000 C   0  0  0  0  0  0  0  0  0  0  0  0
   13.8050   -9.8444    0.0000 C   0  0  0  0  0  0  0  0  0  0  0  0
   14.6210   -8.5858    0.0000 C   0  0  0  0  0  0  0  0  0  0  0  0
   15.3226   -7.2600    0.0000 C   0  0  0  0  0  0  0  0  0  0  0  0
   15.9043   -5.8774    0.0000 C   0  0  0  0  0  0  0  0  0  0  0  0
   17.3113   -6.3974    0.0000 O   0  0  0  0  0  0  0  0  0  0  0  0
   16.3615   -4.4488    0.0000 C   0  0  0  0  0  0  0  0  0  0  0  0
   16.6907   -2.9853    0.0000 C   0  0  0  0  0  0  0  0  0  0  0  0
   16.8892   -1.4985    0.0000 C   0  0  0  0  0  0  0  0  0  0  0  0
   18.3833   -1.6311    0.0000 C   0  0  0  0  0  0  0  0  0  0  0  0
  1  2  1  0
  2  3  2  0
  3  4  1  0
  4  5  2  0
  5  6  1  0
  6  7  2  0
  7  8  1  0
  8  9  2  0
  9 10  1  0
 10 11  2  0
 11 12  1  0
 12 13  2  0
 13 14  1  0
 14 15  2  0
 15 16  1  0
 16 17  2  0
 17 18  1  0
 18 19  2  0
 19 20  1  0
 20 21  2  0
 21 22  1  0
 22 23  2  0
 23 24  1  0
 24 25  2  0
 25 26  1  0
 26 27  2  0
 27 28  1  0
 28 29  2  0
 29 30  1  0
 30 31  2  0
 31 32  1  0
 32 33  2  0
 33 34  1  0
 34 35  2  0
 35 36  1  0
 36 37  2  0
 37 38  1  0
 38 39  2  0
 39 40  1  0
 40 41  2  0
 41 42  1  0
 42 43  2  0
 43 44  1  0
 44 45  2  0
 45 46  1  0
 46 47  2  0
 47 48  1  0
 48 49  2  0
 49 50  1  0
 50 51  2  0
 51 52  1  0
 52 53  2  0
 53 54  1  0
 54 55  2  0
 55 56  1  0
 56 57  2  0
 57 58  1  0
 58 59  2  0
 59 60  1  0
 60 61  2  0
 61 62  1  0
 62 63  2  0
 63 64  1  0
 64 65  2  0
 65 66  1  0
 66 67  2  0
 67 68  1  0
 68 69  2  0
 69 70  1  0
 69 71  1  0
 71 72  1  0
 72 73  2  0
 73 74  1  0
 73  2  1  0
M  END
>  <Title>  (916) 
idABHHgen8

$$$$

     RDKit          2D

108111  0  0  0  0  0  0  0  0999 V2000
   20.6441  -10.3318    0.0000 C   0  0  0  0  0  0  0  0  0  0  0  0
   21.2533   -8.9611    0.0000 C   0  0  0  0  0  0  0  0  0  0  0  0
   22.6855   -9.4071    0.0000 C   0  0  0  0  0  0  0  0  0  0  0  0
   24.1819   -9.5108    0.0000 C   0  0  0  0  0  0  0  0  0  0  0  0
   25.6619   -9.2666    0.0000 C   0  0  0  0  0  0  0  0  0  0  0  0
   27.0457   -8.6876    0.0000 C   0  0  0  0  0  0  0  0  0  0  0  0
   28.2586   -7.8052    0.0000 C   0  0  0  0  0  0  0  0  0  0  0  0
   29.2354   -6.6668    0.0000 C   0  0  0  0  0  0  0  0  0  0  0  0
   29.9233   -5.3339    0.0000 C   0  0  0  0  0  0  0  0  0  0  0  0
   30.2853   -3.8782    0.0000 C   0  0  0  0  0  0  0  0  0  0  0  0
   30.3018   -2.3783    0.0000 C   0  0  0  0  0  0  0  0  0  0  0  0
   29.9720   -0.9150    0.0000 C   0  0  0  0  0  0  0  0  0  0  0  0
   29.3136    0.4328    0.0000 C   0  0  0  0  0  0  0  0  0  0  0  0
   28.3621    1.5924    0.0000 C   0  0  0  0  0  0  0  0  0  0  0  0
   27.1688    2.5013    0.0000 C   0  0  0  0  0  0  0  0  0  0  0  0
   25.7981    3.1106    0.0000 C   0  0  0  0  0  0  0  0  0  0  0  0
   24.3239    3.3873    0.0000 C   0  0  0  0  0  0  0  0  0  0  0  0
   22.8255    3.3166    0.0000 C   0  0  0  0  0  0  0  0  0  0  0  0
   21.3839    2.9022    0.0000 C   0  0  0  0  0  0  0  0  0  0  0  0
   20.0767    2.1665    0.0000 C   0  0  0  0  0  0  0  0  0  0  0  0
   18.9744    1.1492    0.0000 C   0  0  0  0  0  0  0  0  0  0  0  0
   18.1364   -0.0948    0.0000 C   0  0  0  0  0  0  0  0  0  0  0  0
   17.6078   -1.4986    0.0000 C   0  0  0  0  0  0  0  0  0  0  0  0
   16.9715   -0.0000    0.0000 C   0  0  0  0  0  0  0  0  0  0  0  0
   16.9104    1.4393    0.0000 C   0  0  0  0  0  0  0  0  0  0  0  0
   16.7274    2.8682    0.0000 C   0  0  0  0  0  0  0  0  0  0  0  0
   16.4239    4.2764    0.0000 C   0  0  0  0  0  0  0  0  0  0  0  0
   16.0021    5.6539    0.0000 C   0  0  0  0  0  0  0  0  0  0  0  0
   15.4649    6.9906    0.0000 C   0  0  0  0  0  0  0  0  0  0  0  0
   14.8164    8.2769    0.0000 C   0  0  0  0  0  0  0  0  0  0  0  0
   14.0611    9.5036    0.0000 C   0  0  0  0  0  0  0  0  0  0  0  0
   13.2044   10.6618    0.0000 C   0  0  0  0  0  0  0  0  0  0  0  0
   12.2527   11.7432    0.0000 C   0  0  0  0  0  0  0  0  0  0  0  0
   11.2126   12.7400    0.0000 C   0  0  0  0  0  0  0  0  0  0  0  0
   10.0918   13.6450    0.0000 C   0  0  0  0  0  0  0  0  0  0  0  0
    8.8983   14.4517    0.0000 C   0  0  0  0  0  0  0  0  0  0  0  0
    7.6406   15.1543    0.0000 C   0  0  0  0  0  0  0  0  0  0  0  0
    6.3279   15.7477    0.0000 C   0  0  0  0  0  0  0  0  0  0  0  0
    4.9696   16.2276    0.0000 C   0  0  0  0  0  0  0  0  0  0  0  0
    3.5755   16.5906    0.0000 C   0  0  0  0  0  0  0  0  0  0  0  0
    2.1557   16.8340    0.0000 C   0  0  0  0  0  0  0  0  0  0  0  0
    0.7203   16.9562    0.0000 C   0  0  0  0  0  0  0  0  0  0  0  0
   -0.7203   16.9562    0.0000 C   0  0  0  0  0  0  0  0  0  0  0  0
   -2.1557   16.8340    0.0000 C   0  0  0  0  0  0  0  0  0  0  0  0
   -3.5755   16.5906    0.0000 C   0  0  0  0  0  0  0  0  0  0  0  0
   -4.9696   16.2276    0.0000 C   0  0  0  0  0  0  0  0  0  0  0  0
   -6.3279   15.7477    0.0000 C   0  0  0  0  0  0  0  0  0  0  0  0
   -7.6406   15.1543    0.0000 C   0  0  0  0  0  0  0  0  0  0  0  0
   -8.8983   14.4517    0.0000 C   0  0  0  0  0  0  0  0  0  0  0  0
  -10.0918   13.6450    0.0000 C   0  0  0  0  0  0  0  0  0  0  0  0
  -11.2126   12.7400    0.0000 C   0  0  0  0  0  0  0  0  0  0  0  0
  -12.2527   11.7432    0.0000 C   0  0  0  0  0  0  0  0  0  0  0  0
  -13.2044   10.6618    0.0000 C   0  0  0  0  0  0  0  0  0  0  0  0
  -14.0611    9.5036    0.0000 C   0  0  0  0  0  0  0  0  0  0  0  0
  -14.8164    8.2769    0.0000 C   0  0  0  0  0  0  0  0  0  0  0  0
  -15.4649    6.9906    0.0000 C   0  0  0  0  0  0  0  0  0  0  0  0
  -16.0021    5.6539    0.0000 C   0  0  0  0  0  0  0  0  0  0  0  0
  -16.4239    4.2764    0.0000 C   0  0  0  0  0  0  0  0  0  0  0  0
  -16.7274    2.8682    0.0000 C   0  0  0  0  0  0  0  0  0  0  0  0
  -16.9104    1.4393    0.0000 C   0  0  0  0  0  0  0  0  0  0  0  0
  -16.9715    0.0000    0.0000 C   0  0  0  0  0  0  0  0  0  0  0  0
  -16.9104   -1.4393    0.0000 C   0  0  0  0  0  0  0  0  0  0  0  0
  -16.7274   -2.8682    0.0000 C   0  0  0  0  0  0  0  0  0  0  0  0
  -16.4239   -4.2764    0.0000 C   0  0  0  0  0  0  0  0  0  0  0  0
  -16.0021   -5.6539    0.0000 C   0  0  0  0  0  0  0  0  0  0  0  0
  -15.4649   -6.9906    0.0000 C   0  0  0  0  0  0  0  0  0  0  0  0
  -14.8164   -8.2769    0.0000 C   0  0  0  0  0  0  0  0  0  0  0  0
  -14.0611   -9.5036    0.0000 C   0  0  0  0  0  0  0  0  0  0  0  0
  -13.2044  -10.6618    0.0000 C   0  0  0  0  0  0  0  0  0  0  0  0
  -12.2527  -11.7432    0.0000 C   0  0  0  0  0  0  0  0  0  0  0  0
  -11.2126  -12.7400    0.0000 C   0  0  0  0  0  0  0  0  0  0  0  0
  -10.0918  -13.6450    0.0000 C   0  0  0  0  0  0  0  0  0  0  0  0
   -8.8983  -14.4517    0.0000 C   0  0  0  0  0  0  0  0  0  0  0  0
   -7.6406  -15.1543    0.0000 C   0  0  0  0  0  0  0  0  0  0  0  0
   -6.3279  -15.7477    0.0000 C   0  0  0  0  0  0  0  0  0  0  0  0
   -4.9696  -16.2276    0.0000 C   0  0  0  0  0  0  0  0  0  0  0  0
   -3.5755  -16.5906    0.0000 C   0  0  0  0  0  0  0  0  0  0  0  0
   -2.1557  -16.8340    0.0000 C   0  0  0  0  0  0  0  0  0  0  0  0
   -0.7203  -16.9562    0.0000 C   0  0  0  0  0  0  0  0  0  0  0  0
    0.7203  -16.9562    0.0000 C   0  0  0  0  0  0  0  0  0  0  0  0
    2.1557  -16.8340    0.0000 C   0  0  0  0  0  0  0  0  0  0  0  0
    3.5755  -16.5906    0.0000 C   0  0  0  0  0  0  0  0  0  0  0  0
    4.9696  -16.2276    0.0000 C   0  0  0  0  0  0  0  0  0  0  0  0
    6.3279  -15.7477    0.0000 C   0  0  0  0  0  0  0  0  0  0  0  0
    7.6406  -15.1543    0.0000 C   0  0  0  0  0  0  0  0  0  0  0  0
    8.8983  -14.4517    0.0000 C   0  0  0  0  0  0  0  0  0  0  0  0
   10.0918  -13.6450    0.0000 C   0  0  0  0  0  0  0  0  0  0  0  0
   11.2126  -12.7400    0.0000 C   0  0  0  0  0  0  0  0  0  0  0  0
   12.2527  -11.7432    0.0000 C   0  0  0  0  0  0  0  0  0  0  0  0
   13.2044  -10.6618    0.0000 C   0  0  0  0  0  0  0  0  0  0  0  0
   14.0611   -9.5036    0.0000 C   0  0  0  0  0  0  0  0  0  0  0  0
   14.8164   -8.2769    0.0000 C   0  0  0  0  0  0  0  0  0  0  0  0
   15.4649   -6.9906    0.0000 C   0  0  0  0  0  0  0  0  0  0  0  0
   16.0021   -5.6539    0.0000 C   0  0  0  0  0  0  0  0  0  0  0  0
   16.4239   -4.2764    0.0000 C   0  0  0  0  0  0  0  0  0  0  0  0
   17.4173   -2.9865    0.0000 C   0  0  0  0  0  0  0  0  0  0  0  0
   17.5750   -4.4782    0.0000 C   0  0  0  0  0  0  0  0  0  0  0  0
   18.5518   -3.3398    0.0000 C   0  0  0  0  0  0  0  0  0  0  0  0
   20.0261   -3.6165    0.0000 C   0  0  0  0  0  0  0  0  0  0  0  0
   20.5236   -5.0316    0.0000 C   0  0  0  0  0  0  0  0  0  0  0  0
   19.5468   -6.1700    0.0000 C   0  0  0  0  0  0  0  0  0  0  0  0
   18.0725   -5.8933    0.0000 C   0  0  0  0  0  0  0  0  0  0  0  0
   18.8830   -7.1555    0.0000 C   0  0  0  0  0  0  0  0  0  0  0  0
   17.4413   -7.5699    0.0000 C   0  0  0  0  0  0  0  0  0  0  0  0
   17.0794   -9.0255    0.0000 C   0  0  0  0  0  0  0  0  0  0  0  0
   18.1590  -10.0669    0.0000 C   0  0  0  0  0  0  0  0  0  0  0  0
   19.6007   -9.6525    0.0000 C   0  0  0  0  0  0  0  0  0  0  0  0
   19.9626   -8.1968    0.0000 C   0  0  0  0  0  0  0  0  0  0  0  0
  1  2  1  0
  2  3  1  0
  3  4  1  0
  4  5  1  0
  5  6  1  0
  6  7  1  0
  7  8  1  0
  8  9  1  0
  9 10  1  0
 10 11  1  0
 11 12  1  0
 12 13  1  0
 13 14  1  0
 14 15  1  0
 15 16  1  0
 16 17  1  0
 17 18  1  0
 18 19  1  0
 19 20  1  0
 20 21  1  0
 21 22  1  0
 22 23  1  0
 23 24  1  0
 24 25  1  0
 25 26  1  0
 26 27  1  0
 27 28  1  0
 28 29  1  0
 29 30  1  0
 30 31  1  0
 31 32  1  0
 32 33  1  0
 33 34  1  0
 34 35  1  0
 35 36  1  0
 36 37  1  0
 37 38  1  0
 38 39  1  0
 39 40  1  0
 40 41  1  0
 41 42  1  0
 42 43  1  0
 43 44  1  0
 44 45  1  0
 45 46  1  0
 46 47  1  0
 47 48  1  0
 48 49  1  0
 49 50  1  0
 50 51  1  0
 51 52  1  0
 52 53  1  0
 53 54  1  0
 54 55  1  0
 55 56  1  0
 56 57  1  0
 57 58  1  0
 58 59  1  0
 59 60  1  0
 60 61  1  0
 61 62  1  0
 62 63  1  0
 63 64  1  0
 64 65  1  0
 65 66  1  0
 66 67  1  0
 67 68  1  0
 68 69  1  0
 69 70  1  0
 70 71  1  0
 71 72  1  0
 72 73  1  0
 73 74  1  0
 74 75  1  0
 75 76  1  0
 76 77  1  0
 77 78  1  0
 78 79  1  0
 79 80  1  0
 80 81  1  0
 81 82  1  0
 82 83  1  0
 83 84  1  0
 84 85  1  0
 85 86  2  0
 86 87  1  0
 87 88  2  0
 88 89  1  0
 89 90  2  0
 90 91  1  0
 91 92  2  0
 92 93  1  0
 93 94  2  0
 94 95  1  0
 95 96  2  0
 96 97  1  0
 97 98  2  0
 98 99  1  0
 99100  2  0
100101  1  0
101102  2  0
102103  1  0
103104  2  0
104105  1  0
105106  2  0
106107  1  0
107108  2  0
108  2  1  0
 96 23  1  0
102 97  1  0
108103  1  0
M  END
>  <Title>  (917) 
idABHIgen8

$$$$

     RDKit          2D

 63 71  0  0  0  0  0  0  0  0999 V2000
    1.8612  -14.4848    0.0000 C   0  0  0  0  0  0  0  0  0  0  0  0
    1.4882  -13.0319    0.0000 C   0  0  0  0  0  0  0  0  0  0  0  0
    2.8828  -12.4798    0.0000 C   0  0  0  0  0  0  0  0  0  0  0  0
    4.0964  -11.5981    0.0000 C   0  0  0  0  0  0  0  0  0  0  0  0
    5.0525  -10.4423    0.0000 C   0  0  0  0  0  0  0  0  0  0  0  0
    5.6912   -9.0851    0.0000 C   0  0  0  0  0  0  0  0  0  0  0  0
    5.9722   -7.6116    0.0000 C   0  0  0  0  0  0  0  0  0  0  0  0
    5.8781   -6.1146    0.0000 C   0  0  0  0  0  0  0  0  0  0  0  0
    5.4145   -4.6880    0.0000 C   0  0  0  0  0  0  0  0  0  0  0  0
    4.6108   -3.4215    0.0000 C   0  0  0  0  0  0  0  0  0  0  0  0
    3.5173   -2.3947    0.0000 C   0  0  0  0  0  0  0  0  0  0  0  0
    2.2029   -1.6721    0.0000 C   0  0  0  0  0  0  0  0  0  0  0  0
    2.7551   -0.2774    0.0000 C   0  0  0  0  0  0  0  0  0  0  0  0
    1.8233    0.8981    0.0000 O   0  0  0  0  0  0  0  0  0  0  0  0
    4.2390   -0.0583    0.0000 N   0  0  0  0  0  0  0  0  0  0  0  0
    4.7912    1.3364    0.0000 C   0  0  0  0  0  0  0  0  0  0  0  0
    6.2751    1.5555    0.0000 N   0  0  0  0  0  0  0  0  0  0  0  0
    6.8273    2.9502    0.0000 N   0  0  0  0  0  0  0  0  0  0  0  0
    5.8955    4.1257    0.0000 N   0  0  0  0  0  0  0  0  0  0  0  0
    4.4116    3.9066    0.0000 N   0  0  0  0  0  0  0  0  0  0  0  0
    3.8594    2.5119    0.0000 N   0  0  0  0  0  0  0  0  0  0  0  0
    0.7500   -1.2990    0.0000 C   0  0  0  0  0  0  0  0  0  0  0  0
    1.5000    0.0000    0.0000 C   0  0  0  0  0  0  0  0  0  0  0  0
    0.7500    1.2990    0.0000 C   0  0  0  0  0  0  0  0  0  0  0  0
   -0.7500    1.2990    0.0000 C   0  0  0  0  0  0  0  0  0  0  0  0
   -1.5000    0.0000    0.0000 C   0  0  0  0  0  0  0  0  0  0  0  0
   -0.7500   -1.2990    0.0000 C   0  0  0  0  0  0  0  0  0  0  0  0
   -2.2029   -1.6721    0.0000 C   0  0  0  0  0  0  0  0  0  0  0  0
   -2.7849   -0.5096    0.0000 C   0  0  0  0  0  0  0  0  0  0  0  0
   -3.4692   -0.0952    0.0000 C   0  0  0  0  0  0  0  0  0  0  0  0
   -4.1702   -0.4806    0.0000 C   0  0  0  0  0  0  0  0  0  0  0  0
   -4.1870   -1.2804    0.0000 C   0  0  0  0  0  0  0  0  0  0  0  0
   -3.5173   -2.3947    0.0000 C   0  0  0  0  0  0  0  0  0  0  0  0
   -4.6108   -3.4215    0.0000 C   0  0  0  0  0  0  0  0  0  0  0  0
   -5.3057   -2.0922    0.0000 C   0  0  0  0  0  0  0  0  0  0  0  0
   -6.8044   -2.0294    0.0000 C   0  0  0  0  0  0  0  0  0  0  0  0
   -7.6082   -3.2959    0.0000 C   0  0  0  0  0  0  0  0  0  0  0  0
   -6.9132   -4.6252    0.0000 C   0  0  0  0  0  0  0  0  0  0  0  0
   -5.4145   -4.6880    0.0000 C   0  0  0  0  0  0  0  0  0  0  0  0
   -5.8781   -6.1146    0.0000 C   0  0  0  0  0  0  0  0  0  0  0  0
   -7.1714   -5.9831    0.0000 C   0  0  0  0  0  0  0  0  0  0  0  0
   -7.8880   -6.3388    0.0000 C   0  0  0  0  0  0  0  0  0  0  0  0
   -7.9382   -7.1373    0.0000 C   0  0  0  0  0  0  0  0  0  0  0  0
   -7.2719   -7.5800    0.0000 C   0  0  0  0  0  0  0  0  0  0  0  0
   -5.9722   -7.6116    0.0000 C   0  0  0  0  0  0  0  0  0  0  0  0
   -5.6912   -9.0851    0.0000 C   0  0  0  0  0  0  0  0  0  0  0  0
   -7.1859   -8.9596    0.0000 C   0  0  0  0  0  0  0  0  0  0  0  0
   -8.0420  -10.1913    0.0000 C   0  0  0  0  0  0  0  0  0  0  0  0
   -7.4033  -11.5485    0.0000 C   0  0  0  0  0  0  0  0  0  0  0  0
   -5.9086  -11.6740    0.0000 C   0  0  0  0  0  0  0  0  0  0  0  0
   -5.0525  -10.4423    0.0000 C   0  0  0  0  0  0  0  0  0  0  0  0
   -4.0964  -11.5981    0.0000 C   0  0  0  0  0  0  0  0  0  0  0  0
   -4.9004  -12.6196    0.0000 C   0  0  0  0  0  0  0  0  0  0  0  0
   -4.9840  -13.4153    0.0000 C   0  0  0  0  0  0  0  0  0  0  0  0
   -4.3368  -13.8855    0.0000 C   0  0  0  0  0  0  0  0  0  0  0  0
   -3.6059  -13.5601    0.0000 C   0  0  0  0  0  0  0  0  0  0  0  0
   -2.8828  -12.4798    0.0000 C   0  0  0  0  0  0  0  0  0  0  0  0
   -1.4882  -13.0319    0.0000 C   0  0  0  0  0  0  0  0  0  0  0  0
   -2.3951  -14.2267    0.0000 C   0  0  0  0  0  0  0  0  0  0  0  0
   -1.8138  -15.6095    0.0000 C   0  0  0  0  0  0  0  0  0  0  0  0
   -0.3256  -15.7975    0.0000 C   0  0  0  0  0  0  0  0  0  0  0  0
    0.5813  -14.6027    0.0000 C   0  0  0  0  0  0  0  0  0  0  0  0
   -0.0000  -13.2199    0.0000 C   0  0  0  0  0  0  0  0  0  0  0  0
  1  2  1  0
  2  3  1  0
  3  4  1  0
  4  5  1  0
  5  6  1  0
  6  7  1  0
  7  8  1  0
  8  9  1  0
  9 10  1  0
 10 11  1  0
 11 12  1  0
 12 13  1  0
 13 14  2  0
 13 15  1  0
 15 16  1  0
 16 17  2  0
 17 18  1  0
 18 19  2  0
 19 20  1  0
 20 21  2  0
 12 22  1  0
 22 23  2  0
 23 24  1  0
 24 25  2  0
 25 26  1  0
 26 27  2  0
 27 28  1  0
 28 29  2  0
 29 30  1  0
 30 31  2  0
 31 32  1  0
 32 33  2  0
 33 34  1  0
 34 35  2  0
 35 36  1  0
 36 37  2  0
 37 38  1  0
 38 39  2  0
 39 40  1  0
 40 41  2  0
 41 42  1  0
 42 43  2  0
 43 44  1  0
 44 45  2  0
 45 46  1  0
 46 47  2  0
 47 48  1  0
 48 49  2  0
 49 50  1  0
 50 51  2  0
 51 52  1  0
 52 53  2  0
 53 54  1  0
 54 55  2  0
 55 56  1  0
 56 57  2  0
 57 58  1  0
 58 59  2  0
 59 60  1  0
 60 61  2  0
 61 62  1  0
 62 63  2  0
 63  2  1  0
 21 16  1  0
 27 22  1  0
 33 28  1  0
 39 34  1  0
 45 40  1  0
 51 46  1  0
 57 52  1  0
 63 58  1  0
M  END
>  <Title>  (918) 
idABHJgen8

$$$$

     RDKit          2D

  9  9  0  0  0  0  0  0  0  0999 V2000
    3.7500   -1.2990    0.0000 C   0  0  0  0  0  0  0  0  0  0  0  0
    3.0000    0.0000    0.0000 O   0  0  0  0  0  0  0  0  0  0  0  0
    1.5000    0.0000    0.0000 C   0  0  0  0  0  0  0  0  0  0  0  0
    0.7500   -1.2990    0.0000 C   0  0  0  0  0  0  0  0  0  0  0  0
   -0.7500   -1.2990    0.0000 C   0  0  0  0  0  0  0  0  0  0  0  0
   -1.5000    0.0000    0.0000 C   0  0  0  0  0  0  0  0  0  0  0  0
   -3.0000    0.0000    0.0000 O   0  0  0  0  0  0  0  0  0  0  0  0
   -0.7500    1.2990    0.0000 C   0  0  0  0  0  0  0  0  0  0  0  0
    0.7500    1.2990    0.0000 C   0  0  0  0  0  0  0  0  0  0  0  0
  1  2  1  0
  2  3  1  0
  3  4  2  0
  4  5  1  0
  5  6  1  0
  6  7  1  0
  6  8  1  0
  8  9  1  0
  9  3  1  0
M  END
>  <Title>  (919) 
idABHKgen8

$$$$

     RDKit          2D

119120  0  0  0  0  0  0  0  0999 V2000
   28.4802    0.0000    0.0000 C   0  0  0  0  0  0  0  0  0  0  0  0
   26.9802    0.0000    0.0000 C   0  0  0  0  0  0  0  0  0  0  0  0
   26.9385    1.4994    0.0000 C   0  0  0  0  0  0  0  0  0  0  0  0
   26.8136    2.9942    0.0000 C   0  0  0  0  0  0  0  0  0  0  0  0
   26.6057    4.4797    0.0000 C   0  0  0  0  0  0  0  0  0  0  0  0
   26.3157    5.9514    0.0000 C   0  0  0  0  0  0  0  0  0  0  0  0
   25.9442    7.4047    0.0000 C   0  0  0  0  0  0  0  0  0  0  0  0
   25.4926    8.8351    0.0000 C   0  0  0  0  0  0  0  0  0  0  0  0
   24.9622   10.2382    0.0000 C   0  0  0  0  0  0  0  0  0  0  0  0
   24.3547   11.6096    0.0000 C   0  0  0  0  0  0  0  0  0  0  0  0
   23.6718   12.9452    0.0000 C   0  0  0  0  0  0  0  0  0  0  0  0
   22.9158   14.2408    0.0000 C   0  0  0  0  0  0  0  0  0  0  0  0
   22.0890   15.4923    0.0000 C   0  0  0  0  0  0  0  0  0  0  0  0
   21.1938   16.6959    0.0000 C   0  0  0  0  0  0  0  0  0  0  0  0
   20.2332   17.8480    0.0000 C   0  0  0  0  0  0  0  0  0  0  0  0
   19.2100   18.9449    0.0000 C   0  0  0  0  0  0  0  0  0  0  0  0
   18.1275   19.9832    0.0000 C   0  0  0  0  0  0  0  0  0  0  0  0
   16.9889   20.9597    0.0000 C   0  0  0  0  0  0  0  0  0  0  0  0
   15.7978   21.8715    0.0000 C   0  0  0  0  0  0  0  0  0  0  0  0
   14.5579   22.7156    0.0000 C   0  0  0  0  0  0  0  0  0  0  0  0
   13.2730   23.4896    0.0000 C   0  0  0  0  0  0  0  0  0  0  0  0
   11.9471   24.1909    0.0000 C   0  0  0  0  0  0  0  0  0  0  0  0
   10.5842   24.8175    0.0000 C   0  0  0  0  0  0  0  0  0  0  0  0
    9.1886   25.3674    0.0000 C   0  0  0  0  0  0  0  0  0  0  0  0
    7.7646   25.8388    0.0000 C   0  0  0  0  0  0  0  0  0  0  0  0
    6.3166   26.2304    0.0000 C   0  0  0  0  0  0  0  0  0  0  0  0
    4.8491   26.5409    0.0000 C   0  0  0  0  0  0  0  0  0  0  0  0
    3.3666   26.7694    0.0000 C   0  0  0  0  0  0  0  0  0  0  0  0
    1.8737   26.9151    0.0000 C   0  0  0  0  0  0  0  0  0  0  0  0
    0.3750   26.9776    0.0000 C   0  0  0  0  0  0  0  0  0  0  0  0
   -1.1248   26.9568    0.0000 C   0  0  0  0  0  0  0  0  0  0  0  0
   -2.6212   26.8526    0.0000 C   0  0  0  0  0  0  0  0  0  0  0  0
   -4.1095   26.6654    0.0000 C   0  0  0  0  0  0  0  0  0  0  0  0
   -5.5850   26.3958    0.0000 C   0  0  0  0  0  0  0  0  0  0  0  0
   -7.0434   26.0447    0.0000 C   0  0  0  0  0  0  0  0  0  0  0  0
   -8.4799   25.6130    0.0000 C   0  0  0  0  0  0  0  0  0  0  0  0
   -9.8902   25.1021    0.0000 C   0  0  0  0  0  0  0  0  0  0  0  0
  -11.2700   24.5137    0.0000 C   0  0  0  0  0  0  0  0  0  0  0  0
  -12.6149   23.8495    0.0000 C   0  0  0  0  0  0  0  0  0  0  0  0
  -13.9208   23.1115    0.0000 C   0  0  0  0  0  0  0  0  0  0  0  0
  -15.1837   22.3022    0.0000 C   0  0  0  0  0  0  0  0  0  0  0  0
  -16.3997   21.4239    0.0000 C   0  0  0  0  0  0  0  0  0  0  0  0
  -17.5650   20.4794    0.0000 C   0  0  0  0  0  0  0  0  0  0  0  0
  -18.6760   19.4715    0.0000 C   0  0  0  0  0  0  0  0  0  0  0  0
  -19.7293   18.4035    0.0000 C   0  0  0  0  0  0  0  0  0  0  0  0
  -20.7215   17.2786    0.0000 C   0  0  0  0  0  0  0  0  0  0  0  0
  -21.6498   16.1003    0.0000 C   0  0  0  0  0  0  0  0  0  0  0  0
  -22.5111   14.8723    0.0000 C   0  0  0  0  0  0  0  0  0  0  0  0
  -23.3028   13.5982    0.0000 C   0  0  0  0  0  0  0  0  0  0  0  0
  -24.0225   12.2822    0.0000 C   0  0  0  0  0  0  0  0  0  0  0  0
  -24.6680   10.9281    0.0000 C   0  0  0  0  0  0  0  0  0  0  0  0
  -25.2372    9.5403    0.0000 C   0  0  0  0  0  0  0  0  0  0  0  0
  -25.7284    8.1230    0.0000 C   0  0  0  0  0  0  0  0  0  0  0  0
  -26.1401    6.6806    0.0000 C   0  0  0  0  0  0  0  0  0  0  0  0
  -26.4709    5.2176    0.0000 C   0  0  0  0  0  0  0  0  0  0  0  0
  -26.7200    3.7384    0.0000 C   0  0  0  0  0  0  0  0  0  0  0  0
  -26.8864    2.2477    0.0000 C   0  0  0  0  0  0  0  0  0  0  0  0
  -26.9698    0.7500    0.0000 C   0  0  0  0  0  0  0  0  0  0  0  0
  -26.9698   -0.7500    0.0000 C   0  0  0  0  0  0  0  0  0  0  0  0
  -26.8864   -2.2477    0.0000 C   0  0  0  0  0  0  0  0  0  0  0  0
  -26.7200   -3.7384    0.0000 C   0  0  0  0  0  0  0  0  0  0  0  0
  -26.4709   -5.2176    0.0000 C   0  0  0  0  0  0  0  0  0  0  0  0
  -26.1401   -6.6806    0.0000 C   0  0  0  0  0  0  0  0  0  0  0  0
  -25.7284   -8.1230    0.0000 C   0  0  0  0  0  0  0  0  0  0  0  0
  -25.2372   -9.5403    0.0000 C   0  0  0  0  0  0  0  0  0  0  0  0
  -24.6680  -10.9281    0.0000 C   0  0  0  0  0  0  0  0  0  0  0  0
  -24.0225  -12.2822    0.0000 C   0  0  0  0  0  0  0  0  0  0  0  0
  -23.3028  -13.5982    0.0000 C   0  0  0  0  0  0  0  0  0  0  0  0
  -22.5111  -14.8723    0.0000 C   0  0  0  0  0  0  0  0  0  0  0  0
  -21.6498  -16.1003    0.0000 C   0  0  0  0  0  0  0  0  0  0  0  0
  -20.7215  -17.2786    0.0000 C   0  0  0  0  0  0  0  0  0  0  0  0
  -19.7293  -18.4035    0.0000 C   0  0  0  0  0  0  0  0  0  0  0  0
  -18.6760  -19.4715    0.0000 C   0  0  0  0  0  0  0  0  0  0  0  0
  -17.5650  -20.4794    0.0000 C   0  0  0  0  0  0  0  0  0  0  0  0
  -16.3997  -21.4239    0.0000 C   0  0  0  0  0  0  0  0  0  0  0  0
  -15.1837  -22.3022    0.0000 C   0  0  0  0  0  0  0  0  0  0  0  0
  -13.9208  -23.1115    0.0000 C   0  0  0  0  0  0  0  0  0  0  0  0
  -12.6149  -23.8495    0.0000 C   0  0  0  0  0  0  0  0  0  0  0  0
  -11.2700  -24.5137    0.0000 C   0  0  0  0  0  0  0  0  0  0  0  0
   -9.8902  -25.1021    0.0000 C   0  0  0  0  0  0  0  0  0  0  0  0
   -8.4799  -25.6130    0.0000 C   0  0  0  0  0  0  0  0  0  0  0  0
   -7.0434  -26.0447    0.0000 C   0  0  0  0  0  0  0  0  0  0  0  0
   -5.5850  -26.3958    0.0000 C   0  0  0  0  0  0  0  0  0  0  0  0
   -4.1095  -26.6654    0.0000 C   0  0  0  0  0  0  0  0  0  0  0  0
   -2.6212  -26.8526    0.0000 C   0  0  0  0  0  0  0  0  0  0  0  0
   -1.1248  -26.9568    0.0000 C   0  0  0  0  0  0  0  0  0  0  0  0
    0.3750  -26.9776    0.0000 C   0  0  0  0  0  0  0  0  0  0  0  0
    1.8737  -26.9151    0.0000 C   0  0  0  0  0  0  0  0  0  0  0  0
    3.3666  -26.7694    0.0000 C   0  0  0  0  0  0  0  0  0  0  0  0
    4.8491  -26.5409    0.0000 C   0  0  0  0  0  0  0  0  0  0  0  0
    6.3166  -26.2304    0.0000 C   0  0  0  0  0  0  0  0  0  0  0  0
    7.7646  -25.8388    0.0000 C   0  0  0  0  0  0  0  0  0  0  0  0
    9.1886  -25.3674    0.0000 C   0  0  0  0  0  0  0  0  0  0  0  0
   10.5842  -24.8175    0.0000 C   0  0  0  0  0  0  0  0  0  0  0  0
   11.9471  -24.1909    0.0000 C   0  0  0  0  0  0  0  0  0  0  0  0
   13.2730  -23.4896    0.0000 C   0  0  0  0  0  0  0  0  0  0  0  0
   14.5579  -22.7156    0.0000 C   0  0  0  0  0  0  0  0  0  0  0  0
   15.7978  -21.8715    0.0000 C   0  0  0  0  0  0  0  0  0  0  0  0
   16.9889  -20.9597    0.0000 C   0  0  0  0  0  0  0  0  0  0  0  0
   18.1275  -19.9832    0.0000 C   0  0  0  0  0  0  0  0  0  0  0  0
   19.2100  -18.9449    0.0000 C   0  0  0  0  0  0  0  0  0  0  0  0
   20.2332  -17.8480    0.0000 C   0  0  0  0  0  0  0  0  0  0  0  0
   21.1938  -16.6959    0.0000 C   0  0  0  0  0  0  0  0  0  0  0  0
   22.0890  -15.4923    0.0000 C   0  0  0  0  0  0  0  0  0  0  0  0
   22.9158  -14.2408    0.0000 C   0  0  0  0  0  0  0  0  0  0  0  0
   23.6718  -12.9452    0.0000 C   0  0  0  0  0  0  0  0  0  0  0  0
   24.3547  -11.6096    0.0000 C   0  0  0  0  0  0  0  0  0  0  0  0
   24.9622  -10.2382    0.0000 C   0  0  0  0  0  0  0  0  0  0  0  0
   25.4926   -8.8351    0.0000 C   0  0  0  0  0  0  0  0  0  0  0  0
   25.9442   -7.4047    0.0000 C   0  0  0  0  0  0  0  0  0  0  0  0
   26.3157   -5.9514    0.0000 C   0  0  0  0  0  0  0  0  0  0  0  0
   26.6057   -4.4797    0.0000 C   0  0  0  0  0  0  0  0  0  0  0  0
   26.8136   -2.9942    0.0000 C   0  0  0  0  0  0  0  0  0  0  0  0
   28.0456   -3.8498    0.0000 C   0  0  0  0  0  0  0  0  0  0  0  0
   29.4026   -3.2106    0.0000 C   0  0  0  0  0  0  0  0  0  0  0  0
   29.5276   -1.7159    0.0000 C   0  0  0  0  0  0  0  0  0  0  0  0
   30.8846   -1.0767    0.0000 N   0  0  0  0  0  0  0  0  0  0  0  0
   28.2955   -0.8602    0.0000 C   0  0  0  0  0  0  0  0  0  0  0  0
   26.9385   -1.4994    0.0000 C   0  0  0  0  0  0  0  0  0  0  0  0
  1  2  1  0
  2  3  1  0
  3  4  1  0
  4  5  1  0
  5  6  1  0
  6  7  1  0
  7  8  1  0
  8  9  1  0
  9 10  1  0
 10 11  1  0
 11 12  1  0
 12 13  1  0
 13 14  1  0
 14 15  1  0
 15 16  1  0
 16 17  1  0
 17 18  1  0
 18 19  1  0
 19 20  1  0
 20 21  1  0
 21 22  1  0
 22 23  1  0
 23 24  1  0
 24 25  1  0
 25 26  1  0
 26 27  1  0
 27 28  1  0
 28 29  1  0
 29 30  1  0
 30 31  1  0
 31 32  1  0
 32 33  1  0
 33 34  1  0
 34 35  1  0
 35 36  1  0
 36 37  1  0
 37 38  1  0
 38 39  1  0
 39 40  1  0
 40 41  1  0
 41 42  1  0
 42 43  1  0
 43 44  1  0
 44 45  1  0
 45 46  1  0
 46 47  1  0
 47 48  1  0
 48 49  1  0
 49 50  1  0
 50 51  1  0
 51 52  1  0
 52 53  1  0
 53 54  1  0
 54 55  1  0
 55 56  1  0
 56 57  1  0
 57 58  1  0
 58 59  1  0
 59 60  1  0
 60 61  1  0
 61 62  1  0
 62 63  1  0
 63 64  1  0
 64 65  1  0
 65 66  1  0
 66 67  1  0
 67 68  1  0
 68 69  1  0
 69 70  1  0
 70 71  1  0
 71 72  1  0
 72 73  1  0
 73 74  1  0
 74 75  1  0
 75 76  1  0
 76 77  1  0
 77 78  1  0
 78 79  1  0
 79 80  1  0
 80 81  1  0
 81 82  1  0
 82 83  1  0
 83 84  1  0
 84 85  1  0
 85 86  1  0
 86 87  1  0
 87 88  1  0
 88 89  1  0
 89 90  1  0
 90 91  1  0
 91 92  1  0
 92 93  1  0
 93 94  1  0
 94 95  1  0
 95 96  1  0
 96 97  1  0
 97 98  1  0
 98 99  1  0
 99100  1  0
100101  1  0
101102  1  0
102103  1  0
103104  1  0
104105  1  0
105106  1  0
106107  1  0
107108  1  0
108109  1  0
109110  1  0
110111  1  0
111112  1  0
112113  1  0
113114  2  0
114115  1  0
115116  2  0
116117  1  0
116118  1  0
118119  2  0
119  2  1  0
119113  1  0
M  END
>  <Title>  (920) 
idABHLgen8

$$$$

     RDKit          2D

102102  0  0  0  0  0  0  0  0999 V2000
   27.3885   -1.2990    0.0000 C   0  0  0  0  0  0  0  0  0  0  0  0
   25.8885   -1.2990    0.0000 C   0  0  0  0  0  0  0  0  0  0  0  0
   25.1385    0.0000    0.0000 C   0  0  0  0  0  0  0  0  0  0  0  0
   23.6385    0.0000    0.0000 C   0  0  0  0  0  0  0  0  0  0  0  0
   23.5909    1.4992    0.0000 C   0  0  0  0  0  0  0  0  0  0  0  0
   23.4483    2.9925    0.0000 C   0  0  0  0  0  0  0  0  0  0  0  0
   23.2113    4.4736    0.0000 C   0  0  0  0  0  0  0  0  0  0  0  0
   22.8808    5.9368    0.0000 C   0  0  0  0  0  0  0  0  0  0  0  0
   22.4582    7.3760    0.0000 C   0  0  0  0  0  0  0  0  0  0  0  0
   21.9452    8.7855    0.0000 C   0  0  0  0  0  0  0  0  0  0  0  0
   21.3438   10.1597    0.0000 C   0  0  0  0  0  0  0  0  0  0  0  0
   20.6565   11.4929    0.0000 C   0  0  0  0  0  0  0  0  0  0  0  0
   19.8860   12.7799    0.0000 C   0  0  0  0  0  0  0  0  0  0  0  0
   19.0354   14.0154    0.0000 C   0  0  0  0  0  0  0  0  0  0  0  0
   18.1081   15.1945    0.0000 C   0  0  0  0  0  0  0  0  0  0  0  0
   17.1080   16.3124    0.0000 C   0  0  0  0  0  0  0  0  0  0  0  0
   16.0389   17.3646    0.0000 C   0  0  0  0  0  0  0  0  0  0  0  0
   14.9053   18.3469    0.0000 C   0  0  0  0  0  0  0  0  0  0  0  0
   13.7117   19.2553    0.0000 C   0  0  0  0  0  0  0  0  0  0  0  0
   12.4628   20.0862    0.0000 C   0  0  0  0  0  0  0  0  0  0  0  0
   11.1638   20.8362    0.0000 C   0  0  0  0  0  0  0  0  0  0  0  0
    9.8198   21.5023    0.0000 C   0  0  0  0  0  0  0  0  0  0  0  0
    8.4362   22.0818    0.0000 C   0  0  0  0  0  0  0  0  0  0  0  0
    7.0187   22.5724    0.0000 C   0  0  0  0  0  0  0  0  0  0  0  0
    5.5730   22.9721    0.0000 C   0  0  0  0  0  0  0  0  0  0  0  0
    4.1048   23.2794    0.0000 C   0  0  0  0  0  0  0  0  0  0  0  0
    2.6200   23.4928    0.0000 C   0  0  0  0  0  0  0  0  0  0  0  0
    1.1248   23.6117    0.0000 C   0  0  0  0  0  0  0  0  0  0  0  0
   -0.3750   23.6355    0.0000 C   0  0  0  0  0  0  0  0  0  0  0  0
   -1.8733   23.5641    0.0000 C   0  0  0  0  0  0  0  0  0  0  0  0
   -3.3641   23.3979    0.0000 C   0  0  0  0  0  0  0  0  0  0  0  0
   -4.8413   23.1374    0.0000 C   0  0  0  0  0  0  0  0  0  0  0  0
   -6.2990   22.7838    0.0000 C   0  0  0  0  0  0  0  0  0  0  0  0
   -7.7314   22.3384    0.0000 C   0  0  0  0  0  0  0  0  0  0  0  0
   -9.1326   21.8031    0.0000 C   0  0  0  0  0  0  0  0  0  0  0  0
  -10.4971   21.1799    0.0000 C   0  0  0  0  0  0  0  0  0  0  0  0
  -11.8192   20.4715    0.0000 C   0  0  0  0  0  0  0  0  0  0  0  0
  -13.0938   19.6807    0.0000 C   0  0  0  0  0  0  0  0  0  0  0  0
  -14.3157   18.8106    0.0000 C   0  0  0  0  0  0  0  0  0  0  0  0
  -15.4799   17.8648    0.0000 C   0  0  0  0  0  0  0  0  0  0  0  0
  -16.5818   16.8470    0.0000 C   0  0  0  0  0  0  0  0  0  0  0  0
  -17.6169   15.7614    0.0000 C   0  0  0  0  0  0  0  0  0  0  0  0
  -18.5811   14.6123    0.0000 C   0  0  0  0  0  0  0  0  0  0  0  0
  -19.4705   13.4044    0.0000 C   0  0  0  0  0  0  0  0  0  0  0  0
  -20.2814   12.1426    0.0000 C   0  0  0  0  0  0  0  0  0  0  0  0
  -21.0107   10.8318    0.0000 C   0  0  0  0  0  0  0  0  0  0  0  0
  -21.6554    9.4774    0.0000 C   0  0  0  0  0  0  0  0  0  0  0  0
  -22.2129    8.0848    0.0000 C   0  0  0  0  0  0  0  0  0  0  0  0
  -22.6810    6.6597    0.0000 C   0  0  0  0  0  0  0  0  0  0  0  0
  -23.0577    5.2078    0.0000 C   0  0  0  0  0  0  0  0  0  0  0  0
  -23.3416    3.7349    0.0000 C   0  0  0  0  0  0  0  0  0  0  0  0
  -23.5314    2.2470    0.0000 C   0  0  0  0  0  0  0  0  0  0  0  0
  -23.6266    0.7500    0.0000 C   0  0  0  0  0  0  0  0  0  0  0  0
  -23.6266   -0.7500    0.0000 C   0  0  0  0  0  0  0  0  0  0  0  0
  -23.5314   -2.2470    0.0000 C   0  0  0  0  0  0  0  0  0  0  0  0
  -23.3416   -3.7349    0.0000 C   0  0  0  0  0  0  0  0  0  0  0  0
  -23.0577   -5.2078    0.0000 C   0  0  0  0  0  0  0  0  0  0  0  0
  -22.6810   -6.6597    0.0000 C   0  0  0  0  0  0  0  0  0  0  0  0
  -22.2129   -8.0848    0.0000 C   0  0  0  0  0  0  0  0  0  0  0  0
  -21.6554   -9.4774    0.0000 C   0  0  0  0  0  0  0  0  0  0  0  0
  -21.0107  -10.8318    0.0000 C   0  0  0  0  0  0  0  0  0  0  0  0
  -20.2814  -12.1426    0.0000 C   0  0  0  0  0  0  0  0  0  0  0  0
  -19.4705  -13.4044    0.0000 C   0  0  0  0  0  0  0  0  0  0  0  0
  -18.5811  -14.6123    0.0000 C   0  0  0  0  0  0  0  0  0  0  0  0
  -17.6169  -15.7614    0.0000 C   0  0  0  0  0  0  0  0  0  0  0  0
  -16.5818  -16.8470    0.0000 C   0  0  0  0  0  0  0  0  0  0  0  0
  -15.4799  -17.8648    0.0000 C   0  0  0  0  0  0  0  0  0  0  0  0
  -14.3157  -18.8106    0.0000 C   0  0  0  0  0  0  0  0  0  0  0  0
  -13.0938  -19.6807    0.0000 C   0  0  0  0  0  0  0  0  0  0  0  0
  -11.8192  -20.4715    0.0000 C   0  0  0  0  0  0  0  0  0  0  0  0
  -10.4971  -21.1799    0.0000 C   0  0  0  0  0  0  0  0  0  0  0  0
   -9.1326  -21.8031    0.0000 C   0  0  0  0  0  0  0  0  0  0  0  0
   -7.7314  -22.3384    0.0000 C   0  0  0  0  0  0  0  0  0  0  0  0
   -6.2990  -22.7838    0.0000 C   0  0  0  0  0  0  0  0  0  0  0  0
   -4.8413  -23.1374    0.0000 C   0  0  0  0  0  0  0  0  0  0  0  0
   -3.3641  -23.3979    0.0000 C   0  0  0  0  0  0  0  0  0  0  0  0
   -1.8733  -23.5641    0.0000 C   0  0  0  0  0  0  0  0  0  0  0  0
   -0.3750  -23.6355    0.0000 C   0  0  0  0  0  0  0  0  0  0  0  0
    1.1248  -23.6117    0.0000 C   0  0  0  0  0  0  0  0  0  0  0  0
    2.6200  -23.4928    0.0000 C   0  0  0  0  0  0  0  0  0  0  0  0
    4.1048  -23.2794    0.0000 C   0  0  0  0  0  0  0  0  0  0  0  0
    5.5730  -22.9721    0.0000 C   0  0  0  0  0  0  0  0  0  0  0  0
    7.0187  -22.5724    0.0000 C   0  0  0  0  0  0  0  0  0  0  0  0
    8.4362  -22.0818    0.0000 C   0  0  0  0  0  0  0  0  0  0  0  0
    9.8198  -21.5023    0.0000 C   0  0  0  0  0  0  0  0  0  0  0  0
   11.1638  -20.8362    0.0000 C   0  0  0  0  0  0  0  0  0  0  0  0
   12.4628  -20.0862    0.0000 C   0  0  0  0  0  0  0  0  0  0  0  0
   13.7117  -19.2553    0.0000 C   0  0  0  0  0  0  0  0  0  0  0  0
   14.9053  -18.3469    0.0000 C   0  0  0  0  0  0  0  0  0  0  0  0
   16.0389  -17.3646    0.0000 C   0  0  0  0  0  0  0  0  0  0  0  0
   17.1080  -16.3124    0.0000 C   0  0  0  0  0  0  0  0  0  0  0  0
   18.1081  -15.1945    0.0000 C   0  0  0  0  0  0  0  0  0  0  0  0
   19.0354  -14.0154    0.0000 C   0  0  0  0  0  0  0  0  0  0  0  0
   19.8860  -12.7799    0.0000 C   0  0  0  0  0  0  0  0  0  0  0  0
   20.6565  -11.4929    0.0000 C   0  0  0  0  0  0  0  0  0  0  0  0
   21.3438  -10.1597    0.0000 C   0  0  0  0  0  0  0  0  0  0  0  0
   21.9452   -8.7855    0.0000 C   0  0  0  0  0  0  0  0  0  0  0  0
   22.4582   -7.3760    0.0000 C   0  0  0  0  0  0  0  0  0  0  0  0
   22.8808   -5.9368    0.0000 C   0  0  0  0  0  0  0  0  0  0  0  0
   23.2113   -4.4736    0.0000 C   0  0  0  0  0  0  0  0  0  0  0  0
   23.4483   -2.9925    0.0000 C   0  0  0  0  0  0  0  0  0  0  0  0
   23.5909   -1.4992    0.0000 C   0  0  0  0  0  0  0  0  0  0  0  0
  1  2  1  0
  2  3  1  0
  3  4  1  0
  4  5  1  0
  5  6  1  0
  6  7  1  0
  7  8  1  0
  8  9  1  0
  9 10  1  0
 10 11  1  0
 11 12  1  0
 12 13  1  0
 13 14  1  0
 14 15  1  0
 15 16  1  0
 16 17  1  0
 17 18  1  0
 18 19  1  0
 19 20  1  0
 20 21  1  0
 21 22  1  0
 22 23  1  0
 23 24  1  0
 24 25  1  0
 25 26  1  0
 26 27  1  0
 27 28  1  0
 28 29  1  0
 29 30  1  0
 30 31  1  0
 31 32  1  0
 32 33  1  0
 33 34  1  0
 34 35  1  0
 35 36  1  0
 36 37  1  0
 37 38  1  0
 38 39  1  0
 39 40  1  0
 40 41  1  0
 41 42  1  0
 42 43  1  0
 43 44  1  0
 44 45  1  0
 45 46  1  0
 46 47  1  0
 47 48  1  0
 48 49  1  0
 49 50  1  0
 50 51  1  0
 51 52  1  0
 52 53  1  0
 53 54  1  0
 54 55  1  0
 55 56  1  0
 56 57  1  0
 57 58  1  0
 58 59  1  0
 59 60  1  0
 60 61  1  0
 61 62  1  0
 62 63  1  0
 63 64  1  0
 64 65  1  0
 65 66  1  0
 66 67  1  0
 67 68  1  0
 68 69  1  0
 69 70  1  0
 70 71  1  0
 71 72  1  0
 72 73  1  0
 73 74  1  0
 74 75  1  0
 75 76  1  0
 76 77  1  0
 77 78  1  0
 78 79  1  0
 79 80  1  0
 80 81  1  0
 81 82  1  0
 82 83  1  0
 83 84  1  0
 84 85  1  0
 85 86  1  0
 86 87  1  0
 87 88  1  0
 88 89  1  0
 89 90  1  0
 90 91  1  0
 91 92  1  0
 92 93  1  0
 93 94  1  0
 94 95  1  0
 95 96  1  0
 96 97  1  0
 97 98  1  0
 98 99  1  0
 99100  1  0
100101  1  0
101102  1  0
102  4  1  0
M  END
>  <Title>  (921) 
idABHMgen8

$$$$

     RDKit          2D

  9  9  0  0  0  0  0  0  0  0999 V2000
    4.2760   -0.0000    0.0000 C   0  0  0  0  0  0  0  0  0  0  0  0
    2.7760    0.0000    0.0000 C   0  0  0  0  0  0  0  0  0  0  0  0
    1.2760    0.0000    0.0000 C   0  0  0  0  0  0  0  0  0  0  0  0
    0.3943    1.2135    0.0000 C   0  0  0  0  0  0  0  0  0  0  0  0
   -1.0323    0.7500    0.0000 C   0  0  0  0  0  0  0  0  0  0  0  0
   -1.0323   -0.7500    0.0000 C   0  0  0  0  0  0  0  0  0  0  0  0
   -2.2458   -1.6317    0.0000 C   0  0  0  0  0  0  0  0  0  0  0  0
   -3.4593   -2.5134    0.0000 N   0  0  0  0  0  0  0  0  0  0  0  0
    0.3943   -1.2135    0.0000 C   0  0  0  0  0  0  0  0  0  0  0  0
  1  2  3  0
  2  3  1  0
  3  4  2  0
  4  5  1  0
  5  6  1  0
  6  7  1  0
  7  8  3  0
  6  9  2  0
  9  3  1  0
M  END
>  <Title>  (922) 
idABHNgen8

$$$$

     RDKit          2D

  9  9  0  0  0  0  0  0  0  0999 V2000
    2.3907    1.0037    0.0000 C   0  0  0  0  0  0  0  0  0  0  0  0
    1.2760    0.0000    0.0000 C   0  0  0  0  0  0  0  0  0  0  0  0
    2.3907   -1.0037    0.0000 C   0  0  0  0  0  0  0  0  0  0  0  0
    0.3943    1.2135    0.0000 C   0  0  0  0  0  0  0  0  0  0  0  0
   -1.0323    0.7500    0.0000 C   0  0  0  0  0  0  0  0  0  0  0  0
   -1.0323   -0.7500    0.0000 C   0  0  0  0  0  0  0  0  0  0  0  0
    0.3943   -1.2135    0.0000 C   0  0  0  0  0  0  0  0  0  0  0  0
    0.8578   -2.6401    0.0000 C   0  0  0  0  0  0  0  0  0  0  0  0
    1.3213   -4.0667    0.0000 N   0  0  0  0  0  0  0  0  0  0  0  0
  1  2  1  0
  2  3  1  0
  2  4  1  0
  4  5  1  0
  5  6  2  0
  6  7  1  0
  7  8  1  0
  8  9  3  0
  7  2  1  0
M  END
>  <Title>  (923) 
idABHOgen8

$$$$

     RDKit          2D

 11 11  0  0  0  0  0  0  0  0999 V2000
    4.7286   -0.0000    0.0000 C   0  0  0  0  0  0  0  0  0  0  0  0
    3.2286   -0.0000    0.0000 C   0  0  0  0  0  0  0  0  0  0  0  0
    1.7286    0.0000    0.0000 C   0  0  0  0  0  0  0  0  0  0  0  0
    1.0777    1.3515    0.0000 C   0  0  0  0  0  0  0  0  0  0  0  0
   -0.3846    1.6852    0.0000 C   0  0  0  0  0  0  0  0  0  0  0  0
   -1.5574    0.7500    0.0000 C   0  0  0  0  0  0  0  0  0  0  0  0
   -2.9088    1.4008    0.0000 O   0  0  0  0  0  0  0  0  0  0  0  0
   -1.5574   -0.7500    0.0000 C   0  0  0  0  0  0  0  0  0  0  0  0
   -2.9088   -1.4008    0.0000 O   0  0  0  0  0  0  0  0  0  0  0  0
   -0.3846   -1.6852    0.0000 C   0  0  0  0  0  0  0  0  0  0  0  0
    1.0777   -1.3515    0.0000 C   0  0  0  0  0  0  0  0  0  0  0  0
  1  2  3  0
  2  3  1  0
  3  4  2  0
  4  5  1  0
  5  6  1  0
  6  7  1  0
  6  8  1  0
  8  9  1  0
  8 10  2  0
 10 11  1  0
 11  3  1  0
M  END
>  <Title>  (924) 
idABHPgen8

$$$$

     RDKit          2D

 13 13  0  0  0  0  0  0  0  0999 V2000
    8.0260    1.2990    0.0000 C   0  0  0  0  0  0  0  0  0  0  0  0
    6.5260    1.2990    0.0000 C   0  0  0  0  0  0  0  0  0  0  0  0
    5.0260    1.2990    0.0000 C   0  0  0  0  0  0  0  0  0  0  0  0
    3.5260    1.2990    0.0000 C   0  0  0  0  0  0  0  0  0  0  0  0
    2.7760    2.5981    0.0000 O   0  0  0  0  0  0  0  0  0  0  0  0
    2.7760    0.0000    0.0000 C   0  0  0  0  0  0  0  0  0  0  0  0
    3.5260   -1.2990    0.0000 C   0  0  0  0  0  0  0  0  0  0  0  0
    4.2760   -2.5981    0.0000 N   0  0  0  0  0  0  0  0  0  0  0  0
    1.2760    0.0000    0.0000 C   0  0  0  0  0  0  0  0  0  0  0  0
    0.3943    1.2135    0.0000 C   0  0  0  0  0  0  0  0  0  0  0  0
   -1.0323    0.7500    0.0000 C   0  0  0  0  0  0  0  0  0  0  0  0
   -1.0323   -0.7500    0.0000 C   0  0  0  0  0  0  0  0  0  0  0  0
    0.3943   -1.2135    0.0000 C   0  0  0  0  0  0  0  0  0  0  0  0
  1  2  1  0
  2  3  3  0
  3  4  1  0
  4  5  2  0
  4  6  1  0
  6  7  1  0
  7  8  3  0
  6  9  1  0
  9 10  2  0
 10 11  1  0
 11 12  1  0
 12 13  2  0
 13  9  1  0
M  END
>  <Title>  (925) 
idABHQgen8

$$$$

     RDKit          2D

 50 56  0  0  0  0  0  0  0  0999 V2000
    2.8280  -12.3971    0.0000 C   0  0  0  0  0  0  0  0  0  0  0  0
    3.3655  -10.9968    0.0000 C   0  0  0  0  0  0  0  0  0  0  0  0
    4.8470  -10.7621    0.0000 C   0  0  0  0  0  0  0  0  0  0  0  0
    5.3846   -9.3617    0.0000 C   0  0  0  0  0  0  0  0  0  0  0  0
    3.9357   -8.9735    0.0000 O   0  0  0  0  0  0  0  0  0  0  0  0
    6.7211  -10.0427    0.0000 C   0  0  0  0  0  0  0  0  0  0  0  0
    7.7818   -8.9821    0.0000 C   0  0  0  0  0  0  0  0  0  0  0  0
    9.2633   -9.2167    0.0000 O   0  0  0  0  0  0  0  0  0  0  0  0
    7.1008   -7.6456    0.0000 C   0  0  0  0  0  0  0  0  0  0  0  0
    5.6192   -7.8802    0.0000 C   0  0  0  0  0  0  0  0  0  0  0  0
    4.5586   -6.8195    0.0000 O   0  0  0  0  0  0  0  0  0  0  0  0
    3.1097   -7.2078    0.0000 C   0  0  0  0  0  0  0  0  0  0  0  0
    2.7215   -8.6567    0.0000 O   0  0  0  0  0  0  0  0  0  0  0  0
    2.0490   -6.1471    0.0000 C   0  0  0  0  0  0  0  0  0  0  0  0
    2.7990   -4.8481    0.0000 C   0  0  0  0  0  0  0  0  0  0  0  0
    2.7990   -3.3481    0.0000 C   0  0  0  0  0  0  0  0  0  0  0  0
    2.0490   -2.0490    0.0000 C   0  0  0  0  0  0  0  0  0  0  0  0
    3.1097   -0.9884    0.0000 C   0  0  0  0  0  0  0  0  0  0  0  0
    2.7215    0.4605    0.0000 O   0  0  0  0  0  0  0  0  0  0  0  0
    4.5586   -1.3766    0.0000 N   0  0  0  0  0  0  0  0  0  0  0  0
    5.6192   -0.3159    0.0000 C   0  0  0  0  0  0  0  0  0  0  0  0
    7.0681   -0.7042    0.0000 N   0  0  0  0  0  0  0  0  0  0  0  0
    8.1288    0.3565    0.0000 N   0  0  0  0  0  0  0  0  0  0  0  0
    7.7406    1.8054    0.0000 N   0  0  0  0  0  0  0  0  0  0  0  0
    6.2917    2.1936    0.0000 N   0  0  0  0  0  0  0  0  0  0  0  0
    5.2310    1.1329    0.0000 N   0  0  0  0  0  0  0  0  0  0  0  0
    0.7500   -1.2990    0.0000 C   0  0  0  0  0  0  0  0  0  0  0  0
    1.5000    0.0000    0.0000 C   0  0  0  0  0  0  0  0  0  0  0  0
    0.7500    1.2990    0.0000 C   0  0  0  0  0  0  0  0  0  0  0  0
   -0.7500    1.2990    0.0000 C   0  0  0  0  0  0  0  0  0  0  0  0
   -1.5000    0.0000    0.0000 C   0  0  0  0  0  0  0  0  0  0  0  0
   -0.7500   -1.2990    0.0000 C   0  0  0  0  0  0  0  0  0  0  0  0
   -2.0490   -2.0490    0.0000 C   0  0  0  0  0  0  0  0  0  0  0  0
   -2.7990   -0.7500    0.0000 C   0  0  0  0  0  0  0  0  0  0  0  0
   -4.2990   -0.7500    0.0000 C   0  0  0  0  0  0  0  0  0  0  0  0
   -5.0490   -2.0490    0.0000 C   0  0  0  0  0  0  0  0  0  0  0  0
   -4.2990   -3.3481    0.0000 C   0  0  0  0  0  0  0  0  0  0  0  0
   -2.7990   -3.3481    0.0000 C   0  0  0  0  0  0  0  0  0  0  0  0
   -2.7990   -4.8481    0.0000 C   0  0  0  0  0  0  0  0  0  0  0  0
   -4.2990   -4.8481    0.0000 C   0  0  0  0  0  0  0  0  0  0  0  0
   -5.0490   -6.1471    0.0000 C   0  0  0  0  0  0  0  0  0  0  0  0
   -4.2990   -7.4462    0.0000 C   0  0  0  0  0  0  0  0  0  0  0  0
   -2.7990   -7.4462    0.0000 C   0  0  0  0  0  0  0  0  0  0  0  0
   -2.0490   -6.1471    0.0000 C   0  0  0  0  0  0  0  0  0  0  0  0
   -0.7500   -6.8971    0.0000 C   0  0  0  0  0  0  0  0  0  0  0  0
   -1.5000   -8.1962    0.0000 C   0  0  0  0  0  0  0  0  0  0  0  0
   -0.7500   -9.4952    0.0000 C   0  0  0  0  0  0  0  0  0  0  0  0
    0.7500   -9.4952    0.0000 C   0  0  0  0  0  0  0  0  0  0  0  0
    1.5000   -8.1962    0.0000 C   0  0  0  0  0  0  0  0  0  0  0  0
    0.7500   -6.8971    0.0000 C   0  0  0  0  0  0  0  0  0  0  0  0
  1  2  1  0
  2  3  1  0
  3  4  1  0
  4  5  1  0
  4  6  1  0
  6  7  1  0
  7  8  1  0
  7  9  1  0
  9 10  1  0
 10 11  1  0
 11 12  1  0
 12 13  2  0
 12 14  1  0
 14 15  1  0
 15 16  1  0
 16 17  1  0
 17 18  1  0
 18 19  2  0
 18 20  1  0
 20 21  1  0
 21 22  2  0
 22 23  1  0
 23 24  2  0
 24 25  1  0
 25 26  2  0
 17 27  1  0
 27 28  2  0
 28 29  1  0
 29 30  2  0
 30 31  1  0
 31 32  2  0
 32 33  1  0
 33 34  2  0
 34 35  1  0
 35 36  2  0
 36 37  1  0
 37 38  2  0
 38 39  1  0
 39 40  2  0
 40 41  1  0
 41 42  2  0
 42 43  1  0
 43 44  2  0
 44 45  1  0
 45 46  2  0
 46 47  1  0
 47 48  2  0
 48 49  1  0
 49 50  2  0
 10  4  1  0
 50 14  1  0
 26 21  1  0
 32 27  1  0
 38 33  1  0
 44 39  1  0
 50 45  1  0
M  END
>  <Title>  (926) 
idABHRgen8

$$$$

     RDKit          2D

  9  9  0  0  0  0  0  0  0  0999 V2000
    3.2286   -0.0000    0.0000 C   0  0  0  0  0  0  0  0  0  0  0  0
    1.7286    0.0000    0.0000 C   0  0  0  0  0  0  0  0  0  0  0  0
    1.0777    1.3515    0.0000 C   0  0  0  0  0  0  0  0  0  0  0  0
   -0.3846    1.6852    0.0000 C   0  0  0  0  0  0  0  0  0  0  0  0
   -1.5574    0.7500    0.0000 C   0  0  0  0  0  0  0  0  0  0  0  0
   -1.5574   -0.7500    0.0000 C   0  0  0  0  0  0  0  0  0  0  0  0
   -2.9088   -1.4008    0.0000 O   0  0  0  0  0  0  0  0  0  0  0  0
   -0.3846   -1.6852    0.0000 C   0  0  0  0  0  0  0  0  0  0  0  0
    1.0777   -1.3515    0.0000 C   0  0  0  0  0  0  0  0  0  0  0  0
  1  2  1  0
  2  3  1  0
  3  4  1  0
  4  5  1  0
  5  6  1  0
  6  7  1  0
  6  8  1  0
  8  9  1  0
  9  2  1  0
M  END
>  <Title>  (927) 
idABHSgen8

$$$$

     RDKit          2D

 64 73  0  0  0  0  0  0  0  0999 V2000
   -1.9485   11.4645    0.0000 C   0  0  0  0  0  0  0  0  0  0  0  0
   -1.1505   10.1944    0.0000 C   0  0  0  0  0  0  0  0  0  0  0  0
    0.2288   10.7840    0.0000 C   0  0  0  0  0  0  0  0  0  0  0  0
    1.7228   10.9184    0.0000 C   0  0  0  0  0  0  0  0  0  0  0  0
    1.8237   12.4150    0.0000 O   0  0  0  0  0  0  0  0  0  0  0  0
    3.1852   10.5846    0.0000 C   0  0  0  0  0  0  0  0  0  0  0  0
    3.7436   11.9768    0.0000 C   0  0  0  0  0  0  0  0  0  0  0  0
    5.2285   12.1893    0.0000 O   0  0  0  0  0  0  0  0  0  0  0  0
    2.8172   13.1565    0.0000 N   0  0  0  0  0  0  0  0  0  0  0  0
    3.3756   14.5487    0.0000 C   0  0  0  0  0  0  0  0  0  0  0  0
    4.8605   14.7611    0.0000 N   0  0  0  0  0  0  0  0  0  0  0  0
    5.4189   16.1533    0.0000 N   0  0  0  0  0  0  0  0  0  0  0  0
    4.4925   17.3330    0.0000 N   0  0  0  0  0  0  0  0  0  0  0  0
    3.0076   17.1206    0.0000 N   0  0  0  0  0  0  0  0  0  0  0  0
    2.4492   15.7284    0.0000 N   0  0  0  0  0  0  0  0  0  0  0  0
    4.4728    9.8153    0.0000 C   0  0  0  0  0  0  0  0  0  0  0  0
    4.9576   11.2348    0.0000 C   0  0  0  0  0  0  0  0  0  0  0  0
    6.4294   11.5247    0.0000 C   0  0  0  0  0  0  0  0  0  0  0  0
    7.4163   10.3951    0.0000 C   0  0  0  0  0  0  0  0  0  0  0  0
    6.9315    8.9756    0.0000 C   0  0  0  0  0  0  0  0  0  0  0  0
    5.4597    8.6857    0.0000 C   0  0  0  0  0  0  0  0  0  0  0  0
    6.0493    7.3064    0.0000 C   0  0  0  0  0  0  0  0  0  0  0  0
    7.2759    8.1698    0.0000 C   0  0  0  0  0  0  0  0  0  0  0  0
    8.6369    7.5393    0.0000 C   0  0  0  0  0  0  0  0  0  0  0  0
    8.7714    6.0453    0.0000 C   0  0  0  0  0  0  0  0  0  0  0  0
    7.5448    5.1819    0.0000 C   0  0  0  0  0  0  0  0  0  0  0  0
    6.1837    5.8124    0.0000 C   0  0  0  0  0  0  0  0  0  0  0  0
    5.8500    4.3500    0.0000 C   0  0  0  0  0  0  0  0  0  0  0  0
    7.3498    4.3276    0.0000 C   0  0  0  0  0  0  0  0  0  0  0  0
    8.0803    3.0175    0.0000 C   0  0  0  0  0  0  0  0  0  0  0  0
    7.3109    1.7298    0.0000 C   0  0  0  0  0  0  0  0  0  0  0  0
    5.8111    1.7522    0.0000 C   0  0  0  0  0  0  0  0  0  0  0  0
    5.0806    3.0624    0.0000 C   0  0  0  0  0  0  0  0  0  0  0  0
    3.9510    2.0754    0.0000 C   0  0  0  0  0  0  0  0  0  0  0  0
    5.1512    1.1757    0.0000 C   0  0  0  0  0  0  0  0  0  0  0  0
    4.9721   -0.3136    0.0000 C   0  0  0  0  0  0  0  0  0  0  0  0
    3.5928   -0.9031    0.0000 C   0  0  0  0  0  0  0  0  0  0  0  0
    2.3926   -0.0034    0.0000 C   0  0  0  0  0  0  0  0  0  0  0  0
    2.5717    1.4859    0.0000 C   0  0  0  0  0  0  0  0  0  0  0  0
    1.0777    1.3515    0.0000 C   0  0  0  0  0  0  0  0  0  0  0  0
    1.0286   -0.0000    0.0000 C   0  0  0  0  0  0  0  0  0  0  0  0
    0.6413   -0.8042    0.0000 C   0  0  0  0  0  0  0  0  0  0  0  0
   -0.2289   -1.0028    0.0000 C   0  0  0  0  0  0  0  0  0  0  0  0
   -0.9267   -0.4463    0.0000 C   0  0  0  0  0  0  0  0  0  0  0  0
   -0.9267    0.4463    0.0000 C   0  0  0  0  0  0  0  0  0  0  0  0
   -0.3846    1.6852    0.0000 C   0  0  0  0  0  0  0  0  0  0  0  0
   -1.6723    2.4546    0.0000 C   0  0  0  0  0  0  0  0  0  0  0  0
   -2.1571    1.0351    0.0000 C   0  0  0  0  0  0  0  0  0  0  0  0
   -3.6289    0.7452    0.0000 C   0  0  0  0  0  0  0  0  0  0  0  0
   -4.6158    1.8748    0.0000 C   0  0  0  0  0  0  0  0  0  0  0  0
   -4.1309    3.2943    0.0000 C   0  0  0  0  0  0  0  0  0  0  0  0
   -2.6592    3.5842    0.0000 C   0  0  0  0  0  0  0  0  0  0  0  0
   -3.2488    4.9635    0.0000 C   0  0  0  0  0  0  0  0  0  0  0  0
   -4.4753    4.1001    0.0000 C   0  0  0  0  0  0  0  0  0  0  0  0
   -5.8364    4.7306    0.0000 C   0  0  0  0  0  0  0  0  0  0  0  0
   -5.9708    6.2246    0.0000 C   0  0  0  0  0  0  0  0  0  0  0  0
   -4.7443    7.0880    0.0000 C   0  0  0  0  0  0  0  0  0  0  0  0
   -3.3832    6.4574    0.0000 C   0  0  0  0  0  0  0  0  0  0  0  0
   -3.0494    7.9198    0.0000 C   0  0  0  0  0  0  0  0  0  0  0  0
   -4.5493    7.9423    0.0000 C   0  0  0  0  0  0  0  0  0  0  0  0
   -5.2798    9.2524    0.0000 C   0  0  0  0  0  0  0  0  0  0  0  0
   -4.5104   10.5401    0.0000 C   0  0  0  0  0  0  0  0  0  0  0  0
   -3.0106   10.5176    0.0000 C   0  0  0  0  0  0  0  0  0  0  0  0
   -2.2801    9.2075    0.0000 C   0  0  0  0  0  0  0  0  0  0  0  0
  1  2  1  0
  2  3  2  0
  3  4  1  0
  4  5  1  0
  4  6  1  0
  6  7  1  0
  7  8  2  0
  7  9  1  0
  9 10  1  0
 10 11  2  0
 11 12  1  0
 12 13  2  0
 13 14  1  0
 14 15  2  0
  6 16  1  0
 16 17  2  0
 17 18  1  0
 18 19  2  0
 19 20  1  0
 20 21  2  0
 21 22  1  0
 22 23  2  0
 23 24  1  0
 24 25  2  0
 25 26  1  0
 26 27  2  0
 27 28  1  0
 28 29  2  0
 29 30  1  0
 30 31  2  0
 31 32  1  0
 32 33  2  0
 33 34  1  0
 34 35  2  0
 35 36  1  0
 36 37  2  0
 37 38  1  0
 38 39  2  0
 39 40  1  0
 40 41  2  0
 41 42  1  0
 42 43  1  0
 43 44  1  0
 44 45  1  0
 45 46  2  0
 46 47  1  0
 47 48  2  0
 48 49  1  0
 49 50  2  0
 50 51  1  0
 51 52  2  0
 52 53  1  0
 53 54  2  0
 54 55  1  0
 55 56  2  0
 56 57  1  0
 57 58  2  0
 58 59  1  0
 59 60  2  0
 60 61  1  0
 61 62  2  0
 62 63  1  0
 63 64  2  0
 64  2  1  0
 15 10  1  0
 21 16  1  0
 27 22  1  0
 33 28  1  0
 39 34  1  0
 46 40  1  0
 52 47  1  0
 58 53  1  0
 64 59  1  0
M  END
>  <Title>  (928) 
idABHTgen8

$$$$

     RDKit          2D

  6  5  0  0  0  0  0  0  0  0999 V2000
    0.0000    0.0000    0.0000 C   0  0  0  0  0  0  0  0  0  0  0  0
    1.2990    0.7500    0.0000 C   0  0  0  0  0  0  0  0  0  0  0  0
    2.5981   -0.0000    0.0000 C   0  0  0  0  0  0  0  0  0  0  0  0
    2.5981   -1.5000    0.0000 O   0  0  0  0  0  0  0  0  0  0  0  0
    3.8971    0.7500    0.0000 N   0  0  0  0  0  0  0  0  0  0  0  0
    5.1962   -0.0000    0.0000 C   0  0  0  0  0  0  0  0  0  0  0  0
  1  2  1  0
  2  3  1  0
  3  4  2  0
  3  5  1  0
  5  6  1  0
M  END
>  <Title>  (929) 
idABHUgen8

$$$$

     RDKit          2D

  6  5  0  0  0  0  0  0  0  0999 V2000
    0.0000    0.0000    0.0000 C   0  0  0  0  0  0  0  0  0  0  0  0
    1.2990    0.7500    0.0000 C   0  0  0  0  0  0  0  0  0  0  0  0
    2.5981   -0.0000    0.0000 C   0  0  0  0  0  0  0  0  0  0  0  0
    3.8971    0.7500    0.0000 C   0  0  0  0  0  0  0  0  0  0  0  0
    3.8971    2.2500    0.0000 O   0  0  0  0  0  0  0  0  0  0  0  0
    5.1962   -0.0000    0.0000 O   0  0  0  0  0  0  0  0  0  0  0  0
  1  2  1  0
  2  3  2  3
  3  4  1  0
  4  5  2  0
  4  6  1  0
M  END
>  <Title>  (930) 
idABHVgen8

$$$$

     RDKit          2D

  8  8  0  0  0  0  0  0  0  0999 V2000
    3.0000    0.0000    0.0000 C   0  0  0  0  0  0  0  0  0  0  0  0
    1.5000    0.0000    0.0000 C   0  0  0  0  0  0  0  0  0  0  0  0
    0.7500   -1.2990    0.0000 C   0  0  0  0  0  0  0  0  0  0  0  0
   -0.7500   -1.2990    0.0000 C   0  0  0  0  0  0  0  0  0  0  0  0
   -1.5000   -2.5981    0.0000 O   0  0  0  0  0  0  0  0  0  0  0  0
   -1.5000    0.0000    0.0000 C   0  0  0  0  0  0  0  0  0  0  0  0
   -0.7500    1.2990    0.0000 C   0  0  0  0  0  0  0  0  0  0  0  0
    0.7500    1.2990    0.0000 C   0  0  0  0  0  0  0  0  0  0  0  0
  1  2  1  0
  2  3  2  0
  3  4  1  0
  4  5  1  0
  4  6  1  0
  6  7  1  0
  7  8  2  0
  8  2  1  0
M  END
>  <Title>  (931) 
idABHWgen8

$$$$

     RDKit          2D

 42 46  0  0  0  0  0  0  0  0999 V2000
   -6.9185   -2.5371    0.0000 C   0  0  0  0  0  0  0  0  0  0  0  0
   -6.6595   -3.3841    0.0000 C   0  0  0  0  0  0  0  0  0  0  0  0
   -7.8086   -4.3483    0.0000 C   0  0  0  0  0  0  0  0  0  0  0  0
   -7.5481   -5.8255    0.0000 C   0  0  0  0  0  0  0  0  0  0  0  0
   -6.1386   -6.3385    0.0000 C   0  0  0  0  0  0  0  0  0  0  0  0
   -5.8781   -7.8157    0.0000 O   0  0  0  0  0  0  0  0  0  0  0  0
   -4.9895   -5.3743    0.0000 C   0  0  0  0  0  0  0  0  0  0  0  0
   -5.2500   -3.8971    0.0000 C   0  0  0  0  0  0  0  0  0  0  0  0
   -4.9895   -2.4199    0.0000 N   0  0  0  0  0  0  0  0  0  0  0  0
   -6.1386   -1.4557    0.0000 C   0  0  0  0  0  0  0  0  0  0  0  0
   -7.0016   -1.6549    0.0000 O   0  0  0  0  0  0  0  0  0  0  0  0
   -5.8781    0.0215    0.0000 C   0  0  0  0  0  0  0  0  0  0  0  0
   -6.9201    1.1005    0.0000 C   0  0  0  0  0  0  0  0  0  0  0  0
   -6.2159    2.4249    0.0000 C   0  0  0  0  0  0  0  0  0  0  0  0
   -4.7387    2.1644    0.0000 C   0  0  0  0  0  0  0  0  0  0  0  0
   -3.6597    3.2064    0.0000 C   0  0  0  0  0  0  0  0  0  0  0  0
   -2.2178    2.7930    0.0000 O   0  0  0  0  0  0  0  0  0  0  0  0
   -4.0226    4.6619    0.0000 O   0  0  0  0  0  0  0  0  0  0  0  0
   -4.5299    0.6790    0.0000 C   0  0  0  0  0  0  0  0  0  0  0  0
   -3.2055   -0.0252    0.0000 O   0  0  0  0  0  0  0  0  0  0  0  0
   -3.7500   -3.8971    0.0000 N   0  0  0  0  0  0  0  0  0  0  0  0
   -3.0000   -2.5981    0.0000 C   0  0  0  0  0  0  0  0  0  0  0  0
   -3.7500   -1.2990    0.0000 O   0  0  0  0  0  0  0  0  0  0  0  0
   -1.5000   -2.5981    0.0000 C   0  0  0  0  0  0  0  0  0  0  0  0
   -0.7500   -3.8971    0.0000 C   0  0  0  0  0  0  0  0  0  0  0  0
    0.7500   -3.8971    0.0000 C   0  0  0  0  0  0  0  0  0  0  0  0
    1.5000   -2.5981    0.0000 C   0  0  0  0  0  0  0  0  0  0  0  0
    3.0000   -2.5981    0.0000 C   0  0  0  0  0  0  0  0  0  0  0  0
    3.7500   -1.2990    0.0000 O   0  0  0  0  0  0  0  0  0  0  0  0
    3.7500   -3.8971    0.0000 N   0  0  0  0  0  0  0  0  0  0  0  0
    5.2500   -3.8971    0.0000 C   0  0  0  0  0  0  0  0  0  0  0  0
    6.0000   -5.1962    0.0000 N   0  0  0  0  0  0  0  0  0  0  0  0
    7.5000   -5.1962    0.0000 N   0  0  0  0  0  0  0  0  0  0  0  0
    8.2500   -3.8971    0.0000 N   0  0  0  0  0  0  0  0  0  0  0  0
    7.5000   -2.5981    0.0000 N   0  0  0  0  0  0  0  0  0  0  0  0
    6.0000   -2.5981    0.0000 N   0  0  0  0  0  0  0  0  0  0  0  0
    0.7500   -1.2990    0.0000 C   0  0  0  0  0  0  0  0  0  0  0  0
    1.5000    0.0000    0.0000 C   0  0  0  0  0  0  0  0  0  0  0  0
    0.7500    1.2990    0.0000 C   0  0  0  0  0  0  0  0  0  0  0  0
   -0.7500    1.2990    0.0000 C   0  0  0  0  0  0  0  0  0  0  0  0
   -1.5000    0.0000    0.0000 C   0  0  0  0  0  0  0  0  0  0  0  0
   -0.7500   -1.2990    0.0000 C   0  0  0  0  0  0  0  0  0  0  0  0
  1  2  1  0
  2  3  1  0
  3  4  1  0
  4  5  1  0
  5  6  1  0
  5  7  1  0
  7  8  1  0
  8  9  1  0
  9 10  1  0
 10 11  2  0
 10 12  1  0
 12 13  1  0
 13 14  1  0
 14 15  1  0
 15 16  1  0
 16 17  2  0
 16 18  1  0
 15 19  1  0
 19 20  2  0
  8 21  1  0
 21 22  1  0
 22 23  2  0
 22 24  1  0
 24 25  1  0
 25 26  1  0
 26 27  1  0
 27 28  1  0
 28 29  2  0
 28 30  1  0
 30 31  1  0
 31 32  2  0
 32 33  1  0
 33 34  2  0
 34 35  1  0
 35 36  2  0
 27 37  1  0
 37 38  2  0
 38 39  1  0
 39 40  2  0
 40 41  1  0
 41 42  2  0
  8  2  1  0
 19 12  1  0
 42 24  1  0
 36 31  1  0
 42 37  1  0
M  END
>  <Title>  (932) 
idABHXgen8

$$$$

     RDKit          2D

 14 15  0  0  0  0  0  0  0  0999 V2000
    2.7760   -2.5981    0.0000 O   0  0  0  0  0  0  0  0  0  0  0  0
    3.5260   -1.2990    0.0000 C   0  0  0  0  0  0  0  0  0  0  0  0
    5.0260   -1.2990    0.0000 O   0  0  0  0  0  0  0  0  0  0  0  0
    2.7760    0.0000    0.0000 C   0  0  0  0  0  0  0  0  0  0  0  0
    1.2760    0.0000    0.0000 C   0  0  0  0  0  0  0  0  0  0  0  0
    0.3943    1.2135    0.0000 N   0  0  0  0  0  0  0  0  0  0  0  0
   -1.0323    0.7500    0.0000 N   0  0  0  0  0  0  0  0  0  0  0  0
   -1.0323   -0.7500    0.0000 N   0  0  0  0  0  0  0  0  0  0  0  0
    0.3943   -1.2135    0.0000 N   0  0  0  0  0  0  0  0  0  0  0  0
    0.8578   -2.6401    0.0000 C   0  0  0  0  0  0  0  0  0  0  0  0
    2.1943   -3.3211    0.0000 C   0  0  0  0  0  0  0  0  0  0  0  0
    1.5133   -4.6576    0.0000 C   0  0  0  0  0  0  0  0  0  0  0  0
    0.1768   -3.9766    0.0000 C   0  0  0  0  0  0  0  0  0  0  0  0
   -1.2497   -4.4401    0.0000 O   0  0  0  0  0  0  0  0  0  0  0  0
  1  2  2  0
  2  3  1  0
  2  4  1  0
  4  5  1  0
  5  6  2  0
  6  7  1  0
  7  8  2  0
  8  9  1  0
  9 10  1  0
 10 11  1  0
 11 12  1  0
 12 13  1  0
 13 14  1  0
  9  5  1  0
 13 10  1  0
M  END
>  <Title>  (933) 
idABHYgen8

$$$$

     RDKit          2D

 10 10  0  0  0  0  0  0  0  0999 V2000
    5.7760   -2.5981    0.0000 C   0  0  0  0  0  0  0  0  0  0  0  0
    5.0260   -1.2990    0.0000 C   0  0  0  0  0  0  0  0  0  0  0  0
    3.5260   -1.2990    0.0000 C   0  0  0  0  0  0  0  0  0  0  0  0
    2.7760   -2.5981    0.0000 O   0  0  0  0  0  0  0  0  0  0  0  0
    2.7760    0.0000    0.0000 N   0  0  0  0  0  0  0  0  0  0  0  0
    1.2760    0.0000    0.0000 C   0  0  0  0  0  0  0  0  0  0  0  0
    0.3943    1.2135    0.0000 C   0  0  0  0  0  0  0  0  0  0  0  0
   -1.0323    0.7500    0.0000 C   0  0  0  0  0  0  0  0  0  0  0  0
   -1.0323   -0.7500    0.0000 C   0  0  0  0  0  0  0  0  0  0  0  0
    0.3943   -1.2135    0.0000 C   0  0  0  0  0  0  0  0  0  0  0  0
  1  2  1  0
  2  3  1  0
  3  4  2  0
  3  5  1  0
  5  6  1  0
  6  7  2  0
  7  8  1  0
  8  9  2  0
  9 10  1  0
 10  6  1  0
M  END
>  <Title>  (934) 
idABHZgen8

$$$$

     RDKit          2D

123123  0  0  0  0  0  0  0  0999 V2000
   29.3673    0.0000    0.0000 C   0  0  0  0  0  0  0  0  0  0  0  0
   29.3290    1.4995    0.0000 C   0  0  0  0  0  0  0  0  0  0  0  0
   29.2141    2.9951    0.0000 C   0  0  0  0  0  0  0  0  0  0  0  0
   29.0231    4.4829    0.0000 C   0  0  0  0  0  0  0  0  0  0  0  0
   28.7563    5.9590    0.0000 C   0  0  0  0  0  0  0  0  0  0  0  0
   28.4146    7.4195    0.0000 C   0  0  0  0  0  0  0  0  0  0  0  0
   27.9987    8.8607    0.0000 C   0  0  0  0  0  0  0  0  0  0  0  0
   27.5097   10.2788    0.0000 C   0  0  0  0  0  0  0  0  0  0  0  0
   26.9490   11.6700    0.0000 C   0  0  0  0  0  0  0  0  0  0  0  0
   26.3179   13.0308    0.0000 C   0  0  0  0  0  0  0  0  0  0  0  0
   25.6183   14.3577    0.0000 C   0  0  0  0  0  0  0  0  0  0  0  0
   24.8517   15.6470    0.0000 C   0  0  0  0  0  0  0  0  0  0  0  0
   24.0204   16.8955    0.0000 C   0  0  0  0  0  0  0  0  0  0  0  0
   23.1263   18.1000    0.0000 C   0  0  0  0  0  0  0  0  0  0  0  0
   22.1720   19.2572    0.0000 C   0  0  0  0  0  0  0  0  0  0  0  0
   21.1598   20.3642    0.0000 C   0  0  0  0  0  0  0  0  0  0  0  0
   20.0923   21.4181    0.0000 C   0  0  0  0  0  0  0  0  0  0  0  0
   18.9725   22.4161    0.0000 C   0  0  0  0  0  0  0  0  0  0  0  0
   17.8032   23.3556    0.0000 C   0  0  0  0  0  0  0  0  0  0  0  0
   16.5874   24.2342    0.0000 C   0  0  0  0  0  0  0  0  0  0  0  0
   15.3284   25.0495    0.0000 C   0  0  0  0  0  0  0  0  0  0  0  0
   14.0293   25.7995    0.0000 C   0  0  0  0  0  0  0  0  0  0  0  0
   12.6937   26.4822    0.0000 C   0  0  0  0  0  0  0  0  0  0  0  0
   11.3249   27.0958    0.0000 C   0  0  0  0  0  0  0  0  0  0  0  0
    9.9266   27.6387    0.0000 C   0  0  0  0  0  0  0  0  0  0  0  0
    8.5024   28.1095    0.0000 C   0  0  0  0  0  0  0  0  0  0  0  0
    7.0561   28.5070    0.0000 C   0  0  0  0  0  0  0  0  0  0  0  0
    5.5913   28.8301    0.0000 C   0  0  0  0  0  0  0  0  0  0  0  0
    4.1119   29.0780    0.0000 C   0  0  0  0  0  0  0  0  0  0  0  0
    2.6218   29.2500    0.0000 C   0  0  0  0  0  0  0  0  0  0  0  0
    1.1248   29.3457    0.0000 C   0  0  0  0  0  0  0  0  0  0  0  0
   -0.3750   29.3649    0.0000 C   0  0  0  0  0  0  0  0  0  0  0  0
   -1.8739   29.3074    0.0000 C   0  0  0  0  0  0  0  0  0  0  0  0
   -3.3679   29.1735    0.0000 C   0  0  0  0  0  0  0  0  0  0  0  0
   -4.8532   28.9635    0.0000 C   0  0  0  0  0  0  0  0  0  0  0  0
   -6.3257   28.6779    0.0000 C   0  0  0  0  0  0  0  0  0  0  0  0
   -7.7818   28.3175    0.0000 C   0  0  0  0  0  0  0  0  0  0  0  0
   -9.2175   27.8832    0.0000 C   0  0  0  0  0  0  0  0  0  0  0  0
  -10.6293   27.3762    0.0000 C   0  0  0  0  0  0  0  0  0  0  0  0
  -12.0132   26.7977    0.0000 C   0  0  0  0  0  0  0  0  0  0  0  0
  -13.3659   26.1494    0.0000 C   0  0  0  0  0  0  0  0  0  0  0  0
  -14.6836   25.4328    0.0000 C   0  0  0  0  0  0  0  0  0  0  0  0
  -15.9631   24.6499    0.0000 C   0  0  0  0  0  0  0  0  0  0  0  0
  -17.2009   23.8026    0.0000 C   0  0  0  0  0  0  0  0  0  0  0  0
  -18.3939   22.8933    0.0000 C   0  0  0  0  0  0  0  0  0  0  0  0
  -19.5388   21.9242    0.0000 C   0  0  0  0  0  0  0  0  0  0  0  0
  -20.6328   20.8980    0.0000 C   0  0  0  0  0  0  0  0  0  0  0  0
  -21.6729   19.8172    0.0000 C   0  0  0  0  0  0  0  0  0  0  0  0
  -22.6565   18.6847    0.0000 C   0  0  0  0  0  0  0  0  0  0  0  0
  -23.5810   17.5035    0.0000 C   0  0  0  0  0  0  0  0  0  0  0  0
  -24.4440   16.2766    0.0000 C   0  0  0  0  0  0  0  0  0  0  0  0
  -25.2432   15.0072    0.0000 C   0  0  0  0  0  0  0  0  0  0  0  0
  -25.9766   13.6987    0.0000 C   0  0  0  0  0  0  0  0  0  0  0  0
  -26.6422   12.3545    0.0000 C   0  0  0  0  0  0  0  0  0  0  0  0
  -27.2382   10.9780    0.0000 C   0  0  0  0  0  0  0  0  0  0  0  0
  -27.7632    9.5729    0.0000 C   0  0  0  0  0  0  0  0  0  0  0  0
  -28.2158    8.1428    0.0000 C   0  0  0  0  0  0  0  0  0  0  0  0
  -28.5948    6.6914    0.0000 C   0  0  0  0  0  0  0  0  0  0  0  0
  -28.8992    5.2226    0.0000 C   0  0  0  0  0  0  0  0  0  0  0  0
  -29.1281    3.7402    0.0000 C   0  0  0  0  0  0  0  0  0  0  0  0
  -29.2811    2.2480    0.0000 C   0  0  0  0  0  0  0  0  0  0  0  0
  -29.3577    0.7500    0.0000 C   0  0  0  0  0  0  0  0  0  0  0  0
  -29.3577   -0.7500    0.0000 C   0  0  0  0  0  0  0  0  0  0  0  0
  -29.2811   -2.2480    0.0000 C   0  0  0  0  0  0  0  0  0  0  0  0
  -29.1281   -3.7402    0.0000 C   0  0  0  0  0  0  0  0  0  0  0  0
  -28.8992   -5.2226    0.0000 C   0  0  0  0  0  0  0  0  0  0  0  0
  -28.5948   -6.6914    0.0000 C   0  0  0  0  0  0  0  0  0  0  0  0
  -28.2158   -8.1428    0.0000 C   0  0  0  0  0  0  0  0  0  0  0  0
  -27.7632   -9.5729    0.0000 C   0  0  0  0  0  0  0  0  0  0  0  0
  -27.2382  -10.9780    0.0000 C   0  0  0  0  0  0  0  0  0  0  0  0
  -26.6422  -12.3545    0.0000 C   0  0  0  0  0  0  0  0  0  0  0  0
  -25.9766  -13.6987    0.0000 C   0  0  0  0  0  0  0  0  0  0  0  0
  -25.2432  -15.0072    0.0000 C   0  0  0  0  0  0  0  0  0  0  0  0
  -24.4440  -16.2766    0.0000 C   0  0  0  0  0  0  0  0  0  0  0  0
  -23.5810  -17.5035    0.0000 C   0  0  0  0  0  0  0  0  0  0  0  0
  -22.6565  -18.6847    0.0000 C   0  0  0  0  0  0  0  0  0  0  0  0
  -21.6729  -19.8172    0.0000 C   0  0  0  0  0  0  0  0  0  0  0  0
  -20.6328  -20.8980    0.0000 C   0  0  0  0  0  0  0  0  0  0  0  0
  -19.5388  -21.9242    0.0000 C   0  0  0  0  0  0  0  0  0  0  0  0
  -18.3939  -22.8933    0.0000 C   0  0  0  0  0  0  0  0  0  0  0  0
  -17.2009  -23.8026    0.0000 C   0  0  0  0  0  0  0  0  0  0  0  0
  -15.9631  -24.6499    0.0000 C   0  0  0  0  0  0  0  0  0  0  0  0
  -14.6836  -25.4328    0.0000 C   0  0  0  0  0  0  0  0  0  0  0  0
  -13.3659  -26.1494    0.0000 C   0  0  0  0  0  0  0  0  0  0  0  0
  -12.0132  -26.7977    0.0000 C   0  0  0  0  0  0  0  0  0  0  0  0
  -10.6293  -27.3762    0.0000 C   0  0  0  0  0  0  0  0  0  0  0  0
   -9.2175  -27.8832    0.0000 C   0  0  0  0  0  0  0  0  0  0  0  0
   -7.7818  -28.3175    0.0000 C   0  0  0  0  0  0  0  0  0  0  0  0
   -6.3257  -28.6779    0.0000 C   0  0  0  0  0  0  0  0  0  0  0  0
   -4.8532  -28.9635    0.0000 C   0  0  0  0  0  0  0  0  0  0  0  0
   -3.3679  -29.1735    0.0000 C   0  0  0  0  0  0  0  0  0  0  0  0
   -1.8739  -29.3074    0.0000 C   0  0  0  0  0  0  0  0  0  0  0  0
   -0.3750  -29.3649    0.0000 C   0  0  0  0  0  0  0  0  0  0  0  0
    1.1248  -29.3457    0.0000 C   0  0  0  0  0  0  0  0  0  0  0  0
    2.6218  -29.2500    0.0000 C   0  0  0  0  0  0  0  0  0  0  0  0
    4.1119  -29.0780    0.0000 C   0  0  0  0  0  0  0  0  0  0  0  0
    5.5913  -28.8301    0.0000 C   0  0  0  0  0  0  0  0  0  0  0  0
    7.0561  -28.5070    0.0000 C   0  0  0  0  0  0  0  0  0  0  0  0
    8.5024  -28.1095    0.0000 C   0  0  0  0  0  0  0  0  0  0  0  0
    9.9266  -27.6387    0.0000 C   0  0  0  0  0  0  0  0  0  0  0  0
   11.3249  -27.0958    0.0000 C   0  0  0  0  0  0  0  0  0  0  0  0
   12.6937  -26.4822    0.0000 C   0  0  0  0  0  0  0  0  0  0  0  0
   14.0293  -25.7995    0.0000 C   0  0  0  0  0  0  0  0  0  0  0  0
   15.3284  -25.0495    0.0000 C   0  0  0  0  0  0  0  0  0  0  0  0
   16.5874  -24.2342    0.0000 C   0  0  0  0  0  0  0  0  0  0  0  0
   17.8032  -23.3556    0.0000 C   0  0  0  0  0  0  0  0  0  0  0  0
   18.9725  -22.4161    0.0000 C   0  0  0  0  0  0  0  0  0  0  0  0
   20.0923  -21.4181    0.0000 C   0  0  0  0  0  0  0  0  0  0  0  0
   21.1598  -20.3642    0.0000 C   0  0  0  0  0  0  0  0  0  0  0  0
   22.1720  -19.2572    0.0000 C   0  0  0  0  0  0  0  0  0  0  0  0
   23.1263  -18.1000    0.0000 C   0  0  0  0  0  0  0  0  0  0  0  0
   24.0204  -16.8955    0.0000 C   0  0  0  0  0  0  0  0  0  0  0  0
   24.8517  -15.6470    0.0000 C   0  0  0  0  0  0  0  0  0  0  0  0
   25.6183  -14.3577    0.0000 C   0  0  0  0  0  0  0  0  0  0  0  0
   26.3179  -13.0308    0.0000 C   0  0  0  0  0  0  0  0  0  0  0  0
   26.9490  -11.6700    0.0000 C   0  0  0  0  0  0  0  0  0  0  0  0
   27.5097  -10.2788    0.0000 C   0  0  0  0  0  0  0  0  0  0  0  0
   27.9987   -8.8607    0.0000 C   0  0  0  0  0  0  0  0  0  0  0  0
   28.4146   -7.4195    0.0000 C   0  0  0  0  0  0  0  0  0  0  0  0
   28.7563   -5.9590    0.0000 C   0  0  0  0  0  0  0  0  0  0  0  0
   29.0231   -4.4829    0.0000 C   0  0  0  0  0  0  0  0  0  0  0  0
   29.2141   -2.9951    0.0000 C   0  0  0  0  0  0  0  0  0  0  0  0
   29.3290   -1.4995    0.0000 C   0  0  0  0  0  0  0  0  0  0  0  0
  1  2  2  0
  2  3  1  0
  3  4  2  0
  4  5  1  0
  5  6  1  0
  6  7  1  0
  7  8  1  0
  8  9  1  0
  9 10  1  0
 10 11  1  0
 11 12  1  0
 12 13  1  0
 13 14  1  0
 14 15  1  0
 15 16  1  0
 16 17  1  0
 17 18  1  0
 18 19  1  0
 19 20  1  0
 20 21  1  0
 21 22  1  0
 22 23  1  0
 23 24  1  0
 24 25  1  0
 25 26  1  0
 26 27  1  0
 27 28  1  0
 28 29  1  0
 29 30  1  0
 30 31  1  0
 31 32  1  0
 32 33  1  0
 33 34  1  0
 34 35  1  0
 35 36  1  0
 36 37  1  0
 37 38  1  0
 38 39  1  0
 39 40  1  0
 40 41  1  0
 41 42  1  0
 42 43  1  0
 43 44  1  0
 44 45  1  0
 45 46  1  0
 46 47  1  0
 47 48  1  0
 48 49  1  0
 49 50  1  0
 50 51  1  0
 51 52  1  0
 52 53  1  0
 53 54  1  0
 54 55  1  0
 55 56  1  0
 56 57  1  0
 57 58  1  0
 58 59  1  0
 59 60  1  0
 60 61  1  0
 61 62  1  0
 62 63  1  0
 63 64  1  0
 64 65  1  0
 65 66  1  0
 66 67  1  0
 67 68  1  0
 68 69  1  0
 69 70  1  0
 70 71  1  0
 71 72  1  0
 72 73  1  0
 73 74  1  0
 74 75  1  0
 75 76  1  0
 76 77  1  0
 77 78  1  0
 78 79  1  0
 79 80  1  0
 80 81  1  0
 81 82  1  0
 82 83  1  0
 83 84  1  0
 84 85  1  0
 85 86  1  0
 86 87  1  0
 87 88  1  0
 88 89  1  0
 89 90  1  0
 90 91  1  0
 91 92  1  0
 92 93  1  0
 93 94  1  0
 94 95  1  0
 95 96  1  0
 96 97  1  0
 97 98  1  0
 98 99  1  0
 99100  1  0
100101  1  0
101102  1  0
102103  1  0
103104  1  0
104105  1  0
105106  1  0
106107  1  0
107108  1  0
108109  1  0
109110  1  0
110111  1  0
111112  1  0
112113  1  0
113114  1  0
114115  1  0
115116  1  0
116117  1  0
117118  1  0
118119  1  0
119120  1  0
120121  1  0
121122  1  0
122123  2  0
123  1  1  0
M  END
>  <Title>  (935) 
idABIAgen8

$$$$

     RDKit          2D

 51 58  0  0  0  0  0  0  0  0999 V2000
   -2.6980    1.5227    0.0000 C   0  0  0  0  0  0  0  0  0  0  0  0
   -1.6080    2.5532    0.0000 C   0  0  0  0  0  0  0  0  0  0  0  0
   -2.4060    3.8233    0.0000 C   0  0  0  0  0  0  0  0  0  0  0  0
   -2.6573    5.3021    0.0000 C   0  0  0  0  0  0  0  0  0  0  0  0
   -2.3235    6.7645    0.0000 C   0  0  0  0  0  0  0  0  0  0  0  0
   -3.6927    7.3772    0.0000 C   0  0  0  0  0  0  0  0  0  0  0  0
   -3.8467    8.8693    0.0000 O   0  0  0  0  0  0  0  0  0  0  0  0
   -4.9079    6.4978    0.0000 N   0  0  0  0  0  0  0  0  0  0  0  0
   -6.2770    7.1105    0.0000 C   0  0  0  0  0  0  0  0  0  0  0  0
   -6.4310    8.6025    0.0000 N   0  0  0  0  0  0  0  0  0  0  0  0
   -7.8002    9.2152    0.0000 N   0  0  0  0  0  0  0  0  0  0  0  0
   -9.0154    8.3358    0.0000 N   0  0  0  0  0  0  0  0  0  0  0  0
   -8.8614    6.8437    0.0000 N   0  0  0  0  0  0  0  0  0  0  0  0
   -7.4922    6.2310    0.0000 N   0  0  0  0  0  0  0  0  0  0  0  0
   -1.4555    7.9879    0.0000 C   0  0  0  0  0  0  0  0  0  0  0  0
   -2.7817    8.6888    0.0000 C   0  0  0  0  0  0  0  0  0  0  0  0
   -2.8378   10.1877    0.0000 C   0  0  0  0  0  0  0  0  0  0  0  0
   -1.5677   10.9858    0.0000 C   0  0  0  0  0  0  0  0  0  0  0  0
   -0.2415   10.2849    0.0000 C   0  0  0  0  0  0  0  0  0  0  0  0
   -0.1854    8.7859    0.0000 C   0  0  0  0  0  0  0  0  0  0  0  0
    1.2934    9.0372    0.0000 C   0  0  0  0  0  0  0  0  0  0  0  0
    0.8513   10.4705    0.0000 C   0  0  0  0  0  0  0  0  0  0  0  0
    1.8715   11.5701    0.0000 C   0  0  0  0  0  0  0  0  0  0  0  0
    3.3339   11.2363    0.0000 C   0  0  0  0  0  0  0  0  0  0  0  0
    3.7760    9.8030    0.0000 C   0  0  0  0  0  0  0  0  0  0  0  0
    2.7558    8.7034    0.0000 C   0  0  0  0  0  0  0  0  0  0  0  0
    3.9791    7.8354    0.0000 C   0  0  0  0  0  0  0  0  0  0  0  0
    4.6800    9.1616    0.0000 C   0  0  0  0  0  0  0  0  0  0  0  0
    6.1790    9.2176    0.0000 C   0  0  0  0  0  0  0  0  0  0  0  0
    6.9770    7.9476    0.0000 C   0  0  0  0  0  0  0  0  0  0  0  0
    6.2761    6.6214    0.0000 C   0  0  0  0  0  0  0  0  0  0  0  0
    4.7772    6.5653    0.0000 C   0  0  0  0  0  0  0  0  0  0  0  0
    5.0284    5.0865    0.0000 C   0  0  0  0  0  0  0  0  0  0  0  0
    6.4618    5.5286    0.0000 C   0  0  0  0  0  0  0  0  0  0  0  0
    7.5614    4.5084    0.0000 C   0  0  0  0  0  0  0  0  0  0  0  0
    7.2276    3.0460    0.0000 C   0  0  0  0  0  0  0  0  0  0  0  0
    5.7942    2.6038    0.0000 C   0  0  0  0  0  0  0  0  0  0  0  0
    4.6946    3.6241    0.0000 C   0  0  0  0  0  0  0  0  0  0  0  0
    3.8266    2.4008    0.0000 C   0  0  0  0  0  0  0  0  0  0  0  0
    5.1528    1.6999    0.0000 C   0  0  0  0  0  0  0  0  0  0  0  0
    5.2089    0.2009    0.0000 C   0  0  0  0  0  0  0  0  0  0  0  0
    3.9388   -0.5971    0.0000 C   0  0  0  0  0  0  0  0  0  0  0  0
    2.6126    0.1038    0.0000 C   0  0  0  0  0  0  0  0  0  0  0  0
    2.5566    1.6027    0.0000 C   0  0  0  0  0  0  0  0  0  0  0  0
    1.0777    1.3515    0.0000 C   0  0  0  0  0  0  0  0  0  0  0  0
    1.7286    0.0000    0.0000 C   0  0  0  0  0  0  0  0  0  0  0  0
    1.0777   -1.3515    0.0000 C   0  0  0  0  0  0  0  0  0  0  0  0
   -0.3846   -1.6852    0.0000 C   0  0  0  0  0  0  0  0  0  0  0  0
   -1.5574   -0.7500    0.0000 C   0  0  0  0  0  0  0  0  0  0  0  0
   -1.5574    0.7500    0.0000 C   0  0  0  0  0  0  0  0  0  0  0  0
   -0.3846    1.6852    0.0000 C   0  0  0  0  0  0  0  0  0  0  0  0
  1  2  1  0
  2  3  1  0
  3  4  2  0
  4  5  1  0
  5  6  1  0
  6  7  2  0
  6  8  1  0
  8  9  1  0
  9 10  2  0
 10 11  1  0
 11 12  2  0
 12 13  1  0
 13 14  2  0
  5 15  1  0
 15 16  2  0
 16 17  1  0
 17 18  2  0
 18 19  1  0
 19 20  2  0
 20 21  1  0
 21 22  2  0
 22 23  1  0
 23 24  2  0
 24 25  1  0
 25 26  2  0
 26 27  1  0
 27 28  2  0
 28 29  1  0
 29 30  2  0
 30 31  1  0
 31 32  2  0
 32 33  1  0
 33 34  2  0
 34 35  1  0
 35 36  2  0
 36 37  1  0
 37 38  2  0
 38 39  1  0
 39 40  2  0
 40 41  1  0
 41 42  2  0
 42 43  1  0
 43 44  2  0
 44 45  1  0
 45 46  2  0
 46 47  1  0
 47 48  1  0
 48 49  1  0
 49 50  1  0
 50 51  2  0
 51  2  1  0
 14  9  1  0
 20 15  1  0
 26 21  1  0
 32 27  1  0
 38 33  1  0
 44 39  1  0
 51 45  1  0
M  END
>  <Title>  (936) 
idABIBgen8

$$$$

     RDKit          2D

 54 61  0  0  0  0  0  0  0  0999 V2000
    4.6001   -4.9005    0.0000 C   0  0  0  0  0  0  0  0  0  0  0  0
    3.1111   -4.7197    0.0000 C   0  0  0  0  0  0  0  0  0  0  0  0
    2.9303   -3.2306    0.0000 C   0  0  0  0  0  0  0  0  0  0  0  0
    2.0782   -1.9961    0.0000 C   0  0  0  0  0  0  0  0  0  0  0  0
    3.0729   -0.8734    0.0000 O   0  0  0  0  0  0  0  0  0  0  0  0
    4.5426   -1.1734    0.0000 C   0  0  0  0  0  0  0  0  0  0  0  0
    5.0176   -2.5962    0.0000 C   0  0  0  0  0  0  0  0  0  0  0  0
    4.0229   -3.7190    0.0000 O   0  0  0  0  0  0  0  0  0  0  0  0
    6.4872   -2.8962    0.0000 O   0  0  0  0  0  0  0  0  0  0  0  0
    5.5372   -0.0506    0.0000 C   0  0  0  0  0  0  0  0  0  0  0  0
    5.2136    1.4140    0.0000 C   0  0  0  0  0  0  0  0  0  0  0  0
    6.5065    2.1745    0.0000 C   0  0  0  0  0  0  0  0  0  0  0  0
    7.6293    1.1798    0.0000 C   0  0  0  0  0  0  0  0  0  0  0  0
    9.0939    1.5035    0.0000 C   0  0  0  0  0  0  0  0  0  0  0  0
    9.5460    2.9337    0.0000 O   0  0  0  0  0  0  0  0  0  0  0  0
   10.1066    0.3969    0.0000 N   0  0  0  0  0  0  0  0  0  0  0  0
   11.5712    0.7205    0.0000 C   0  0  0  0  0  0  0  0  0  0  0  0
   12.5839   -0.3861    0.0000 N   0  0  0  0  0  0  0  0  0  0  0  0
   14.0486   -0.0624    0.0000 N   0  0  0  0  0  0  0  0  0  0  0  0
   14.5006    1.3679    0.0000 N   0  0  0  0  0  0  0  0  0  0  0  0
   13.4879    2.4745    0.0000 N   0  0  0  0  0  0  0  0  0  0  0  0
   12.0233    2.1508    0.0000 N   0  0  0  0  0  0  0  0  0  0  0  0
    7.0302   -0.1954    0.0000 C   0  0  0  0  0  0  0  0  0  0  0  0
    7.7907   -1.4884    0.0000 O   0  0  0  0  0  0  0  0  0  0  0  0
    0.7500   -1.2990    0.0000 C   0  0  0  0  0  0  0  0  0  0  0  0
    1.5000    0.0000    0.0000 C   0  0  0  0  0  0  0  0  0  0  0  0
    0.7500    1.2990    0.0000 C   0  0  0  0  0  0  0  0  0  0  0  0
   -0.7500    1.2990    0.0000 C   0  0  0  0  0  0  0  0  0  0  0  0
   -1.5000    0.0000    0.0000 C   0  0  0  0  0  0  0  0  0  0  0  0
   -0.7500   -1.2990    0.0000 C   0  0  0  0  0  0  0  0  0  0  0  0
   -2.0782   -1.9961    0.0000 C   0  0  0  0  0  0  0  0  0  0  0  0
   -2.7212   -0.6409    0.0000 C   0  0  0  0  0  0  0  0  0  0  0  0
   -4.2164   -0.5202    0.0000 C   0  0  0  0  0  0  0  0  0  0  0  0
   -5.0685   -1.7547    0.0000 C   0  0  0  0  0  0  0  0  0  0  0  0
   -4.4254   -3.1099    0.0000 C   0  0  0  0  0  0  0  0  0  0  0  0
   -2.9303   -3.2306    0.0000 C   0  0  0  0  0  0  0  0  0  0  0  0
   -3.1111   -4.7197    0.0000 C   0  0  0  0  0  0  0  0  0  0  0  0
   -4.5917   -4.4790    0.0000 C   0  0  0  0  0  0  0  0  0  0  0  0
   -5.5403   -5.6410    0.0000 C   0  0  0  0  0  0  0  0  0  0  0  0
   -5.0084   -7.0435    0.0000 C   0  0  0  0  0  0  0  0  0  0  0  0
   -3.5278   -7.2841    0.0000 C   0  0  0  0  0  0  0  0  0  0  0  0
   -2.5792   -6.1222    0.0000 C   0  0  0  0  0  0  0  0  0  0  0  0
   -1.4564   -7.1169    0.0000 C   0  0  0  0  0  0  0  0  0  0  0  0
   -2.4955   -8.1987    0.0000 C   0  0  0  0  0  0  0  0  0  0  0  0
   -2.0782   -9.6395    0.0000 C   0  0  0  0  0  0  0  0  0  0  0  0
   -0.6218   -9.9984    0.0000 C   0  0  0  0  0  0  0  0  0  0  0  0
    0.4173   -8.9166    0.0000 C   0  0  0  0  0  0  0  0  0  0  0  0
   -0.0000   -7.4758    0.0000 C   0  0  0  0  0  0  0  0  0  0  0  0
    1.4564   -7.1169    0.0000 C   0  0  0  0  0  0  0  0  0  0  0  0
    1.7565   -8.5866    0.0000 C   0  0  0  0  0  0  0  0  0  0  0  0
    3.1793   -9.0616    0.0000 C   0  0  0  0  0  0  0  0  0  0  0  0
    4.3020   -8.0669    0.0000 C   0  0  0  0  0  0  0  0  0  0  0  0
    4.0020   -6.5972    0.0000 C   0  0  0  0  0  0  0  0  0  0  0  0
    2.5792   -6.1222    0.0000 C   0  0  0  0  0  0  0  0  0  0  0  0
  1  2  1  0
  2  3  2  0
  3  4  1  0
  4  5  1  0
  5  6  1  0
  6  7  1  0
  7  8  2  0
  7  9  1  0
  6 10  1  0
 10 11  2  0
 11 12  1  0
 12 13  2  0
 13 14  1  0
 14 15  2  0
 14 16  1  0
 16 17  1  0
 17 18  2  0
 18 19  1  0
 19 20  2  0
 20 21  1  0
 21 22  2  0
 13 23  1  0
 23 24  2  0
  4 25  1  0
 25 26  2  0
 26 27  1  0
 27 28  2  0
 28 29  1  0
 29 30  2  0
 30 31  1  0
 31 32  2  0
 32 33  1  0
 33 34  2  0
 34 35  1  0
 35 36  2  0
 36 37  1  0
 37 38  2  0
 38 39  1  0
 39 40  2  0
 40 41  1  0
 41 42  2  0
 42 43  1  0
 43 44  2  0
 44 45  1  0
 45 46  2  0
 46 47  1  0
 47 48  2  0
 48 49  1  0
 49 50  2  0
 50 51  1  0
 51 52  2  0
 52 53  1  0
 53 54  2  0
 54  2  1  0
 23 10  1  0
 30 25  1  0
 36 31  1  0
 42 37  1  0
 48 43  1  0
 54 49  1  0
 22 17  1  0
M  END
>  <Title>  (937) 
idABICgen8

$$$$

     RDKit          2D

  7  7  0  0  0  0  0  0  0  0999 V2000
    3.5260   -1.2990    0.0000 O   0  0  0  0  0  0  0  0  0  0  0  0
    2.7760    0.0000    0.0000 O   0  0  0  0  0  0  0  0  0  0  0  0
    1.2760    0.0000    0.0000 C   0  0  0  0  0  0  0  0  0  0  0  0
    0.3943    1.2135    0.0000 C   0  0  0  0  0  0  0  0  0  0  0  0
   -1.0323    0.7500    0.0000 C   0  0  0  0  0  0  0  0  0  0  0  0
   -1.0323   -0.7500    0.0000 C   0  0  0  0  0  0  0  0  0  0  0  0
    0.3943   -1.2135    0.0000 C   0  0  0  0  0  0  0  0  0  0  0  0
  1  2  1  0
  2  3  1  0
  3  4  2  0
  4  5  1  0
  5  6  1  0
  6  7  2  0
  7  3  1  0
M  END
>  <Title>  (938) 
idABIDgen8

$$$$

     RDKit          2D

  6  5  0  0  0  0  0  0  0  0999 V2000
    0.0000    0.0000    0.0000 C   0  0  0  0  0  0  0  0  0  0  0  0
    1.2990    0.7500    0.0000 C   0  0  0  0  0  0  0  0  0  0  0  0
    2.5981   -0.0000    0.0000 C   0  0  0  0  0  0  0  0  0  0  0  0
    2.5981   -1.5000    0.0000 O   0  0  0  0  0  0  0  0  0  0  0  0
    3.8971    0.7500    0.0000 O   0  0  0  0  0  0  0  0  0  0  0  0
    5.1962   -0.0000    0.0000 C   0  0  0  0  0  0  0  0  0  0  0  0
  1  2  1  0
  2  3  1  0
  3  4  2  0
  3  5  1  0
  5  6  1  0
M  END
>  <Title>  (939) 
idABIEgen8

$$$$

     RDKit          2D

  9  9  0  0  0  0  0  0  0  0999 V2000
    4.5000    0.0000    0.0000 C   0  0  0  0  0  0  0  0  0  0  0  0
    3.0000    0.0000    0.0000 C   0  0  0  0  0  0  0  0  0  0  0  0
    1.5000    0.0000    0.0000 C   0  0  0  0  0  0  0  0  0  0  0  0
    0.7500   -1.2990    0.0000 C   0  0  0  0  0  0  0  0  0  0  0  0
   -0.7500   -1.2990    0.0000 C   0  0  0  0  0  0  0  0  0  0  0  0
   -1.5000    0.0000    0.0000 C   0  0  0  0  0  0  0  0  0  0  0  0
   -0.7500    1.2990    0.0000 C   0  0  0  0  0  0  0  0  0  0  0  0
   -1.5000    2.5981    0.0000 O   0  0  0  0  0  0  0  0  0  0  0  0
    0.7500    1.2990    0.0000 C   0  0  0  0  0  0  0  0  0  0  0  0
  1  2  3  0
  2  3  1  0
  3  4  2  0
  4  5  1  0
  5  6  1  0
  6  7  1  0
  7  8  1  0
  7  9  1  0
  9  3  1  0
M  END
>  <Title>  (940) 
idABIFgen8

$$$$

     RDKit          2D

 11 11  0  0  0  0  0  0  0  0999 V2000
    7.2760   -2.5981    0.0000 C   0  0  0  0  0  0  0  0  0  0  0  0
    5.7760   -2.5981    0.0000 C   0  0  0  0  0  0  0  0  0  0  0  0
    5.0260   -1.2990    0.0000 C   0  0  0  0  0  0  0  0  0  0  0  0
    3.5260   -1.2990    0.0000 C   0  0  0  0  0  0  0  0  0  0  0  0
    2.7760    0.0000    0.0000 C   0  0  0  0  0  0  0  0  0  0  0  0
    3.5260    1.2990    0.0000 O   0  0  0  0  0  0  0  0  0  0  0  0
    1.2760    0.0000    0.0000 C   0  0  0  0  0  0  0  0  0  0  0  0
    0.3943    1.2135    0.0000 C   0  0  0  0  0  0  0  0  0  0  0  0
   -1.0323    0.7500    0.0000 C   0  0  0  0  0  0  0  0  0  0  0  0
   -1.0323   -0.7500    0.0000 C   0  0  0  0  0  0  0  0  0  0  0  0
    0.3943   -1.2135    0.0000 C   0  0  0  0  0  0  0  0  0  0  0  0
  1  2  1  0
  2  3  1  0
  3  4  1  0
  4  5  1  0
  5  6  2  0
  5  7  1  0
  7  8  2  0
  8  9  1  0
  9 10  2  0
 10 11  1  0
 11  7  1  0
M  END
>  <Title>  (941) 
idABIGgen8

$$$$

     RDKit          2D

 91 91  0  0  0  0  0  0  0  0999 V2000
   22.9903   -0.0000    0.0000 C   0  0  0  0  0  0  0  0  0  0  0  0
   21.4903    0.0000    0.0000 C   0  0  0  0  0  0  0  0  0  0  0  0
   21.4379   -1.4991    0.0000 C   0  0  0  0  0  0  0  0  0  0  0  0
   21.2811   -2.9909    0.0000 C   0  0  0  0  0  0  0  0  0  0  0  0
   21.0207   -4.4681    0.0000 C   0  0  0  0  0  0  0  0  0  0  0  0
   20.6578   -5.9235    0.0000 C   0  0  0  0  0  0  0  0  0  0  0  0
   20.1943   -7.3501    0.0000 C   0  0  0  0  0  0  0  0  0  0  0  0
   19.6323   -8.7409    0.0000 C   0  0  0  0  0  0  0  0  0  0  0  0
   18.9748  -10.0891    0.0000 C   0  0  0  0  0  0  0  0  0  0  0  0
   18.2248  -11.3881    0.0000 C   0  0  0  0  0  0  0  0  0  0  0  0
   17.3860  -12.6317    0.0000 C   0  0  0  0  0  0  0  0  0  0  0  0
   16.4625  -13.8137    0.0000 C   0  0  0  0  0  0  0  0  0  0  0  0
   15.4588  -14.9284    0.0000 C   0  0  0  0  0  0  0  0  0  0  0  0
   14.3798  -15.9704    0.0000 C   0  0  0  0  0  0  0  0  0  0  0  0
   13.2307  -16.9346    0.0000 C   0  0  0  0  0  0  0  0  0  0  0  0
   12.0172  -17.8163    0.0000 C   0  0  0  0  0  0  0  0  0  0  0  0
   10.7451  -18.6111    0.0000 C   0  0  0  0  0  0  0  0  0  0  0  0
    9.4207  -19.3153    0.0000 C   0  0  0  0  0  0  0  0  0  0  0  0
    8.0504  -19.9254    0.0000 C   0  0  0  0  0  0  0  0  0  0  0  0
    6.6409  -20.4385    0.0000 C   0  0  0  0  0  0  0  0  0  0  0  0
    5.1990  -20.8519    0.0000 C   0  0  0  0  0  0  0  0  0  0  0  0
    3.7317  -21.1638    0.0000 C   0  0  0  0  0  0  0  0  0  0  0  0
    2.2463  -21.3726    0.0000 C   0  0  0  0  0  0  0  0  0  0  0  0
    0.7500  -21.4772    0.0000 C   0  0  0  0  0  0  0  0  0  0  0  0
   -0.7500  -21.4772    0.0000 C   0  0  0  0  0  0  0  0  0  0  0  0
   -2.2463  -21.3726    0.0000 C   0  0  0  0  0  0  0  0  0  0  0  0
   -3.7317  -21.1638    0.0000 C   0  0  0  0  0  0  0  0  0  0  0  0
   -5.1990  -20.8519    0.0000 C   0  0  0  0  0  0  0  0  0  0  0  0
   -6.6409  -20.4385    0.0000 C   0  0  0  0  0  0  0  0  0  0  0  0
   -8.0504  -19.9254    0.0000 C   0  0  0  0  0  0  0  0  0  0  0  0
   -9.4207  -19.3153    0.0000 C   0  0  0  0  0  0  0  0  0  0  0  0
  -10.7451  -18.6111    0.0000 C   0  0  0  0  0  0  0  0  0  0  0  0
  -12.0172  -17.8163    0.0000 C   0  0  0  0  0  0  0  0  0  0  0  0
  -13.2307  -16.9346    0.0000 C   0  0  0  0  0  0  0  0  0  0  0  0
  -14.3798  -15.9704    0.0000 C   0  0  0  0  0  0  0  0  0  0  0  0
  -15.4588  -14.9284    0.0000 C   0  0  0  0  0  0  0  0  0  0  0  0
  -16.4625  -13.8137    0.0000 C   0  0  0  0  0  0  0  0  0  0  0  0
  -17.3860  -12.6317    0.0000 C   0  0  0  0  0  0  0  0  0  0  0  0
  -18.2248  -11.3881    0.0000 C   0  0  0  0  0  0  0  0  0  0  0  0
  -18.9748  -10.0891    0.0000 C   0  0  0  0  0  0  0  0  0  0  0  0
  -19.6323   -8.7409    0.0000 C   0  0  0  0  0  0  0  0  0  0  0  0
  -20.1943   -7.3501    0.0000 C   0  0  0  0  0  0  0  0  0  0  0  0
  -20.6578   -5.9235    0.0000 C   0  0  0  0  0  0  0  0  0  0  0  0
  -21.0207   -4.4681    0.0000 C   0  0  0  0  0  0  0  0  0  0  0  0
  -21.2811   -2.9909    0.0000 C   0  0  0  0  0  0  0  0  0  0  0  0
  -21.4379   -1.4991    0.0000 C   0  0  0  0  0  0  0  0  0  0  0  0
  -21.4903    0.0000    0.0000 C   0  0  0  0  0  0  0  0  0  0  0  0
  -21.4379    1.4991    0.0000 C   0  0  0  0  0  0  0  0  0  0  0  0
  -21.2811    2.9909    0.0000 C   0  0  0  0  0  0  0  0  0  0  0  0
  -21.0207    4.4681    0.0000 C   0  0  0  0  0  0  0  0  0  0  0  0
  -20.6578    5.9235    0.0000 C   0  0  0  0  0  0  0  0  0  0  0  0
  -20.1943    7.3501    0.0000 C   0  0  0  0  0  0  0  0  0  0  0  0
  -19.6323    8.7409    0.0000 C   0  0  0  0  0  0  0  0  0  0  0  0
  -18.9748   10.0891    0.0000 C   0  0  0  0  0  0  0  0  0  0  0  0
  -18.2248   11.3881    0.0000 C   0  0  0  0  0  0  0  0  0  0  0  0
  -17.3860   12.6317    0.0000 C   0  0  0  0  0  0  0  0  0  0  0  0
  -16.4625   13.8137    0.0000 C   0  0  0  0  0  0  0  0  0  0  0  0
  -15.4588   14.9284    0.0000 C   0  0  0  0  0  0  0  0  0  0  0  0
  -14.3798   15.9704    0.0000 C   0  0  0  0  0  0  0  0  0  0  0  0
  -13.2307   16.9346    0.0000 C   0  0  0  0  0  0  0  0  0  0  0  0
  -12.0172   17.8163    0.0000 C   0  0  0  0  0  0  0  0  0  0  0  0
  -10.7451   18.6111    0.0000 C   0  0  0  0  0  0  0  0  0  0  0  0
   -9.4207   19.3153    0.0000 C   0  0  0  0  0  0  0  0  0  0  0  0
   -8.0504   19.9254    0.0000 C   0  0  0  0  0  0  0  0  0  0  0  0
   -6.6409   20.4385    0.0000 C   0  0  0  0  0  0  0  0  0  0  0  0
   -5.1990   20.8519    0.0000 C   0  0  0  0  0  0  0  0  0  0  0  0
   -3.7317   21.1638    0.0000 C   0  0  0  0  0  0  0  0  0  0  0  0
   -2.2463   21.3726    0.0000 C   0  0  0  0  0  0  0  0  0  0  0  0
   -0.7500   21.4772    0.0000 C   0  0  0  0  0  0  0  0  0  0  0  0
    0.7500   21.4772    0.0000 C   0  0  0  0  0  0  0  0  0  0  0  0
    2.2463   21.3726    0.0000 C   0  0  0  0  0  0  0  0  0  0  0  0
    3.7317   21.1638    0.0000 C   0  0  0  0  0  0  0  0  0  0  0  0
    5.1990   20.8519    0.0000 C   0  0  0  0  0  0  0  0  0  0  0  0
    6.6409   20.4385    0.0000 C   0  0  0  0  0  0  0  0  0  0  0  0
    8.0504   19.9254    0.0000 C   0  0  0  0  0  0  0  0  0  0  0  0
    9.4207   19.3153    0.0000 C   0  0  0  0  0  0  0  0  0  0  0  0
   10.7451   18.6111    0.0000 C   0  0  0  0  0  0  0  0  0  0  0  0
   12.0172   17.8163    0.0000 C   0  0  0  0  0  0  0  0  0  0  0  0
   13.2307   16.9346    0.0000 C   0  0  0  0  0  0  0  0  0  0  0  0
   14.3798   15.9704    0.0000 C   0  0  0  0  0  0  0  0  0  0  0  0
   15.4588   14.9284    0.0000 C   0  0  0  0  0  0  0  0  0  0  0  0
   16.4625   13.8137    0.0000 C   0  0  0  0  0  0  0  0  0  0  0  0
   17.3860   12.6317    0.0000 C   0  0  0  0  0  0  0  0  0  0  0  0
   18.2248   11.3881    0.0000 C   0  0  0  0  0  0  0  0  0  0  0  0
   18.9748   10.0891    0.0000 C   0  0  0  0  0  0  0  0  0  0  0  0
   19.6323    8.7409    0.0000 C   0  0  0  0  0  0  0  0  0  0  0  0
   20.1943    7.3501    0.0000 C   0  0  0  0  0  0  0  0  0  0  0  0
   20.6578    5.9235    0.0000 C   0  0  0  0  0  0  0  0  0  0  0  0
   21.0207    4.4681    0.0000 C   0  0  0  0  0  0  0  0  0  0  0  0
   21.2811    2.9909    0.0000 C   0  0  0  0  0  0  0  0  0  0  0  0
   21.4379    1.4991    0.0000 C   0  0  0  0  0  0  0  0  0  0  0  0
  1  2  1  0
  2  3  1  0
  3  4  1  0
  4  5  1  0
  5  6  1  0
  6  7  1  0
  7  8  1  0
  8  9  1  0
  9 10  1  0
 10 11  1  0
 11 12  1  0
 12 13  1  0
 13 14  1  0
 14 15  1  0
 15 16  1  0
 16 17  1  0
 17 18  1  0
 18 19  1  0
 19 20  1  0
 20 21  1  0
 21 22  1  0
 22 23  1  0
 23 24  1  0
 24 25  1  0
 25 26  1  0
 26 27  1  0
 27 28  1  0
 28 29  1  0
 29 30  1  0
 30 31  1  0
 31 32  1  0
 32 33  1  0
 33 34  1  0
 34 35  1  0
 35 36  1  0
 36 37  1  0
 37 38  1  0
 38 39  1  0
 39 40  1  0
 40 41  1  0
 41 42  1  0
 42 43  1  0
 43 44  1  0
 44 45  1  0
 45 46  1  0
 46 47  1  0
 47 48  1  0
 48 49  1  0
 49 50  1  0
 50 51  1  0
 51 52  1  0
 52 53  1  0
 53 54  1  0
 54 55  1  0
 55 56  1  0
 56 57  1  0
 57 58  1  0
 58 59  1  0
 59 60  1  0
 60 61  1  0
 61 62  1  0
 62 63  1  0
 63 64  1  0
 64 65  1  0
 65 66  1  0
 66 67  1  0
 67 68  1  0
 68 69  1  0
 69 70  1  0
 70 71  1  0
 71 72  1  0
 72 73  1  0
 73 74  1  0
 74 75  1  0
 75 76  1  0
 76 77  1  0
 77 78  1  0
 78 79  1  0
 79 80  1  0
 80 81  1  0
 81 82  1  0
 82 83  1  0
 83 84  1  0
 84 85  1  0
 85 86  1  0
 86 87  1  0
 87 88  1  0
 88 89  1  0
 89 90  1  0
 90 91  1  0
 91  2  1  0
M  END
>  <Title>  (942) 
idABIHgen8

$$$$

     RDKit          2D

  8  8  0  0  0  0  0  0  0  0999 V2000
    4.6309    1.7331    0.0000 C   0  0  0  0  0  0  0  0  0  0  0  0
    3.5702    0.6724    0.0000 C   0  0  0  0  0  0  0  0  0  0  0  0
    2.1213    1.0607    0.0000 C   0  0  0  0  0  0  0  0  0  0  0  0
    1.0607    0.0000    0.0000 C   0  0  0  0  0  0  0  0  0  0  0  0
    2.1213   -1.0607    0.0000 O   0  0  0  0  0  0  0  0  0  0  0  0
   -0.0000   -1.0607    0.0000 C   0  0  0  0  0  0  0  0  0  0  0  0
   -1.0607    0.0000    0.0000 C   0  0  0  0  0  0  0  0  0  0  0  0
    0.0000    1.0607    0.0000 C   0  0  0  0  0  0  0  0  0  0  0  0
  1  2  1  0
  2  3  1  0
  3  4  1  0
  4  5  1  0
  4  6  1  0
  6  7  2  0
  7  8  1  0
  8  4  1  0
M  END
>  <Title>  (943) 
idABIIgen8

$$$$

     RDKit          2D

 81 82  0  0  0  0  0  0  0  0999 V2000
   -2.8867   -2.3909    0.0000 C   0  0  0  0  0  0  0  0  0  0  0  0
   -2.9685   -0.8931    0.0000 C   0  0  0  0  0  0  0  0  0  0  0  0
   -3.0503    0.6047    0.0000 C   0  0  0  0  0  0  0  0  0  0  0  0
   -4.5502    0.5865    0.0000 C   0  0  0  0  0  0  0  0  0  0  0  0
   -6.0463    0.6955    0.0000 C   0  0  0  0  0  0  0  0  0  0  0  0
   -7.5276    0.9311    0.0000 C   0  0  0  0  0  0  0  0  0  0  0  0
   -8.9837    1.2914    0.0000 C   0  0  0  0  0  0  0  0  0  0  0  0
  -10.4040    1.7739    0.0000 C   0  0  0  0  0  0  0  0  0  0  0  0
  -11.7782    2.3752    0.0000 C   0  0  0  0  0  0  0  0  0  0  0  0
  -13.0965    3.0908    0.0000 C   0  0  0  0  0  0  0  0  0  0  0  0
  -14.3494    3.9156    0.0000 C   0  0  0  0  0  0  0  0  0  0  0  0
  -15.5278    4.8437    0.0000 C   0  0  0  0  0  0  0  0  0  0  0  0
  -16.6232    5.8684    0.0000 C   0  0  0  0  0  0  0  0  0  0  0  0
  -17.6278    6.9823    0.0000 C   0  0  0  0  0  0  0  0  0  0  0  0
  -18.5343    8.1774    0.0000 C   0  0  0  0  0  0  0  0  0  0  0  0
  -19.3362    9.4451    0.0000 C   0  0  0  0  0  0  0  0  0  0  0  0
  -20.0277   10.7762    0.0000 C   0  0  0  0  0  0  0  0  0  0  0  0
  -20.6039   12.1611    0.0000 C   0  0  0  0  0  0  0  0  0  0  0  0
  -21.0605   13.5899    0.0000 C   0  0  0  0  0  0  0  0  0  0  0  0
  -21.3942   15.0523    0.0000 C   0  0  0  0  0  0  0  0  0  0  0  0
  -21.6028   16.5377    0.0000 C   0  0  0  0  0  0  0  0  0  0  0  0
  -21.6846   18.0355    0.0000 C   0  0  0  0  0  0  0  0  0  0  0  0
  -21.6392   19.5348    0.0000 C   0  0  0  0  0  0  0  0  0  0  0  0
  -21.4667   21.0249    0.0000 C   0  0  0  0  0  0  0  0  0  0  0  0
  -21.1685   22.4949    0.0000 C   0  0  0  0  0  0  0  0  0  0  0  0
  -20.7467   23.9344    0.0000 C   0  0  0  0  0  0  0  0  0  0  0  0
  -20.2043   25.3329    0.0000 C   0  0  0  0  0  0  0  0  0  0  0  0
  -19.5453   26.6804    0.0000 C   0  0  0  0  0  0  0  0  0  0  0  0
  -18.7744   27.9671    0.0000 C   0  0  0  0  0  0  0  0  0  0  0  0
  -17.8971   29.1839    0.0000 C   0  0  0  0  0  0  0  0  0  0  0  0
  -16.9199   30.3218    0.0000 C   0  0  0  0  0  0  0  0  0  0  0  0
  -15.8496   31.3728    0.0000 C   0  0  0  0  0  0  0  0  0  0  0  0
  -14.6941   32.3292    0.0000 C   0  0  0  0  0  0  0  0  0  0  0  0
  -13.4616   33.1842    0.0000 C   0  0  0  0  0  0  0  0  0  0  0  0
  -12.1610   33.9315    0.0000 C   0  0  0  0  0  0  0  0  0  0  0  0
  -10.8018   34.5659    0.0000 C   0  0  0  0  0  0  0  0  0  0  0  0
   -9.3936   35.0828    0.0000 C   0  0  0  0  0  0  0  0  0  0  0  0
   -7.9467   35.4783    0.0000 C   0  0  0  0  0  0  0  0  0  0  0  0
   -6.4715   35.7497    0.0000 C   0  0  0  0  0  0  0  0  0  0  0  0
   -4.9785   35.8950    0.0000 C   0  0  0  0  0  0  0  0  0  0  0  0
   -3.4786   35.9132    0.0000 C   0  0  0  0  0  0  0  0  0  0  0  0
   -1.9826   35.8042    0.0000 C   0  0  0  0  0  0  0  0  0  0  0  0
   -0.5012   35.5686    0.0000 C   0  0  0  0  0  0  0  0  0  0  0  0
    0.9549   35.2083    0.0000 C   0  0  0  0  0  0  0  0  0  0  0  0
    2.3751   34.7258    0.0000 C   0  0  0  0  0  0  0  0  0  0  0  0
    3.7494   34.1245    0.0000 C   0  0  0  0  0  0  0  0  0  0  0  0
    5.0677   33.4089    0.0000 C   0  0  0  0  0  0  0  0  0  0  0  0
    6.3205   32.5841    0.0000 C   0  0  0  0  0  0  0  0  0  0  0  0
    7.4989   31.6560    0.0000 C   0  0  0  0  0  0  0  0  0  0  0  0
    8.5944   30.6313    0.0000 C   0  0  0  0  0  0  0  0  0  0  0  0
    9.5990   29.5174    0.0000 C   0  0  0  0  0  0  0  0  0  0  0  0
   10.5055   28.3223    0.0000 C   0  0  0  0  0  0  0  0  0  0  0  0
   11.3074   27.0547    0.0000 C   0  0  0  0  0  0  0  0  0  0  0  0
   11.9989   25.7236    0.0000 C   0  0  0  0  0  0  0  0  0  0  0  0
   12.5750   24.3386    0.0000 C   0  0  0  0  0  0  0  0  0  0  0  0
   13.0316   22.9098    0.0000 C   0  0  0  0  0  0  0  0  0  0  0  0
   13.3654   21.4474    0.0000 C   0  0  0  0  0  0  0  0  0  0  0  0
   13.5739   19.9620    0.0000 C   0  0  0  0  0  0  0  0  0  0  0  0
   13.6558   18.4642    0.0000 C   0  0  0  0  0  0  0  0  0  0  0  0
   13.6103   16.9649    0.0000 C   0  0  0  0  0  0  0  0  0  0  0  0
   13.4378   15.4748    0.0000 C   0  0  0  0  0  0  0  0  0  0  0  0
   13.1396   14.0048    0.0000 C   0  0  0  0  0  0  0  0  0  0  0  0
   12.7178   12.5653    0.0000 C   0  0  0  0  0  0  0  0  0  0  0  0
   12.1755   11.1668    0.0000 C   0  0  0  0  0  0  0  0  0  0  0  0
   11.5164    9.8193    0.0000 C   0  0  0  0  0  0  0  0  0  0  0  0
   10.7455    8.5326    0.0000 C   0  0  0  0  0  0  0  0  0  0  0  0
    9.8683    7.3159    0.0000 C   0  0  0  0  0  0  0  0  0  0  0  0
    8.8910    6.1779    0.0000 C   0  0  0  0  0  0  0  0  0  0  0  0
    7.8207    5.1269    0.0000 C   0  0  0  0  0  0  0  0  0  0  0  0
    6.6652    4.1705    0.0000 C   0  0  0  0  0  0  0  0  0  0  0  0
    5.4327    3.3155    0.0000 C   0  0  0  0  0  0  0  0  0  0  0  0
    4.1322    2.5682    0.0000 C   0  0  0  0  0  0  0  0  0  0  0  0
    2.7729    1.9338    0.0000 C   0  0  0  0  0  0  0  0  0  0  0  0
    1.0777    1.3515    0.0000 C   0  0  0  0  0  0  0  0  0  0  0  0
    1.7286    0.0000    0.0000 C   0  0  0  0  0  0  0  0  0  0  0  0
    1.0777   -1.3515    0.0000 C   0  0  0  0  0  0  0  0  0  0  0  0
   -0.3846   -1.6852    0.0000 C   0  0  0  0  0  0  0  0  0  0  0  0
   -1.5574   -0.7500    0.0000 C   0  0  0  0  0  0  0  0  0  0  0  0
   -1.5574    0.7500    0.0000 C   0  0  0  0  0  0  0  0  0  0  0  0
   -0.3846    1.6852    0.0000 C   0  0  0  0  0  0  0  0  0  0  0  0
   -0.7184    3.1476    0.0000 O   0  0  0  0  0  0  0  0  0  0  0  0
  1  2  3  0
  2  3  1  0
  3  4  1  0
  4  5  1  0
  5  6  1  0
  6  7  1  0
  7  8  1  0
  8  9  1  0
  9 10  1  0
 10 11  1  0
 11 12  1  0
 12 13  1  0
 13 14  1  0
 14 15  1  0
 15 16  1  0
 16 17  1  0
 17 18  1  0
 18 19  1  0
 19 20  1  0
 20 21  1  0
 21 22  1  0
 22 23  1  0
 23 24  1  0
 24 25  1  0
 25 26  1  0
 26 27  1  0
 27 28  1  0
 28 29  1  0
 29 30  1  0
 30 31  1  0
 31 32  1  0
 32 33  1  0
 33 34  1  0
 34 35  1  0
 35 36  1  0
 36 37  1  0
 37 38  1  0
 38 39  1  0
 39 40  1  0
 40 41  1  0
 41 42  1  0
 42 43  1  0
 43 44  1  0
 44 45  1  0
 45 46  1  0
 46 47  1  0
 47 48  1  0
 48 49  1  0
 49 50  1  0
 50 51  1  0
 51 52  1  0
 52 53  1  0
 53 54  1  0
 54 55  1  0
 55 56  1  0
 56 57  1  0
 57 58  1  0
 58 59  1  0
 59 60  1  0
 60 61  1  0
 61 62  1  0
 62 63  1  0
 63 64  1  0
 64 65  1  0
 65 66  1  0
 66 67  1  0
 67 68  1  0
 68 69  1  0
 69 70  1  0
 70 71  1  0
 71 72  1  0
 72 73  1  0
 73 74  1  0
 74 75  2  0
 75 76  1  0
 76 77  2  0
 77 78  1  0
 78 79  2  0
 79 80  1  0
 80 81  2  0
 79  3  1  0
 80 74  1  0
M  END
>  <Title>  (944) 
idABIJgen8

$$$$

     RDKit          2D

  8  8  0  0  0  0  0  0  0  0999 V2000
    3.7500   -1.2990    0.0000 C   0  0  0  0  0  0  0  0  0  0  0  0
    3.0000    0.0000    0.0000 C   0  0  0  0  0  0  0  0  0  0  0  0
    1.5000    0.0000    0.0000 C   0  0  0  0  0  0  0  0  0  0  0  0
    0.7500   -1.2990    0.0000 C   0  0  0  0  0  0  0  0  0  0  0  0
   -0.7500   -1.2990    0.0000 C   0  0  0  0  0  0  0  0  0  0  0  0
   -1.5000    0.0000    0.0000 C   0  0  0  0  0  0  0  0  0  0  0  0
   -0.7500    1.2990    0.0000 C   0  0  0  0  0  0  0  0  0  0  0  0
    0.7500    1.2990    0.0000 C   0  0  0  0  0  0  0  0  0  0  0  0
  1  2  2  0
  2  3  1  0
  3  4  2  0
  4  5  1  0
  5  6  1  0
  6  7  2  0
  7  8  1  0
  8  3  1  0
M  END
>  <Title>  (945) 
idABIKgen8

$$$$

     RDKit          2D

 10 10  0  0  0  0  0  0  0  0999 V2000
    3.2286   -0.0000    0.0000 C   0  0  0  0  0  0  0  0  0  0  0  0
    1.7286    0.0000    0.0000 C   0  0  0  0  0  0  0  0  0  0  0  0
    1.0777    1.3515    0.0000 C   0  0  0  0  0  0  0  0  0  0  0  0
   -0.3846    1.6852    0.0000 C   0  0  0  0  0  0  0  0  0  0  0  0
   -0.7184    3.1476    0.0000 O   0  0  0  0  0  0  0  0  0  0  0  0
   -1.5574    0.7500    0.0000 C   0  0  0  0  0  0  0  0  0  0  0  0
   -2.9088    1.4008    0.0000 O   0  0  0  0  0  0  0  0  0  0  0  0
   -1.5574   -0.7500    0.0000 C   0  0  0  0  0  0  0  0  0  0  0  0
   -0.3846   -1.6852    0.0000 C   0  0  0  0  0  0  0  0  0  0  0  0
    1.0777   -1.3515    0.0000 C   0  0  0  0  0  0  0  0  0  0  0  0
  1  2  1  0
  2  3  2  0
  3  4  1  0
  4  5  1  0
  4  6  1  0
  6  7  1  0
  6  8  1  0
  8  9  1  0
  9 10  1  0
 10  2  1  0
M  END
>  <Title>  (946) 
idABILgen8

$$$$

     RDKit          2D

 33 37  0  0  0  0  0  0  0  0999 V2000
    4.8107    0.2384    0.0000 C   0  0  0  0  0  0  0  0  0  0  0  0
    4.0607   -1.0607    0.0000 C   0  0  0  0  0  0  0  0  0  0  0  0
    2.5607   -1.0607    0.0000 C   0  0  0  0  0  0  0  0  0  0  0  0
    1.8107   -2.3597    0.0000 C   0  0  0  0  0  0  0  0  0  0  0  0
    3.2595   -2.7479    0.0000 C   0  0  0  0  0  0  0  0  0  0  0  0
    0.7500   -1.2990    0.0000 C   0  0  0  0  0  0  0  0  0  0  0  0
    1.5000    0.0000    0.0000 C   0  0  0  0  0  0  0  0  0  0  0  0
    0.7500    1.2990    0.0000 C   0  0  0  0  0  0  0  0  0  0  0  0
   -0.7500    1.2990    0.0000 C   0  0  0  0  0  0  0  0  0  0  0  0
   -1.5000    0.0000    0.0000 C   0  0  0  0  0  0  0  0  0  0  0  0
   -0.7500   -1.2990    0.0000 C   0  0  0  0  0  0  0  0  0  0  0  0
   -1.8107   -2.3597    0.0000 C   0  0  0  0  0  0  0  0  0  0  0  0
   -3.1097   -1.6097    0.0000 C   0  0  0  0  0  0  0  0  0  0  0  0
   -4.4087   -2.3597    0.0000 C   0  0  0  0  0  0  0  0  0  0  0  0
   -4.4087   -3.8597    0.0000 C   0  0  0  0  0  0  0  0  0  0  0  0
   -3.1097   -4.6097    0.0000 C   0  0  0  0  0  0  0  0  0  0  0  0
   -1.8107   -3.8597    0.0000 C   0  0  0  0  0  0  0  0  0  0  0  0
   -0.7500   -4.9204    0.0000 C   0  0  0  0  0  0  0  0  0  0  0  0
   -1.5000   -6.2194    0.0000 C   0  0  0  0  0  0  0  0  0  0  0  0
   -0.7500   -7.5184    0.0000 C   0  0  0  0  0  0  0  0  0  0  0  0
    0.7500   -7.5184    0.0000 C   0  0  0  0  0  0  0  0  0  0  0  0
    1.5000   -6.2194    0.0000 C   0  0  0  0  0  0  0  0  0  0  0  0
    0.7500   -4.9204    0.0000 C   0  0  0  0  0  0  0  0  0  0  0  0
    1.8107   -3.8597    0.0000 C   0  0  0  0  0  0  0  0  0  0  0  0
    3.1965   -4.4337    0.0000 C   0  0  0  0  0  0  0  0  0  0  0  0
    3.3923   -5.9209    0.0000 O   0  0  0  0  0  0  0  0  0  0  0  0
    4.3865   -3.5206    0.0000 N   0  0  0  0  0  0  0  0  0  0  0  0
    5.7723   -4.0946    0.0000 C   0  0  0  0  0  0  0  0  0  0  0  0
    5.9681   -5.5818    0.0000 N   0  0  0  0  0  0  0  0  0  0  0  0
    7.3539   -6.1558    0.0000 N   0  0  0  0  0  0  0  0  0  0  0  0
    8.5440   -5.2427    0.0000 N   0  0  0  0  0  0  0  0  0  0  0  0
    8.3482   -3.7555    0.0000 N   0  0  0  0  0  0  0  0  0  0  0  0
    6.9624   -3.1815    0.0000 N   0  0  0  0  0  0  0  0  0  0  0  0
  1  2  1  0
  2  3  1  0
  3  4  1  0
  4  5  1  0
  4  6  1  0
  6  7  2  0
  7  8  1  0
  8  9  2  0
  9 10  1  0
 10 11  2  0
 11 12  1  0
 12 13  2  0
 13 14  1  0
 14 15  2  0
 15 16  1  0
 16 17  2  0
 17 18  1  0
 18 19  2  0
 19 20  1  0
 20 21  2  0
 21 22  1  0
 22 23  2  0
 23 24  1  0
 24 25  1  0
 25 26  2  0
 25 27  1  0
 27 28  1  0
 28 29  2  0
 29 30  1  0
 30 31  2  0
 31 32  1  0
 32 33  2  0
 24  4  1  0
 33 28  1  0
 11  6  1  0
 17 12  1  0
 23 18  1  0
M  END
>  <Title>  (947) 
idABIMgen8

$$$$

     RDKit          2D

 50 57  0  0  0  0  0  0  0  0999 V2000
    5.2417   -6.1122    0.0000 C   0  0  0  0  0  0  0  0  0  0  0  0
    3.7705   -5.8195    0.0000 C   0  0  0  0  0  0  0  0  0  0  0  0
    3.7705   -4.3195    0.0000 C   0  0  0  0  0  0  0  0  0  0  0  0
    3.1965   -2.9337    0.0000 C   0  0  0  0  0  0  0  0  0  0  0  0
    2.1358   -1.8731    0.0000 C   0  0  0  0  0  0  0  0  0  0  0  0
    2.9692   -0.6259    0.0000 C   0  0  0  0  0  0  0  0  0  0  0  0
    2.3057    0.7195    0.0000 O   0  0  0  0  0  0  0  0  0  0  0  0
    4.4660   -0.7240    0.0000 N   0  0  0  0  0  0  0  0  0  0  0  0
    5.2993    0.5232    0.0000 C   0  0  0  0  0  0  0  0  0  0  0  0
    6.7961    0.4251    0.0000 N   0  0  0  0  0  0  0  0  0  0  0  0
    7.6295    1.6723    0.0000 N   0  0  0  0  0  0  0  0  0  0  0  0
    6.9660    3.0176    0.0000 N   0  0  0  0  0  0  0  0  0  0  0  0
    5.4692    3.1158    0.0000 N   0  0  0  0  0  0  0  0  0  0  0  0
    4.6359    1.8686    0.0000 N   0  0  0  0  0  0  0  0  0  0  0  0
    0.7500   -1.2990    0.0000 C   0  0  0  0  0  0  0  0  0  0  0  0
    1.5000    0.0000    0.0000 C   0  0  0  0  0  0  0  0  0  0  0  0
    0.7500    1.2990    0.0000 C   0  0  0  0  0  0  0  0  0  0  0  0
   -0.7500    1.2990    0.0000 C   0  0  0  0  0  0  0  0  0  0  0  0
   -1.5000    0.0000    0.0000 C   0  0  0  0  0  0  0  0  0  0  0  0
   -0.7500   -1.2990    0.0000 C   0  0  0  0  0  0  0  0  0  0  0  0
   -2.1358   -1.8731    0.0000 C   0  0  0  0  0  0  0  0  0  0  0  0
   -2.5240   -0.4242    0.0000 C   0  0  0  0  0  0  0  0  0  0  0  0
   -3.9729   -0.0359    0.0000 C   0  0  0  0  0  0  0  0  0  0  0  0
   -5.0336   -1.0966    0.0000 C   0  0  0  0  0  0  0  0  0  0  0  0
   -4.6454   -2.5455    0.0000 C   0  0  0  0  0  0  0  0  0  0  0  0
   -3.1965   -2.9337    0.0000 C   0  0  0  0  0  0  0  0  0  0  0  0
   -3.7705   -4.3195    0.0000 C   0  0  0  0  0  0  0  0  0  0  0  0
   -5.0695   -3.5695    0.0000 C   0  0  0  0  0  0  0  0  0  0  0  0
   -6.3686   -4.3195    0.0000 C   0  0  0  0  0  0  0  0  0  0  0  0
   -6.3686   -5.8195    0.0000 C   0  0  0  0  0  0  0  0  0  0  0  0
   -5.0695   -6.5695    0.0000 C   0  0  0  0  0  0  0  0  0  0  0  0
   -3.7705   -5.8195    0.0000 C   0  0  0  0  0  0  0  0  0  0  0  0
   -3.1965   -7.2054    0.0000 C   0  0  0  0  0  0  0  0  0  0  0  0
   -4.6454   -7.5936    0.0000 C   0  0  0  0  0  0  0  0  0  0  0  0
   -5.0336   -9.0425    0.0000 C   0  0  0  0  0  0  0  0  0  0  0  0
   -3.9729  -10.1031    0.0000 C   0  0  0  0  0  0  0  0  0  0  0  0
   -2.5240   -9.7149    0.0000 C   0  0  0  0  0  0  0  0  0  0  0  0
   -2.1358   -8.2660    0.0000 C   0  0  0  0  0  0  0  0  0  0  0  0
   -0.7500   -8.8400    0.0000 C   0  0  0  0  0  0  0  0  0  0  0  0
   -1.5000  -10.1391    0.0000 C   0  0  0  0  0  0  0  0  0  0  0  0
   -0.7500  -11.4381    0.0000 C   0  0  0  0  0  0  0  0  0  0  0  0
    0.7500  -11.4381    0.0000 C   0  0  0  0  0  0  0  0  0  0  0  0
    1.5000  -10.1391    0.0000 C   0  0  0  0  0  0  0  0  0  0  0  0
    0.7500   -8.8400    0.0000 C   0  0  0  0  0  0  0  0  0  0  0  0
    2.1358   -8.2660    0.0000 C   0  0  0  0  0  0  0  0  0  0  0  0
    2.5240   -9.7149    0.0000 C   0  0  0  0  0  0  0  0  0  0  0  0
    3.9729  -10.1031    0.0000 C   0  0  0  0  0  0  0  0  0  0  0  0
    5.0336   -9.0425    0.0000 C   0  0  0  0  0  0  0  0  0  0  0  0
    4.6454   -7.5936    0.0000 C   0  0  0  0  0  0  0  0  0  0  0  0
    3.1965   -7.2054    0.0000 C   0  0  0  0  0  0  0  0  0  0  0  0
  1  2  1  0
  2  3  2  0
  3  4  1  0
  4  5  1  0
  5  6  1  0
  6  7  2  0
  6  8  1  0
  8  9  1  0
  9 10  2  0
 10 11  1  0
 11 12  2  0
 12 13  1  0
 13 14  2  0
  5 15  1  0
 15 16  2  0
 16 17  1  0
 17 18  2  0
 18 19  1  0
 19 20  2  0
 20 21  1  0
 21 22  2  0
 22 23  1  0
 23 24  2  0
 24 25  1  0
 25 26  2  0
 26 27  1  0
 27 28  2  0
 28 29  1  0
 29 30  2  0
 30 31  1  0
 31 32  2  0
 32 33  1  0
 33 34  2  0
 34 35  1  0
 35 36  2  0
 36 37  1  0
 37 38  2  0
 38 39  1  0
 39 40  2  0
 40 41  1  0
 41 42  2  0
 42 43  1  0
 43 44  2  0
 44 45  1  0
 45 46  2  0
 46 47  1  0
 47 48  2  0
 48 49  1  0
 49 50  2  0
 50  2  1  0
 14  9  1  0
 20 15  1  0
 26 21  1  0
 32 27  1  0
 38 33  1  0
 44 39  1  0
 50 45  1  0
M  END
>  <Title>  (948) 
idABINgen8

$$$$

     RDKit          2D

 10 10  0  0  0  0  0  0  0  0999 V2000
    3.2286   -0.0000    0.0000 C   0  0  0  0  0  0  0  0  0  0  0  0
    1.7286    0.0000    0.0000 C   0  0  0  0  0  0  0  0  0  0  0  0
    1.0777    1.3515    0.0000 C   0  0  0  0  0  0  0  0  0  0  0  0
   -0.3846    1.6852    0.0000 C   0  0  0  0  0  0  0  0  0  0  0  0
   -1.5574    0.7500    0.0000 C   0  0  0  0  0  0  0  0  0  0  0  0
   -2.9088    1.4008    0.0000 O   0  0  0  0  0  0  0  0  0  0  0  0
   -1.5574   -0.7500    0.0000 C   0  0  0  0  0  0  0  0  0  0  0  0
   -2.9088   -1.4008    0.0000 O   0  0  0  0  0  0  0  0  0  0  0  0
   -0.3846   -1.6852    0.0000 C   0  0  0  0  0  0  0  0  0  0  0  0
    1.0777   -1.3515    0.0000 C   0  0  0  0  0  0  0  0  0  0  0  0
  1  2  1  0
  2  3  2  0
  3  4  1  0
  4  5  1  0
  5  6  1  0
  5  7  2  0
  7  8  1  0
  7  9  1  0
  9 10  1  0
 10  2  1  0
M  END
>  <Title>  (949) 
idABIOgen8

$$$$

     RDKit          2D

 11 11  0  0  0  0  0  0  0  0999 V2000
    5.4786   -1.2990    0.0000 C   0  0  0  0  0  0  0  0  0  0  0  0
    3.9786   -1.2990    0.0000 C   0  0  0  0  0  0  0  0  0  0  0  0
    3.2286   -0.0000    0.0000 C   0  0  0  0  0  0  0  0  0  0  0  0
    1.7286    0.0000    0.0000 C   0  0  0  0  0  0  0  0  0  0  0  0
    1.0777    1.3515    0.0000 C   0  0  0  0  0  0  0  0  0  0  0  0
   -0.3846    1.6852    0.0000 C   0  0  0  0  0  0  0  0  0  0  0  0
   -0.7184    3.1476    0.0000 O   0  0  0  0  0  0  0  0  0  0  0  0
   -1.5574    0.7500    0.0000 C   0  0  0  0  0  0  0  0  0  0  0  0
   -1.5574   -0.7500    0.0000 C   0  0  0  0  0  0  0  0  0  0  0  0
   -0.3846   -1.6852    0.0000 O   0  0  0  0  0  0  0  0  0  0  0  0
    1.0777   -1.3515    0.0000 C   0  0  0  0  0  0  0  0  0  0  0  0
  1  2  1  0
  2  3  1  0
  3  4  1  0
  4  5  2  0
  5  6  1  0
  6  7  1  0
  6  8  1  0
  8  9  1  0
  9 10  1  0
 10 11  1  0
 11  4  1  0
M  END
>  <Title>  (950) 
idABIPgen8

$$$$

     RDKit          2D

  8  8  0  0  0  0  0  0  0  0999 V2000
    3.7500   -1.2990    0.0000 O   0  0  0  0  0  0  0  0  0  0  0  0
    3.0000    0.0000    0.0000 O   0  0  0  0  0  0  0  0  0  0  0  0
    1.5000    0.0000    0.0000 C   0  0  0  0  0  0  0  0  0  0  0  0
    0.7500   -1.2990    0.0000 C   0  0  0  0  0  0  0  0  0  0  0  0
   -0.7500   -1.2990    0.0000 C   0  0  0  0  0  0  0  0  0  0  0  0
   -1.5000    0.0000    0.0000 C   0  0  0  0  0  0  0  0  0  0  0  0
   -0.7500    1.2990    0.0000 C   0  0  0  0  0  0  0  0  0  0  0  0
    0.7500    1.2990    0.0000 C   0  0  0  0  0  0  0  0  0  0  0  0
  1  2  1  0
  2  3  1  0
  3  4  2  0
  4  5  1  0
  5  6  1  0
  6  7  1  0
  7  8  1  0
  8  3  1  0
M  END
>  <Title>  (951) 
idABIQgen8

$$$$

     RDKit          2D

103103  0  0  0  0  0  0  0  0999 V2000
   25.8546    0.0000    0.0000 C   0  0  0  0  0  0  0  0  0  0  0  0
   24.3546    0.0000    0.0000 C   0  0  0  0  0  0  0  0  0  0  0  0
   24.3084   -1.4993    0.0000 C   0  0  0  0  0  0  0  0  0  0  0  0
   24.1700   -2.9929    0.0000 C   0  0  0  0  0  0  0  0  0  0  0  0
   23.9399   -4.4751    0.0000 C   0  0  0  0  0  0  0  0  0  0  0  0
   23.6190   -5.9404    0.0000 C   0  0  0  0  0  0  0  0  0  0  0  0
   23.2085   -7.3831    0.0000 C   0  0  0  0  0  0  0  0  0  0  0  0
   22.7099   -8.7979    0.0000 C   0  0  0  0  0  0  0  0  0  0  0  0
   22.1253  -10.1792    0.0000 C   0  0  0  0  0  0  0  0  0  0  0  0
   21.4567  -11.5220    0.0000 C   0  0  0  0  0  0  0  0  0  0  0  0
   20.7067  -12.8210    0.0000 C   0  0  0  0  0  0  0  0  0  0  0  0
   19.8781  -14.0714    0.0000 C   0  0  0  0  0  0  0  0  0  0  0  0
   18.9742  -15.2685    0.0000 C   0  0  0  0  0  0  0  0  0  0  0  0
   17.9982  -16.4076    0.0000 C   0  0  0  0  0  0  0  0  0  0  0  0
   16.9540  -17.4844    0.0000 C   0  0  0  0  0  0  0  0  0  0  0  0
   15.8455  -18.4950    0.0000 C   0  0  0  0  0  0  0  0  0  0  0  0
   14.6769  -19.4354    0.0000 C   0  0  0  0  0  0  0  0  0  0  0  0
   13.4526  -20.3020    0.0000 C   0  0  0  0  0  0  0  0  0  0  0  0
   12.1773  -21.0917    0.0000 C   0  0  0  0  0  0  0  0  0  0  0  0
   10.8558  -21.8013    0.0000 C   0  0  0  0  0  0  0  0  0  0  0  0
    9.4931  -22.4282    0.0000 C   0  0  0  0  0  0  0  0  0  0  0  0
    8.0944  -22.9701    0.0000 C   0  0  0  0  0  0  0  0  0  0  0  0
    6.6649  -23.4248    0.0000 C   0  0  0  0  0  0  0  0  0  0  0  0
    5.2102  -23.7907    0.0000 C   0  0  0  0  0  0  0  0  0  0  0  0
    3.7358  -24.0663    0.0000 C   0  0  0  0  0  0  0  0  0  0  0  0
    2.2472  -24.2507    0.0000 C   0  0  0  0  0  0  0  0  0  0  0  0
    0.7500  -24.3430    0.0000 C   0  0  0  0  0  0  0  0  0  0  0  0
   -0.7500  -24.3430    0.0000 C   0  0  0  0  0  0  0  0  0  0  0  0
   -2.2472  -24.2507    0.0000 C   0  0  0  0  0  0  0  0  0  0  0  0
   -3.7358  -24.0663    0.0000 C   0  0  0  0  0  0  0  0  0  0  0  0
   -5.2102  -23.7907    0.0000 C   0  0  0  0  0  0  0  0  0  0  0  0
   -6.6649  -23.4248    0.0000 C   0  0  0  0  0  0  0  0  0  0  0  0
   -8.0944  -22.9701    0.0000 C   0  0  0  0  0  0  0  0  0  0  0  0
   -9.4931  -22.4282    0.0000 C   0  0  0  0  0  0  0  0  0  0  0  0
  -10.8558  -21.8013    0.0000 C   0  0  0  0  0  0  0  0  0  0  0  0
  -12.1773  -21.0917    0.0000 C   0  0  0  0  0  0  0  0  0  0  0  0
  -13.4526  -20.3020    0.0000 C   0  0  0  0  0  0  0  0  0  0  0  0
  -14.6769  -19.4354    0.0000 C   0  0  0  0  0  0  0  0  0  0  0  0
  -15.8455  -18.4950    0.0000 C   0  0  0  0  0  0  0  0  0  0  0  0
  -16.9540  -17.4844    0.0000 C   0  0  0  0  0  0  0  0  0  0  0  0
  -17.9982  -16.4076    0.0000 C   0  0  0  0  0  0  0  0  0  0  0  0
  -18.9742  -15.2685    0.0000 C   0  0  0  0  0  0  0  0  0  0  0  0
  -19.8781  -14.0714    0.0000 C   0  0  0  0  0  0  0  0  0  0  0  0
  -20.7067  -12.8210    0.0000 C   0  0  0  0  0  0  0  0  0  0  0  0
  -21.4567  -11.5220    0.0000 C   0  0  0  0  0  0  0  0  0  0  0  0
  -22.1253  -10.1792    0.0000 C   0  0  0  0  0  0  0  0  0  0  0  0
  -22.7099   -8.7979    0.0000 C   0  0  0  0  0  0  0  0  0  0  0  0
  -23.2085   -7.3831    0.0000 C   0  0  0  0  0  0  0  0  0  0  0  0
  -23.6190   -5.9404    0.0000 C   0  0  0  0  0  0  0  0  0  0  0  0
  -23.9399   -4.4751    0.0000 C   0  0  0  0  0  0  0  0  0  0  0  0
  -24.1700   -2.9929    0.0000 C   0  0  0  0  0  0  0  0  0  0  0  0
  -24.3084   -1.4993    0.0000 C   0  0  0  0  0  0  0  0  0  0  0  0
  -24.3546    0.0000    0.0000 C   0  0  0  0  0  0  0  0  0  0  0  0
  -24.3084    1.4993    0.0000 C   0  0  0  0  0  0  0  0  0  0  0  0
  -24.1700    2.9929    0.0000 C   0  0  0  0  0  0  0  0  0  0  0  0
  -23.9399    4.4751    0.0000 C   0  0  0  0  0  0  0  0  0  0  0  0
  -23.6190    5.9404    0.0000 C   0  0  0  0  0  0  0  0  0  0  0  0
  -23.2085    7.3831    0.0000 C   0  0  0  0  0  0  0  0  0  0  0  0
  -22.7099    8.7979    0.0000 C   0  0  0  0  0  0  0  0  0  0  0  0
  -22.1253   10.1792    0.0000 C   0  0  0  0  0  0  0  0  0  0  0  0
  -21.4567   11.5220    0.0000 C   0  0  0  0  0  0  0  0  0  0  0  0
  -20.7067   12.8210    0.0000 C   0  0  0  0  0  0  0  0  0  0  0  0
  -19.8781   14.0714    0.0000 C   0  0  0  0  0  0  0  0  0  0  0  0
  -18.9742   15.2685    0.0000 C   0  0  0  0  0  0  0  0  0  0  0  0
  -17.9982   16.4076    0.0000 C   0  0  0  0  0  0  0  0  0  0  0  0
  -16.9540   17.4844    0.0000 C   0  0  0  0  0  0  0  0  0  0  0  0
  -15.8455   18.4950    0.0000 C   0  0  0  0  0  0  0  0  0  0  0  0
  -14.6769   19.4354    0.0000 C   0  0  0  0  0  0  0  0  0  0  0  0
  -13.4526   20.3020    0.0000 C   0  0  0  0  0  0  0  0  0  0  0  0
  -12.1773   21.0917    0.0000 C   0  0  0  0  0  0  0  0  0  0  0  0
  -10.8558   21.8013    0.0000 C   0  0  0  0  0  0  0  0  0  0  0  0
   -9.4931   22.4282    0.0000 C   0  0  0  0  0  0  0  0  0  0  0  0
   -8.0944   22.9701    0.0000 C   0  0  0  0  0  0  0  0  0  0  0  0
   -6.6649   23.4248    0.0000 C   0  0  0  0  0  0  0  0  0  0  0  0
   -5.2102   23.7907    0.0000 C   0  0  0  0  0  0  0  0  0  0  0  0
   -3.7358   24.0663    0.0000 C   0  0  0  0  0  0  0  0  0  0  0  0
   -2.2472   24.2507    0.0000 C   0  0  0  0  0  0  0  0  0  0  0  0
   -0.7500   24.3430    0.0000 C   0  0  0  0  0  0  0  0  0  0  0  0
    0.7500   24.3430    0.0000 C   0  0  0  0  0  0  0  0  0  0  0  0
    2.2472   24.2507    0.0000 C   0  0  0  0  0  0  0  0  0  0  0  0
    3.7358   24.0663    0.0000 C   0  0  0  0  0  0  0  0  0  0  0  0
    5.2102   23.7907    0.0000 C   0  0  0  0  0  0  0  0  0  0  0  0
    6.6649   23.4248    0.0000 C   0  0  0  0  0  0  0  0  0  0  0  0
    8.0944   22.9701    0.0000 C   0  0  0  0  0  0  0  0  0  0  0  0
    9.4931   22.4282    0.0000 C   0  0  0  0  0  0  0  0  0  0  0  0
   10.8558   21.8013    0.0000 C   0  0  0  0  0  0  0  0  0  0  0  0
   12.1773   21.0917    0.0000 C   0  0  0  0  0  0  0  0  0  0  0  0
   13.4526   20.3020    0.0000 C   0  0  0  0  0  0  0  0  0  0  0  0
   14.6769   19.4354    0.0000 C   0  0  0  0  0  0  0  0  0  0  0  0
   15.8455   18.4950    0.0000 C   0  0  0  0  0  0  0  0  0  0  0  0
   16.9540   17.4844    0.0000 C   0  0  0  0  0  0  0  0  0  0  0  0
   17.9982   16.4076    0.0000 C   0  0  0  0  0  0  0  0  0  0  0  0
   18.9742   15.2685    0.0000 C   0  0  0  0  0  0  0  0  0  0  0  0
   19.8781   14.0714    0.0000 C   0  0  0  0  0  0  0  0  0  0  0  0
   20.7067   12.8210    0.0000 C   0  0  0  0  0  0  0  0  0  0  0  0
   21.4567   11.5220    0.0000 C   0  0  0  0  0  0  0  0  0  0  0  0
   22.1253   10.1792    0.0000 C   0  0  0  0  0  0  0  0  0  0  0  0
   22.7099    8.7979    0.0000 C   0  0  0  0  0  0  0  0  0  0  0  0
   23.2085    7.3831    0.0000 C   0  0  0  0  0  0  0  0  0  0  0  0
   23.6190    5.9404    0.0000 C   0  0  0  0  0  0  0  0  0  0  0  0
   23.9399    4.4751    0.0000 C   0  0  0  0  0  0  0  0  0  0  0  0
   24.1700    2.9929    0.0000 C   0  0  0  0  0  0  0  0  0  0  0  0
   24.3084    1.4993    0.0000 C   0  0  0  0  0  0  0  0  0  0  0  0
  1  2  1  0
  2  3  1  0
  3  4  2  0
  4  5  1  0
  5  6  2  0
  6  7  1  0
  7  8  2  0
  8  9  1  0
  9 10  2  0
 10 11  1  0
 11 12  2  0
 12 13  1  0
 13 14  1  0
 14 15  1  0
 15 16  1  0
 16 17  1  0
 17 18  1  0
 18 19  1  0
 19 20  1  0
 20 21  1  0
 21 22  1  0
 22 23  1  0
 23 24  1  0
 24 25  1  0
 25 26  1  0
 26 27  1  0
 27 28  1  0
 28 29  1  0
 29 30  1  0
 30 31  1  0
 31 32  1  0
 32 33  1  0
 33 34  1  0
 34 35  1  0
 35 36  1  0
 36 37  1  0
 37 38  1  0
 38 39  1  0
 39 40  1  0
 40 41  1  0
 41 42  1  0
 42 43  1  0
 43 44  1  0
 44 45  1  0
 45 46  1  0
 46 47  1  0
 47 48  1  0
 48 49  1  0
 49 50  1  0
 50 51  1  0
 51 52  1  0
 52 53  1  0
 53 54  1  0
 54 55  1  0
 55 56  1  0
 56 57  1  0
 57 58  1  0
 58 59  1  0
 59 60  1  0
 60 61  1  0
 61 62  1  0
 62 63  1  0
 63 64  1  0
 64 65  1  0
 65 66  1  0
 66 67  1  0
 67 68  1  0
 68 69  1  0
 69 70  1  0
 70 71  1  0
 71 72  1  0
 72 73  1  0
 73 74  1  0
 74 75  1  0
 75 76  1  0
 76 77  1  0
 77 78  1  0
 78 79  1  0
 79 80  1  0
 80 81  1  0
 81 82  1  0
 82 83  1  0
 83 84  1  0
 84 85  1  0
 85 86  1  0
 86 87  1  0
 87 88  1  0
 88 89  1  0
 89 90  1  0
 90 91  1  0
 91 92  1  0
 92 93  1  0
 93 94  1  0
 94 95  1  0
 95 96  1  0
 96 97  1  0
 97 98  1  0
 98 99  1  0
 99100  1  0
100101  1  0
101102  1  0
102103  1  0
103  2  1  0
M  END
>  <Title>  (952) 
idABIRgen8

$$$$

     RDKit          2D

 12 12  0  0  0  0  0  0  0  0999 V2000
    5.4786   -1.2990    0.0000 C   0  0  0  0  0  0  0  0  0  0  0  0
    3.9786   -1.2990    0.0000 C   0  0  0  0  0  0  0  0  0  0  0  0
    3.2286   -0.0000    0.0000 C   0  0  0  0  0  0  0  0  0  0  0  0
    1.7286    0.0000    0.0000 C   0  0  0  0  0  0  0  0  0  0  0  0
    1.0777    1.3515    0.0000 C   0  0  0  0  0  0  0  0  0  0  0  0
   -0.3846    1.6852    0.0000 C   0  0  0  0  0  0  0  0  0  0  0  0
   -1.5574    0.7500    0.0000 C   0  0  0  0  0  0  0  0  0  0  0  0
   -1.5574   -0.7500    0.0000 C   0  0  0  0  0  0  0  0  0  0  0  0
   -2.9088   -1.4008    0.0000 C   0  0  0  0  0  0  0  0  0  0  0  0
   -0.3846   -1.6852    0.0000 C   0  0  0  0  0  0  0  0  0  0  0  0
   -0.7184   -3.1476    0.0000 O   0  0  0  0  0  0  0  0  0  0  0  0
    1.0777   -1.3515    0.0000 C   0  0  0  0  0  0  0  0  0  0  0  0
  1  2  1  0
  2  3  1  0
  3  4  1  0
  4  5  2  0
  5  6  1  0
  6  7  1  0
  7  8  1  0
  8  9  1  0
  8 10  1  0
 10 11  2  0
 10 12  1  0
 12  4  1  0
M  END
>  <Title>  (953) 
idABISgen8

$$$$

     RDKit          2D

116118  0  0  0  0  0  0  0  0999 V2000
   -5.5200   -0.3573    0.0000 C   0  0  0  0  0  0  0  0  0  0  0  0
   -5.2139   -1.8257    0.0000 C   0  0  0  0  0  0  0  0  0  0  0  0
   -6.6727   -2.1748    0.0000 C   0  0  0  0  0  0  0  0  0  0  0  0
   -8.1085   -2.6089    0.0000 C   0  0  0  0  0  0  0  0  0  0  0  0
   -9.5163   -3.1265    0.0000 C   0  0  0  0  0  0  0  0  0  0  0  0
  -10.8914   -3.7259    0.0000 C   0  0  0  0  0  0  0  0  0  0  0  0
  -12.2289   -4.4049    0.0000 C   0  0  0  0  0  0  0  0  0  0  0  0
  -13.5243   -5.1613    0.0000 C   0  0  0  0  0  0  0  0  0  0  0  0
  -14.7730   -5.9923    0.0000 C   0  0  0  0  0  0  0  0  0  0  0  0
  -15.9708   -6.8953    0.0000 C   0  0  0  0  0  0  0  0  0  0  0  0
  -17.1135   -7.8669    0.0000 C   0  0  0  0  0  0  0  0  0  0  0  0
  -18.1973   -8.9040    0.0000 C   0  0  0  0  0  0  0  0  0  0  0  0
  -19.2183  -10.0028    0.0000 C   0  0  0  0  0  0  0  0  0  0  0  0
  -20.1731  -11.1597    0.0000 C   0  0  0  0  0  0  0  0  0  0  0  0
  -21.0583  -12.3706    0.0000 C   0  0  0  0  0  0  0  0  0  0  0  0
  -21.8710  -13.6314    0.0000 C   0  0  0  0  0  0  0  0  0  0  0  0
  -22.6082  -14.9378    0.0000 C   0  0  0  0  0  0  0  0  0  0  0  0
  -23.2676  -16.2851    0.0000 C   0  0  0  0  0  0  0  0  0  0  0  0
  -23.8467  -17.6688    0.0000 C   0  0  0  0  0  0  0  0  0  0  0  0
  -24.3436  -19.0841    0.0000 C   0  0  0  0  0  0  0  0  0  0  0  0
  -24.7566  -20.5261    0.0000 C   0  0  0  0  0  0  0  0  0  0  0  0
  -25.0842  -21.9899    0.0000 C   0  0  0  0  0  0  0  0  0  0  0  0
  -25.3254  -23.4704    0.0000 C   0  0  0  0  0  0  0  0  0  0  0  0
  -25.4792  -24.9625    0.0000 C   0  0  0  0  0  0  0  0  0  0  0  0
  -25.5453  -26.4610    0.0000 C   0  0  0  0  0  0  0  0  0  0  0  0
  -25.5233  -27.9609    0.0000 C   0  0  0  0  0  0  0  0  0  0  0  0
  -25.4133  -29.4568    0.0000 C   0  0  0  0  0  0  0  0  0  0  0  0
  -25.2157  -30.9438    0.0000 C   0  0  0  0  0  0  0  0  0  0  0  0
  -24.9311  -32.4165    0.0000 C   0  0  0  0  0  0  0  0  0  0  0  0
  -24.5606  -33.8700    0.0000 C   0  0  0  0  0  0  0  0  0  0  0  0
  -24.1055  -35.2993    0.0000 C   0  0  0  0  0  0  0  0  0  0  0  0
  -23.5673  -36.6994    0.0000 C   0  0  0  0  0  0  0  0  0  0  0  0
  -22.9478  -38.0655    0.0000 C   0  0  0  0  0  0  0  0  0  0  0  0
  -22.2492  -39.3929    0.0000 C   0  0  0  0  0  0  0  0  0  0  0  0
  -21.4739  -40.6770    0.0000 C   0  0  0  0  0  0  0  0  0  0  0  0
  -20.6246  -41.9134    0.0000 C   0  0  0  0  0  0  0  0  0  0  0  0
  -19.7042  -43.0979    0.0000 C   0  0  0  0  0  0  0  0  0  0  0  0
  -18.7159  -44.2262    0.0000 C   0  0  0  0  0  0  0  0  0  0  0  0
  -17.6630  -45.2947    0.0000 C   0  0  0  0  0  0  0  0  0  0  0  0
  -16.5493  -46.2994    0.0000 C   0  0  0  0  0  0  0  0  0  0  0  0
  -15.3785  -47.2371    0.0000 C   0  0  0  0  0  0  0  0  0  0  0  0
  -14.1547  -48.1045    0.0000 C   0  0  0  0  0  0  0  0  0  0  0  0
  -12.8821  -48.8985    0.0000 C   0  0  0  0  0  0  0  0  0  0  0  0
  -11.5651  -49.6165    0.0000 C   0  0  0  0  0  0  0  0  0  0  0  0
  -10.2083  -50.2560    0.0000 C   0  0  0  0  0  0  0  0  0  0  0  0
   -8.8162  -50.8147    0.0000 C   0  0  0  0  0  0  0  0  0  0  0  0
   -7.3938  -51.2908    0.0000 C   0  0  0  0  0  0  0  0  0  0  0  0
   -5.9458  -51.6826    0.0000 C   0  0  0  0  0  0  0  0  0  0  0  0
   -4.4774  -51.9887    0.0000 C   0  0  0  0  0  0  0  0  0  0  0  0
   -2.9935  -52.2081    0.0000 C   0  0  0  0  0  0  0  0  0  0  0  0
   -1.4994  -52.3401    0.0000 C   0  0  0  0  0  0  0  0  0  0  0  0
    0.0000  -52.3841    0.0000 C   0  0  0  0  0  0  0  0  0  0  0  0
    1.4994  -52.3401    0.0000 C   0  0  0  0  0  0  0  0  0  0  0  0
    2.9935  -52.2081    0.0000 C   0  0  0  0  0  0  0  0  0  0  0  0
    4.4774  -51.9887    0.0000 C   0  0  0  0  0  0  0  0  0  0  0  0
    5.9458  -51.6826    0.0000 C   0  0  0  0  0  0  0  0  0  0  0  0
    7.3938  -51.2908    0.0000 C   0  0  0  0  0  0  0  0  0  0  0  0
    8.8162  -50.8147    0.0000 C   0  0  0  0  0  0  0  0  0  0  0  0
   10.2083  -50.2560    0.0000 C   0  0  0  0  0  0  0  0  0  0  0  0
   11.5651  -49.6165    0.0000 C   0  0  0  0  0  0  0  0  0  0  0  0
   12.8821  -48.8985    0.0000 C   0  0  0  0  0  0  0  0  0  0  0  0
   14.1547  -48.1045    0.0000 C   0  0  0  0  0  0  0  0  0  0  0  0
   15.3785  -47.2371    0.0000 C   0  0  0  0  0  0  0  0  0  0  0  0
   16.5493  -46.2994    0.0000 C   0  0  0  0  0  0  0  0  0  0  0  0
   17.6630  -45.2947    0.0000 C   0  0  0  0  0  0  0  0  0  0  0  0
   18.7159  -44.2262    0.0000 C   0  0  0  0  0  0  0  0  0  0  0  0
   19.7042  -43.0979    0.0000 C   0  0  0  0  0  0  0  0  0  0  0  0
   20.6246  -41.9134    0.0000 C   0  0  0  0  0  0  0  0  0  0  0  0
   21.4739  -40.6770    0.0000 C   0  0  0  0  0  0  0  0  0  0  0  0
   22.2492  -39.3929    0.0000 C   0  0  0  0  0  0  0  0  0  0  0  0
   22.9478  -38.0655    0.0000 C   0  0  0  0  0  0  0  0  0  0  0  0
   23.5673  -36.6994    0.0000 C   0  0  0  0  0  0  0  0  0  0  0  0
   24.1055  -35.2993    0.0000 C   0  0  0  0  0  0  0  0  0  0  0  0
   24.5606  -33.8700    0.0000 C   0  0  0  0  0  0  0  0  0  0  0  0
   24.9311  -32.4165    0.0000 C   0  0  0  0  0  0  0  0  0  0  0  0
   25.2157  -30.9438    0.0000 C   0  0  0  0  0  0  0  0  0  0  0  0
   25.4133  -29.4568    0.0000 C   0  0  0  0  0  0  0  0  0  0  0  0
   25.5233  -27.9609    0.0000 C   0  0  0  0  0  0  0  0  0  0  0  0
   25.5453  -26.4610    0.0000 C   0  0  0  0  0  0  0  0  0  0  0  0
   25.4792  -24.9625    0.0000 C   0  0  0  0  0  0  0  0  0  0  0  0
   25.3254  -23.4704    0.0000 C   0  0  0  0  0  0  0  0  0  0  0  0
   25.0842  -21.9899    0.0000 C   0  0  0  0  0  0  0  0  0  0  0  0
   24.7566  -20.5261    0.0000 C   0  0  0  0  0  0  0  0  0  0  0  0
   24.3436  -19.0841    0.0000 C   0  0  0  0  0  0  0  0  0  0  0  0
   23.8467  -17.6688    0.0000 C   0  0  0  0  0  0  0  0  0  0  0  0
   23.2676  -16.2851    0.0000 C   0  0  0  0  0  0  0  0  0  0  0  0
   22.6082  -14.9378    0.0000 C   0  0  0  0  0  0  0  0  0  0  0  0
   21.8710  -13.6314    0.0000 C   0  0  0  0  0  0  0  0  0  0  0  0
   21.0583  -12.3706    0.0000 C   0  0  0  0  0  0  0  0  0  0  0  0
   20.1731  -11.1597    0.0000 C   0  0  0  0  0  0  0  0  0  0  0  0
   19.2183  -10.0028    0.0000 C   0  0  0  0  0  0  0  0  0  0  0  0
   18.1973   -8.9040    0.0000 C   0  0  0  0  0  0  0  0  0  0  0  0
   17.1135   -7.8669    0.0000 C   0  0  0  0  0  0  0  0  0  0  0  0
   15.9708   -6.8953    0.0000 C   0  0  0  0  0  0  0  0  0  0  0  0
   14.7730   -5.9923    0.0000 C   0  0  0  0  0  0  0  0  0  0  0  0
   13.5243   -5.1613    0.0000 C   0  0  0  0  0  0  0  0  0  0  0  0
   12.2289   -4.4049    0.0000 C   0  0  0  0  0  0  0  0  0  0  0  0
   10.8914   -3.7259    0.0000 C   0  0  0  0  0  0  0  0  0  0  0  0
    9.5163   -3.1265    0.0000 C   0  0  0  0  0  0  0  0  0  0  0  0
    8.1085   -2.6089    0.0000 C   0  0  0  0  0  0  0  0  0  0  0  0
    6.6727   -2.1748    0.0000 C   0  0  0  0  0  0  0  0  0  0  0  0
    5.2139   -1.8257    0.0000 C   0  0  0  0  0  0  0  0  0  0  0  0
    3.7371   -1.5628    0.0000 C   0  0  0  0  0  0  0  0  0  0  0  0
    2.2474   -1.3871    0.0000 C   0  0  0  0  0  0  0  0  0  0  0  0
    0.7500   -1.2990    0.0000 C   0  0  0  0  0  0  0  0  0  0  0  0
    1.5000    0.0000    0.0000 C   0  0  0  0  0  0  0  0  0  0  0  0
    0.7500    1.2990    0.0000 C   0  0  0  0  0  0  0  0  0  0  0  0
   -0.7500    1.2990    0.0000 C   0  0  0  0  0  0  0  0  0  0  0  0
   -1.5000    0.0000    0.0000 C   0  0  0  0  0  0  0  0  0  0  0  0
   -0.7500   -1.2990    0.0000 C   0  0  0  0  0  0  0  0  0  0  0  0
   -2.2474   -1.3871    0.0000 C   0  0  0  0  0  0  0  0  0  0  0  0
   -1.3504   -2.5893    0.0000 C   0  0  0  0  0  0  0  0  0  0  0  0
   -1.9430   -3.9672    0.0000 C   0  0  0  0  0  0  0  0  0  0  0  0
   -3.4327   -4.1430    0.0000 C   0  0  0  0  0  0  0  0  0  0  0  0
   -4.3297   -2.9408    0.0000 C   0  0  0  0  0  0  0  0  0  0  0  0
   -3.7371   -1.5628    0.0000 C   0  0  0  0  0  0  0  0  0  0  0  0
  1  2  1  0
  2  3  1  0
  3  4  1  0
  4  5  1  0
  5  6  1  0
  6  7  1  0
  7  8  1  0
  8  9  1  0
  9 10  1  0
 10 11  1  0
 11 12  1  0
 12 13  1  0
 13 14  1  0
 14 15  1  0
 15 16  1  0
 16 17  1  0
 17 18  1  0
 18 19  1  0
 19 20  1  0
 20 21  1  0
 21 22  1  0
 22 23  1  0
 23 24  1  0
 24 25  1  0
 25 26  1  0
 26 27  1  0
 27 28  1  0
 28 29  1  0
 29 30  1  0
 30 31  1  0
 31 32  1  0
 32 33  1  0
 33 34  1  0
 34 35  1  0
 35 36  1  0
 36 37  1  0
 37 38  1  0
 38 39  1  0
 39 40  1  0
 40 41  1  0
 41 42  1  0
 42 43  1  0
 43 44  1  0
 44 45  1  0
 45 46  1  0
 46 47  1  0
 47 48  1  0
 48 49  1  0
 49 50  1  0
 50 51  1  0
 51 52  1  0
 52 53  1  0
 53 54  1  0
 54 55  1  0
 55 56  1  0
 56 57  1  0
 57 58  1  0
 58 59  1  0
 59 60  1  0
 60 61  1  0
 61 62  1  0
 62 63  1  0
 63 64  1  0
 64 65  1  0
 65 66  1  0
 66 67  1  0
 67 68  1  0
 68 69  1  0
 69 70  1  0
 70 71  1  0
 71 72  1  0
 72 73  1  0
 73 74  1  0
 74 75  1  0
 75 76  1  0
 76 77  1  0
 77 78  1  0
 78 79  1  0
 79 80  1  0
 80 81  1  0
 81 82  1  0
 82 83  1  0
 83 84  1  0
 84 85  1  0
 85 86  1  0
 86 87  1  0
 87 88  1  0
 88 89  1  0
 89 90  1  0
 90 91  1  0
 91 92  1  0
 92 93  1  0
 93 94  1  0
 94 95  1  0
 95 96  1  0
 96 97  1  0
 97 98  1  0
 98 99  1  0
 99100  1  0
100101  1  0
101102  1  0
102103  1  0
103104  1  0
104105  1  0
105106  2  0
106107  1  0
107108  2  0
108109  1  0
109110  2  0
110111  1  0
111112  2  0
112113  1  0
113114  2  0
114115  1  0
115116  2  0
116  2  1  0
110105  1  0
116111  1  0
M  END
>  <Title>  (954) 
idABITgen8

$$$$

     RDKit          2D

 15 16  0  0  0  0  0  0  0  0999 V2000
    4.7960    2.1491    0.0000 O   0  0  0  0  0  0  0  0  0  0  0  0
    3.3287    1.8373    0.0000 O   0  0  0  0  0  0  0  0  0  0  0  0
    2.3250    2.9520    0.0000 C   0  0  0  0  0  0  0  0  0  0  0  0
    0.8578    2.6401    0.0000 C   0  0  0  0  0  0  0  0  0  0  0  0
    0.3943    1.2135    0.0000 C   0  0  0  0  0  0  0  0  0  0  0  0
    1.2760    0.0000    0.0000 C   0  0  0  0  0  0  0  0  0  0  0  0
    0.3943   -1.2135    0.0000 C   0  0  0  0  0  0  0  0  0  0  0  0
   -1.0323   -0.7500    0.0000 C   0  0  0  0  0  0  0  0  0  0  0  0
   -1.0323    0.7500    0.0000 C   0  0  0  0  0  0  0  0  0  0  0  0
    2.7886    4.3786    0.0000 N   0  0  0  0  0  0  0  0  0  0  0  0
    4.2558    4.6904    0.0000 C   0  0  0  0  0  0  0  0  0  0  0  0
    4.8659    6.0607    0.0000 C   0  0  0  0  0  0  0  0  0  0  0  0
    6.3577    5.9040    0.0000 C   0  0  0  0  0  0  0  0  0  0  0  0
    6.6695    4.4367    0.0000 C   0  0  0  0  0  0  0  0  0  0  0  0
    5.3705    3.6867    0.0000 C   0  0  0  0  0  0  0  0  0  0  0  0
  1  2  1  0
  2  3  1  0
  3  4  1  0
  4  5  1  0
  5  6  2  0
  6  7  1  0
  7  8  1  0
  8  9  2  0
  3 10  1  0
 10 11  1  0
 11 12  2  0
 12 13  1  0
 13 14  2  0
 14 15  1  0
  9  5  1  0
 15 11  1  0
M  END
>  <Title>  (955) 
idABIUgen8

$$$$

     RDKit          2D

101101  0  0  0  0  0  0  0  0999 V2000
   25.1385    0.0000    0.0000 C   0  0  0  0  0  0  0  0  0  0  0  0
   23.6385    0.0000    0.0000 C   0  0  0  0  0  0  0  0  0  0  0  0
   23.5909    1.4992    0.0000 C   0  0  0  0  0  0  0  0  0  0  0  0
   23.4483    2.9925    0.0000 C   0  0  0  0  0  0  0  0  0  0  0  0
   23.2113    4.4736    0.0000 C   0  0  0  0  0  0  0  0  0  0  0  0
   22.8808    5.9368    0.0000 C   0  0  0  0  0  0  0  0  0  0  0  0
   22.4582    7.3760    0.0000 C   0  0  0  0  0  0  0  0  0  0  0  0
   21.9452    8.7855    0.0000 C   0  0  0  0  0  0  0  0  0  0  0  0
   21.3438   10.1597    0.0000 C   0  0  0  0  0  0  0  0  0  0  0  0
   20.6565   11.4929    0.0000 C   0  0  0  0  0  0  0  0  0  0  0  0
   19.8860   12.7799    0.0000 C   0  0  0  0  0  0  0  0  0  0  0  0
   19.0354   14.0154    0.0000 C   0  0  0  0  0  0  0  0  0  0  0  0
   18.1081   15.1945    0.0000 C   0  0  0  0  0  0  0  0  0  0  0  0
   17.1080   16.3124    0.0000 C   0  0  0  0  0  0  0  0  0  0  0  0
   16.0389   17.3646    0.0000 C   0  0  0  0  0  0  0  0  0  0  0  0
   14.9053   18.3469    0.0000 C   0  0  0  0  0  0  0  0  0  0  0  0
   13.7117   19.2553    0.0000 C   0  0  0  0  0  0  0  0  0  0  0  0
   12.4628   20.0862    0.0000 C   0  0  0  0  0  0  0  0  0  0  0  0
   11.1638   20.8362    0.0000 C   0  0  0  0  0  0  0  0  0  0  0  0
    9.8198   21.5023    0.0000 C   0  0  0  0  0  0  0  0  0  0  0  0
    8.4362   22.0818    0.0000 C   0  0  0  0  0  0  0  0  0  0  0  0
    7.0187   22.5724    0.0000 C   0  0  0  0  0  0  0  0  0  0  0  0
    5.5730   22.9721    0.0000 C   0  0  0  0  0  0  0  0  0  0  0  0
    4.1048   23.2794    0.0000 C   0  0  0  0  0  0  0  0  0  0  0  0
    2.6200   23.4928    0.0000 C   0  0  0  0  0  0  0  0  0  0  0  0
    1.1248   23.6117    0.0000 C   0  0  0  0  0  0  0  0  0  0  0  0
   -0.3750   23.6355    0.0000 C   0  0  0  0  0  0  0  0  0  0  0  0
   -1.8733   23.5641    0.0000 C   0  0  0  0  0  0  0  0  0  0  0  0
   -3.3641   23.3979    0.0000 C   0  0  0  0  0  0  0  0  0  0  0  0
   -4.8413   23.1374    0.0000 C   0  0  0  0  0  0  0  0  0  0  0  0
   -6.2990   22.7838    0.0000 C   0  0  0  0  0  0  0  0  0  0  0  0
   -7.7314   22.3384    0.0000 C   0  0  0  0  0  0  0  0  0  0  0  0
   -9.1326   21.8031    0.0000 C   0  0  0  0  0  0  0  0  0  0  0  0
  -10.4971   21.1799    0.0000 C   0  0  0  0  0  0  0  0  0  0  0  0
  -11.8192   20.4715    0.0000 C   0  0  0  0  0  0  0  0  0  0  0  0
  -13.0938   19.6807    0.0000 C   0  0  0  0  0  0  0  0  0  0  0  0
  -14.3157   18.8106    0.0000 C   0  0  0  0  0  0  0  0  0  0  0  0
  -15.4799   17.8648    0.0000 C   0  0  0  0  0  0  0  0  0  0  0  0
  -16.5818   16.8470    0.0000 C   0  0  0  0  0  0  0  0  0  0  0  0
  -17.6169   15.7614    0.0000 C   0  0  0  0  0  0  0  0  0  0  0  0
  -18.5811   14.6123    0.0000 C   0  0  0  0  0  0  0  0  0  0  0  0
  -19.4705   13.4044    0.0000 C   0  0  0  0  0  0  0  0  0  0  0  0
  -20.2814   12.1426    0.0000 C   0  0  0  0  0  0  0  0  0  0  0  0
  -21.0107   10.8318    0.0000 C   0  0  0  0  0  0  0  0  0  0  0  0
  -21.6554    9.4774    0.0000 C   0  0  0  0  0  0  0  0  0  0  0  0
  -22.2129    8.0848    0.0000 C   0  0  0  0  0  0  0  0  0  0  0  0
  -22.6810    6.6597    0.0000 C   0  0  0  0  0  0  0  0  0  0  0  0
  -23.0577    5.2078    0.0000 C   0  0  0  0  0  0  0  0  0  0  0  0
  -23.3416    3.7349    0.0000 C   0  0  0  0  0  0  0  0  0  0  0  0
  -23.5314    2.2470    0.0000 C   0  0  0  0  0  0  0  0  0  0  0  0
  -23.6266    0.7500    0.0000 C   0  0  0  0  0  0  0  0  0  0  0  0
  -23.6266   -0.7500    0.0000 C   0  0  0  0  0  0  0  0  0  0  0  0
  -23.5314   -2.2470    0.0000 C   0  0  0  0  0  0  0  0  0  0  0  0
  -23.3416   -3.7349    0.0000 C   0  0  0  0  0  0  0  0  0  0  0  0
  -23.0577   -5.2078    0.0000 C   0  0  0  0  0  0  0  0  0  0  0  0
  -22.6810   -6.6597    0.0000 C   0  0  0  0  0  0  0  0  0  0  0  0
  -22.2129   -8.0848    0.0000 C   0  0  0  0  0  0  0  0  0  0  0  0
  -21.6554   -9.4774    0.0000 C   0  0  0  0  0  0  0  0  0  0  0  0
  -21.0107  -10.8318    0.0000 C   0  0  0  0  0  0  0  0  0  0  0  0
  -20.2814  -12.1426    0.0000 C   0  0  0  0  0  0  0  0  0  0  0  0
  -19.4705  -13.4044    0.0000 C   0  0  0  0  0  0  0  0  0  0  0  0
  -18.5811  -14.6123    0.0000 C   0  0  0  0  0  0  0  0  0  0  0  0
  -17.6169  -15.7614    0.0000 C   0  0  0  0  0  0  0  0  0  0  0  0
  -16.5818  -16.8470    0.0000 C   0  0  0  0  0  0  0  0  0  0  0  0
  -15.4799  -17.8648    0.0000 C   0  0  0  0  0  0  0  0  0  0  0  0
  -14.3157  -18.8106    0.0000 C   0  0  0  0  0  0  0  0  0  0  0  0
  -13.0938  -19.6807    0.0000 C   0  0  0  0  0  0  0  0  0  0  0  0
  -11.8192  -20.4715    0.0000 C   0  0  0  0  0  0  0  0  0  0  0  0
  -10.4971  -21.1799    0.0000 C   0  0  0  0  0  0  0  0  0  0  0  0
   -9.1326  -21.8031    0.0000 C   0  0  0  0  0  0  0  0  0  0  0  0
   -7.7314  -22.3384    0.0000 C   0  0  0  0  0  0  0  0  0  0  0  0
   -6.2990  -22.7838    0.0000 C   0  0  0  0  0  0  0  0  0  0  0  0
   -4.8413  -23.1374    0.0000 C   0  0  0  0  0  0  0  0  0  0  0  0
   -3.3641  -23.3979    0.0000 C   0  0  0  0  0  0  0  0  0  0  0  0
   -1.8733  -23.5641    0.0000 C   0  0  0  0  0  0  0  0  0  0  0  0
   -0.3750  -23.6355    0.0000 C   0  0  0  0  0  0  0  0  0  0  0  0
    1.1248  -23.6117    0.0000 C   0  0  0  0  0  0  0  0  0  0  0  0
    2.6200  -23.4928    0.0000 C   0  0  0  0  0  0  0  0  0  0  0  0
    4.1048  -23.2794    0.0000 C   0  0  0  0  0  0  0  0  0  0  0  0
    5.5730  -22.9721    0.0000 C   0  0  0  0  0  0  0  0  0  0  0  0
    7.0187  -22.5724    0.0000 C   0  0  0  0  0  0  0  0  0  0  0  0
    8.4362  -22.0818    0.0000 C   0  0  0  0  0  0  0  0  0  0  0  0
    9.8198  -21.5023    0.0000 C   0  0  0  0  0  0  0  0  0  0  0  0
   11.1638  -20.8362    0.0000 C   0  0  0  0  0  0  0  0  0  0  0  0
   12.4628  -20.0862    0.0000 C   0  0  0  0  0  0  0  0  0  0  0  0
   13.7117  -19.2553    0.0000 C   0  0  0  0  0  0  0  0  0  0  0  0
   14.9053  -18.3469    0.0000 C   0  0  0  0  0  0  0  0  0  0  0  0
   16.0389  -17.3646    0.0000 C   0  0  0  0  0  0  0  0  0  0  0  0
   17.1080  -16.3124    0.0000 C   0  0  0  0  0  0  0  0  0  0  0  0
   18.1081  -15.1945    0.0000 C   0  0  0  0  0  0  0  0  0  0  0  0
   19.0354  -14.0154    0.0000 C   0  0  0  0  0  0  0  0  0  0  0  0
   19.8860  -12.7799    0.0000 C   0  0  0  0  0  0  0  0  0  0  0  0
   20.6565  -11.4929    0.0000 C   0  0  0  0  0  0  0  0  0  0  0  0
   21.3438  -10.1597    0.0000 C   0  0  0  0  0  0  0  0  0  0  0  0
   21.9452   -8.7855    0.0000 C   0  0  0  0  0  0  0  0  0  0  0  0
   22.4582   -7.3760    0.0000 C   0  0  0  0  0  0  0  0  0  0  0  0
   22.8808   -5.9368    0.0000 C   0  0  0  0  0  0  0  0  0  0  0  0
   23.2113   -4.4736    0.0000 C   0  0  0  0  0  0  0  0  0  0  0  0
   23.4483   -2.9925    0.0000 C   0  0  0  0  0  0  0  0  0  0  0  0
   23.5909   -1.4992    0.0000 C   0  0  0  0  0  0  0  0  0  0  0  0
   25.0879   -1.5944    0.0000 C   0  0  0  0  0  0  0  0  0  0  0  0
  1  2  1  0
  2  3  2  0
  3  4  1  0
  4  5  2  0
  5  6  1  0
  6  7  2  0
  7  8  1  0
  8  9  2  0
  9 10  1  0
 10 11  2  0
 11 12  1  0
 12 13  2  0
 13 14  1  0
 14 15  2  0
 15 16  1  0
 16 17  2  0
 17 18  1  0
 18 19  2  0
 19 20  1  0
 20 21  1  0
 21 22  1  0
 22 23  1  0
 23 24  1  0
 24 25  1  0
 25 26  1  0
 26 27  1  0
 27 28  1  0
 28 29  1  0
 29 30  1  0
 30 31  1  0
 31 32  1  0
 32 33  1  0
 33 34  1  0
 34 35  1  0
 35 36  1  0
 36 37  1  0
 37 38  1  0
 38 39  1  0
 39 40  1  0
 40 41  1  0
 41 42  1  0
 42 43  1  0
 43 44  1  0
 44 45  1  0
 45 46  1  0
 46 47  1  0
 47 48  1  0
 48 49  1  0
 49 50  1  0
 50 51  1  0
 51 52  1  0
 52 53  1  0
 53 54  1  0
 54 55  1  0
 55 56  1  0
 56 57  1  0
 57 58  1  0
 58 59  1  0
 59 60  1  0
 60 61  1  0
 61 62  1  0
 62 63  1  0
 63 64  1  0
 64 65  1  0
 65 66  1  0
 66 67  1  0
 67 68  1  0
 68 69  1  0
 69 70  1  0
 70 71  1  0
 71 72  1  0
 72 73  1  0
 73 74  1  0
 74 75  1  0
 75 76  1  0
 76 77  1  0
 77 78  1  0
 78 79  1  0
 79 80  1  0
 80 81  1  0
 81 82  1  0
 82 83  1  0
 83 84  1  0
 84 85  1  0
 85 86  1  0
 86 87  1  0
 87 88  1  0
 88 89  1  0
 89 90  1  0
 90 91  1  0
 91 92  1  0
 92 93  1  0
 93 94  1  0
 94 95  1  0
 95 96  1  0
 96 97  1  0
 97 98  1  0
 98 99  1  0
 99100  1  0
100101  1  0
100  2  1  0
M  END
>  <Title>  (956) 
idABIVgen8

$$$$

     RDKit          2D

 43 49  0  0  0  0  0  0  0  0999 V2000
    4.6001   -4.9005    0.0000 C   0  0  0  0  0  0  0  0  0  0  0  0
    3.1111   -4.7197    0.0000 C   0  0  0  0  0  0  0  0  0  0  0  0
    2.9303   -3.2306    0.0000 C   0  0  0  0  0  0  0  0  0  0  0  0
    2.0782   -1.9961    0.0000 C   0  0  0  0  0  0  0  0  0  0  0  0
    3.0729   -0.8734    0.0000 C   0  0  0  0  0  0  0  0  0  0  0  0
    2.5979    0.5494    0.0000 O   0  0  0  0  0  0  0  0  0  0  0  0
    4.5426   -1.1734    0.0000 N   0  0  0  0  0  0  0  0  0  0  0  0
    5.5372   -0.0506    0.0000 C   0  0  0  0  0  0  0  0  0  0  0  0
    7.0069   -0.3507    0.0000 N   0  0  0  0  0  0  0  0  0  0  0  0
    8.0016    0.7721    0.0000 N   0  0  0  0  0  0  0  0  0  0  0  0
    7.5266    2.1949    0.0000 N   0  0  0  0  0  0  0  0  0  0  0  0
    6.0569    2.4949    0.0000 N   0  0  0  0  0  0  0  0  0  0  0  0
    5.0622    1.3722    0.0000 N   0  0  0  0  0  0  0  0  0  0  0  0
    0.7500   -1.2990    0.0000 C   0  0  0  0  0  0  0  0  0  0  0  0
    1.5000    0.0000    0.0000 C   0  0  0  0  0  0  0  0  0  0  0  0
    0.7500    1.2990    0.0000 C   0  0  0  0  0  0  0  0  0  0  0  0
   -0.7500    1.2990    0.0000 C   0  0  0  0  0  0  0  0  0  0  0  0
   -1.5000    0.0000    0.0000 C   0  0  0  0  0  0  0  0  0  0  0  0
   -0.7500   -1.2990    0.0000 C   0  0  0  0  0  0  0  0  0  0  0  0
   -2.0782   -1.9961    0.0000 C   0  0  0  0  0  0  0  0  0  0  0  0
   -2.7212   -0.6409    0.0000 C   0  0  0  0  0  0  0  0  0  0  0  0
   -4.2164   -0.5202    0.0000 C   0  0  0  0  0  0  0  0  0  0  0  0
   -5.0685   -1.7547    0.0000 C   0  0  0  0  0  0  0  0  0  0  0  0
   -4.4254   -3.1099    0.0000 C   0  0  0  0  0  0  0  0  0  0  0  0
   -2.9303   -3.2306    0.0000 C   0  0  0  0  0  0  0  0  0  0  0  0
   -3.1111   -4.7197    0.0000 C   0  0  0  0  0  0  0  0  0  0  0  0
   -4.5917   -4.4790    0.0000 C   0  0  0  0  0  0  0  0  0  0  0  0
   -5.5403   -5.6410    0.0000 C   0  0  0  0  0  0  0  0  0  0  0  0
   -5.0084   -7.0435    0.0000 C   0  0  0  0  0  0  0  0  0  0  0  0
   -3.5278   -7.2841    0.0000 C   0  0  0  0  0  0  0  0  0  0  0  0
   -2.5792   -6.1222    0.0000 C   0  0  0  0  0  0  0  0  0  0  0  0
   -1.4564   -7.1169    0.0000 C   0  0  0  0  0  0  0  0  0  0  0  0
   -2.4955   -8.1987    0.0000 C   0  0  0  0  0  0  0  0  0  0  0  0
   -2.0782   -9.6395    0.0000 C   0  0  0  0  0  0  0  0  0  0  0  0
   -0.6218   -9.9984    0.0000 C   0  0  0  0  0  0  0  0  0  0  0  0
    0.4173   -8.9166    0.0000 C   0  0  0  0  0  0  0  0  0  0  0  0
   -0.0000   -7.4758    0.0000 C   0  0  0  0  0  0  0  0  0  0  0  0
    1.4564   -7.1169    0.0000 C   0  0  0  0  0  0  0  0  0  0  0  0
    1.7565   -8.5866    0.0000 C   0  0  0  0  0  0  0  0  0  0  0  0
    3.1793   -9.0616    0.0000 C   0  0  0  0  0  0  0  0  0  0  0  0
    4.3020   -8.0669    0.0000 C   0  0  0  0  0  0  0  0  0  0  0  0
    4.0020   -6.5972    0.0000 C   0  0  0  0  0  0  0  0  0  0  0  0
    2.5792   -6.1222    0.0000 C   0  0  0  0  0  0  0  0  0  0  0  0
  1  2  1  0
  2  3  2  0
  3  4  1  0
  4  5  1  0
  5  6  2  0
  5  7  1  0
  7  8  1  0
  8  9  2  0
  9 10  1  0
 10 11  2  0
 11 12  1  0
 12 13  2  0
  4 14  1  0
 14 15  2  0
 15 16  1  0
 16 17  2  0
 17 18  1  0
 18 19  2  0
 19 20  1  0
 20 21  2  0
 21 22  1  0
 22 23  2  0
 23 24  1  0
 24 25  2  0
 25 26  1  0
 26 27  2  0
 27 28  1  0
 28 29  2  0
 29 30  1  0
 30 31  2  0
 31 32  1  0
 32 33  2  0
 33 34  1  0
 34 35  2  0
 35 36  1  0
 36 37  2  0
 37 38  1  0
 38 39  2  0
 39 40  1  0
 40 41  2  0
 41 42  1  0
 42 43  2  0
 43  2  1  0
 13  8  1  0
 19 14  1  0
 25 20  1  0
 31 26  1  0
 37 32  1  0
 43 38  1  0
M  END
>  <Title>  (957) 
idABIWgen8

$$$$

     RDKit          2D

 27 29  0  0  0  0  0  0  0  0999 V2000
    3.0000    0.0000    0.0000 C   0  0  0  0  0  0  0  0  0  0  0  0
    1.5000    0.0000    0.0000 C   0  0  0  0  0  0  0  0  0  0  0  0
    0.7500   -1.2990    0.0000 C   0  0  0  0  0  0  0  0  0  0  0  0
   -0.7500   -1.2990    0.0000 C   0  0  0  0  0  0  0  0  0  0  0  0
   -1.5000    0.0000    0.0000 C   0  0  0  0  0  0  0  0  0  0  0  0
   -3.0000    0.0000    0.0000 O   0  0  0  0  0  0  0  0  0  0  0  0
   -3.7500    1.2990    0.0000 C   0  0  0  0  0  0  0  0  0  0  0  0
   -3.0000    2.5981    0.0000 C   0  0  0  0  0  0  0  0  0  0  0  0
   -1.5000    2.5981    0.0000 O   0  0  0  0  0  0  0  0  0  0  0  0
   -3.7500    3.8971    0.0000 O   0  0  0  0  0  0  0  0  0  0  0  0
   -5.2500    1.2990    0.0000 C   0  0  0  0  0  0  0  0  0  0  0  0
   -6.1317    0.0855    0.0000 C   0  0  0  0  0  0  0  0  0  0  0  0
   -7.5583    0.5490    0.0000 C   0  0  0  0  0  0  0  0  0  0  0  0
   -7.5583    2.0490    0.0000 N   0  0  0  0  0  0  0  0  0  0  0  0
   -8.7718    2.9307    0.0000 C   0  0  0  0  0  0  0  0  0  0  0  0
  -10.1421    2.3206    0.0000 O   0  0  0  0  0  0  0  0  0  0  0  0
   -8.6150    4.4225    0.0000 C   0  0  0  0  0  0  0  0  0  0  0  0
   -9.8285    5.3042    0.0000 C   0  0  0  0  0  0  0  0  0  0  0  0
   -9.6717    6.7960    0.0000 C   0  0  0  0  0  0  0  0  0  0  0  0
   -8.3014    7.4061    0.0000 N   0  0  0  0  0  0  0  0  0  0  0  0
   -8.1446    8.8978    0.0000 N   0  0  0  0  0  0  0  0  0  0  0  0
   -9.3581    9.7795    0.0000 N   0  0  0  0  0  0  0  0  0  0  0  0
  -10.7285    9.1694    0.0000 N   0  0  0  0  0  0  0  0  0  0  0  0
  -10.8853    7.6776    0.0000 N   0  0  0  0  0  0  0  0  0  0  0  0
   -6.1317    2.5126    0.0000 C   0  0  0  0  0  0  0  0  0  0  0  0
   -0.7500    1.2990    0.0000 C   0  0  0  0  0  0  0  0  0  0  0  0
    0.7500    1.2990    0.0000 C   0  0  0  0  0  0  0  0  0  0  0  0
  1  2  1  0
  2  3  2  0
  3  4  1  0
  4  5  2  0
  5  6  1  0
  6  7  1  0
  7  8  1  0
  8  9  2  0
  8 10  1  0
  7 11  1  0
 11 12  1  0
 12 13  1  0
 13 14  1  0
 14 15  1  0
 15 16  2  0
 15 17  1  0
 17 18  1  0
 18 19  1  0
 19 20  2  0
 20 21  1  0
 21 22  2  0
 22 23  1  0
 23 24  2  0
 14 25  1  0
  5 26  1  0
 26 27  2  0
 27  2  1  0
 25 11  1  0
 24 19  1  0
M  END
>  <Title>  (958) 
idABIXgen8

$$$$

     RDKit          2D

 33 33  0  0  0  0  0  0  0  0999 V2000
    7.8901    0.0000    0.0000 C   0  0  0  0  0  0  0  0  0  0  0  0
    7.7475    1.4932    0.0000 C   0  0  0  0  0  0  0  0  0  0  0  0
    7.3249    2.9324    0.0000 C   0  0  0  0  0  0  0  0  0  0  0  0
    6.6376    4.2657    0.0000 C   0  0  0  0  0  0  0  0  0  0  0  0
    5.7103    5.4448    0.0000 C   0  0  0  0  0  0  0  0  0  0  0  0
    4.5767    6.4271    0.0000 C   0  0  0  0  0  0  0  0  0  0  0  0
    3.2777    7.1771    0.0000 C   0  0  0  0  0  0  0  0  0  0  0  0
    1.8602    7.6677    0.0000 C   0  0  0  0  0  0  0  0  0  0  0  0
    0.3754    7.8811    0.0000 C   0  0  0  0  0  0  0  0  0  0  0  0
   -1.1229    7.8098    0.0000 C   0  0  0  0  0  0  0  0  0  0  0  0
   -2.5806    7.4561    0.0000 C   0  0  0  0  0  0  0  0  0  0  0  0
   -3.9450    6.8330    0.0000 C   0  0  0  0  0  0  0  0  0  0  0  0
   -5.1669    5.9629    0.0000 C   0  0  0  0  0  0  0  0  0  0  0  0
   -6.2020    4.8773    0.0000 C   0  0  0  0  0  0  0  0  0  0  0  0
   -7.0130    3.6154    0.0000 C   0  0  0  0  0  0  0  0  0  0  0  0
   -7.5705    2.2229    0.0000 C   0  0  0  0  0  0  0  0  0  0  0  0
   -7.8544    0.7500    0.0000 C   0  0  0  0  0  0  0  0  0  0  0  0
   -7.8544   -0.7500    0.0000 C   0  0  0  0  0  0  0  0  0  0  0  0
   -7.5705   -2.2229    0.0000 C   0  0  0  0  0  0  0  0  0  0  0  0
   -7.0130   -3.6154    0.0000 C   0  0  0  0  0  0  0  0  0  0  0  0
   -6.2020   -4.8773    0.0000 C   0  0  0  0  0  0  0  0  0  0  0  0
   -5.1669   -5.9629    0.0000 C   0  0  0  0  0  0  0  0  0  0  0  0
   -3.9450   -6.8330    0.0000 C   0  0  0  0  0  0  0  0  0  0  0  0
   -2.5806   -7.4561    0.0000 C   0  0  0  0  0  0  0  0  0  0  0  0
   -1.1229   -7.8098    0.0000 C   0  0  0  0  0  0  0  0  0  0  0  0
    0.3754   -7.8811    0.0000 C   0  0  0  0  0  0  0  0  0  0  0  0
    1.8602   -7.6677    0.0000 C   0  0  0  0  0  0  0  0  0  0  0  0
    3.2777   -7.1771    0.0000 C   0  0  0  0  0  0  0  0  0  0  0  0
    4.5767   -6.4271    0.0000 C   0  0  0  0  0  0  0  0  0  0  0  0
    5.7103   -5.4448    0.0000 C   0  0  0  0  0  0  0  0  0  0  0  0
    6.6376   -4.2657    0.0000 C   0  0  0  0  0  0  0  0  0  0  0  0
    7.3249   -2.9324    0.0000 C   0  0  0  0  0  0  0  0  0  0  0  0
    7.7475   -1.4932    0.0000 C   0  0  0  0  0  0  0  0  0  0  0  0
  1  2  1  0
  2  3  1  0
  3  4  1  0
  4  5  1  0
  5  6  1  0
  6  7  1  0
  7  8  1  0
  8  9  1  0
  9 10  1  0
 10 11  1  0
 11 12  1  0
 12 13  1  0
 13 14  1  0
 14 15  1  0
 15 16  1  0
 16 17  1  0
 17 18  1  0
 18 19  1  0
 19 20  1  0
 20 21  1  0
 21 22  1  0
 22 23  1  0
 23 24  1  0
 24 25  1  0
 25 26  1  0
 26 27  1  0
 27 28  1  0
 28 29  1  0
 29 30  1  0
 30 31  1  0
 31 32  1  0
 32 33  1  0
 33  1  1  0
M  END
>  <Title>  (959) 
idABIYgen8

$$$$

     RDKit          2D

 13 13  0  0  0  0  0  0  0  0999 V2000
    3.4598   -0.0000    0.0000 C   0  0  0  0  0  0  0  0  0  0  0  0
    1.9598    0.0000    0.0000 C   0  0  0  0  0  0  0  0  0  0  0  0
    1.3858   -1.3858    0.0000 C   0  0  0  0  0  0  0  0  0  0  0  0
   -0.0000   -1.9598    0.0000 C   0  0  0  0  0  0  0  0  0  0  0  0
   -1.3858   -1.3858    0.0000 C   0  0  0  0  0  0  0  0  0  0  0  0
   -2.4465   -2.4465    0.0000 O   0  0  0  0  0  0  0  0  0  0  0  0
   -1.9598    0.0000    0.0000 C   0  0  0  0  0  0  0  0  0  0  0  0
   -3.4598    0.0000    0.0000 O   0  0  0  0  0  0  0  0  0  0  0  0
   -1.3858    1.3858    0.0000 C   0  0  0  0  0  0  0  0  0  0  0  0
   -2.4465    2.4465    0.0000 O   0  0  0  0  0  0  0  0  0  0  0  0
    0.0000    1.9598    0.0000 C   0  0  0  0  0  0  0  0  0  0  0  0
    0.0000    3.4598    0.0000 O   0  0  0  0  0  0  0  0  0  0  0  0
    1.3858    1.3858    0.0000 C   0  0  0  0  0  0  0  0  0  0  0  0
  1  2  1  0
  2  3  2  0
  3  4  1  0
  4  5  1  0
  5  6  1  0
  5  7  1  0
  7  8  1  0
  7  9  1  0
  9 10  1  0
  9 11  1  0
 11 12  2  0
 11 13  1  0
 13  2  1  0
M  END
>  <Title>  (960) 
idABIZgen8

$$$$

     RDKit          2D

 11 11  0  0  0  0  0  0  0  0999 V2000
    7.2760   -2.5981    0.0000 C   0  0  0  0  0  0  0  0  0  0  0  0
    5.7760   -2.5981    0.0000 C   0  0  0  0  0  0  0  0  0  0  0  0
    5.0260   -1.2990    0.0000 C   0  0  0  0  0  0  0  0  0  0  0  0
    3.5260   -1.2990    0.0000 C   0  0  0  0  0  0  0  0  0  0  0  0
    2.7760   -2.5981    0.0000 O   0  0  0  0  0  0  0  0  0  0  0  0
    2.7760    0.0000    0.0000 N   0  0  0  0  0  0  0  0  0  0  0  0
    1.2760    0.0000    0.0000 C   0  0  0  0  0  0  0  0  0  0  0  0
    0.3943    1.2135    0.0000 C   0  0  0  0  0  0  0  0  0  0  0  0
   -1.0323    0.7500    0.0000 C   0  0  0  0  0  0  0  0  0  0  0  0
   -1.0323   -0.7500    0.0000 C   0  0  0  0  0  0  0  0  0  0  0  0
    0.3943   -1.2135    0.0000 C   0  0  0  0  0  0  0  0  0  0  0  0
  1  2  1  0
  2  3  2  3
  3  4  1  0
  4  5  2  0
  4  6  1  0
  6  7  1  0
  7  8  2  0
  8  9  1  0
  9 10  2  0
 10 11  1  0
 11  7  1  0
M  END
>  <Title>  (961) 
idABJAgen8

$$$$

     RDKit          2D

 15 16  0  0  0  0  0  0  0  0999 V2000
    1.8478   -9.0619    0.0000 C   0  0  0  0  0  0  0  0  0  0  0  0
    2.0046   -7.5702    0.0000 C   0  0  0  0  0  0  0  0  0  0  0  0
    3.3037   -6.8202    0.0000 C   0  0  0  0  0  0  0  0  0  0  0  0
    2.9918   -5.3529    0.0000 C   0  0  0  0  0  0  0  0  0  0  0  0
    1.5000   -5.1962    0.0000 C   0  0  0  0  0  0  0  0  0  0  0  0
    0.7500   -3.8971    0.0000 C   0  0  0  0  0  0  0  0  0  0  0  0
   -0.7500   -3.8971    0.0000 O   0  0  0  0  0  0  0  0  0  0  0  0
    1.5000   -2.5981    0.0000 O   0  0  0  0  0  0  0  0  0  0  0  0
    0.7500   -1.2990    0.0000 C   0  0  0  0  0  0  0  0  0  0  0  0
    1.5000    0.0000    0.0000 N   0  0  0  0  0  0  0  0  0  0  0  0
    0.7500    1.2990    0.0000 N   0  0  0  0  0  0  0  0  0  0  0  0
   -0.7500    1.2990    0.0000 N   0  0  0  0  0  0  0  0  0  0  0  0
   -1.5000    0.0000    0.0000 N   0  0  0  0  0  0  0  0  0  0  0  0
   -0.7500   -1.2990    0.0000 N   0  0  0  0  0  0  0  0  0  0  0  0
    0.8899   -6.5665    0.0000 C   0  0  0  0  0  0  0  0  0  0  0  0
  1  2  1  0
  2  3  1  0
  3  4  1  0
  4  5  1  0
  5  6  1  0
  6  7  2  0
  6  8  1  0
  8  9  1  0
  9 10  2  0
 10 11  1  0
 11 12  2  0
 12 13  1  0
 13 14  2  0
  5 15  1  0
 15  2  1  0
 14  9  1  0
M  END
>  <Title>  (962) 
idABJBgen8

$$$$

     RDKit          2D

 36 40  0  0  0  0  0  0  0  0999 V2000
   -4.2338   -8.2890    0.0000 C   0  0  0  0  0  0  0  0  0  0  0  0
   -3.0203   -7.4073    0.0000 C   0  0  0  0  0  0  0  0  0  0  0  0
   -3.1771   -5.9156    0.0000 C   0  0  0  0  0  0  0  0  0  0  0  0
   -1.9635   -5.0339    0.0000 C   0  0  0  0  0  0  0  0  0  0  0  0
   -0.7500   -5.9156    0.0000 C   0  0  0  0  0  0  0  0  0  0  0  0
    0.7500   -5.9156    0.0000 C   0  0  0  0  0  0  0  0  0  0  0  0
    1.9635   -5.0339    0.0000 C   0  0  0  0  0  0  0  0  0  0  0  0
    3.1771   -5.9156    0.0000 C   0  0  0  0  0  0  0  0  0  0  0  0
    4.5474   -5.3055    0.0000 O   0  0  0  0  0  0  0  0  0  0  0  0
    3.0203   -7.4073    0.0000 N   0  0  0  0  0  0  0  0  0  0  0  0
    4.2338   -8.2890    0.0000 C   0  0  0  0  0  0  0  0  0  0  0  0
    4.0770   -9.7808    0.0000 N   0  0  0  0  0  0  0  0  0  0  0  0
    5.2905  -10.6625    0.0000 N   0  0  0  0  0  0  0  0  0  0  0  0
    6.6608  -10.0524    0.0000 N   0  0  0  0  0  0  0  0  0  0  0  0
    6.8176   -8.5606    0.0000 N   0  0  0  0  0  0  0  0  0  0  0  0
    5.6041   -7.6789    0.0000 N   0  0  0  0  0  0  0  0  0  0  0  0
    2.4271   -3.6073    0.0000 C   0  0  0  0  0  0  0  0  0  0  0  0
    3.8943   -3.9192    0.0000 C   0  0  0  0  0  0  0  0  0  0  0  0
    4.8980   -2.8045    0.0000 C   0  0  0  0  0  0  0  0  0  0  0  0
    4.4344   -1.3779    0.0000 C   0  0  0  0  0  0  0  0  0  0  0  0
    5.4381   -0.2631    0.0000 C   0  0  0  0  0  0  0  0  0  0  0  0
    6.4418    0.8516    0.0000 N   0  0  0  0  0  0  0  0  0  0  0  0
    2.9672   -1.0660    0.0000 C   0  0  0  0  0  0  0  0  0  0  0  0
    1.9635   -2.1807    0.0000 C   0  0  0  0  0  0  0  0  0  0  0  0
    0.7500   -1.2990    0.0000 C   0  0  0  0  0  0  0  0  0  0  0  0
    1.5000    0.0000    0.0000 C   0  0  0  0  0  0  0  0  0  0  0  0
    0.7500    1.2990    0.0000 C   0  0  0  0  0  0  0  0  0  0  0  0
   -0.7500    1.2990    0.0000 C   0  0  0  0  0  0  0  0  0  0  0  0
   -1.5000    0.0000    0.0000 C   0  0  0  0  0  0  0  0  0  0  0  0
   -0.7500   -1.2990    0.0000 C   0  0  0  0  0  0  0  0  0  0  0  0
   -1.9635   -2.1807    0.0000 C   0  0  0  0  0  0  0  0  0  0  0  0
   -2.9672   -1.0660    0.0000 C   0  0  0  0  0  0  0  0  0  0  0  0
   -4.4344   -1.3779    0.0000 C   0  0  0  0  0  0  0  0  0  0  0  0
   -4.8980   -2.8045    0.0000 C   0  0  0  0  0  0  0  0  0  0  0  0
   -3.8943   -3.9192    0.0000 C   0  0  0  0  0  0  0  0  0  0  0  0
   -2.4271   -3.6073    0.0000 C   0  0  0  0  0  0  0  0  0  0  0  0
  1  2  1  0
  2  3  1  0
  3  4  1  0
  4  5  1  0
  5  6  1  0
  6  7  1  0
  7  8  1  0
  8  9  2  0
  8 10  1  0
 10 11  1  0
 11 12  2  0
 12 13  1  0
 13 14  2  0
 14 15  1  0
 15 16  2  0
  7 17  1  0
 17 18  2  0
 18 19  1  0
 19 20  2  0
 20 21  1  0
 21 22  3  0
 20 23  1  0
 23 24  2  0
 24 25  1  0
 25 26  2  0
 26 27  1  0
 27 28  2  0
 28 29  1  0
 29 30  2  0
 30 31  1  0
 31 32  2  0
 32 33  1  0
 33 34  2  0
 34 35  1  0
 35 36  2  0
 36  4  1  0
 16 11  1  0
 24 17  1  0
 30 25  1  0
 36 31  1  0
M  END
>  <Title>  (963) 
idABJCgen8

$$$$

     RDKit          2D

 10 10  0  0  0  0  0  0  0  0999 V2000
    3.1935   -3.4746    0.0000 C   0  0  0  0  0  0  0  0  0  0  0  0
    2.0788   -2.4709    0.0000 C   0  0  0  0  0  0  0  0  0  0  0  0
    2.3907   -1.0037    0.0000 C   0  0  0  0  0  0  0  0  0  0  0  0
    1.2760    0.0000    0.0000 C   0  0  0  0  0  0  0  0  0  0  0  0
    2.3907    1.0037    0.0000 C   0  0  0  0  0  0  0  0  0  0  0  0
    0.3943    1.2135    0.0000 C   0  0  0  0  0  0  0  0  0  0  0  0
   -1.0323    0.7500    0.0000 C   0  0  0  0  0  0  0  0  0  0  0  0
   -1.0323   -0.7500    0.0000 C   0  0  0  0  0  0  0  0  0  0  0  0
    0.3943   -1.2135    0.0000 C   0  0  0  0  0  0  0  0  0  0  0  0
    0.8578   -2.6401    0.0000 O   0  0  0  0  0  0  0  0  0  0  0  0
  1  2  1  0
  2  3  1  0
  3  4  1  0
  4  5  1  0
  4  6  1  0
  6  7  1  0
  7  8  1  0
  8  9  1  0
  9 10  1  0
  9  4  1  0
M  END
>  <Title>  (964) 
idABJDgen8

$$$$

     RDKit          2D

  7  6  0  0  0  0  0  0  0  0999 V2000
    0.0000    0.0000    0.0000 C   0  0  0  0  0  0  0  0  0  0  0  0
    1.2990    0.7500    0.0000 C   0  0  0  0  0  0  0  0  0  0  0  0
    2.5981    1.5000    0.0000 C   0  0  0  0  0  0  0  0  0  0  0  0
    3.8971    2.2500    0.0000 C   0  0  0  0  0  0  0  0  0  0  0  0
    5.1962    1.5000    0.0000 C   0  0  0  0  0  0  0  0  0  0  0  0
    3.8971    3.7500    0.0000 C   0  0  0  0  0  0  0  0  0  0  0  0
    5.1962    4.5000    0.0000 C   0  0  0  0  0  0  0  0  0  0  0  0
  1  2  1  0
  2  3  3  0
  3  4  1  0
  4  5  1  0
  4  6  1  0
  6  7  1  0
M  END
>  <Title>  (965) 
idABJEgen8

$$$$

     RDKit          2D

 13 13  0  0  0  0  0  0  0  0999 V2000
    8.0260   -1.2990    0.0000 C   0  0  0  0  0  0  0  0  0  0  0  0
    6.5260   -1.2990    0.0000 C   0  0  0  0  0  0  0  0  0  0  0  0
    5.0260   -1.2990    0.0000 C   0  0  0  0  0  0  0  0  0  0  0  0
    3.5260   -1.2990    0.0000 C   0  0  0  0  0  0  0  0  0  0  0  0
    2.7760   -2.5981    0.0000 O   0  0  0  0  0  0  0  0  0  0  0  0
    2.7760    0.0000    0.0000 N   0  0  0  0  0  0  0  0  0  0  0  0
    1.2760    0.0000    0.0000 C   0  0  0  0  0  0  0  0  0  0  0  0
    0.3943    1.2135    0.0000 C   0  0  0  0  0  0  0  0  0  0  0  0
   -1.0323    0.7500    0.0000 C   0  0  0  0  0  0  0  0  0  0  0  0
   -1.0323   -0.7500    0.0000 C   0  0  0  0  0  0  0  0  0  0  0  0
   -2.2458   -1.6317    0.0000 C   0  0  0  0  0  0  0  0  0  0  0  0
   -3.4593   -2.5134    0.0000 N   0  0  0  0  0  0  0  0  0  0  0  0
    0.3943   -1.2135    0.0000 C   0  0  0  0  0  0  0  0  0  0  0  0
  1  2  1  0
  2  3  3  0
  3  4  1  0
  4  5  2  0
  4  6  1  0
  6  7  1  0
  7  8  2  0
  8  9  1  0
  9 10  1  0
 10 11  1  0
 11 12  3  0
 10 13  1  0
 13  7  1  0
M  END
>  <Title>  (966) 
idABJFgen8

$$$$

     RDKit          2D

 10 10  0  0  0  0  0  0  0  0999 V2000
    4.5000    0.0000    0.0000 C   0  0  0  0  0  0  0  0  0  0  0  0
    3.0000    0.0000    0.0000 C   0  0  0  0  0  0  0  0  0  0  0  0
    1.5000    0.0000    0.0000 C   0  0  0  0  0  0  0  0  0  0  0  0
    0.7500   -1.2990    0.0000 C   0  0  0  0  0  0  0  0  0  0  0  0
   -0.7500   -1.2990    0.0000 C   0  0  0  0  0  0  0  0  0  0  0  0
   -1.5000   -2.5981    0.0000 C   0  0  0  0  0  0  0  0  0  0  0  0
   -2.2500   -3.8971    0.0000 N   0  0  0  0  0  0  0  0  0  0  0  0
   -1.5000    0.0000    0.0000 C   0  0  0  0  0  0  0  0  0  0  0  0
   -0.7500    1.2990    0.0000 C   0  0  0  0  0  0  0  0  0  0  0  0
    0.7500    1.2990    0.0000 C   0  0  0  0  0  0  0  0  0  0  0  0
  1  2  3  0
  2  3  1  0
  3  4  2  0
  4  5  1  0
  5  6  1  0
  6  7  3  0
  5  8  1  0
  8  9  2  0
  9 10  1  0
 10  3  1  0
M  END
>  <Title>  (967) 
idABJGgen8

$$$$

     RDKit          2D

 10 10  0  0  0  0  0  0  0  0999 V2000
    4.9320    1.5439    0.0000 C   0  0  0  0  0  0  0  0  0  0  0  0
    3.8173    0.5402    0.0000 C   0  0  0  0  0  0  0  0  0  0  0  0
    2.3907    1.0037    0.0000 C   0  0  0  0  0  0  0  0  0  0  0  0
    1.2760    0.0000    0.0000 C   0  0  0  0  0  0  0  0  0  0  0  0
    2.3907   -1.0037    0.0000 O   0  0  0  0  0  0  0  0  0  0  0  0
    0.3943    1.2135    0.0000 C   0  0  0  0  0  0  0  0  0  0  0  0
   -1.0323    0.7500    0.0000 C   0  0  0  0  0  0  0  0  0  0  0  0
   -1.0323   -0.7500    0.0000 C   0  0  0  0  0  0  0  0  0  0  0  0
   -2.2458   -1.6317    0.0000 O   0  0  0  0  0  0  0  0  0  0  0  0
    0.3943   -1.2135    0.0000 C   0  0  0  0  0  0  0  0  0  0  0  0
  1  2  1  0
  2  3  1  0
  3  4  1  0
  4  5  1  0
  4  6  1  0
  6  7  2  0
  7  8  1  0
  8  9  1  0
  8 10  1  0
 10  4  1  0
M  END
>  <Title>  (968) 
idABJHgen8

$$$$

     RDKit          2D

  8  8  0  0  0  0  0  0  0  0999 V2000
    2.7760    0.0000    0.0000 C   0  0  0  0  0  0  0  0  0  0  0  0
    1.2760    0.0000    0.0000 C   0  0  0  0  0  0  0  0  0  0  0  0
    0.3943    1.2135    0.0000 C   0  0  0  0  0  0  0  0  0  0  0  0
   -1.0323    0.7500    0.0000 C   0  0  0  0  0  0  0  0  0  0  0  0
   -1.0323   -0.7500    0.0000 C   0  0  0  0  0  0  0  0  0  0  0  0
   -2.2458   -1.6317    0.0000 C   0  0  0  0  0  0  0  0  0  0  0  0
    0.3943   -1.2135    0.0000 C   0  0  0  0  0  0  0  0  0  0  0  0
    0.8578   -2.6401    0.0000 O   0  0  0  0  0  0  0  0  0  0  0  0
  1  2  1  0
  2  3  2  0
  3  4  1  0
  4  5  1  0
  5  6  1  0
  5  7  2  0
  7  8  1  0
  7  2  1  0
M  END
>  <Title>  (969) 
idABJIgen8

$$$$

     RDKit          2D

 81 81  0  0  0  0  0  0  0  0999 V2000
   20.6035    0.0000    0.0000 C   0  0  0  0  0  0  0  0  0  0  0  0
   19.1035    0.0000    0.0000 C   0  0  0  0  0  0  0  0  0  0  0  0
   19.0446   -1.4988    0.0000 C   0  0  0  0  0  0  0  0  0  0  0  0
   18.8683   -2.9884    0.0000 C   0  0  0  0  0  0  0  0  0  0  0  0
   18.5757   -4.4596    0.0000 C   0  0  0  0  0  0  0  0  0  0  0  0
   18.1685   -5.9033    0.0000 C   0  0  0  0  0  0  0  0  0  0  0  0
   17.6493   -7.3106    0.0000 C   0  0  0  0  0  0  0  0  0  0  0  0
   17.0213   -8.6728    0.0000 C   0  0  0  0  0  0  0  0  0  0  0  0
   16.2884   -9.9816    0.0000 C   0  0  0  0  0  0  0  0  0  0  0  0
   15.4551  -11.2288    0.0000 C   0  0  0  0  0  0  0  0  0  0  0  0
   14.5264  -12.4067    0.0000 C   0  0  0  0  0  0  0  0  0  0  0  0
   13.5082  -13.5082    0.0000 C   0  0  0  0  0  0  0  0  0  0  0  0
   12.4067  -14.5264    0.0000 C   0  0  0  0  0  0  0  0  0  0  0  0
   11.2288  -15.4551    0.0000 C   0  0  0  0  0  0  0  0  0  0  0  0
    9.9816  -16.2884    0.0000 C   0  0  0  0  0  0  0  0  0  0  0  0
    8.6728  -17.0213    0.0000 C   0  0  0  0  0  0  0  0  0  0  0  0
    7.3106  -17.6493    0.0000 C   0  0  0  0  0  0  0  0  0  0  0  0
    5.9033  -18.1685    0.0000 C   0  0  0  0  0  0  0  0  0  0  0  0
    4.4596  -18.5757    0.0000 C   0  0  0  0  0  0  0  0  0  0  0  0
    2.9884  -18.8683    0.0000 C   0  0  0  0  0  0  0  0  0  0  0  0
    1.4988  -19.0446    0.0000 C   0  0  0  0  0  0  0  0  0  0  0  0
   -0.0000  -19.1035    0.0000 C   0  0  0  0  0  0  0  0  0  0  0  0
   -1.4988  -19.0446    0.0000 C   0  0  0  0  0  0  0  0  0  0  0  0
   -2.9884  -18.8683    0.0000 C   0  0  0  0  0  0  0  0  0  0  0  0
   -4.4596  -18.5757    0.0000 C   0  0  0  0  0  0  0  0  0  0  0  0
   -5.9033  -18.1685    0.0000 C   0  0  0  0  0  0  0  0  0  0  0  0
   -7.3106  -17.6493    0.0000 C   0  0  0  0  0  0  0  0  0  0  0  0
   -8.6728  -17.0213    0.0000 C   0  0  0  0  0  0  0  0  0  0  0  0
   -9.9816  -16.2884    0.0000 C   0  0  0  0  0  0  0  0  0  0  0  0
  -11.2288  -15.4551    0.0000 C   0  0  0  0  0  0  0  0  0  0  0  0
  -12.4067  -14.5264    0.0000 C   0  0  0  0  0  0  0  0  0  0  0  0
  -13.5082  -13.5082    0.0000 C   0  0  0  0  0  0  0  0  0  0  0  0
  -14.5264  -12.4067    0.0000 C   0  0  0  0  0  0  0  0  0  0  0  0
  -15.4551  -11.2288    0.0000 C   0  0  0  0  0  0  0  0  0  0  0  0
  -16.2884   -9.9816    0.0000 C   0  0  0  0  0  0  0  0  0  0  0  0
  -17.0213   -8.6728    0.0000 C   0  0  0  0  0  0  0  0  0  0  0  0
  -17.6493   -7.3106    0.0000 C   0  0  0  0  0  0  0  0  0  0  0  0
  -18.1685   -5.9033    0.0000 C   0  0  0  0  0  0  0  0  0  0  0  0
  -18.5757   -4.4596    0.0000 C   0  0  0  0  0  0  0  0  0  0  0  0
  -18.8683   -2.9884    0.0000 C   0  0  0  0  0  0  0  0  0  0  0  0
  -19.0446   -1.4988    0.0000 C   0  0  0  0  0  0  0  0  0  0  0  0
  -19.1035    0.0000    0.0000 C   0  0  0  0  0  0  0  0  0  0  0  0
  -19.0446    1.4988    0.0000 C   0  0  0  0  0  0  0  0  0  0  0  0
  -18.8683    2.9884    0.0000 C   0  0  0  0  0  0  0  0  0  0  0  0
  -18.5757    4.4596    0.0000 C   0  0  0  0  0  0  0  0  0  0  0  0
  -18.1685    5.9033    0.0000 C   0  0  0  0  0  0  0  0  0  0  0  0
  -17.6493    7.3106    0.0000 C   0  0  0  0  0  0  0  0  0  0  0  0
  -17.0213    8.6728    0.0000 C   0  0  0  0  0  0  0  0  0  0  0  0
  -16.2884    9.9816    0.0000 C   0  0  0  0  0  0  0  0  0  0  0  0
  -15.4551   11.2288    0.0000 C   0  0  0  0  0  0  0  0  0  0  0  0
  -14.5264   12.4067    0.0000 C   0  0  0  0  0  0  0  0  0  0  0  0
  -13.5082   13.5082    0.0000 C   0  0  0  0  0  0  0  0  0  0  0  0
  -12.4067   14.5264    0.0000 C   0  0  0  0  0  0  0  0  0  0  0  0
  -11.2288   15.4551    0.0000 C   0  0  0  0  0  0  0  0  0  0  0  0
   -9.9816   16.2884    0.0000 C   0  0  0  0  0  0  0  0  0  0  0  0
   -8.6728   17.0213    0.0000 C   0  0  0  0  0  0  0  0  0  0  0  0
   -7.3106   17.6493    0.0000 C   0  0  0  0  0  0  0  0  0  0  0  0
   -5.9033   18.1685    0.0000 C   0  0  0  0  0  0  0  0  0  0  0  0
   -4.4596   18.5757    0.0000 C   0  0  0  0  0  0  0  0  0  0  0  0
   -2.9884   18.8683    0.0000 C   0  0  0  0  0  0  0  0  0  0  0  0
   -1.4988   19.0446    0.0000 C   0  0  0  0  0  0  0  0  0  0  0  0
    0.0000   19.1035    0.0000 C   0  0  0  0  0  0  0  0  0  0  0  0
    1.4988   19.0446    0.0000 C   0  0  0  0  0  0  0  0  0  0  0  0
    2.9884   18.8683    0.0000 C   0  0  0  0  0  0  0  0  0  0  0  0
    4.4596   18.5757    0.0000 C   0  0  0  0  0  0  0  0  0  0  0  0
    5.9033   18.1685    0.0000 C   0  0  0  0  0  0  0  0  0  0  0  0
    7.3106   17.6493    0.0000 C   0  0  0  0  0  0  0  0  0  0  0  0
    8.6728   17.0213    0.0000 C   0  0  0  0  0  0  0  0  0  0  0  0
    9.9816   16.2884    0.0000 C   0  0  0  0  0  0  0  0  0  0  0  0
   11.2288   15.4551    0.0000 C   0  0  0  0  0  0  0  0  0  0  0  0
   12.4067   14.5264    0.0000 C   0  0  0  0  0  0  0  0  0  0  0  0
   13.5082   13.5082    0.0000 C   0  0  0  0  0  0  0  0  0  0  0  0
   14.5264   12.4067    0.0000 C   0  0  0  0  0  0  0  0  0  0  0  0
   15.4551   11.2288    0.0000 C   0  0  0  0  0  0  0  0  0  0  0  0
   16.2884    9.9816    0.0000 C   0  0  0  0  0  0  0  0  0  0  0  0
   17.0213    8.6728    0.0000 C   0  0  0  0  0  0  0  0  0  0  0  0
   17.6493    7.3106    0.0000 C   0  0  0  0  0  0  0  0  0  0  0  0
   18.1685    5.9033    0.0000 C   0  0  0  0  0  0  0  0  0  0  0  0
   18.5757    4.4596    0.0000 C   0  0  0  0  0  0  0  0  0  0  0  0
   18.8683    2.9884    0.0000 C   0  0  0  0  0  0  0  0  0  0  0  0
   19.0446    1.4988    0.0000 C   0  0  0  0  0  0  0  0  0  0  0  0
  1  2  1  0
  2  3  2  0
  3  4  1  0
  4  5  1  0
  5  6  1  0
  6  7  1  0
  7  8  1  0
  8  9  1  0
  9 10  1  0
 10 11  1  0
 11 12  1  0
 12 13  1  0
 13 14  1  0
 14 15  1  0
 15 16  1  0
 16 17  1  0
 17 18  1  0
 18 19  1  0
 19 20  1  0
 20 21  1  0
 21 22  1  0
 22 23  1  0
 23 24  1  0
 24 25  1  0
 25 26  1  0
 26 27  1  0
 27 28  1  0
 28 29  1  0
 29 30  1  0
 30 31  1  0
 31 32  1  0
 32 33  1  0
 33 34  1  0
 34 35  1  0
 35 36  1  0
 36 37  1  0
 37 38  1  0
 38 39  1  0
 39 40  1  0
 40 41  1  0
 41 42  1  0
 42 43  1  0
 43 44  1  0
 44 45  1  0
 45 46  1  0
 46 47  1  0
 47 48  1  0
 48 49  1  0
 49 50  1  0
 50 51  1  0
 51 52  1  0
 52 53  1  0
 53 54  1  0
 54 55  1  0
 55 56  1  0
 56 57  1  0
 57 58  1  0
 58 59  1  0
 59 60  1  0
 60 61  1  0
 61 62  1  0
 62 63  1  0
 63 64  1  0
 64 65  1  0
 65 66  1  0
 66 67  1  0
 67 68  1  0
 68 69  1  0
 69 70  1  0
 70 71  1  0
 71 72  1  0
 72 73  1  0
 73 74  1  0
 74 75  1  0
 75 76  1  0
 76 77  1  0
 77 78  1  0
 78 79  1  0
 79 80  1  0
 80 81  1  0
 81  2  1  0
M  END
>  <Title>  (970) 
idABJJgen8

$$$$

     RDKit          2D

  6  6  0  0  0  0  0  0  0  0999 V2000
    1.5000    0.0000    0.0000 C   0  0  0  0  0  0  0  0  0  0  0  0
    0.7500   -1.2990    0.0000 C   0  0  0  0  0  0  0  0  0  0  0  0
   -0.7500   -1.2990    0.0000 C   0  0  0  0  0  0  0  0  0  0  0  0
   -1.5000    0.0000    0.0000 C   0  0  0  0  0  0  0  0  0  0  0  0
   -0.7500    1.2990    0.0000 C   0  0  0  0  0  0  0  0  0  0  0  0
    0.7500    1.2990    0.0000 C   0  0  0  0  0  0  0  0  0  0  0  0
  1  2  2  0
  2  3  1  0
  3  4  1  0
  4  5  1  0
  5  6  2  0
  6  1  1  0
M  END
>  <Title>  (971) 
idABJKgen8

$$$$

     RDKit          2D

 55 62  0  0  0  0  0  0  0  0999 V2000
   10.1621   -4.4419    0.0000 C   0  0  0  0  0  0  0  0  0  0  0  0
    8.6909   -4.1493    0.0000 C   0  0  0  0  0  0  0  0  0  0  0  0
    7.7019   -5.2771    0.0000 C   0  0  0  0  0  0  0  0  0  0  0  0
    6.2307   -4.9844    0.0000 C   0  0  0  0  0  0  0  0  0  0  0  0
    5.7485   -3.5640    0.0000 O   0  0  0  0  0  0  0  0  0  0  0  0
    5.2417   -6.1122    0.0000 N   0  0  0  0  0  0  0  0  0  0  0  0
    3.7705   -5.8195    0.0000 C   0  0  0  0  0  0  0  0  0  0  0  0
    3.7705   -4.3195    0.0000 C   0  0  0  0  0  0  0  0  0  0  0  0
    3.1965   -2.9337    0.0000 C   0  0  0  0  0  0  0  0  0  0  0  0
    2.1358   -1.8731    0.0000 C   0  0  0  0  0  0  0  0  0  0  0  0
    2.9692   -0.6259    0.0000 C   0  0  0  0  0  0  0  0  0  0  0  0
    2.3057    0.7195    0.0000 O   0  0  0  0  0  0  0  0  0  0  0  0
    4.4660   -0.7240    0.0000 N   0  0  0  0  0  0  0  0  0  0  0  0
    5.2993    0.5232    0.0000 C   0  0  0  0  0  0  0  0  0  0  0  0
    6.7961    0.4251    0.0000 N   0  0  0  0  0  0  0  0  0  0  0  0
    7.6295    1.6723    0.0000 N   0  0  0  0  0  0  0  0  0  0  0  0
    6.9660    3.0176    0.0000 N   0  0  0  0  0  0  0  0  0  0  0  0
    5.4692    3.1158    0.0000 N   0  0  0  0  0  0  0  0  0  0  0  0
    4.6359    1.8686    0.0000 N   0  0  0  0  0  0  0  0  0  0  0  0
    0.7500   -1.2990    0.0000 C   0  0  0  0  0  0  0  0  0  0  0  0
    1.5000    0.0000    0.0000 C   0  0  0  0  0  0  0  0  0  0  0  0
    0.7500    1.2990    0.0000 C   0  0  0  0  0  0  0  0  0  0  0  0
   -0.7500    1.2990    0.0000 C   0  0  0  0  0  0  0  0  0  0  0  0
   -1.5000    0.0000    0.0000 C   0  0  0  0  0  0  0  0  0  0  0  0
   -0.7500   -1.2990    0.0000 C   0  0  0  0  0  0  0  0  0  0  0  0
   -2.1358   -1.8731    0.0000 C   0  0  0  0  0  0  0  0  0  0  0  0
   -2.5240   -0.4242    0.0000 C   0  0  0  0  0  0  0  0  0  0  0  0
   -3.9729   -0.0359    0.0000 C   0  0  0  0  0  0  0  0  0  0  0  0
   -5.0336   -1.0966    0.0000 C   0  0  0  0  0  0  0  0  0  0  0  0
   -4.6454   -2.5455    0.0000 C   0  0  0  0  0  0  0  0  0  0  0  0
   -3.1965   -2.9337    0.0000 C   0  0  0  0  0  0  0  0  0  0  0  0
   -3.7705   -4.3195    0.0000 C   0  0  0  0  0  0  0  0  0  0  0  0
   -5.0695   -3.5695    0.0000 C   0  0  0  0  0  0  0  0  0  0  0  0
   -6.3686   -4.3195    0.0000 C   0  0  0  0  0  0  0  0  0  0  0  0
   -6.3686   -5.8195    0.0000 C   0  0  0  0  0  0  0  0  0  0  0  0
   -5.0695   -6.5695    0.0000 C   0  0  0  0  0  0  0  0  0  0  0  0
   -3.7705   -5.8195    0.0000 C   0  0  0  0  0  0  0  0  0  0  0  0
   -3.1965   -7.2054    0.0000 C   0  0  0  0  0  0  0  0  0  0  0  0
   -4.6454   -7.5936    0.0000 C   0  0  0  0  0  0  0  0  0  0  0  0
   -5.0336   -9.0425    0.0000 C   0  0  0  0  0  0  0  0  0  0  0  0
   -3.9729  -10.1031    0.0000 C   0  0  0  0  0  0  0  0  0  0  0  0
   -2.5240   -9.7149    0.0000 C   0  0  0  0  0  0  0  0  0  0  0  0
   -2.1358   -8.2660    0.0000 C   0  0  0  0  0  0  0  0  0  0  0  0
   -0.7500   -8.8400    0.0000 C   0  0  0  0  0  0  0  0  0  0  0  0
   -1.5000  -10.1391    0.0000 C   0  0  0  0  0  0  0  0  0  0  0  0
   -0.7500  -11.4381    0.0000 C   0  0  0  0  0  0  0  0  0  0  0  0
    0.7500  -11.4381    0.0000 C   0  0  0  0  0  0  0  0  0  0  0  0
    1.5000  -10.1391    0.0000 C   0  0  0  0  0  0  0  0  0  0  0  0
    0.7500   -8.8400    0.0000 C   0  0  0  0  0  0  0  0  0  0  0  0
    2.1358   -8.2660    0.0000 C   0  0  0  0  0  0  0  0  0  0  0  0
    2.5240   -9.7149    0.0000 C   0  0  0  0  0  0  0  0  0  0  0  0
    3.9729  -10.1031    0.0000 C   0  0  0  0  0  0  0  0  0  0  0  0
    5.0336   -9.0425    0.0000 C   0  0  0  0  0  0  0  0  0  0  0  0
    4.6454   -7.5936    0.0000 C   0  0  0  0  0  0  0  0  0  0  0  0
    3.1965   -7.2054    0.0000 C   0  0  0  0  0  0  0  0  0  0  0  0
  1  2  1  0
  2  3  2  3
  3  4  1  0
  4  5  2  0
  4  6  1  0
  6  7  1  0
  7  8  2  0
  8  9  1  0
  9 10  2  0
 10 11  1  0
 11 12  2  0
 11 13  1  0
 13 14  1  0
 14 15  2  0
 15 16  1  0
 16 17  2  0
 17 18  1  0
 18 19  2  0
 10 20  1  0
 20 21  2  0
 21 22  1  0
 22 23  2  0
 23 24  1  0
 24 25  2  0
 25 26  1  0
 26 27  2  0
 27 28  1  0
 28 29  2  0
 29 30  1  0
 30 31  2  0
 31 32  1  0
 32 33  2  0
 33 34  1  0
 34 35  2  0
 35 36  1  0
 36 37  2  0
 37 38  1  0
 38 39  2  0
 39 40  1  0
 40 41  2  0
 41 42  1  0
 42 43  2  0
 43 44  1  0
 44 45  2  0
 45 46  1  0
 46 47  2  0
 47 48  1  0
 48 49  2  0
 49 50  1  0
 50 51  2  0
 51 52  1  0
 52 53  2  0
 53 54  1  0
 54 55  2  0
 55  7  1  0
 19 14  1  0
 25 20  1  0
 31 26  1  0
 37 32  1  0
 43 38  1  0
 49 44  1  0
 55 50  1  0
M  END
>  <Title>  (972) 
idABJLgen8

$$$$

     RDKit          2D

 10 10  0  0  0  0  0  0  0  0999 V2000
    3.5054   -2.0074    0.0000 C   0  0  0  0  0  0  0  0  0  0  0  0
    2.3907   -1.0037    0.0000 C   0  0  0  0  0  0  0  0  0  0  0  0
    1.2760    0.0000    0.0000 C   0  0  0  0  0  0  0  0  0  0  0  0
    2.3907    1.0037    0.0000 C   0  0  0  0  0  0  0  0  0  0  0  0
    0.3943    1.2135    0.0000 C   0  0  0  0  0  0  0  0  0  0  0  0
    0.8578    2.6401    0.0000 O   0  0  0  0  0  0  0  0  0  0  0  0
   -1.0323    0.7500    0.0000 C   0  0  0  0  0  0  0  0  0  0  0  0
   -1.0323   -0.7500    0.0000 O   0  0  0  0  0  0  0  0  0  0  0  0
    0.3943   -1.2135    0.0000 C   0  0  0  0  0  0  0  0  0  0  0  0
    0.8578   -2.6401    0.0000 O   0  0  0  0  0  0  0  0  0  0  0  0
  1  2  3  0
  2  3  1  0
  3  4  1  0
  3  5  1  0
  5  6  2  0
  5  7  1  0
  7  8  1  0
  8  9  1  0
  9 10  2  0
  9  3  1  0
M  END
>  <Title>  (973) 
idABJMgen8

$$$$

     RDKit          2D

  9  9  0  0  0  0  0  0  0  0999 V2000
    3.0000    0.0000    0.0000 O   0  0  0  0  0  0  0  0  0  0  0  0
    1.5000    0.0000    0.0000 C   0  0  0  0  0  0  0  0  0  0  0  0
    0.7500   -1.2990    0.0000 C   0  0  0  0  0  0  0  0  0  0  0  0
   -0.7500   -1.2990    0.0000 C   0  0  0  0  0  0  0  0  0  0  0  0
   -1.5000    0.0000    0.0000 C   0  0  0  0  0  0  0  0  0  0  0  0
   -3.0000    0.0000    0.0000 O   0  0  0  0  0  0  0  0  0  0  0  0
   -0.7500    1.2990    0.0000 C   0  0  0  0  0  0  0  0  0  0  0  0
    0.7500    1.2990    0.0000 C   0  0  0  0  0  0  0  0  0  0  0  0
    1.5000    2.5981    0.0000 O   0  0  0  0  0  0  0  0  0  0  0  0
  1  2  1  0
  2  3  2  0
  3  4  1  0
  4  5  1  0
  5  6  1  0
  5  7  1  0
  7  8  1  0
  8  9  1  0
  8  2  1  0
M  END
>  <Title>  (974) 
idABJNgen8

$$$$

     RDKit          2D

  9  9  0  0  0  0  0  0  0  0999 V2000
    3.0000    0.0000    0.0000 C   0  0  0  0  0  0  0  0  0  0  0  0
    1.5000    0.0000    0.0000 C   0  0  0  0  0  0  0  0  0  0  0  0
    0.7500   -1.2990    0.0000 C   0  0  0  0  0  0  0  0  0  0  0  0
   -0.7500   -1.2990    0.0000 C   0  0  0  0  0  0  0  0  0  0  0  0
   -1.5000   -2.5981    0.0000 O   0  0  0  0  0  0  0  0  0  0  0  0
   -1.5000    0.0000    0.0000 C   0  0  0  0  0  0  0  0  0  0  0  0
   -0.7500    1.2990    0.0000 C   0  0  0  0  0  0  0  0  0  0  0  0
    0.7500    1.2990    0.0000 C   0  0  0  0  0  0  0  0  0  0  0  0
    1.5000    2.5981    0.0000 O   0  0  0  0  0  0  0  0  0  0  0  0
  1  2  1  0
  2  3  2  0
  3  4  1  0
  4  5  1  0
  4  6  1  0
  6  7  1  0
  7  8  1  0
  8  9  1  0
  8  2  1  0
M  END
>  <Title>  (975) 
idABJOgen8

$$$$

     RDKit          2D

 20 20  0  0  0  0  0  0  0  0999 V2000
   21.7500   -1.2990    0.0000 C   0  0  0  0  0  0  0  0  0  0  0  0
   20.2500   -1.2990    0.0000 C   0  0  0  0  0  0  0  0  0  0  0  0
   18.7500   -1.2990    0.0000 C   0  0  0  0  0  0  0  0  0  0  0  0
   17.2500   -1.2990    0.0000 C   0  0  0  0  0  0  0  0  0  0  0  0
   15.7500   -1.2990    0.0000 C   0  0  0  0  0  0  0  0  0  0  0  0
   14.2500   -1.2990    0.0000 C   0  0  0  0  0  0  0  0  0  0  0  0
   12.7500   -1.2990    0.0000 C   0  0  0  0  0  0  0  0  0  0  0  0
   11.2500   -1.2990    0.0000 C   0  0  0  0  0  0  0  0  0  0  0  0
    9.7500   -1.2990    0.0000 C   0  0  0  0  0  0  0  0  0  0  0  0
    8.2500   -1.2990    0.0000 C   0  0  0  0  0  0  0  0  0  0  0  0
    6.7500   -1.2990    0.0000 C   0  0  0  0  0  0  0  0  0  0  0  0
    5.2500   -1.2990    0.0000 C   0  0  0  0  0  0  0  0  0  0  0  0
    3.7500   -1.2990    0.0000 C   0  0  0  0  0  0  0  0  0  0  0  0
    3.0000    0.0000    0.0000 C   0  0  0  0  0  0  0  0  0  0  0  0
    1.5000    0.0000    0.0000 C   0  0  0  0  0  0  0  0  0  0  0  0
    0.7500   -1.2990    0.0000 C   0  0  0  0  0  0  0  0  0  0  0  0
   -0.7500   -1.2990    0.0000 C   0  0  0  0  0  0  0  0  0  0  0  0
   -1.5000    0.0000    0.0000 C   0  0  0  0  0  0  0  0  0  0  0  0
   -0.7500    1.2990    0.0000 C   0  0  0  0  0  0  0  0  0  0  0  0
    0.7500    1.2990    0.0000 C   0  0  0  0  0  0  0  0  0  0  0  0
  1  2  3  0
  2  3  1  0
  3  4  3  0
  4  5  1  0
  5  6  3  0
  6  7  1  0
  7  8  3  0
  8  9  1  0
  9 10  3  0
 10 11  1  0
 11 12  3  0
 12 13  1  0
 13 14  2  3
 14 15  1  0
 15 16  2  0
 16 17  1  0
 17 18  2  0
 18 19  1  0
 19 20  2  0
 20 15  1  0
M  END
>  <Title>  (976) 
idABJPgen8

$$$$

     RDKit          2D

 99 99  0  0  0  0  0  0  0  0999 V2000
   24.4224   -0.0000    0.0000 C   0  0  0  0  0  0  0  0  0  0  0  0
   22.9224    0.0000    0.0000 C   0  0  0  0  0  0  0  0  0  0  0  0
   22.8733   -1.4992    0.0000 C   0  0  0  0  0  0  0  0  0  0  0  0
   22.7263   -2.9920    0.0000 C   0  0  0  0  0  0  0  0  0  0  0  0
   22.4820   -4.4719    0.0000 C   0  0  0  0  0  0  0  0  0  0  0  0
   23.9531   -4.7646    0.0000 C   0  0  0  0  0  0  0  0  0  0  0  0
   25.4243   -5.0572    0.0000 N   0  0  0  0  0  0  0  0  0  0  0  0
   22.1413   -5.9328    0.0000 C   0  0  0  0  0  0  0  0  0  0  0  0
   21.7059   -7.3682    0.0000 C   0  0  0  0  0  0  0  0  0  0  0  0
   21.1775   -8.7720    0.0000 C   0  0  0  0  0  0  0  0  0  0  0  0
   20.5585  -10.1383    0.0000 C   0  0  0  0  0  0  0  0  0  0  0  0
   19.8514  -11.4612    0.0000 C   0  0  0  0  0  0  0  0  0  0  0  0
   19.0593  -12.7350    0.0000 C   0  0  0  0  0  0  0  0  0  0  0  0
   18.1856  -13.9543    0.0000 C   0  0  0  0  0  0  0  0  0  0  0  0
   17.2340  -15.1138    0.0000 C   0  0  0  0  0  0  0  0  0  0  0  0
   16.2086  -16.2086    0.0000 C   0  0  0  0  0  0  0  0  0  0  0  0
   15.1138  -17.2340    0.0000 C   0  0  0  0  0  0  0  0  0  0  0  0
   13.9543  -18.1856    0.0000 C   0  0  0  0  0  0  0  0  0  0  0  0
   12.7350  -19.0593    0.0000 C   0  0  0  0  0  0  0  0  0  0  0  0
   11.4612  -19.8514    0.0000 C   0  0  0  0  0  0  0  0  0  0  0  0
   10.1383  -20.5585    0.0000 C   0  0  0  0  0  0  0  0  0  0  0  0
    8.7720  -21.1775    0.0000 C   0  0  0  0  0  0  0  0  0  0  0  0
    7.3682  -21.7059    0.0000 C   0  0  0  0  0  0  0  0  0  0  0  0
    5.9328  -22.1413    0.0000 C   0  0  0  0  0  0  0  0  0  0  0  0
    4.4719  -22.4820    0.0000 C   0  0  0  0  0  0  0  0  0  0  0  0
    2.9920  -22.7263    0.0000 C   0  0  0  0  0  0  0  0  0  0  0  0
    1.4992  -22.8733    0.0000 C   0  0  0  0  0  0  0  0  0  0  0  0
   -0.0000  -22.9224    0.0000 C   0  0  0  0  0  0  0  0  0  0  0  0
   -1.4992  -22.8733    0.0000 C   0  0  0  0  0  0  0  0  0  0  0  0
   -2.9920  -22.7263    0.0000 C   0  0  0  0  0  0  0  0  0  0  0  0
   -4.4719  -22.4820    0.0000 C   0  0  0  0  0  0  0  0  0  0  0  0
   -5.9328  -22.1413    0.0000 C   0  0  0  0  0  0  0  0  0  0  0  0
   -7.3682  -21.7059    0.0000 C   0  0  0  0  0  0  0  0  0  0  0  0
   -8.7720  -21.1775    0.0000 C   0  0  0  0  0  0  0  0  0  0  0  0
  -10.1383  -20.5585    0.0000 C   0  0  0  0  0  0  0  0  0  0  0  0
  -11.4612  -19.8514    0.0000 C   0  0  0  0  0  0  0  0  0  0  0  0
  -12.7350  -19.0593    0.0000 C   0  0  0  0  0  0  0  0  0  0  0  0
  -13.9543  -18.1856    0.0000 C   0  0  0  0  0  0  0  0  0  0  0  0
  -15.1138  -17.2340    0.0000 C   0  0  0  0  0  0  0  0  0  0  0  0
  -16.2086  -16.2086    0.0000 C   0  0  0  0  0  0  0  0  0  0  0  0
  -17.2340  -15.1138    0.0000 C   0  0  0  0  0  0  0  0  0  0  0  0
  -18.1856  -13.9543    0.0000 C   0  0  0  0  0  0  0  0  0  0  0  0
  -19.0593  -12.7350    0.0000 C   0  0  0  0  0  0  0  0  0  0  0  0
  -19.8514  -11.4612    0.0000 C   0  0  0  0  0  0  0  0  0  0  0  0
  -20.5585  -10.1383    0.0000 C   0  0  0  0  0  0  0  0  0  0  0  0
  -21.1775   -8.7720    0.0000 C   0  0  0  0  0  0  0  0  0  0  0  0
  -21.7059   -7.3682    0.0000 C   0  0  0  0  0  0  0  0  0  0  0  0
  -22.1413   -5.9328    0.0000 C   0  0  0  0  0  0  0  0  0  0  0  0
  -22.4820   -4.4719    0.0000 C   0  0  0  0  0  0  0  0  0  0  0  0
  -22.7263   -2.9920    0.0000 C   0  0  0  0  0  0  0  0  0  0  0  0
  -22.8733   -1.4992    0.0000 C   0  0  0  0  0  0  0  0  0  0  0  0
  -22.9224    0.0000    0.0000 C   0  0  0  0  0  0  0  0  0  0  0  0
  -22.8733    1.4992    0.0000 C   0  0  0  0  0  0  0  0  0  0  0  0
  -22.7263    2.9920    0.0000 C   0  0  0  0  0  0  0  0  0  0  0  0
  -22.4820    4.4719    0.0000 C   0  0  0  0  0  0  0  0  0  0  0  0
  -22.1413    5.9328    0.0000 C   0  0  0  0  0  0  0  0  0  0  0  0
  -21.7059    7.3682    0.0000 C   0  0  0  0  0  0  0  0  0  0  0  0
  -21.1775    8.7720    0.0000 C   0  0  0  0  0  0  0  0  0  0  0  0
  -20.5585   10.1383    0.0000 C   0  0  0  0  0  0  0  0  0  0  0  0
  -19.8514   11.4612    0.0000 C   0  0  0  0  0  0  0  0  0  0  0  0
  -19.0593   12.7350    0.0000 C   0  0  0  0  0  0  0  0  0  0  0  0
  -18.1856   13.9543    0.0000 C   0  0  0  0  0  0  0  0  0  0  0  0
  -17.2340   15.1138    0.0000 C   0  0  0  0  0  0  0  0  0  0  0  0
  -16.2086   16.2086    0.0000 C   0  0  0  0  0  0  0  0  0  0  0  0
  -15.1138   17.2340    0.0000 C   0  0  0  0  0  0  0  0  0  0  0  0
  -13.9543   18.1856    0.0000 C   0  0  0  0  0  0  0  0  0  0  0  0
  -12.7350   19.0593    0.0000 C   0  0  0  0  0  0  0  0  0  0  0  0
  -11.4612   19.8514    0.0000 C   0  0  0  0  0  0  0  0  0  0  0  0
  -10.1383   20.5585    0.0000 C   0  0  0  0  0  0  0  0  0  0  0  0
   -8.7720   21.1775    0.0000 C   0  0  0  0  0  0  0  0  0  0  0  0
   -7.3682   21.7059    0.0000 C   0  0  0  0  0  0  0  0  0  0  0  0
   -5.9328   22.1413    0.0000 C   0  0  0  0  0  0  0  0  0  0  0  0
   -4.4719   22.4820    0.0000 C   0  0  0  0  0  0  0  0  0  0  0  0
   -2.9920   22.7263    0.0000 C   0  0  0  0  0  0  0  0  0  0  0  0
   -1.4992   22.8733    0.0000 C   0  0  0  0  0  0  0  0  0  0  0  0
    0.0000   22.9224    0.0000 C   0  0  0  0  0  0  0  0  0  0  0  0
    1.4992   22.8733    0.0000 C   0  0  0  0  0  0  0  0  0  0  0  0
    2.9920   22.7263    0.0000 C   0  0  0  0  0  0  0  0  0  0  0  0
    4.4719   22.4820    0.0000 C   0  0  0  0  0  0  0  0  0  0  0  0
    5.9328   22.1413    0.0000 C   0  0  0  0  0  0  0  0  0  0  0  0
    7.3682   21.7059    0.0000 C   0  0  0  0  0  0  0  0  0  0  0  0
    8.7720   21.1775    0.0000 C   0  0  0  0  0  0  0  0  0  0  0  0
   10.1383   20.5585    0.0000 C   0  0  0  0  0  0  0  0  0  0  0  0
   11.4612   19.8514    0.0000 C   0  0  0  0  0  0  0  0  0  0  0  0
   12.7350   19.0593    0.0000 C   0  0  0  0  0  0  0  0  0  0  0  0
   13.9543   18.1856    0.0000 C   0  0  0  0  0  0  0  0  0  0  0  0
   15.1138   17.2340    0.0000 C   0  0  0  0  0  0  0  0  0  0  0  0
   16.2086   16.2086    0.0000 C   0  0  0  0  0  0  0  0  0  0  0  0
   17.2340   15.1138    0.0000 C   0  0  0  0  0  0  0  0  0  0  0  0
   18.1856   13.9543    0.0000 C   0  0  0  0  0  0  0  0  0  0  0  0
   19.0593   12.7350    0.0000 C   0  0  0  0  0  0  0  0  0  0  0  0
   19.8514   11.4612    0.0000 C   0  0  0  0  0  0  0  0  0  0  0  0
   20.5585   10.1383    0.0000 C   0  0  0  0  0  0  0  0  0  0  0  0
   21.1775    8.7720    0.0000 C   0  0  0  0  0  0  0  0  0  0  0  0
   21.7059    7.3682    0.0000 C   0  0  0  0  0  0  0  0  0  0  0  0
   22.1413    5.9328    0.0000 C   0  0  0  0  0  0  0  0  0  0  0  0
   22.4820    4.4719    0.0000 C   0  0  0  0  0  0  0  0  0  0  0  0
   22.7263    2.9920    0.0000 C   0  0  0  0  0  0  0  0  0  0  0  0
   22.8733    1.4992    0.0000 C   0  0  0  0  0  0  0  0  0  0  0  0
  1  2  1  0
  2  3  1  0
  3  4  2  0
  4  5  1  0
  5  6  1  0
  6  7  3  0
  5  8  1  0
  8  9  1  0
  9 10  1  0
 10 11  1  0
 11 12  1  0
 12 13  1  0
 13 14  1  0
 14 15  1  0
 15 16  1  0
 16 17  1  0
 17 18  1  0
 18 19  1  0
 19 20  1  0
 20 21  1  0
 21 22  1  0
 22 23  1  0
 23 24  1  0
 24 25  1  0
 25 26  1  0
 26 27  1  0
 27 28  1  0
 28 29  1  0
 29 30  1  0
 30 31  1  0
 31 32  1  0
 32 33  1  0
 33 34  1  0
 34 35  1  0
 35 36  1  0
 36 37  1  0
 37 38  1  0
 38 39  1  0
 39 40  1  0
 40 41  1  0
 41 42  1  0
 42 43  1  0
 43 44  1  0
 44 45  1  0
 45 46  1  0
 46 47  1  0
 47 48  1  0
 48 49  1  0
 49 50  1  0
 50 51  1  0
 51 52  1  0
 52 53  1  0
 53 54  1  0
 54 55  1  0
 55 56  1  0
 56 57  1  0
 57 58  1  0
 58 59  1  0
 59 60  1  0
 60 61  1  0
 61 62  1  0
 62 63  1  0
 63 64  1  0
 64 65  1  0
 65 66  1  0
 66 67  1  0
 67 68  1  0
 68 69  1  0
 69 70  1  0
 70 71  1  0
 71 72  1  0
 72 73  1  0
 73 74  1  0
 74 75  1  0
 75 76  1  0
 76 77  1  0
 77 78  1  0
 78 79  1  0
 79 80  1  0
 80 81  1  0
 81 82  1  0
 82 83  1  0
 83 84  1  0
 84 85  1  0
 85 86  1  0
 86 87  1  0
 87 88  1  0
 88 89  1  0
 89 90  1  0
 90 91  1  0
 91 92  1  0
 92 93  1  0
 93 94  1  0
 94 95  1  0
 95 96  1  0
 96 97  1  0
 97 98  1  0
 98 99  1  0
 99  2  1  0
M  END
>  <Title>  (977) 
idABJQgen8

$$$$

     RDKit          2D

 11 10  0  0  0  0  0  0  0  0999 V2000
    0.0000    0.0000    0.0000 C   0  0  0  0  0  0  0  0  0  0  0  0
    1.2990    0.7500    0.0000 C   0  0  0  0  0  0  0  0  0  0  0  0
    2.5981    1.5000    0.0000 C   0  0  0  0  0  0  0  0  0  0  0  0
    3.8971    2.2500    0.0000 C   0  0  0  0  0  0  0  0  0  0  0  0
    5.1962    3.0000    0.0000 C   0  0  0  0  0  0  0  0  0  0  0  0
    6.4952    3.7500    0.0000 C   0  0  0  0  0  0  0  0  0  0  0  0
    7.7942    4.5000    0.0000 C   0  0  0  0  0  0  0  0  0  0  0  0
    9.0933    5.2500    0.0000 C   0  0  0  0  0  0  0  0  0  0  0  0
   10.3923    6.0000    0.0000 C   0  0  0  0  0  0  0  0  0  0  0  0
   11.6913    6.7500    0.0000 C   0  0  0  0  0  0  0  0  0  0  0  0
   12.9904    7.5000    0.0000 N   0  0  0  0  0  0  0  0  0  0  0  0
  1  2  1  0
  2  3  3  0
  3  4  1  0
  4  5  3  0
  5  6  1  0
  6  7  3  0
  7  8  1  0
  8  9  3  0
  9 10  1  0
 10 11  3  0
M  END
>  <Title>  (978) 
idABJRgen8

$$$$

     RDKit          2D

  9  9  0  0  0  0  0  0  0  0999 V2000
    5.0260   -1.2990    0.0000 C   0  0  0  0  0  0  0  0  0  0  0  0
    3.5260   -1.2990    0.0000 C   0  0  0  0  0  0  0  0  0  0  0  0
    2.7760    0.0000    0.0000 C   0  0  0  0  0  0  0  0  0  0  0  0
    1.2760    0.0000    0.0000 C   0  0  0  0  0  0  0  0  0  0  0  0
    0.3943    1.2135    0.0000 C   0  0  0  0  0  0  0  0  0  0  0  0
   -1.0323    0.7500    0.0000 C   0  0  0  0  0  0  0  0  0  0  0  0
   -2.2458    1.6317    0.0000 O   0  0  0  0  0  0  0  0  0  0  0  0
   -1.0323   -0.7500    0.0000 C   0  0  0  0  0  0  0  0  0  0  0  0
    0.3943   -1.2135    0.0000 C   0  0  0  0  0  0  0  0  0  0  0  0
  1  2  1  0
  2  3  1  0
  3  4  1  0
  4  5  2  0
  5  6  1  0
  6  7  1  0
  6  8  2  0
  8  9  1  0
  9  4  1  0
M  END
>  <Title>  (979) 
idABJSgen8

$$$$

     RDKit          2D

  7  6  0  0  0  0  0  0  0  0999 V2000
    0.0000    0.0000    0.0000 C   0  0  0  0  0  0  0  0  0  0  0  0
    1.2990    0.7500    0.0000 C   0  0  0  0  0  0  0  0  0  0  0  0
    2.5981    1.5000    0.0000 C   0  0  0  0  0  0  0  0  0  0  0  0
    3.8971    2.2500    0.0000 C   0  0  0  0  0  0  0  0  0  0  0  0
    3.8971    3.7500    0.0000 O   0  0  0  0  0  0  0  0  0  0  0  0
    5.1962    1.5000    0.0000 C   0  0  0  0  0  0  0  0  0  0  0  0
    6.4952    2.2500    0.0000 C   0  0  0  0  0  0  0  0  0  0  0  0
  1  2  1  0
  2  3  3  0
  3  4  1  0
  4  5  2  0
  4  6  1  0
  6  7  1  0
M  END
>  <Title>  (980) 
idABJTgen8

$$$$

     RDKit          2D

 97 97  0  0  0  0  0  0  0  0999 V2000
   24.4224   -0.0000    0.0000 C   0  0  0  0  0  0  0  0  0  0  0  0
   22.9224    0.0000    0.0000 C   0  0  0  0  0  0  0  0  0  0  0  0
   22.8733   -1.4992    0.0000 C   0  0  0  0  0  0  0  0  0  0  0  0
   22.7263   -2.9920    0.0000 C   0  0  0  0  0  0  0  0  0  0  0  0
   22.4820   -4.4719    0.0000 C   0  0  0  0  0  0  0  0  0  0  0  0
   22.1413   -5.9328    0.0000 C   0  0  0  0  0  0  0  0  0  0  0  0
   21.7059   -7.3682    0.0000 C   0  0  0  0  0  0  0  0  0  0  0  0
   21.1775   -8.7720    0.0000 C   0  0  0  0  0  0  0  0  0  0  0  0
   20.5585  -10.1383    0.0000 C   0  0  0  0  0  0  0  0  0  0  0  0
   19.8514  -11.4612    0.0000 C   0  0  0  0  0  0  0  0  0  0  0  0
   19.0593  -12.7350    0.0000 C   0  0  0  0  0  0  0  0  0  0  0  0
   18.1856  -13.9543    0.0000 C   0  0  0  0  0  0  0  0  0  0  0  0
   17.2340  -15.1138    0.0000 C   0  0  0  0  0  0  0  0  0  0  0  0
   16.2086  -16.2086    0.0000 C   0  0  0  0  0  0  0  0  0  0  0  0
   15.1138  -17.2340    0.0000 C   0  0  0  0  0  0  0  0  0  0  0  0
   13.9543  -18.1856    0.0000 C   0  0  0  0  0  0  0  0  0  0  0  0
   12.7350  -19.0593    0.0000 C   0  0  0  0  0  0  0  0  0  0  0  0
   11.4612  -19.8514    0.0000 C   0  0  0  0  0  0  0  0  0  0  0  0
   10.1383  -20.5585    0.0000 C   0  0  0  0  0  0  0  0  0  0  0  0
    8.7720  -21.1775    0.0000 C   0  0  0  0  0  0  0  0  0  0  0  0
    7.3682  -21.7059    0.0000 C   0  0  0  0  0  0  0  0  0  0  0  0
    5.9328  -22.1413    0.0000 C   0  0  0  0  0  0  0  0  0  0  0  0
    4.4719  -22.4820    0.0000 C   0  0  0  0  0  0  0  0  0  0  0  0
    2.9920  -22.7263    0.0000 C   0  0  0  0  0  0  0  0  0  0  0  0
    1.4992  -22.8733    0.0000 C   0  0  0  0  0  0  0  0  0  0  0  0
   -0.0000  -22.9224    0.0000 C   0  0  0  0  0  0  0  0  0  0  0  0
   -1.4992  -22.8733    0.0000 C   0  0  0  0  0  0  0  0  0  0  0  0
   -2.9920  -22.7263    0.0000 C   0  0  0  0  0  0  0  0  0  0  0  0
   -4.4719  -22.4820    0.0000 C   0  0  0  0  0  0  0  0  0  0  0  0
   -5.9328  -22.1413    0.0000 C   0  0  0  0  0  0  0  0  0  0  0  0
   -7.3682  -21.7059    0.0000 C   0  0  0  0  0  0  0  0  0  0  0  0
   -8.7720  -21.1775    0.0000 C   0  0  0  0  0  0  0  0  0  0  0  0
  -10.1383  -20.5585    0.0000 C   0  0  0  0  0  0  0  0  0  0  0  0
  -11.4612  -19.8514    0.0000 C   0  0  0  0  0  0  0  0  0  0  0  0
  -12.7350  -19.0593    0.0000 C   0  0  0  0  0  0  0  0  0  0  0  0
  -13.9543  -18.1856    0.0000 C   0  0  0  0  0  0  0  0  0  0  0  0
  -15.1138  -17.2340    0.0000 C   0  0  0  0  0  0  0  0  0  0  0  0
  -16.2086  -16.2086    0.0000 C   0  0  0  0  0  0  0  0  0  0  0  0
  -17.2340  -15.1138    0.0000 C   0  0  0  0  0  0  0  0  0  0  0  0
  -18.1856  -13.9543    0.0000 C   0  0  0  0  0  0  0  0  0  0  0  0
  -19.0593  -12.7350    0.0000 C   0  0  0  0  0  0  0  0  0  0  0  0
  -19.8514  -11.4612    0.0000 C   0  0  0  0  0  0  0  0  0  0  0  0
  -20.5585  -10.1383    0.0000 C   0  0  0  0  0  0  0  0  0  0  0  0
  -21.1775   -8.7720    0.0000 C   0  0  0  0  0  0  0  0  0  0  0  0
  -21.7059   -7.3682    0.0000 C   0  0  0  0  0  0  0  0  0  0  0  0
  -22.1413   -5.9328    0.0000 C   0  0  0  0  0  0  0  0  0  0  0  0
  -22.4820   -4.4719    0.0000 C   0  0  0  0  0  0  0  0  0  0  0  0
  -22.7263   -2.9920    0.0000 C   0  0  0  0  0  0  0  0  0  0  0  0
  -22.8733   -1.4992    0.0000 C   0  0  0  0  0  0  0  0  0  0  0  0
  -22.9224    0.0000    0.0000 C   0  0  0  0  0  0  0  0  0  0  0  0
  -22.8733    1.4992    0.0000 C   0  0  0  0  0  0  0  0  0  0  0  0
  -22.7263    2.9920    0.0000 C   0  0  0  0  0  0  0  0  0  0  0  0
  -22.4820    4.4719    0.0000 C   0  0  0  0  0  0  0  0  0  0  0  0
  -22.1413    5.9328    0.0000 C   0  0  0  0  0  0  0  0  0  0  0  0
  -21.7059    7.3682    0.0000 C   0  0  0  0  0  0  0  0  0  0  0  0
  -21.1775    8.7720    0.0000 C   0  0  0  0  0  0  0  0  0  0  0  0
  -20.5585   10.1383    0.0000 C   0  0  0  0  0  0  0  0  0  0  0  0
  -19.8514   11.4612    0.0000 C   0  0  0  0  0  0  0  0  0  0  0  0
  -19.0593   12.7350    0.0000 C   0  0  0  0  0  0  0  0  0  0  0  0
  -18.1856   13.9543    0.0000 C   0  0  0  0  0  0  0  0  0  0  0  0
  -17.2340   15.1138    0.0000 C   0  0  0  0  0  0  0  0  0  0  0  0
  -16.2086   16.2086    0.0000 C   0  0  0  0  0  0  0  0  0  0  0  0
  -15.1138   17.2340    0.0000 C   0  0  0  0  0  0  0  0  0  0  0  0
  -13.9543   18.1856    0.0000 C   0  0  0  0  0  0  0  0  0  0  0  0
  -12.7350   19.0593    0.0000 C   0  0  0  0  0  0  0  0  0  0  0  0
  -11.4612   19.8514    0.0000 C   0  0  0  0  0  0  0  0  0  0  0  0
  -10.1383   20.5585    0.0000 C   0  0  0  0  0  0  0  0  0  0  0  0
   -8.7720   21.1775    0.0000 C   0  0  0  0  0  0  0  0  0  0  0  0
   -7.3682   21.7059    0.0000 C   0  0  0  0  0  0  0  0  0  0  0  0
   -5.9328   22.1413    0.0000 C   0  0  0  0  0  0  0  0  0  0  0  0
   -4.4719   22.4820    0.0000 C   0  0  0  0  0  0  0  0  0  0  0  0
   -2.9920   22.7263    0.0000 C   0  0  0  0  0  0  0  0  0  0  0  0
   -1.4992   22.8733    0.0000 C   0  0  0  0  0  0  0  0  0  0  0  0
    0.0000   22.9224    0.0000 C   0  0  0  0  0  0  0  0  0  0  0  0
    1.4992   22.8733    0.0000 C   0  0  0  0  0  0  0  0  0  0  0  0
    2.9920   22.7263    0.0000 C   0  0  0  0  0  0  0  0  0  0  0  0
    4.4719   22.4820    0.0000 C   0  0  0  0  0  0  0  0  0  0  0  0
    5.9328   22.1413    0.0000 C   0  0  0  0  0  0  0  0  0  0  0  0
    7.3682   21.7059    0.0000 C   0  0  0  0  0  0  0  0  0  0  0  0
    8.7720   21.1775    0.0000 C   0  0  0  0  0  0  0  0  0  0  0  0
   10.1383   20.5585    0.0000 C   0  0  0  0  0  0  0  0  0  0  0  0
   11.4612   19.8514    0.0000 C   0  0  0  0  0  0  0  0  0  0  0  0
   12.7350   19.0593    0.0000 C   0  0  0  0  0  0  0  0  0  0  0  0
   13.9543   18.1856    0.0000 C   0  0  0  0  0  0  0  0  0  0  0  0
   15.1138   17.2340    0.0000 C   0  0  0  0  0  0  0  0  0  0  0  0
   16.2086   16.2086    0.0000 C   0  0  0  0  0  0  0  0  0  0  0  0
   17.2340   15.1138    0.0000 C   0  0  0  0  0  0  0  0  0  0  0  0
   18.1856   13.9543    0.0000 C   0  0  0  0  0  0  0  0  0  0  0  0
   19.0593   12.7350    0.0000 C   0  0  0  0  0  0  0  0  0  0  0  0
   19.8514   11.4612    0.0000 C   0  0  0  0  0  0  0  0  0  0  0  0
   20.5585   10.1383    0.0000 C   0  0  0  0  0  0  0  0  0  0  0  0
   21.1775    8.7720    0.0000 C   0  0  0  0  0  0  0  0  0  0  0  0
   21.7059    7.3682    0.0000 C   0  0  0  0  0  0  0  0  0  0  0  0
   22.1413    5.9328    0.0000 C   0  0  0  0  0  0  0  0  0  0  0  0
   22.4820    4.4719    0.0000 C   0  0  0  0  0  0  0  0  0  0  0  0
   22.7263    2.9920    0.0000 C   0  0  0  0  0  0  0  0  0  0  0  0
   22.8733    1.4992    0.0000 C   0  0  0  0  0  0  0  0  0  0  0  0
  1  2  1  0
  2  3  1  0
  3  4  2  0
  4  5  1  0
  5  6  2  0
  6  7  1  0
  7  8  2  0
  8  9  1  0
  9 10  2  0
 10 11  1  0
 11 12  2  0
 12 13  1  0
 13 14  1  0
 14 15  1  0
 15 16  1  0
 16 17  1  0
 17 18  1  0
 18 19  1  0
 19 20  1  0
 20 21  1  0
 21 22  1  0
 22 23  1  0
 23 24  1  0
 24 25  1  0
 25 26  1  0
 26 27  1  0
 27 28  1  0
 28 29  1  0
 29 30  1  0
 30 31  1  0
 31 32  1  0
 32 33  1  0
 33 34  1  0
 34 35  1  0
 35 36  1  0
 36 37  1  0
 37 38  1  0
 38 39  1  0
 39 40  1  0
 40 41  1  0
 41 42  1  0
 42 43  1  0
 43 44  1  0
 44 45  1  0
 45 46  1  0
 46 47  1  0
 47 48  1  0
 48 49  1  0
 49 50  1  0
 50 51  1  0
 51 52  1  0
 52 53  1  0
 53 54  1  0
 54 55  1  0
 55 56  1  0
 56 57  1  0
 57 58  1  0
 58 59  1  0
 59 60  1  0
 60 61  1  0
 61 62  1  0
 62 63  1  0
 63 64  1  0
 64 65  1  0
 65 66  1  0
 66 67  1  0
 67 68  1  0
 68 69  1  0
 69 70  1  0
 70 71  1  0
 71 72  1  0
 72 73  1  0
 73 74  1  0
 74 75  1  0
 75 76  1  0
 76 77  1  0
 77 78  1  0
 78 79  1  0
 79 80  1  0
 80 81  1  0
 81 82  1  0
 82 83  1  0
 83 84  1  0
 84 85  1  0
 85 86  1  0
 86 87  1  0
 87 88  1  0
 88 89  1  0
 89 90  1  0
 90 91  1  0
 91 92  1  0
 92 93  1  0
 93 94  1  0
 94 95  1  0
 95 96  1  0
 96 97  1  0
 97  2  1  0
M  END
>  <Title>  (981) 
idABJUgen8

$$$$

     RDKit          2D

 83 85  0  0  0  0  0  0  0  0999 V2000
   -5.6139   -0.6235    0.0000 C   0  0  0  0  0  0  0  0  0  0  0  0
   -5.1746   -2.0577    0.0000 C   0  0  0  0  0  0  0  0  0  0  0  0
   -6.5889   -2.5574    0.0000 C   0  0  0  0  0  0  0  0  0  0  0  0
   -7.9558   -3.1753    0.0000 C   0  0  0  0  0  0  0  0  0  0  0  0
   -9.2653   -3.9068    0.0000 C   0  0  0  0  0  0  0  0  0  0  0  0
  -10.5081   -4.7468    0.0000 C   0  0  0  0  0  0  0  0  0  0  0  0
  -11.6751   -5.6891    0.0000 C   0  0  0  0  0  0  0  0  0  0  0  0
  -12.7581   -6.7270    0.0000 C   0  0  0  0  0  0  0  0  0  0  0  0
  -13.7491   -7.8530    0.0000 C   0  0  0  0  0  0  0  0  0  0  0  0
  -14.6410   -9.0590    0.0000 C   0  0  0  0  0  0  0  0  0  0  0  0
  -15.4275  -10.3363    0.0000 C   0  0  0  0  0  0  0  0  0  0  0  0
  -16.1028  -11.6757    0.0000 C   0  0  0  0  0  0  0  0  0  0  0  0
  -16.6621  -13.0675    0.0000 C   0  0  0  0  0  0  0  0  0  0  0  0
  -17.1013  -14.5018    0.0000 C   0  0  0  0  0  0  0  0  0  0  0  0
  -17.4173  -15.9681    0.0000 C   0  0  0  0  0  0  0  0  0  0  0  0
  -17.6078  -17.4560    0.0000 C   0  0  0  0  0  0  0  0  0  0  0  0
  -17.6715  -18.9546    0.0000 C   0  0  0  0  0  0  0  0  0  0  0  0
  -17.6078  -20.4533    0.0000 C   0  0  0  0  0  0  0  0  0  0  0  0
  -17.4173  -21.9411    0.0000 C   0  0  0  0  0  0  0  0  0  0  0  0
  -17.1013  -23.4075    0.0000 C   0  0  0  0  0  0  0  0  0  0  0  0
  -16.6621  -24.8417    0.0000 C   0  0  0  0  0  0  0  0  0  0  0  0
  -16.1028  -26.2335    0.0000 C   0  0  0  0  0  0  0  0  0  0  0  0
  -15.4275  -27.5729    0.0000 C   0  0  0  0  0  0  0  0  0  0  0  0
  -14.6410  -28.8502    0.0000 C   0  0  0  0  0  0  0  0  0  0  0  0
  -13.7491  -30.0562    0.0000 C   0  0  0  0  0  0  0  0  0  0  0  0
  -12.7581  -31.1822    0.0000 C   0  0  0  0  0  0  0  0  0  0  0  0
  -11.6751  -32.2201    0.0000 C   0  0  0  0  0  0  0  0  0  0  0  0
  -10.5081  -33.1625    0.0000 C   0  0  0  0  0  0  0  0  0  0  0  0
   -9.2653  -34.0024    0.0000 C   0  0  0  0  0  0  0  0  0  0  0  0
   -7.9558  -34.7340    0.0000 C   0  0  0  0  0  0  0  0  0  0  0  0
   -6.5889  -35.3518    0.0000 C   0  0  0  0  0  0  0  0  0  0  0  0
   -5.1746  -35.8515    0.0000 C   0  0  0  0  0  0  0  0  0  0  0  0
   -3.7230  -36.2295    0.0000 C   0  0  0  0  0  0  0  0  0  0  0  0
   -2.2446  -36.4830    0.0000 C   0  0  0  0  0  0  0  0  0  0  0  0
   -0.7500  -36.6102    0.0000 C   0  0  0  0  0  0  0  0  0  0  0  0
    0.7500  -36.6102    0.0000 C   0  0  0  0  0  0  0  0  0  0  0  0
    2.2446  -36.4830    0.0000 C   0  0  0  0  0  0  0  0  0  0  0  0
    3.7230  -36.2295    0.0000 C   0  0  0  0  0  0  0  0  0  0  0  0
    5.1746  -35.8515    0.0000 C   0  0  0  0  0  0  0  0  0  0  0  0
    6.5889  -35.3518    0.0000 C   0  0  0  0  0  0  0  0  0  0  0  0
    7.9558  -34.7340    0.0000 C   0  0  0  0  0  0  0  0  0  0  0  0
    9.2653  -34.0024    0.0000 C   0  0  0  0  0  0  0  0  0  0  0  0
   10.5081  -33.1625    0.0000 C   0  0  0  0  0  0  0  0  0  0  0  0
   11.6751  -32.2201    0.0000 C   0  0  0  0  0  0  0  0  0  0  0  0
   12.7581  -31.1822    0.0000 C   0  0  0  0  0  0  0  0  0  0  0  0
   13.7491  -30.0562    0.0000 C   0  0  0  0  0  0  0  0  0  0  0  0
   14.6410  -28.8502    0.0000 C   0  0  0  0  0  0  0  0  0  0  0  0
   15.4275  -27.5729    0.0000 C   0  0  0  0  0  0  0  0  0  0  0  0
   16.1028  -26.2335    0.0000 C   0  0  0  0  0  0  0  0  0  0  0  0
   16.6621  -24.8417    0.0000 C   0  0  0  0  0  0  0  0  0  0  0  0
   17.1013  -23.4075    0.0000 C   0  0  0  0  0  0  0  0  0  0  0  0
   17.4173  -21.9411    0.0000 C   0  0  0  0  0  0  0  0  0  0  0  0
   17.6078  -20.4533    0.0000 C   0  0  0  0  0  0  0  0  0  0  0  0
   17.6715  -18.9546    0.0000 C   0  0  0  0  0  0  0  0  0  0  0  0
   17.6078  -17.4560    0.0000 C   0  0  0  0  0  0  0  0  0  0  0  0
   17.4173  -15.9681    0.0000 C   0  0  0  0  0  0  0  0  0  0  0  0
   17.1013  -14.5018    0.0000 C   0  0  0  0  0  0  0  0  0  0  0  0
   16.6621  -13.0675    0.0000 C   0  0  0  0  0  0  0  0  0  0  0  0
   16.1028  -11.6757    0.0000 C   0  0  0  0  0  0  0  0  0  0  0  0
   15.4275  -10.3363    0.0000 C   0  0  0  0  0  0  0  0  0  0  0  0
   14.6410   -9.0590    0.0000 C   0  0  0  0  0  0  0  0  0  0  0  0
   13.7491   -7.8530    0.0000 C   0  0  0  0  0  0  0  0  0  0  0  0
   12.7581   -6.7270    0.0000 C   0  0  0  0  0  0  0  0  0  0  0  0
   11.6751   -5.6891    0.0000 C   0  0  0  0  0  0  0  0  0  0  0  0
   10.5081   -4.7468    0.0000 C   0  0  0  0  0  0  0  0  0  0  0  0
    9.2653   -3.9068    0.0000 C   0  0  0  0  0  0  0  0  0  0  0  0
    7.9558   -3.1753    0.0000 C   0  0  0  0  0  0  0  0  0  0  0  0
    6.5889   -2.5574    0.0000 C   0  0  0  0  0  0  0  0  0  0  0  0
    5.1746   -2.0577    0.0000 C   0  0  0  0  0  0  0  0  0  0  0  0
    3.7230   -1.6797    0.0000 C   0  0  0  0  0  0  0  0  0  0  0  0
    2.2446   -1.4262    0.0000 C   0  0  0  0  0  0  0  0  0  0  0  0
    0.7500   -1.2990    0.0000 C   0  0  0  0  0  0  0  0  0  0  0  0
    1.5000    0.0000    0.0000 C   0  0  0  0  0  0  0  0  0  0  0  0
    0.7500    1.2990    0.0000 C   0  0  0  0  0  0  0  0  0  0  0  0
   -0.7500    1.2990    0.0000 C   0  0  0  0  0  0  0  0  0  0  0  0
   -1.5000    0.0000    0.0000 C   0  0  0  0  0  0  0  0  0  0  0  0
   -0.7500   -1.2990    0.0000 C   0  0  0  0  0  0  0  0  0  0  0  0
   -2.2446   -1.4262    0.0000 C   0  0  0  0  0  0  0  0  0  0  0  0
   -1.2858   -2.5798    0.0000 C   0  0  0  0  0  0  0  0  0  0  0  0
   -1.8055   -3.9870    0.0000 C   0  0  0  0  0  0  0  0  0  0  0  0
   -3.2839   -4.2405    0.0000 C   0  0  0  0  0  0  0  0  0  0  0  0
   -4.2427   -3.0869    0.0000 C   0  0  0  0  0  0  0  0  0  0  0  0
   -3.7230   -1.6797    0.0000 C   0  0  0  0  0  0  0  0  0  0  0  0
  1  2  1  0
  2  3  1  0
  3  4  1  0
  4  5  1  0
  5  6  1  0
  6  7  1  0
  7  8  1  0
  8  9  1  0
  9 10  1  0
 10 11  1  0
 11 12  1  0
 12 13  1  0
 13 14  1  0
 14 15  1  0
 15 16  1  0
 16 17  1  0
 17 18  1  0
 18 19  1  0
 19 20  1  0
 20 21  1  0
 21 22  1  0
 22 23  1  0
 23 24  1  0
 24 25  1  0
 25 26  1  0
 26 27  1  0
 27 28  1  0
 28 29  1  0
 29 30  1  0
 30 31  1  0
 31 32  1  0
 32 33  1  0
 33 34  1  0
 34 35  1  0
 35 36  1  0
 36 37  1  0
 37 38  1  0
 38 39  1  0
 39 40  1  0
 40 41  1  0
 41 42  1  0
 42 43  1  0
 43 44  1  0
 44 45  1  0
 45 46  1  0
 46 47  1  0
 47 48  1  0
 48 49  1  0
 49 50  1  0
 50 51  1  0
 51 52  1  0
 52 53  1  0
 53 54  1  0
 54 55  1  0
 55 56  1  0
 56 57  1  0
 57 58  1  0
 58 59  1  0
 59 60  1  0
 60 61  1  0
 61 62  1  0
 62 63  1  0
 63 64  1  0
 64 65  1  0
 65 66  1  0
 66 67  1  0
 67 68  1  0
 68 69  1  0
 69 70  1  0
 70 71  1  0
 71 72  1  0
 72 73  2  0
 73 74  1  0
 74 75  2  0
 75 76  1  0
 76 77  2  0
 77 78  1  0
 78 79  2  0
 79 80  1  0
 80 81  2  0
 81 82  1  0
 82 83  2  0
 83  2  1  0
 77 72  1  0
 83 78  1  0
M  END
>  <Title>  (982) 
idABJVgen8

$$$$

     RDKit          2D

 28 31  0  0  0  0  0  0  0  0999 V2000
   -2.3737   -6.1885    0.0000 C   0  0  0  0  0  0  0  0  0  0  0  0
   -1.4095   -5.0395    0.0000 C   0  0  0  0  0  0  0  0  0  0  0  0
   -0.0000   -5.5525    0.0000 C   0  0  0  0  0  0  0  0  0  0  0  0
    1.4095   -5.0395    0.0000 C   0  0  0  0  0  0  0  0  0  0  0  0
    2.1595   -3.7404    0.0000 C   0  0  0  0  0  0  0  0  0  0  0  0
    3.6368   -4.0009    0.0000 O   0  0  0  0  0  0  0  0  0  0  0  0
    1.8991   -2.2632    0.0000 C   0  0  0  0  0  0  0  0  0  0  0  0
    3.1981   -1.5132    0.0000 C   0  0  0  0  0  0  0  0  0  0  0  0
    3.1981   -0.0132    0.0000 O   0  0  0  0  0  0  0  0  0  0  0  0
    4.4971   -2.2632    0.0000 N   0  0  0  0  0  0  0  0  0  0  0  0
    5.7962   -1.5132    0.0000 C   0  0  0  0  0  0  0  0  0  0  0  0
    7.0952   -2.2632    0.0000 N   0  0  0  0  0  0  0  0  0  0  0  0
    8.3943   -1.5132    0.0000 N   0  0  0  0  0  0  0  0  0  0  0  0
    8.3943   -0.0132    0.0000 N   0  0  0  0  0  0  0  0  0  0  0  0
    7.0952    0.7368    0.0000 N   0  0  0  0  0  0  0  0  0  0  0  0
    5.7962   -0.0132    0.0000 N   0  0  0  0  0  0  0  0  0  0  0  0
    0.7500   -1.2990    0.0000 C   0  0  0  0  0  0  0  0  0  0  0  0
    1.5000    0.0000    0.0000 C   0  0  0  0  0  0  0  0  0  0  0  0
    0.7500    1.2990    0.0000 C   0  0  0  0  0  0  0  0  0  0  0  0
   -0.7500    1.2990    0.0000 C   0  0  0  0  0  0  0  0  0  0  0  0
   -1.5000    0.0000    0.0000 C   0  0  0  0  0  0  0  0  0  0  0  0
   -0.7500   -1.2990    0.0000 C   0  0  0  0  0  0  0  0  0  0  0  0
   -1.8991   -2.2632    0.0000 C   0  0  0  0  0  0  0  0  0  0  0  0
   -3.0481   -1.2990    0.0000 C   0  0  0  0  0  0  0  0  0  0  0  0
   -4.4577   -1.8121    0.0000 C   0  0  0  0  0  0  0  0  0  0  0  0
   -4.7181   -3.2893    0.0000 C   0  0  0  0  0  0  0  0  0  0  0  0
   -3.5691   -4.2535    0.0000 C   0  0  0  0  0  0  0  0  0  0  0  0
   -2.1595   -3.7404    0.0000 C   0  0  0  0  0  0  0  0  0  0  0  0
  1  2  1  0
  2  3  2  0
  3  4  1  0
  4  5  1  0
  5  6  1  0
  5  7  2  0
  7  8  1  0
  8  9  2  0
  8 10  1  0
 10 11  1  0
 11 12  2  0
 12 13  1  0
 13 14  2  0
 14 15  1  0
 15 16  2  0
  7 17  1  0
 17 18  2  0
 18 19  1  0
 19 20  2  0
 20 21  1  0
 21 22  2  0
 22 23  1  0
 23 24  2  0
 24 25  1  0
 25 26  2  0
 26 27  1  0
 27 28  2  0
 28  2  1  0
 16 11  1  0
 22 17  1  0
 28 23  1  0
M  END
>  <Title>  (983) 
idABJWgen8

$$$$

     RDKit          2D

 10 10  0  0  0  0  0  0  0  0999 V2000
    2.7760    0.0000    0.0000 C   0  0  0  0  0  0  0  0  0  0  0  0
    1.2760    0.0000    0.0000 C   0  0  0  0  0  0  0  0  0  0  0  0
    0.3943    1.2135    0.0000 C   0  0  0  0  0  0  0  0  0  0  0  0
   -1.0323    0.7500    0.0000 C   0  0  0  0  0  0  0  0  0  0  0  0
   -1.0323   -0.7500    0.0000 C   0  0  0  0  0  0  0  0  0  0  0  0
   -2.2458   -1.6317    0.0000 C   0  0  0  0  0  0  0  0  0  0  0  0
   -2.0890   -3.1235    0.0000 O   0  0  0  0  0  0  0  0  0  0  0  0
   -3.6161   -1.0216    0.0000 O   0  0  0  0  0  0  0  0  0  0  0  0
    0.3943   -1.2135    0.0000 C   0  0  0  0  0  0  0  0  0  0  0  0
    0.8578   -2.6401    0.0000 O   0  0  0  0  0  0  0  0  0  0  0  0
  1  2  1  0
  2  3  2  0
  3  4  1  0
  4  5  1  0
  5  6  1  0
  6  7  2  0
  6  8  1  0
  5  9  1  0
  9 10  2  0
  9  2  1  0
M  END
>  <Title>  (984) 
idABJXgen8

$$$$

     RDKit          2D

 11 11  0  0  0  0  0  0  0  0999 V2000
    3.5377   -3.4056    0.0000 C   0  0  0  0  0  0  0  0  0  0  0  0
    2.3886   -2.4414    0.0000 C   0  0  0  0  0  0  0  0  0  0  0  0
    2.6491   -0.9642    0.0000 C   0  0  0  0  0  0  0  0  0  0  0  0
    1.5000    0.0000    0.0000 C   0  0  0  0  0  0  0  0  0  0  0  0
    2.6491    0.9642    0.0000 C   0  0  0  0  0  0  0  0  0  0  0  0
    0.7500   -1.2990    0.0000 C   0  0  0  0  0  0  0  0  0  0  0  0
   -0.7500   -1.2990    0.0000 C   0  0  0  0  0  0  0  0  0  0  0  0
   -1.5000    0.0000    0.0000 C   0  0  0  0  0  0  0  0  0  0  0  0
   -3.0000    0.0000    0.0000 O   0  0  0  0  0  0  0  0  0  0  0  0
   -0.7500    1.2990    0.0000 C   0  0  0  0  0  0  0  0  0  0  0  0
    0.7500    1.2990    0.0000 C   0  0  0  0  0  0  0  0  0  0  0  0
  1  2  1  0
  2  3  1  0
  3  4  1  0
  4  5  1  0
  4  6  1  0
  6  7  1  0
  7  8  1  0
  8  9  1  0
  8 10  1  0
 10 11  1  0
 11  4  1  0
M  END
>  <Title>  (985) 
idABJYgen8

$$$$

     RDKit          2D

 11 10  0  0  0  0  0  0  0  0999 V2000
    0.0000    0.0000    0.0000 C   0  0  0  0  0  0  0  0  0  0  0  0
    1.2990    0.7500    0.0000 C   0  0  0  0  0  0  0  0  0  0  0  0
    2.5981   -0.0000    0.0000 C   0  0  0  0  0  0  0  0  0  0  0  0
    3.8971    0.7500    0.0000 C   0  0  0  0  0  0  0  0  0  0  0  0
    5.1962   -0.0000    0.0000 C   0  0  0  0  0  0  0  0  0  0  0  0
    6.4952    0.7500    0.0000 C   0  0  0  0  0  0  0  0  0  0  0  0
    6.4952    2.2500    0.0000 O   0  0  0  0  0  0  0  0  0  0  0  0
    7.7942   -0.0000    0.0000 C   0  0  0  0  0  0  0  0  0  0  0  0
    7.7942   -1.5000    0.0000 O   0  0  0  0  0  0  0  0  0  0  0  0
    9.0933    0.7500    0.0000 C   0  0  0  0  0  0  0  0  0  0  0  0
   10.3923   -0.0000    0.0000 C   0  0  0  0  0  0  0  0  0  0  0  0
  1  2  1  0
  2  3  2  3
  3  4  1  0
  4  5  1  0
  5  6  2  3
  6  7  1  0
  6  8  1  0
  8  9  2  0
  8 10  1  0
 10 11  1  0
M  END
>  <Title>  (986) 
idABJZgen8

$$$$

     RDKit          2D

  8  8  0  0  0  0  0  0  0  0999 V2000
    3.2286   -0.0000    0.0000 O   0  0  0  0  0  0  0  0  0  0  0  0
    1.7286    0.0000    0.0000 C   0  0  0  0  0  0  0  0  0  0  0  0
    1.0777    1.3515    0.0000 C   0  0  0  0  0  0  0  0  0  0  0  0
   -0.3846    1.6852    0.0000 C   0  0  0  0  0  0  0  0  0  0  0  0
   -1.5574    0.7500    0.0000 C   0  0  0  0  0  0  0  0  0  0  0  0
   -1.5574   -0.7500    0.0000 C   0  0  0  0  0  0  0  0  0  0  0  0
   -0.3846   -1.6852    0.0000 C   0  0  0  0  0  0  0  0  0  0  0  0
    1.0777   -1.3515    0.0000 C   0  0  0  0  0  0  0  0  0  0  0  0
  1  2  1  0
  2  3  2  0
  3  4  1  0
  4  5  1  0
  5  6  1  0
  6  7  1  0
  7  8  2  0
  8  2  1  0
M  END
>  <Title>  (987) 
idABKAgen8

$$$$

     RDKit          2D

 63 72  0  0  0  0  0  0  0  0999 V2000
    6.2168   -5.0497    0.0000 C   0  0  0  0  0  0  0  0  0  0  0  0
    4.7353   -5.2844    0.0000 C   0  0  0  0  0  0  0  0  0  0  0  0
    4.2718   -3.8578    0.0000 C   0  0  0  0  0  0  0  0  0  0  0  0
    3.3901   -2.6442    0.0000 C   0  0  0  0  0  0  0  0  0  0  0  0
    2.1766   -1.7626    0.0000 C   0  0  0  0  0  0  0  0  0  0  0  0
    2.8576   -0.4261    0.0000 C   0  0  0  0  0  0  0  0  0  0  0  0
    2.0406    0.8320    0.0000 O   0  0  0  0  0  0  0  0  0  0  0  0
    4.3555   -0.3475    0.0000 N   0  0  0  0  0  0  0  0  0  0  0  0
    5.0365    0.9890    0.0000 C   0  0  0  0  0  0  0  0  0  0  0  0
    6.5344    1.0675    0.0000 N   0  0  0  0  0  0  0  0  0  0  0  0
    7.2154    2.4040    0.0000 N   0  0  0  0  0  0  0  0  0  0  0  0
    6.3985    3.6620    0.0000 N   0  0  0  0  0  0  0  0  0  0  0  0
    4.9005    3.5835    0.0000 N   0  0  0  0  0  0  0  0  0  0  0  0
    4.2195    2.2470    0.0000 N   0  0  0  0  0  0  0  0  0  0  0  0
    0.7500   -1.2990    0.0000 C   0  0  0  0  0  0  0  0  0  0  0  0
    1.5000    0.0000    0.0000 C   0  0  0  0  0  0  0  0  0  0  0  0
    0.7500    1.2990    0.0000 C   0  0  0  0  0  0  0  0  0  0  0  0
   -0.7500    1.2990    0.0000 C   0  0  0  0  0  0  0  0  0  0  0  0
   -1.5000    0.0000    0.0000 C   0  0  0  0  0  0  0  0  0  0  0  0
   -0.7500   -1.2990    0.0000 C   0  0  0  0  0  0  0  0  0  0  0  0
   -2.1766   -1.7626    0.0000 C   0  0  0  0  0  0  0  0  0  0  0  0
   -2.6401   -0.3360    0.0000 C   0  0  0  0  0  0  0  0  0  0  0  0
   -4.1401   -0.3360    0.0000 C   0  0  0  0  0  0  0  0  0  0  0  0
   -5.0218    0.8775    0.0000 C   0  0  0  0  0  0  0  0  0  0  0  0
   -5.9035    2.0911    0.0000 N   0  0  0  0  0  0  0  0  0  0  0  0
   -4.6036   -1.7626    0.0000 C   0  0  0  0  0  0  0  0  0  0  0  0
   -3.3901   -2.6442    0.0000 C   0  0  0  0  0  0  0  0  0  0  0  0
   -4.2718   -3.8578    0.0000 C   0  0  0  0  0  0  0  0  0  0  0  0
   -5.2755   -2.7430    0.0000 C   0  0  0  0  0  0  0  0  0  0  0  0
   -6.7427   -3.0549    0.0000 C   0  0  0  0  0  0  0  0  0  0  0  0
   -7.2062   -4.4815    0.0000 C   0  0  0  0  0  0  0  0  0  0  0  0
   -6.2025   -5.5962    0.0000 C   0  0  0  0  0  0  0  0  0  0  0  0
   -4.7353   -5.2844    0.0000 C   0  0  0  0  0  0  0  0  0  0  0  0
   -4.7353   -6.7844    0.0000 C   0  0  0  0  0  0  0  0  0  0  0  0
   -6.2025   -6.4725    0.0000 C   0  0  0  0  0  0  0  0  0  0  0  0
   -7.2062   -7.5872    0.0000 C   0  0  0  0  0  0  0  0  0  0  0  0
   -6.7427   -9.0138    0.0000 C   0  0  0  0  0  0  0  0  0  0  0  0
   -5.2755   -9.3257    0.0000 C   0  0  0  0  0  0  0  0  0  0  0  0
   -4.2718   -8.2109    0.0000 C   0  0  0  0  0  0  0  0  0  0  0  0
   -3.3901   -9.4245    0.0000 C   0  0  0  0  0  0  0  0  0  0  0  0
   -4.7604  -10.0346    0.0000 C   0  0  0  0  0  0  0  0  0  0  0  0
   -4.9172  -11.5263    0.0000 C   0  0  0  0  0  0  0  0  0  0  0  0
   -3.7037  -12.4080    0.0000 C   0  0  0  0  0  0  0  0  0  0  0  0
   -2.3334  -11.7979    0.0000 C   0  0  0  0  0  0  0  0  0  0  0  0
   -2.1766  -10.3061    0.0000 C   0  0  0  0  0  0  0  0  0  0  0  0
   -0.7500  -10.7697    0.0000 C   0  0  0  0  0  0  0  0  0  0  0  0
   -1.5000  -12.0687    0.0000 C   0  0  0  0  0  0  0  0  0  0  0  0
   -0.7500  -13.3677    0.0000 C   0  0  0  0  0  0  0  0  0  0  0  0
    0.7500  -13.3677    0.0000 C   0  0  0  0  0  0  0  0  0  0  0  0
    1.5000  -12.0687    0.0000 C   0  0  0  0  0  0  0  0  0  0  0  0
    0.7500  -10.7697    0.0000 C   0  0  0  0  0  0  0  0  0  0  0  0
    2.1766  -10.3061    0.0000 C   0  0  0  0  0  0  0  0  0  0  0  0
    2.3334  -11.7979    0.0000 C   0  0  0  0  0  0  0  0  0  0  0  0
    3.7037  -12.4080    0.0000 C   0  0  0  0  0  0  0  0  0  0  0  0
    4.9172  -11.5263    0.0000 C   0  0  0  0  0  0  0  0  0  0  0  0
    4.7604  -10.0346    0.0000 C   0  0  0  0  0  0  0  0  0  0  0  0
    3.3901   -9.4245    0.0000 C   0  0  0  0  0  0  0  0  0  0  0  0
    4.2718   -8.2109    0.0000 C   0  0  0  0  0  0  0  0  0  0  0  0
    5.2755   -9.3257    0.0000 C   0  0  0  0  0  0  0  0  0  0  0  0
    6.7427   -9.0138    0.0000 C   0  0  0  0  0  0  0  0  0  0  0  0
    7.2062   -7.5872    0.0000 C   0  0  0  0  0  0  0  0  0  0  0  0
    6.2025   -6.4725    0.0000 C   0  0  0  0  0  0  0  0  0  0  0  0
    4.7353   -6.7844    0.0000 C   0  0  0  0  0  0  0  0  0  0  0  0
  1  2  1  0
  2  3  1  0
  3  4  1  0
  4  5  1  0
  5  6  1  0
  6  7  2  0
  6  8  1  0
  8  9  1  0
  9 10  2  0
 10 11  1  0
 11 12  2  0
 12 13  1  0
 13 14  2  0
  5 15  1  0
 15 16  2  0
 16 17  1  0
 17 18  2  0
 18 19  1  0
 19 20  2  0
 20 21  1  0
 21 22  2  0
 22 23  1  0
 23 24  1  0
 24 25  3  0
 23 26  1  0
 26 27  2  0
 27 28  1  0
 28 29  2  0
 29 30  1  0
 30 31  2  0
 31 32  1  0
 32 33  2  0
 33 34  1  0
 34 35  2  0
 35 36  1  0
 36 37  2  0
 37 38  1  0
 38 39  2  0
 39 40  1  0
 40 41  2  0
 41 42  1  0
 42 43  2  0
 43 44  1  0
 44 45  2  0
 45 46  1  0
 46 47  2  0
 47 48  1  0
 48 49  2  0
 49 50  1  0
 50 51  2  0
 51 52  1  0
 52 53  2  0
 53 54  1  0
 54 55  2  0
 55 56  1  0
 56 57  2  0
 57 58  1  0
 58 59  2  0
 59 60  1  0
 60 61  2  0
 61 62  1  0
 62 63  2  0
 63  2  1  0
 14  9  1  0
 20 15  1  0
 27 21  1  0
 33 28  1  0
 39 34  1  0
 45 40  1  0
 51 46  1  0
 57 52  1  0
 63 58  1  0
M  END
>  <Title>  (988) 
idABKBgen8

$$$$

     RDKit          2D

  9  9  0  0  0  0  0  0  0  0999 V2000
    3.2286   -0.0000    0.0000 C   0  0  0  0  0  0  0  0  0  0  0  0
    1.7286    0.0000    0.0000 C   0  0  0  0  0  0  0  0  0  0  0  0
    1.0777    1.3515    0.0000 C   0  0  0  0  0  0  0  0  0  0  0  0
   -0.3846    1.6852    0.0000 C   0  0  0  0  0  0  0  0  0  0  0  0
   -0.7184    3.1476    0.0000 O   0  0  0  0  0  0  0  0  0  0  0  0
   -1.5574    0.7500    0.0000 C   0  0  0  0  0  0  0  0  0  0  0  0
   -1.5574   -0.7500    0.0000 C   0  0  0  0  0  0  0  0  0  0  0  0
   -0.3846   -1.6852    0.0000 C   0  0  0  0  0  0  0  0  0  0  0  0
    1.0777   -1.3515    0.0000 C   0  0  0  0  0  0  0  0  0  0  0  0
  1  2  1  0
  2  3  2  0
  3  4  1  0
  4  5  1  0
  4  6  1  0
  6  7  1  0
  7  8  3  0
  8  9  1  0
  9  2  1  0
M  END
>  <Title>  (989) 
idABKCgen8

$$$$

     RDKit          2D

 16 16  0  0  0  0  0  0  0  0999 V2000
   16.5000    0.0000    0.0000 C   0  0  0  0  0  0  0  0  0  0  0  0
   15.0000    0.0000    0.0000 C   0  0  0  0  0  0  0  0  0  0  0  0
   13.5000    0.0000    0.0000 C   0  0  0  0  0  0  0  0  0  0  0  0
   12.0000    0.0000    0.0000 C   0  0  0  0  0  0  0  0  0  0  0  0
   10.5000    0.0000    0.0000 C   0  0  0  0  0  0  0  0  0  0  0  0
    9.0000    0.0000    0.0000 C   0  0  0  0  0  0  0  0  0  0  0  0
    7.5000    0.0000    0.0000 C   0  0  0  0  0  0  0  0  0  0  0  0
    6.0000    0.0000    0.0000 C   0  0  0  0  0  0  0  0  0  0  0  0
    4.5000    0.0000    0.0000 C   0  0  0  0  0  0  0  0  0  0  0  0
    3.0000    0.0000    0.0000 C   0  0  0  0  0  0  0  0  0  0  0  0
    1.5000    0.0000    0.0000 C   0  0  0  0  0  0  0  0  0  0  0  0
    0.7500   -1.2990    0.0000 C   0  0  0  0  0  0  0  0  0  0  0  0
   -0.7500   -1.2990    0.0000 C   0  0  0  0  0  0  0  0  0  0  0  0
   -1.5000    0.0000    0.0000 C   0  0  0  0  0  0  0  0  0  0  0  0
   -0.7500    1.2990    0.0000 C   0  0  0  0  0  0  0  0  0  0  0  0
    0.7500    1.2990    0.0000 C   0  0  0  0  0  0  0  0  0  0  0  0
  1  2  3  0
  2  3  1  0
  3  4  3  0
  4  5  1  0
  5  6  3  0
  6  7  1  0
  7  8  3  0
  8  9  1  0
  9 10  3  0
 10 11  1  0
 11 12  2  0
 12 13  1  0
 13 14  1  0
 14 15  1  0
 15 16  1  0
 16 11  1  0
M  END
>  <Title>  (990) 
idABKDgen8

$$$$

     RDKit          2D

109109  0  0  0  0  0  0  0  0999 V2000
   26.8093    0.0000    0.0000 C   0  0  0  0  0  0  0  0  0  0  0  0
   25.3093    0.0000    0.0000 C   0  0  0  0  0  0  0  0  0  0  0  0
   25.2649   -1.4993    0.0000 C   0  0  0  0  0  0  0  0  0  0  0  0
   25.1317   -2.9934    0.0000 C   0  0  0  0  0  0  0  0  0  0  0  0
   24.9102   -4.4770    0.0000 C   0  0  0  0  0  0  0  0  0  0  0  0
   24.6013   -5.9448    0.0000 C   0  0  0  0  0  0  0  0  0  0  0  0
   24.2059   -7.3918    0.0000 C   0  0  0  0  0  0  0  0  0  0  0  0
   23.7255   -8.8128    0.0000 C   0  0  0  0  0  0  0  0  0  0  0  0
   23.1617  -10.2028    0.0000 C   0  0  0  0  0  0  0  0  0  0  0  0
   22.5166  -11.5570    0.0000 C   0  0  0  0  0  0  0  0  0  0  0  0
   21.7924  -12.8706    0.0000 C   0  0  0  0  0  0  0  0  0  0  0  0
   20.9917  -14.1390    0.0000 C   0  0  0  0  0  0  0  0  0  0  0  0
   20.1172  -15.3577    0.0000 C   0  0  0  0  0  0  0  0  0  0  0  0
   19.1721  -16.5225    0.0000 C   0  0  0  0  0  0  0  0  0  0  0  0
   18.1596  -17.6292    0.0000 C   0  0  0  0  0  0  0  0  0  0  0  0
   17.0834  -18.6741    0.0000 C   0  0  0  0  0  0  0  0  0  0  0  0
   15.9471  -19.6533    0.0000 C   0  0  0  0  0  0  0  0  0  0  0  0
   14.7548  -20.5635    0.0000 C   0  0  0  0  0  0  0  0  0  0  0  0
   13.5107  -21.4015    0.0000 C   0  0  0  0  0  0  0  0  0  0  0  0
   12.2192  -22.1643    0.0000 C   0  0  0  0  0  0  0  0  0  0  0  0
   10.8847  -22.8492    0.0000 C   0  0  0  0  0  0  0  0  0  0  0  0
    9.5119  -23.4539    0.0000 C   0  0  0  0  0  0  0  0  0  0  0  0
    8.1058  -23.9762    0.0000 C   0  0  0  0  0  0  0  0  0  0  0  0
    6.6712  -24.4143    0.0000 C   0  0  0  0  0  0  0  0  0  0  0  0
    5.2132  -24.7666    0.0000 C   0  0  0  0  0  0  0  0  0  0  0  0
    3.7368  -25.0320    0.0000 C   0  0  0  0  0  0  0  0  0  0  0  0
    2.2474  -25.2094    0.0000 C   0  0  0  0  0  0  0  0  0  0  0  0
    0.7500  -25.2982    0.0000 C   0  0  0  0  0  0  0  0  0  0  0  0
   -0.7500  -25.2982    0.0000 C   0  0  0  0  0  0  0  0  0  0  0  0
   -2.2474  -25.2094    0.0000 C   0  0  0  0  0  0  0  0  0  0  0  0
   -3.7368  -25.0320    0.0000 C   0  0  0  0  0  0  0  0  0  0  0  0
   -5.2132  -24.7666    0.0000 C   0  0  0  0  0  0  0  0  0  0  0  0
   -6.6712  -24.4143    0.0000 C   0  0  0  0  0  0  0  0  0  0  0  0
   -8.1058  -23.9762    0.0000 C   0  0  0  0  0  0  0  0  0  0  0  0
   -9.5119  -23.4539    0.0000 C   0  0  0  0  0  0  0  0  0  0  0  0
  -10.8847  -22.8492    0.0000 C   0  0  0  0  0  0  0  0  0  0  0  0
  -12.2192  -22.1643    0.0000 C   0  0  0  0  0  0  0  0  0  0  0  0
  -13.5107  -21.4015    0.0000 C   0  0  0  0  0  0  0  0  0  0  0  0
  -14.7548  -20.5635    0.0000 C   0  0  0  0  0  0  0  0  0  0  0  0
  -15.9471  -19.6533    0.0000 C   0  0  0  0  0  0  0  0  0  0  0  0
  -17.0834  -18.6741    0.0000 C   0  0  0  0  0  0  0  0  0  0  0  0
  -18.1596  -17.6292    0.0000 C   0  0  0  0  0  0  0  0  0  0  0  0
  -19.1721  -16.5225    0.0000 C   0  0  0  0  0  0  0  0  0  0  0  0
  -20.1172  -15.3577    0.0000 C   0  0  0  0  0  0  0  0  0  0  0  0
  -20.9917  -14.1390    0.0000 C   0  0  0  0  0  0  0  0  0  0  0  0
  -21.7924  -12.8706    0.0000 C   0  0  0  0  0  0  0  0  0  0  0  0
  -22.5166  -11.5570    0.0000 C   0  0  0  0  0  0  0  0  0  0  0  0
  -23.1617  -10.2028    0.0000 C   0  0  0  0  0  0  0  0  0  0  0  0
  -23.7255   -8.8128    0.0000 C   0  0  0  0  0  0  0  0  0  0  0  0
  -24.2059   -7.3918    0.0000 C   0  0  0  0  0  0  0  0  0  0  0  0
  -24.6013   -5.9448    0.0000 C   0  0  0  0  0  0  0  0  0  0  0  0
  -24.9102   -4.4770    0.0000 C   0  0  0  0  0  0  0  0  0  0  0  0
  -25.1317   -2.9934    0.0000 C   0  0  0  0  0  0  0  0  0  0  0  0
  -25.2649   -1.4993    0.0000 C   0  0  0  0  0  0  0  0  0  0  0  0
  -25.3093    0.0000    0.0000 C   0  0  0  0  0  0  0  0  0  0  0  0
  -25.2649    1.4993    0.0000 C   0  0  0  0  0  0  0  0  0  0  0  0
  -25.1317    2.9934    0.0000 C   0  0  0  0  0  0  0  0  0  0  0  0
  -24.9102    4.4770    0.0000 C   0  0  0  0  0  0  0  0  0  0  0  0
  -24.6013    5.9448    0.0000 C   0  0  0  0  0  0  0  0  0  0  0  0
  -24.2059    7.3918    0.0000 C   0  0  0  0  0  0  0  0  0  0  0  0
  -23.7255    8.8128    0.0000 C   0  0  0  0  0  0  0  0  0  0  0  0
  -23.1617   10.2028    0.0000 C   0  0  0  0  0  0  0  0  0  0  0  0
  -22.5166   11.5570    0.0000 C   0  0  0  0  0  0  0  0  0  0  0  0
  -21.7924   12.8706    0.0000 C   0  0  0  0  0  0  0  0  0  0  0  0
  -20.9917   14.1390    0.0000 C   0  0  0  0  0  0  0  0  0  0  0  0
  -20.1172   15.3577    0.0000 C   0  0  0  0  0  0  0  0  0  0  0  0
  -19.1721   16.5225    0.0000 C   0  0  0  0  0  0  0  0  0  0  0  0
  -18.1596   17.6292    0.0000 C   0  0  0  0  0  0  0  0  0  0  0  0
  -17.0834   18.6741    0.0000 C   0  0  0  0  0  0  0  0  0  0  0  0
  -15.9471   19.6533    0.0000 C   0  0  0  0  0  0  0  0  0  0  0  0
  -14.7548   20.5635    0.0000 C   0  0  0  0  0  0  0  0  0  0  0  0
  -13.5107   21.4015    0.0000 C   0  0  0  0  0  0  0  0  0  0  0  0
  -12.2192   22.1643    0.0000 C   0  0  0  0  0  0  0  0  0  0  0  0
  -10.8847   22.8492    0.0000 C   0  0  0  0  0  0  0  0  0  0  0  0
   -9.5119   23.4539    0.0000 C   0  0  0  0  0  0  0  0  0  0  0  0
   -8.1058   23.9762    0.0000 C   0  0  0  0  0  0  0  0  0  0  0  0
   -6.6712   24.4143    0.0000 C   0  0  0  0  0  0  0  0  0  0  0  0
   -5.2132   24.7666    0.0000 C   0  0  0  0  0  0  0  0  0  0  0  0
   -3.7368   25.0320    0.0000 C   0  0  0  0  0  0  0  0  0  0  0  0
   -2.2474   25.2094    0.0000 C   0  0  0  0  0  0  0  0  0  0  0  0
   -0.7500   25.2982    0.0000 C   0  0  0  0  0  0  0  0  0  0  0  0
    0.7500   25.2982    0.0000 C   0  0  0  0  0  0  0  0  0  0  0  0
    2.2474   25.2094    0.0000 C   0  0  0  0  0  0  0  0  0  0  0  0
    3.7368   25.0320    0.0000 C   0  0  0  0  0  0  0  0  0  0  0  0
    5.2132   24.7666    0.0000 C   0  0  0  0  0  0  0  0  0  0  0  0
    6.6712   24.4143    0.0000 C   0  0  0  0  0  0  0  0  0  0  0  0
    8.1058   23.9762    0.0000 C   0  0  0  0  0  0  0  0  0  0  0  0
    9.5119   23.4539    0.0000 C   0  0  0  0  0  0  0  0  0  0  0  0
   10.8847   22.8492    0.0000 C   0  0  0  0  0  0  0  0  0  0  0  0
   12.2192   22.1643    0.0000 C   0  0  0  0  0  0  0  0  0  0  0  0
   13.5107   21.4015    0.0000 C   0  0  0  0  0  0  0  0  0  0  0  0
   14.7548   20.5635    0.0000 C   0  0  0  0  0  0  0  0  0  0  0  0
   15.9471   19.6533    0.0000 C   0  0  0  0  0  0  0  0  0  0  0  0
   17.0834   18.6741    0.0000 C   0  0  0  0  0  0  0  0  0  0  0  0
   18.1596   17.6292    0.0000 C   0  0  0  0  0  0  0  0  0  0  0  0
   19.1721   16.5225    0.0000 C   0  0  0  0  0  0  0  0  0  0  0  0
   20.1172   15.3577    0.0000 C   0  0  0  0  0  0  0  0  0  0  0  0
   20.9917   14.1390    0.0000 C   0  0  0  0  0  0  0  0  0  0  0  0
   21.7924   12.8706    0.0000 C   0  0  0  0  0  0  0  0  0  0  0  0
   22.5166   11.5570    0.0000 C   0  0  0  0  0  0  0  0  0  0  0  0
   23.1617   10.2028    0.0000 C   0  0  0  0  0  0  0  0  0  0  0  0
   23.7255    8.8128    0.0000 C   0  0  0  0  0  0  0  0  0  0  0  0
   24.2059    7.3918    0.0000 C   0  0  0  0  0  0  0  0  0  0  0  0
   24.6013    5.9448    0.0000 C   0  0  0  0  0  0  0  0  0  0  0  0
   24.9102    4.4770    0.0000 C   0  0  0  0  0  0  0  0  0  0  0  0
   26.3866    4.7423    0.0000 C   0  0  0  0  0  0  0  0  0  0  0  0
   25.1317    2.9934    0.0000 C   0  0  0  0  0  0  0  0  0  0  0  0
   26.6212    3.1708    0.0000 O   0  0  0  0  0  0  0  0  0  0  0  0
   25.2649    1.4993    0.0000 C   0  0  0  0  0  0  0  0  0  0  0  0
  1  2  1  0
  2  3  1  0
  3  4  1  0
  4  5  1  0
  5  6  1  0
  6  7  1  0
  7  8  1  0
  8  9  1  0
  9 10  1  0
 10 11  1  0
 11 12  1  0
 12 13  1  0
 13 14  1  0
 14 15  1  0
 15 16  1  0
 16 17  1  0
 17 18  1  0
 18 19  1  0
 19 20  1  0
 20 21  1  0
 21 22  1  0
 22 23  1  0
 23 24  1  0
 24 25  1  0
 25 26  1  0
 26 27  1  0
 27 28  1  0
 28 29  1  0
 29 30  1  0
 30 31  1  0
 31 32  1  0
 32 33  1  0
 33 34  1  0
 34 35  1  0
 35 36  1  0
 36 37  1  0
 37 38  1  0
 38 39  1  0
 39 40  1  0
 40 41  1  0
 41 42  1  0
 42 43  1  0
 43 44  1  0
 44 45  1  0
 45 46  1  0
 46 47  1  0
 47 48  1  0
 48 49  1  0
 49 50  1  0
 50 51  1  0
 51 52  1  0
 52 53  1  0
 53 54  1  0
 54 55  1  0
 55 56  1  0
 56 57  1  0
 57 58  1  0
 58 59  1  0
 59 60  1  0
 60 61  1  0
 61 62  1  0
 62 63  1  0
 63 64  1  0
 64 65  1  0
 65 66  1  0
 66 67  1  0
 67 68  1  0
 68 69  1  0
 69 70  1  0
 70 71  1  0
 71 72  1  0
 72 73  1  0
 73 74  1  0
 74 75  1  0
 75 76  1  0
 76 77  1  0
 77 78  1  0
 78 79  1  0
 79 80  1  0
 80 81  1  0
 81 82  1  0
 82 83  1  0
 83 84  1  0
 84 85  1  0
 85 86  1  0
 86 87  1  0
 87 88  1  0
 88 89  1  0
 89 90  1  0
 90 91  1  0
 91 92  1  0
 92 93  1  0
 93 94  1  0
 94 95  1  0
 95 96  1  0
 96 97  1  0
 97 98  1  0
 98 99  1  0
 99100  1  0
100101  1  0
101102  1  0
102103  1  0
103104  1  0
104105  1  0
105106  1  0
105107  1  0
107108  2  0
107109  1  0
109  2  1  0
M  END
>  <Title>  (991) 
idABKEgen8

$$$$

     RDKit          2D

 14 14  0  0  0  0  0  0  0  0999 V2000
    9.0000   -5.1962    0.0000 C   0  0  0  0  0  0  0  0  0  0  0  0
    7.5000   -5.1962    0.0000 C   0  0  0  0  0  0  0  0  0  0  0  0
    6.7500   -3.8971    0.0000 C   0  0  0  0  0  0  0  0  0  0  0  0
    6.0000   -2.5981    0.0000 C   0  0  0  0  0  0  0  0  0  0  0  0
    5.2500   -1.2990    0.0000 C   0  0  0  0  0  0  0  0  0  0  0  0
    3.7500   -1.2990    0.0000 C   0  0  0  0  0  0  0  0  0  0  0  0
    3.0000   -2.5981    0.0000 O   0  0  0  0  0  0  0  0  0  0  0  0
    3.0000    0.0000    0.0000 N   0  0  0  0  0  0  0  0  0  0  0  0
    1.5000    0.0000    0.0000 C   0  0  0  0  0  0  0  0  0  0  0  0
    0.7500   -1.2990    0.0000 N   0  0  0  0  0  0  0  0  0  0  0  0
   -0.7500   -1.2990    0.0000 N   0  0  0  0  0  0  0  0  0  0  0  0
   -1.5000    0.0000    0.0000 N   0  0  0  0  0  0  0  0  0  0  0  0
   -0.7500    1.2990    0.0000 N   0  0  0  0  0  0  0  0  0  0  0  0
    0.7500    1.2990    0.0000 N   0  0  0  0  0  0  0  0  0  0  0  0
  1  2  1  0
  2  3  1  0
  3  4  3  0
  4  5  1  0
  5  6  1  0
  6  7  2  0
  6  8  1  0
  8  9  1  0
  9 10  2  0
 10 11  1  0
 11 12  2  0
 12 13  1  0
 13 14  2  0
 14  9  1  0
M  END
>  <Title>  (992) 
idABKFgen8

$$$$

     RDKit          2D

 22 23  0  0  0  0  0  0  0  0999 V2000
    3.0000    0.0000    0.0000 C   0  0  0  0  0  0  0  0  0  0  0  0
    1.5000    0.0000    0.0000 C   0  0  0  0  0  0  0  0  0  0  0  0
    0.7500   -1.2990    0.0000 C   0  0  0  0  0  0  0  0  0  0  0  0
   -0.7500   -1.2990    0.0000 C   0  0  0  0  0  0  0  0  0  0  0  0
   -1.5000    0.0000    0.0000 C   0  0  0  0  0  0  0  0  0  0  0  0
   -3.0000    0.0000    0.0000 O   0  0  0  0  0  0  0  0  0  0  0  0
   -0.7500    1.2990    0.0000 C   0  0  0  0  0  0  0  0  0  0  0  0
    0.7500    1.2990    0.0000 C   0  0  0  0  0  0  0  0  0  0  0  0
    2.1595    1.8121    0.0000 O   0  0  0  0  0  0  0  0  0  0  0  0
    0.4895    2.7762    0.0000 C   0  0  0  0  0  0  0  0  0  0  0  0
    1.6386    3.7404    0.0000 C   0  0  0  0  0  0  0  0  0  0  0  0
    1.3781    5.2176    0.0000 C   0  0  0  0  0  0  0  0  0  0  0  0
   -0.0314    5.7307    0.0000 O   0  0  0  0  0  0  0  0  0  0  0  0
    2.5272    6.1818    0.0000 N   0  0  0  0  0  0  0  0  0  0  0  0
    2.4226    7.6782    0.0000 C   0  0  0  0  0  0  0  0  0  0  0  0
    3.8133    8.2401    0.0000 C   0  0  0  0  0  0  0  0  0  0  0  0
    4.7775    7.0910    0.0000 C   0  0  0  0  0  0  0  0  0  0  0  0
    6.2739    7.1956    0.0000 C   0  0  0  0  0  0  0  0  0  0  0  0
    6.9314    8.5438    0.0000 O   0  0  0  0  0  0  0  0  0  0  0  0
    7.1126    5.9521    0.0000 O   0  0  0  0  0  0  0  0  0  0  0  0
    3.9826    5.8189    0.0000 C   0  0  0  0  0  0  0  0  0  0  0  0
    4.5445    4.4282    0.0000 O   0  0  0  0  0  0  0  0  0  0  0  0
  1  2  1  0
  2  3  1  0
  3  4  1  0
  4  5  1  0
  5  6  1  0
  5  7  1  0
  7  8  1  0
  8  9  1  0
  8 10  1  0
 10 11  1  0
 11 12  1  0
 12 13  2  0
 12 14  1  0
 14 15  1  0
 15 16  1  0
 16 17  1  0
 17 18  1  0
 18 19  2  0
 18 20  1  0
 17 21  1  0
 21 22  2  0
  8  2  1  0
 21 14  1  0
M  END
>  <Title>  (993) 
idABKGgen8

$$$$

     RDKit          2D

 93 94  0  0  0  0  0  0  0  0999 V2000
   -3.4858    2.3560    0.0000 C   0  0  0  0  0  0  0  0  0  0  0  0
   -2.5765    1.1631    0.0000 C   0  0  0  0  0  0  0  0  0  0  0  0
   -3.1549   -0.2209    0.0000 C   0  0  0  0  0  0  0  0  0  0  0  0
   -2.2456   -1.4139    0.0000 C   0  0  0  0  0  0  0  0  0  0  0  0
   -2.0723   -0.4451    0.0000 C   0  0  0  0  0  0  0  0  0  0  0  0
   -3.7280   -1.6428    0.0000 C   0  0  0  0  0  0  0  0  0  0  0  0
   -4.0136   -0.1703    0.0000 C   0  0  0  0  0  0  0  0  0  0  0  0
   -5.1886   -1.9846    0.0000 C   0  0  0  0  0  0  0  0  0  0  0  0
   -6.6187   -2.4372    0.0000 C   0  0  0  0  0  0  0  0  0  0  0  0
   -8.0099   -2.9979    0.0000 C   0  0  0  0  0  0  0  0  0  0  0  0
   -9.3542   -3.6635    0.0000 C   0  0  0  0  0  0  0  0  0  0  0  0
  -10.6435   -4.4300    0.0000 C   0  0  0  0  0  0  0  0  0  0  0  0
  -11.8704   -5.2930    0.0000 C   0  0  0  0  0  0  0  0  0  0  0  0
  -13.0276   -6.2474    0.0000 C   0  0  0  0  0  0  0  0  0  0  0  0
  -14.1084   -7.2875    0.0000 C   0  0  0  0  0  0  0  0  0  0  0  0
  -15.1064   -8.4074    0.0000 C   0  0  0  0  0  0  0  0  0  0  0  0
  -16.0158   -9.6003    0.0000 C   0  0  0  0  0  0  0  0  0  0  0  0
  -16.8311  -10.8593    0.0000 C   0  0  0  0  0  0  0  0  0  0  0  0
  -17.5477  -12.1771    0.0000 C   0  0  0  0  0  0  0  0  0  0  0  0
  -18.1613  -13.5459    0.0000 C   0  0  0  0  0  0  0  0  0  0  0  0
  -18.6683  -14.9576    0.0000 C   0  0  0  0  0  0  0  0  0  0  0  0
  -19.0658  -16.4040    0.0000 C   0  0  0  0  0  0  0  0  0  0  0  0
  -19.3514  -17.8765    0.0000 C   0  0  0  0  0  0  0  0  0  0  0  0
  -19.5234  -19.3666    0.0000 C   0  0  0  0  0  0  0  0  0  0  0  0
  -19.5808  -20.8655    0.0000 C   0  0  0  0  0  0  0  0  0  0  0  0
  -19.5234  -22.3644    0.0000 C   0  0  0  0  0  0  0  0  0  0  0  0
  -19.3514  -23.8545    0.0000 C   0  0  0  0  0  0  0  0  0  0  0  0
  -19.0658  -25.3271    0.0000 C   0  0  0  0  0  0  0  0  0  0  0  0
  -18.6683  -26.7735    0.0000 C   0  0  0  0  0  0  0  0  0  0  0  0
  -18.1613  -28.1852    0.0000 C   0  0  0  0  0  0  0  0  0  0  0  0
  -17.5477  -29.5539    0.0000 C   0  0  0  0  0  0  0  0  0  0  0  0
  -16.8311  -30.8717    0.0000 C   0  0  0  0  0  0  0  0  0  0  0  0
  -16.0158  -32.1307    0.0000 C   0  0  0  0  0  0  0  0  0  0  0  0
  -15.1064  -33.3237    0.0000 C   0  0  0  0  0  0  0  0  0  0  0  0
  -14.1084  -34.4435    0.0000 C   0  0  0  0  0  0  0  0  0  0  0  0
  -13.0276  -35.4837    0.0000 C   0  0  0  0  0  0  0  0  0  0  0  0
  -11.8704  -36.4380    0.0000 C   0  0  0  0  0  0  0  0  0  0  0  0
  -10.6435  -37.3010    0.0000 C   0  0  0  0  0  0  0  0  0  0  0  0
   -9.3542  -38.0675    0.0000 C   0  0  0  0  0  0  0  0  0  0  0  0
   -8.0099  -38.7331    0.0000 C   0  0  0  0  0  0  0  0  0  0  0  0
   -6.6187  -39.2938    0.0000 C   0  0  0  0  0  0  0  0  0  0  0  0
   -5.1886  -39.7464    0.0000 C   0  0  0  0  0  0  0  0  0  0  0  0
   -3.7280  -40.0882    0.0000 C   0  0  0  0  0  0  0  0  0  0  0  0
   -2.2456  -40.3172    0.0000 C   0  0  0  0  0  0  0  0  0  0  0  0
   -0.7500  -40.4320    0.0000 C   0  0  0  0  0  0  0  0  0  0  0  0
    0.7500  -40.4320    0.0000 C   0  0  0  0  0  0  0  0  0  0  0  0
    2.2456  -40.3172    0.0000 C   0  0  0  0  0  0  0  0  0  0  0  0
    3.7280  -40.0882    0.0000 C   0  0  0  0  0  0  0  0  0  0  0  0
    5.1886  -39.7464    0.0000 C   0  0  0  0  0  0  0  0  0  0  0  0
    6.6187  -39.2938    0.0000 C   0  0  0  0  0  0  0  0  0  0  0  0
    8.0099  -38.7331    0.0000 C   0  0  0  0  0  0  0  0  0  0  0  0
    9.3542  -38.0675    0.0000 C   0  0  0  0  0  0  0  0  0  0  0  0
   10.6435  -37.3010    0.0000 C   0  0  0  0  0  0  0  0  0  0  0  0
   11.8704  -36.4380    0.0000 C   0  0  0  0  0  0  0  0  0  0  0  0
   13.0276  -35.4837    0.0000 C   0  0  0  0  0  0  0  0  0  0  0  0
   14.1084  -34.4435    0.0000 C   0  0  0  0  0  0  0  0  0  0  0  0
   15.1064  -33.3237    0.0000 C   0  0  0  0  0  0  0  0  0  0  0  0
   16.0158  -32.1307    0.0000 C   0  0  0  0  0  0  0  0  0  0  0  0
   16.8311  -30.8717    0.0000 C   0  0  0  0  0  0  0  0  0  0  0  0
   17.5477  -29.5539    0.0000 C   0  0  0  0  0  0  0  0  0  0  0  0
   18.1613  -28.1852    0.0000 C   0  0  0  0  0  0  0  0  0  0  0  0
   18.6683  -26.7735    0.0000 C   0  0  0  0  0  0  0  0  0  0  0  0
   19.0658  -25.3271    0.0000 C   0  0  0  0  0  0  0  0  0  0  0  0
   19.3514  -23.8545    0.0000 C   0  0  0  0  0  0  0  0  0  0  0  0
   19.5234  -22.3644    0.0000 C   0  0  0  0  0  0  0  0  0  0  0  0
   19.5808  -20.8655    0.0000 C   0  0  0  0  0  0  0  0  0  0  0  0
   19.5234  -19.3666    0.0000 C   0  0  0  0  0  0  0  0  0  0  0  0
   19.3514  -17.8765    0.0000 C   0  0  0  0  0  0  0  0  0  0  0  0
   19.0658  -16.4040    0.0000 C   0  0  0  0  0  0  0  0  0  0  0  0
   18.6683  -14.9576    0.0000 C   0  0  0  0  0  0  0  0  0  0  0  0
   18.1613  -13.5459    0.0000 C   0  0  0  0  0  0  0  0  0  0  0  0
   17.5477  -12.1771    0.0000 C   0  0  0  0  0  0  0  0  0  0  0  0
   16.8311  -10.8593    0.0000 C   0  0  0  0  0  0  0  0  0  0  0  0
   16.0158   -9.6003    0.0000 C   0  0  0  0  0  0  0  0  0  0  0  0
   15.1064   -8.4074    0.0000 C   0  0  0  0  0  0  0  0  0  0  0  0
   14.1084   -7.2875    0.0000 C   0  0  0  0  0  0  0  0  0  0  0  0
   13.0276   -6.2474    0.0000 C   0  0  0  0  0  0  0  0  0  0  0  0
   11.8704   -5.2930    0.0000 C   0  0  0  0  0  0  0  0  0  0  0  0
   10.6435   -4.4300    0.0000 C   0  0  0  0  0  0  0  0  0  0  0  0
    9.3542   -3.6635    0.0000 C   0  0  0  0  0  0  0  0  0  0  0  0
    8.0099   -2.9979    0.0000 C   0  0  0  0  0  0  0  0  0  0  0  0
    6.6187   -2.4372    0.0000 C   0  0  0  0  0  0  0  0  0  0  0  0
    5.1886   -1.9846    0.0000 C   0  0  0  0  0  0  0  0  0  0  0  0
    3.7280   -1.6428    0.0000 C   0  0  0  0  0  0  0  0  0  0  0  0
    2.2456   -1.4139    0.0000 C   0  0  0  0  0  0  0  0  0  0  0  0
    0.7500   -1.2990    0.0000 C   0  0  0  0  0  0  0  0  0  0  0  0
    1.5000    0.0000    0.0000 C   0  0  0  0  0  0  0  0  0  0  0  0
    0.7500    1.2990    0.0000 C   0  0  0  0  0  0  0  0  0  0  0  0
   -0.7500    1.2990    0.0000 C   0  0  0  0  0  0  0  0  0  0  0  0
   -1.5000    2.5981    0.0000 C   0  0  0  0  0  0  0  0  0  0  0  0
   -2.2500    3.8971    0.0000 N   0  0  0  0  0  0  0  0  0  0  0  0
   -1.5000    0.0000    0.0000 C   0  0  0  0  0  0  0  0  0  0  0  0
   -0.7500   -1.2990    0.0000 C   0  0  0  0  0  0  0  0  0  0  0  0
  1  2  1  0
  2  3  1  0
  3  4  1  0
  4  5  1  0
  4  6  1  0
  6  7  1  0
  6  8  2  0
  8  9  1  0
  9 10  2  0
 10 11  1  0
 11 12  1  0
 12 13  1  0
 13 14  1  0
 14 15  1  0
 15 16  1  0
 16 17  1  0
 17 18  1  0
 18 19  1  0
 19 20  1  0
 20 21  1  0
 21 22  1  0
 22 23  1  0
 23 24  1  0
 24 25  1  0
 25 26  1  0
 26 27  1  0
 27 28  1  0
 28 29  1  0
 29 30  1  0
 30 31  1  0
 31 32  1  0
 32 33  1  0
 33 34  1  0
 34 35  1  0
 35 36  1  0
 36 37  1  0
 37 38  1  0
 38 39  1  0
 39 40  1  0
 40 41  1  0
 41 42  1  0
 42 43  1  0
 43 44  1  0
 44 45  1  0
 45 46  1  0
 46 47  1  0
 47 48  1  0
 48 49  1  0
 49 50  1  0
 50 51  1  0
 51 52  1  0
 52 53  1  0
 53 54  1  0
 54 55  1  0
 55 56  1  0
 56 57  1  0
 57 58  1  0
 58 59  1  0
 59 60  2  0
 60 61  1  0
 61 62  2  0
 62 63  1  0
 63 64  2  0
 64 65  1  0
 65 66  2  0
 66 67  1  0
 67 68  2  0
 68 69  1  0
 69 70  2  0
 70 71  1  0
 71 72  2  0
 72 73  1  0
 73 74  2  0
 74 75  1  0
 75 76  2  0
 76 77  1  0
 77 78  2  0
 78 79  1  0
 79 80  2  0
 80 81  1  0
 81 82  2  0
 82 83  1  0
 83 84  2  0
 84 85  1  0
 85 86  2  0
 86 87  1  0
 87 88  1  0
 88 89  1  0
 89 90  1  0
 90 91  3  0
 89 92  1  0
 92 93  2  0
 93  4  1  0
 93 86  1  0
M  END
>  <Title>  (994) 
idABKHgen8

$$$$

     RDKit          2D

  8  8  0  0  0  0  0  0  0  0999 V2000
    4.6309    1.7331    0.0000 C   0  0  0  0  0  0  0  0  0  0  0  0
    3.5702    0.6724    0.0000 C   0  0  0  0  0  0  0  0  0  0  0  0
    2.1213    1.0607    0.0000 C   0  0  0  0  0  0  0  0  0  0  0  0
    1.0607    0.0000    0.0000 C   0  0  0  0  0  0  0  0  0  0  0  0
    2.1213   -1.0607    0.0000 O   0  0  0  0  0  0  0  0  0  0  0  0
   -0.0000   -1.0607    0.0000 C   0  0  0  0  0  0  0  0  0  0  0  0
   -1.0607    0.0000    0.0000 C   0  0  0  0  0  0  0  0  0  0  0  0
    0.0000    1.0607    0.0000 C   0  0  0  0  0  0  0  0  0  0  0  0
  1  2  1  0
  2  3  1  0
  3  4  1  0
  4  5  1  0
  4  6  1  0
  6  7  1  0
  7  8  1  0
  8  4  1  0
M  END
>  <Title>  (995) 
idABKIgen8

$$$$

     RDKit          2D

 16 16  0  0  0  0  0  0  0  0999 V2000
    7.2760    2.5981    0.0000 C   0  0  0  0  0  0  0  0  0  0  0  0
    5.7760    2.5981    0.0000 C   0  0  0  0  0  0  0  0  0  0  0  0
    5.0260    1.2990    0.0000 C   0  0  0  0  0  0  0  0  0  0  0  0
    3.5260    1.2990    0.0000 C   0  0  0  0  0  0  0  0  0  0  0  0
    2.7760    2.5981    0.0000 O   0  0  0  0  0  0  0  0  0  0  0  0
    2.7760    0.0000    0.0000 C   0  0  0  0  0  0  0  0  0  0  0  0
    3.5260   -1.2990    0.0000 O   0  0  0  0  0  0  0  0  0  0  0  0
    1.2760    0.0000    0.0000 N   0  0  0  0  0  0  0  0  0  0  0  0
    0.3943    1.2135    0.0000 C   0  0  0  0  0  0  0  0  0  0  0  0
   -1.0323    0.7500    0.0000 C   0  0  0  0  0  0  0  0  0  0  0  0
   -1.0323   -0.7500    0.0000 C   0  0  0  0  0  0  0  0  0  0  0  0
   -2.2458   -1.6317    0.0000 C   0  0  0  0  0  0  0  0  0  0  0  0
   -2.0890   -3.1235    0.0000 O   0  0  0  0  0  0  0  0  0  0  0  0
   -3.6161   -1.0216    0.0000 O   0  0  0  0  0  0  0  0  0  0  0  0
    0.3943   -1.2135    0.0000 C   0  0  0  0  0  0  0  0  0  0  0  0
    0.8578   -2.6401    0.0000 O   0  0  0  0  0  0  0  0  0  0  0  0
  1  2  1  0
  2  3  2  3
  3  4  1  0
  4  5  2  0
  4  6  1  0
  6  7  2  0
  6  8  1  0
  8  9  1  0
  9 10  1  0
 10 11  1  0
 11 12  1  0
 12 13  2  0
 12 14  1  0
 11 15  1  0
 15 16  2  0
 15  8  1  0
M  END
>  <Title>  (996) 
idABKJgen8

$$$$

     RDKit          2D

 10  9  0  0  0  0  0  0  0  0999 V2000
    0.0000    0.0000    0.0000 C   0  0  0  0  0  0  0  0  0  0  0  0
   -0.0000   -1.5000    0.0000 C   0  0  0  0  0  0  0  0  0  0  0  0
   -0.0000   -3.0000    0.0000 C   0  0  0  0  0  0  0  0  0  0  0  0
   -0.0000   -4.5000    0.0000 C   0  0  0  0  0  0  0  0  0  0  0  0
   -0.0000   -6.0000    0.0000 C   0  0  0  0  0  0  0  0  0  0  0  0
   -0.0000   -7.5000    0.0000 C   0  0  0  0  0  0  0  0  0  0  0  0
   -0.0000   -9.0000    0.0000 C   0  0  0  0  0  0  0  0  0  0  0  0
   -0.0000  -10.5000    0.0000 C   0  0  0  0  0  0  0  0  0  0  0  0
   -0.0000  -12.0000    0.0000 C   0  0  0  0  0  0  0  0  0  0  0  0
   -0.0000  -13.5000    0.0000 N   0  0  0  0  0  0  0  0  0  0  0  0
  1  2  3  0
  2  3  1  0
  3  4  3  0
  4  5  1  0
  5  6  3  0
  6  7  1  0
  7  8  3  0
  8  9  1  0
  9 10  3  0
M  END
>  <Title>  (997) 
idABKKgen8

$$$$

     RDKit          2D

 34 38  0  0  0  0  0  0  0  0999 V2000
   -0.0000   -8.0154    0.0000 C   0  0  0  0  0  0  0  0  0  0  0  0
   -0.0000   -6.5154    0.0000 C   0  0  0  0  0  0  0  0  0  0  0  0
    1.4392   -6.0928    0.0000 C   0  0  0  0  0  0  0  0  0  0  0  0
    2.4215   -4.9592    0.0000 C   0  0  0  0  0  0  0  0  0  0  0  0
    2.6350   -3.4744    0.0000 C   0  0  0  0  0  0  0  0  0  0  0  0
    4.1197   -3.2610    0.0000 O   0  0  0  0  0  0  0  0  0  0  0  0
    2.0119   -2.1100    0.0000 C   0  0  0  0  0  0  0  0  0  0  0  0
    3.1455   -1.1277    0.0000 C   0  0  0  0  0  0  0  0  0  0  0  0
    2.8616    0.3452    0.0000 O   0  0  0  0  0  0  0  0  0  0  0  0
    4.5630   -1.6183    0.0000 N   0  0  0  0  0  0  0  0  0  0  0  0
    5.6966   -0.6360    0.0000 C   0  0  0  0  0  0  0  0  0  0  0  0
    7.1141   -1.1266    0.0000 N   0  0  0  0  0  0  0  0  0  0  0  0
    8.2478   -0.1443    0.0000 N   0  0  0  0  0  0  0  0  0  0  0  0
    7.9639    1.3286    0.0000 N   0  0  0  0  0  0  0  0  0  0  0  0
    6.5464    1.8192    0.0000 N   0  0  0  0  0  0  0  0  0  0  0  0
    5.4128    0.8369    0.0000 N   0  0  0  0  0  0  0  0  0  0  0  0
    0.7500   -1.2990    0.0000 C   0  0  0  0  0  0  0  0  0  0  0  0
    1.5000    0.0000    0.0000 C   0  0  0  0  0  0  0  0  0  0  0  0
    0.7500    1.2990    0.0000 C   0  0  0  0  0  0  0  0  0  0  0  0
   -0.7500    1.2990    0.0000 C   0  0  0  0  0  0  0  0  0  0  0  0
   -1.5000    0.0000    0.0000 C   0  0  0  0  0  0  0  0  0  0  0  0
   -0.7500   -1.2990    0.0000 C   0  0  0  0  0  0  0  0  0  0  0  0
   -2.0119   -2.1100    0.0000 C   0  0  0  0  0  0  0  0  0  0  0  0
   -2.8820   -0.8881    0.0000 C   0  0  0  0  0  0  0  0  0  0  0  0
   -4.3752   -1.0307    0.0000 C   0  0  0  0  0  0  0  0  0  0  0  0
   -4.9983   -2.3952    0.0000 C   0  0  0  0  0  0  0  0  0  0  0  0
   -4.1282   -3.6170    0.0000 C   0  0  0  0  0  0  0  0  0  0  0  0
   -2.6350   -3.4744    0.0000 C   0  0  0  0  0  0  0  0  0  0  0  0
   -2.4215   -4.9592    0.0000 C   0  0  0  0  0  0  0  0  0  0  0  0
   -3.8944   -5.2431    0.0000 C   0  0  0  0  0  0  0  0  0  0  0  0
   -4.3850   -6.6606    0.0000 C   0  0  0  0  0  0  0  0  0  0  0  0
   -3.4027   -7.7942    0.0000 C   0  0  0  0  0  0  0  0  0  0  0  0
   -1.9298   -7.5103    0.0000 C   0  0  0  0  0  0  0  0  0  0  0  0
   -1.4392   -6.0928    0.0000 C   0  0  0  0  0  0  0  0  0  0  0  0
  1  2  1  0
  2  3  2  0
  3  4  1  0
  4  5  1  0
  5  6  1  0
  5  7  2  0
  7  8  1  0
  8  9  2  0
  8 10  1  0
 10 11  1  0
 11 12  2  0
 12 13  1  0
 13 14  2  0
 14 15  1  0
 15 16  2  0
  7 17  1  0
 17 18  2  0
 18 19  1  0
 19 20  2  0
 20 21  1  0
 21 22  2  0
 22 23  1  0
 23 24  2  0
 24 25  1  0
 25 26  2  0
 26 27  1  0
 27 28  2  0
 28 29  1  0
 29 30  2  0
 30 31  1  0
 31 32  2  0
 32 33  1  0
 33 34  2  0
 34  2  1  0
 16 11  1  0
 22 17  1  0
 28 23  1  0
 34 29  1  0
M  END
>  <Title>  (998) 
idABKLgen8

$$$$

     RDKit          2D

123123  0  0  0  0  0  0  0  0999 V2000
   30.6286    0.0000    0.0000 C   0  0  0  0  0  0  0  0  0  0  0  0
   29.1286    0.0000    0.0000 C   0  0  0  0  0  0  0  0  0  0  0  0
   29.0900   -1.4995    0.0000 C   0  0  0  0  0  0  0  0  0  0  0  0
   28.9742   -2.9950    0.0000 C   0  0  0  0  0  0  0  0  0  0  0  0
   28.7816   -4.4826    0.0000 C   0  0  0  0  0  0  0  0  0  0  0  0
   28.5127   -5.9583    0.0000 C   0  0  0  0  0  0  0  0  0  0  0  0
   28.1681   -7.4182    0.0000 C   0  0  0  0  0  0  0  0  0  0  0  0
   27.7489   -8.8584    0.0000 C   0  0  0  0  0  0  0  0  0  0  0  0
   27.2561  -10.2752    0.0000 C   0  0  0  0  0  0  0  0  0  0  0  0
   26.6910  -11.6647    0.0000 C   0  0  0  0  0  0  0  0  0  0  0  0
   26.0551  -13.0232    0.0000 C   0  0  0  0  0  0  0  0  0  0  0  0
   25.3502  -14.3472    0.0000 C   0  0  0  0  0  0  0  0  0  0  0  0
   24.5780  -15.6332    0.0000 C   0  0  0  0  0  0  0  0  0  0  0  0
   23.7406  -16.8777    0.0000 C   0  0  0  0  0  0  0  0  0  0  0  0
   22.8403  -18.0775    0.0000 C   0  0  0  0  0  0  0  0  0  0  0  0
   21.8794  -19.2293    0.0000 C   0  0  0  0  0  0  0  0  0  0  0  0
   20.8605  -20.3301    0.0000 C   0  0  0  0  0  0  0  0  0  0  0  0
   19.7863  -21.3770    0.0000 C   0  0  0  0  0  0  0  0  0  0  0  0
   18.6596  -22.3673    0.0000 C   0  0  0  0  0  0  0  0  0  0  0  0
   17.4834  -23.2982    0.0000 C   0  0  0  0  0  0  0  0  0  0  0  0
   16.2608  -24.1673    0.0000 C   0  0  0  0  0  0  0  0  0  0  0  0
   14.9952  -24.9724    0.0000 C   0  0  0  0  0  0  0  0  0  0  0  0
   13.6898  -25.7112    0.0000 C   0  0  0  0  0  0  0  0  0  0  0  0
   12.3480  -26.3818    0.0000 C   0  0  0  0  0  0  0  0  0  0  0  0
   10.9735  -26.9825    0.0000 C   0  0  0  0  0  0  0  0  0  0  0  0
    9.5700  -27.5116    0.0000 C   0  0  0  0  0  0  0  0  0  0  0  0
    8.1410  -27.9678    0.0000 C   0  0  0  0  0  0  0  0  0  0  0  0
    6.6905  -28.3498    0.0000 C   0  0  0  0  0  0  0  0  0  0  0  0
    5.2222  -28.6566    0.0000 C   0  0  0  0  0  0  0  0  0  0  0  0
    3.7401  -28.8875    0.0000 C   0  0  0  0  0  0  0  0  0  0  0  0
    2.2480  -29.0417    0.0000 C   0  0  0  0  0  0  0  0  0  0  0  0
    0.7500  -29.1189    0.0000 C   0  0  0  0  0  0  0  0  0  0  0  0
   -0.7500  -29.1189    0.0000 C   0  0  0  0  0  0  0  0  0  0  0  0
   -2.2480  -29.0417    0.0000 C   0  0  0  0  0  0  0  0  0  0  0  0
   -3.7401  -28.8875    0.0000 C   0  0  0  0  0  0  0  0  0  0  0  0
   -5.2222  -28.6566    0.0000 C   0  0  0  0  0  0  0  0  0  0  0  0
   -6.6905  -28.3498    0.0000 C   0  0  0  0  0  0  0  0  0  0  0  0
   -8.1410  -27.9678    0.0000 C   0  0  0  0  0  0  0  0  0  0  0  0
   -9.5700  -27.5116    0.0000 C   0  0  0  0  0  0  0  0  0  0  0  0
  -10.9735  -26.9825    0.0000 C   0  0  0  0  0  0  0  0  0  0  0  0
  -12.3480  -26.3818    0.0000 C   0  0  0  0  0  0  0  0  0  0  0  0
  -13.6898  -25.7112    0.0000 C   0  0  0  0  0  0  0  0  0  0  0  0
  -14.9952  -24.9724    0.0000 C   0  0  0  0  0  0  0  0  0  0  0  0
  -16.2608  -24.1673    0.0000 C   0  0  0  0  0  0  0  0  0  0  0  0
  -17.4834  -23.2982    0.0000 C   0  0  0  0  0  0  0  0  0  0  0  0
  -18.6596  -22.3673    0.0000 C   0  0  0  0  0  0  0  0  0  0  0  0
  -19.7863  -21.3770    0.0000 C   0  0  0  0  0  0  0  0  0  0  0  0
  -20.8605  -20.3301    0.0000 C   0  0  0  0  0  0  0  0  0  0  0  0
  -21.8794  -19.2293    0.0000 C   0  0  0  0  0  0  0  0  0  0  0  0
  -22.8403  -18.0775    0.0000 C   0  0  0  0  0  0  0  0  0  0  0  0
  -23.7406  -16.8777    0.0000 C   0  0  0  0  0  0  0  0  0  0  0  0
  -24.5780  -15.6332    0.0000 C   0  0  0  0  0  0  0  0  0  0  0  0
  -25.3502  -14.3472    0.0000 C   0  0  0  0  0  0  0  0  0  0  0  0
  -26.0551  -13.0232    0.0000 C   0  0  0  0  0  0  0  0  0  0  0  0
  -26.6910  -11.6647    0.0000 C   0  0  0  0  0  0  0  0  0  0  0  0
  -27.2561  -10.2752    0.0000 C   0  0  0  0  0  0  0  0  0  0  0  0
  -27.7489   -8.8584    0.0000 C   0  0  0  0  0  0  0  0  0  0  0  0
  -28.1681   -7.4182    0.0000 C   0  0  0  0  0  0  0  0  0  0  0  0
  -28.5127   -5.9583    0.0000 C   0  0  0  0  0  0  0  0  0  0  0  0
  -28.7816   -4.4826    0.0000 C   0  0  0  0  0  0  0  0  0  0  0  0
  -28.9742   -2.9950    0.0000 C   0  0  0  0  0  0  0  0  0  0  0  0
  -29.0900   -1.4995    0.0000 C   0  0  0  0  0  0  0  0  0  0  0  0
  -29.1286    0.0000    0.0000 C   0  0  0  0  0  0  0  0  0  0  0  0
  -29.0900    1.4995    0.0000 C   0  0  0  0  0  0  0  0  0  0  0  0
  -28.9742    2.9950    0.0000 C   0  0  0  0  0  0  0  0  0  0  0  0
  -28.7816    4.4826    0.0000 C   0  0  0  0  0  0  0  0  0  0  0  0
  -28.5127    5.9583    0.0000 C   0  0  0  0  0  0  0  0  0  0  0  0
  -28.1681    7.4182    0.0000 C   0  0  0  0  0  0  0  0  0  0  0  0
  -27.7489    8.8584    0.0000 C   0  0  0  0  0  0  0  0  0  0  0  0
  -27.2561   10.2752    0.0000 C   0  0  0  0  0  0  0  0  0  0  0  0
  -26.6910   11.6647    0.0000 C   0  0  0  0  0  0  0  0  0  0  0  0
  -26.0551   13.0232    0.0000 C   0  0  0  0  0  0  0  0  0  0  0  0
  -25.3502   14.3472    0.0000 C   0  0  0  0  0  0  0  0  0  0  0  0
  -24.5780   15.6332    0.0000 C   0  0  0  0  0  0  0  0  0  0  0  0
  -23.7406   16.8777    0.0000 C   0  0  0  0  0  0  0  0  0  0  0  0
  -22.8403   18.0775    0.0000 C   0  0  0  0  0  0  0  0  0  0  0  0
  -21.8794   19.2293    0.0000 C   0  0  0  0  0  0  0  0  0  0  0  0
  -20.8605   20.3301    0.0000 C   0  0  0  0  0  0  0  0  0  0  0  0
  -19.7863   21.3770    0.0000 C   0  0  0  0  0  0  0  0  0  0  0  0
  -18.6596   22.3673    0.0000 C   0  0  0  0  0  0  0  0  0  0  0  0
  -17.4834   23.2982    0.0000 C   0  0  0  0  0  0  0  0  0  0  0  0
  -16.2608   24.1673    0.0000 C   0  0  0  0  0  0  0  0  0  0  0  0
  -14.9952   24.9724    0.0000 C   0  0  0  0  0  0  0  0  0  0  0  0
  -13.6898   25.7112    0.0000 C   0  0  0  0  0  0  0  0  0  0  0  0
  -12.3480   26.3818    0.0000 C   0  0  0  0  0  0  0  0  0  0  0  0
  -10.9735   26.9825    0.0000 C   0  0  0  0  0  0  0  0  0  0  0  0
   -9.5700   27.5116    0.0000 C   0  0  0  0  0  0  0  0  0  0  0  0
   -8.1410   27.9678    0.0000 C   0  0  0  0  0  0  0  0  0  0  0  0
   -6.6905   28.3498    0.0000 C   0  0  0  0  0  0  0  0  0  0  0  0
   -5.2222   28.6566    0.0000 C   0  0  0  0  0  0  0  0  0  0  0  0
   -3.7401   28.8875    0.0000 C   0  0  0  0  0  0  0  0  0  0  0  0
   -2.2480   29.0417    0.0000 C   0  0  0  0  0  0  0  0  0  0  0  0
   -0.7500   29.1189    0.0000 C   0  0  0  0  0  0  0  0  0  0  0  0
    0.7500   29.1189    0.0000 C   0  0  0  0  0  0  0  0  0  0  0  0
    2.2480   29.0417    0.0000 C   0  0  0  0  0  0  0  0  0  0  0  0
    3.7401   28.8875    0.0000 C   0  0  0  0  0  0  0  0  0  0  0  0
    5.2222   28.6566    0.0000 C   0  0  0  0  0  0  0  0  0  0  0  0
    6.6905   28.3498    0.0000 C   0  0  0  0  0  0  0  0  0  0  0  0
    8.1410   27.9678    0.0000 C   0  0  0  0  0  0  0  0  0  0  0  0
    9.5700   27.5116    0.0000 C   0  0  0  0  0  0  0  0  0  0  0  0
   10.9735   26.9825    0.0000 C   0  0  0  0  0  0  0  0  0  0  0  0
   12.3480   26.3818    0.0000 C   0  0  0  0  0  0  0  0  0  0  0  0
   13.6898   25.7112    0.0000 C   0  0  0  0  0  0  0  0  0  0  0  0
   14.9952   24.9724    0.0000 C   0  0  0  0  0  0  0  0  0  0  0  0
   16.2608   24.1673    0.0000 C   0  0  0  0  0  0  0  0  0  0  0  0
   17.4834   23.2982    0.0000 C   0  0  0  0  0  0  0  0  0  0  0  0
   18.6596   22.3673    0.0000 C   0  0  0  0  0  0  0  0  0  0  0  0
   19.7863   21.3770    0.0000 C   0  0  0  0  0  0  0  0  0  0  0  0
   20.8605   20.3301    0.0000 C   0  0  0  0  0  0  0  0  0  0  0  0
   21.8794   19.2293    0.0000 C   0  0  0  0  0  0  0  0  0  0  0  0
   22.8403   18.0775    0.0000 C   0  0  0  0  0  0  0  0  0  0  0  0
   23.7406   16.8777    0.0000 C   0  0  0  0  0  0  0  0  0  0  0  0
   24.5780   15.6332    0.0000 C   0  0  0  0  0  0  0  0  0  0  0  0
   25.3502   14.3472    0.0000 C   0  0  0  0  0  0  0  0  0  0  0  0
   26.0551   13.0232    0.0000 C   0  0  0  0  0  0  0  0  0  0  0  0
   26.6910   11.6647    0.0000 C   0  0  0  0  0  0  0  0  0  0  0  0
   27.2561   10.2752    0.0000 C   0  0  0  0  0  0  0  0  0  0  0  0
   27.7489    8.8584    0.0000 C   0  0  0  0  0  0  0  0  0  0  0  0
   28.1681    7.4182    0.0000 C   0  0  0  0  0  0  0  0  0  0  0  0
   28.5127    5.9583    0.0000 C   0  0  0  0  0  0  0  0  0  0  0  0
   28.7816    4.4826    0.0000 C   0  0  0  0  0  0  0  0  0  0  0  0
   28.9742    2.9950    0.0000 C   0  0  0  0  0  0  0  0  0  0  0  0
   29.0900    1.4995    0.0000 C   0  0  0  0  0  0  0  0  0  0  0  0
  1  2  1  0
  2  3  1  0
  3  4  1  0
  4  5  1  0
  5  6  1  0
  6  7  1  0
  7  8  1  0
  8  9  1  0
  9 10  1  0
 10 11  1  0
 11 12  1  0
 12 13  1  0
 13 14  1  0
 14 15  1  0
 15 16  1  0
 16 17  1  0
 17 18  1  0
 18 19  1  0
 19 20  1  0
 20 21  1  0
 21 22  1  0
 22 23  1  0
 23 24  1  0
 24 25  1  0
 25 26  1  0
 26 27  1  0
 27 28  1  0
 28 29  1  0
 29 30  1  0
 30 31  1  0
 31 32  1  0
 32 33  1  0
 33 34  1  0
 34 35  1  0
 35 36  1  0
 36 37  1  0
 37 38  1  0
 38 39  1  0
 39 40  1  0
 40 41  1  0
 41 42  1  0
 42 43  1  0
 43 44  1  0
 44 45  1  0
 45 46  1  0
 46 47  1  0
 47 48  1  0
 48 49  1  0
 49 50  1  0
 50 51  1  0
 51 52  1  0
 52 53  1  0
 53 54  1  0
 54 55  1  0
 55 56  1  0
 56 57  1  0
 57 58  1  0
 58 59  1  0
 59 60  1  0
 60 61  1  0
 61 62  1  0
 62 63  1  0
 63 64  1  0
 64 65  1  0
 65 66  1  0
 66 67  1  0
 67 68  1  0
 68 69  1  0
 69 70  1  0
 70 71  1  0
 71 72  1  0
 72 73  1  0
 73 74  1  0
 74 75  1  0
 75 76  1  0
 76 77  1  0
 77 78  1  0
 78 79  1  0
 79 80  1  0
 80 81  1  0
 81 82  1  0
 82 83  1  0
 83 84  1  0
 84 85  1  0
 85 86  1  0
 86 87  1  0
 87 88  1  0
 88 89  1  0
 89 90  1  0
 90 91  1  0
 91 92  1  0
 92 93  1  0
 93 94  1  0
 94 95  1  0
 95 96  1  0
 96 97  1  0
 97 98  1  0
 98 99  1  0
 99100  1  0
100101  1  0
101102  1  0
102103  1  0
103104  1  0
104105  1  0
105106  1  0
106107  1  0
107108  1  0
108109  1  0
109110  1  0
110111  1  0
111112  1  0
112113  1  0
113114  1  0
114115  1  0
115116  1  0
116117  1  0
117118  1  0
118119  1  0
119120  1  0
120121  1  0
121122  1  0
122123  1  0
123  2  1  0
M  END
>  <Title>  (999) 
idABKMgen8

$$$$

     RDKit          2D

 65 73  0  0  0  0  0  0  0  0999 V2000
    7.9266    6.8074    0.0000 C   0  0  0  0  0  0  0  0  0  0  0  0
    8.7887    5.5798    0.0000 C   0  0  0  0  0  0  0  0  0  0  0  0
    9.6507    4.3522    0.0000 C   0  0  0  0  0  0  0  0  0  0  0  0
   10.5127    3.1247    0.0000 C   0  0  0  0  0  0  0  0  0  0  0  0
    9.8806    1.7643    0.0000 O   0  0  0  0  0  0  0  0  0  0  0  0
   12.0068    3.2574    0.0000 N   0  0  0  0  0  0  0  0  0  0  0  0
   12.8688    2.0298    0.0000 C   0  0  0  0  0  0  0  0  0  0  0  0
   14.3629    2.1626    0.0000 C   0  0  0  0  0  0  0  0  0  0  0  0
   15.2249    0.9350    0.0000 C   0  0  0  0  0  0  0  0  0  0  0  0
   14.5928   -0.4253    0.0000 C   0  0  0  0  0  0  0  0  0  0  0  0
   15.4549   -1.6529    0.0000 C   0  0  0  0  0  0  0  0  0  0  0  0
   16.9490   -1.5202    0.0000 C   0  0  0  0  0  0  0  0  0  0  0  0
   14.8228   -3.0132    0.0000 C   0  0  0  0  0  0  0  0  0  0  0  0
   13.0987   -0.5581    0.0000 C   0  0  0  0  0  0  0  0  0  0  0  0
   12.4666   -1.9184    0.0000 O   0  0  0  0  0  0  0  0  0  0  0  0
   12.2367    0.6695    0.0000 C   0  0  0  0  0  0  0  0  0  0  0  0
   10.7426    0.5368    0.0000 C   0  0  0  0  0  0  0  0  0  0  0  0
   10.1105   -0.8235    0.0000 C   0  0  0  0  0  0  0  0  0  0  0  0
    8.6164   -0.9563    0.0000 C   0  0  0  0  0  0  0  0  0  0  0  0
    7.9843   -2.3166    0.0000 C   0  0  0  0  0  0  0  0  0  0  0  0
    8.8463   -3.5442    0.0000 C   0  0  0  0  0  0  0  0  0  0  0  0
    8.2142   -4.9045    0.0000 C   0  0  0  0  0  0  0  0  0  0  0  0
    6.7201   -5.0372    0.0000 C   0  0  0  0  0  0  0  0  0  0  0  0
    5.8581   -3.8096    0.0000 C   0  0  0  0  0  0  0  0  0  0  0  0
    6.4902   -2.4493    0.0000 C   0  0  0  0  0  0  0  0  0  0  0  0
    5.6282   -1.2218    0.0000 C   0  0  0  0  0  0  0  0  0  0  0  0
    6.2603    0.1386    0.0000 C   0  0  0  0  0  0  0  0  0  0  0  0
    5.3982    1.3661    0.0000 C   0  0  0  0  0  0  0  0  0  0  0  0
    3.9041    1.2334    0.0000 C   0  0  0  0  0  0  0  0  0  0  0  0
    3.2720   -0.1269    0.0000 C   0  0  0  0  0  0  0  0  0  0  0  0
    4.1340   -1.3545    0.0000 C   0  0  0  0  0  0  0  0  0  0  0  0
    3.5019   -2.7148    0.0000 C   0  0  0  0  0  0  0  0  0  0  0  0
    4.6003   -3.7363    0.0000 C   0  0  0  0  0  0  0  0  0  0  0  0
    4.8885   -5.2084    0.0000 C   0  0  0  0  0  0  0  0  0  0  0  0
    4.2564   -6.5687    0.0000 C   0  0  0  0  0  0  0  0  0  0  0  0
    2.9455   -7.2977    0.0000 C   0  0  0  0  0  0  0  0  0  0  0  0
    1.4564   -7.1169    0.0000 C   0  0  0  0  0  0  0  0  0  0  0  0
    2.5792   -6.1222    0.0000 C   0  0  0  0  0  0  0  0  0  0  0  0
    3.1111   -4.7197    0.0000 C   0  0  0  0  0  0  0  0  0  0  0  0
    2.9303   -3.2306    0.0000 C   0  0  0  0  0  0  0  0  0  0  0  0
    2.0782   -1.9961    0.0000 C   0  0  0  0  0  0  0  0  0  0  0  0
    0.7500   -1.2990    0.0000 C   0  0  0  0  0  0  0  0  0  0  0  0
    1.5000    0.0000    0.0000 C   0  0  0  0  0  0  0  0  0  0  0  0
    0.7500    1.2990    0.0000 C   0  0  0  0  0  0  0  0  0  0  0  0
   -0.7500    1.2990    0.0000 C   0  0  0  0  0  0  0  0  0  0  0  0
   -1.5000    0.0000    0.0000 C   0  0  0  0  0  0  0  0  0  0  0  0
   -0.7500   -1.2990    0.0000 C   0  0  0  0  0  0  0  0  0  0  0  0
   -2.0782   -1.9961    0.0000 C   0  0  0  0  0  0  0  0  0  0  0  0
   -2.7212   -0.6409    0.0000 C   0  0  0  0  0  0  0  0  0  0  0  0
   -4.2164   -0.5202    0.0000 C   0  0  0  0  0  0  0  0  0  0  0  0
   -5.0685   -1.7547    0.0000 C   0  0  0  0  0  0  0  0  0  0  0  0
   -4.4254   -3.1099    0.0000 C   0  0  0  0  0  0  0  0  0  0  0  0
   -2.9303   -3.2306    0.0000 C   0  0  0  0  0  0  0  0  0  0  0  0
   -3.1111   -4.7197    0.0000 C   0  0  0  0  0  0  0  0  0  0  0  0
   -4.5917   -4.4790    0.0000 C   0  0  0  0  0  0  0  0  0  0  0  0
   -5.5403   -5.6410    0.0000 C   0  0  0  0  0  0  0  0  0  0  0  0
   -5.0084   -7.0435    0.0000 C   0  0  0  0  0  0  0  0  0  0  0  0
   -3.5278   -7.2841    0.0000 C   0  0  0  0  0  0  0  0  0  0  0  0
   -2.5792   -6.1222    0.0000 C   0  0  0  0  0  0  0  0  0  0  0  0
   -1.4564   -7.1169    0.0000 C   0  0  0  0  0  0  0  0  0  0  0  0
   -2.4955   -8.1987    0.0000 C   0  0  0  0  0  0  0  0  0  0  0  0
   -2.0782   -9.6395    0.0000 C   0  0  0  0  0  0  0  0  0  0  0  0
   -0.6218   -9.9984    0.0000 C   0  0  0  0  0  0  0  0  0  0  0  0
    0.4173   -8.9166    0.0000 C   0  0  0  0  0  0  0  0  0  0  0  0
   -0.0000   -7.4758    0.0000 C   0  0  0  0  0  0  0  0  0  0  0  0
  1  2  1  0
  2  3  3  0
  3  4  1  0
  4  5  2  0
  4  6  1  0
  6  7  1  0
  7  8  2  0
  8  9  1  0
  9 10  2  0
 10 11  1  0
 11 12  1  0
 11 13  1  0
 10 14  1  0
 14 15  2  0
 14 16  1  0
 16 17  2  3
 17 18  1  0
 18 19  2  3
 19 20  1  0
 20 21  2  0
 21 22  1  0
 22 23  2  0
 23 24  1  0
 24 25  2  0
 25 26  1  0
 26 27  2  0
 27 28  1  0
 28 29  2  0
 29 30  1  0
 30 31  2  0
 31 32  1  0
 32 33  2  0
 33 34  1  0
 34 35  2  0
 35 36  1  0
 36 37  2  0
 37 38  1  0
 38 39  2  0
 39 40  1  0
 40 41  2  0
 41 42  1  0
 42 43  2  0
 43 44  1  0
 44 45  2  0
 45 46  1  0
 46 47  2  0
 47 48  1  0
 48 49  2  0
 49 50  1  0
 50 51  2  0
 51 52  1  0
 52 53  2  0
 53 54  1  0
 54 55  2  0
 55 56  1  0
 56 57  2  0
 57 58  1  0
 58 59  2  0
 59 60  1  0
 60 61  2  0
 61 62  1  0
 62 63  2  0
 63 64  1  0
 64 65  2  0
 16  7  1  0
 25 20  1  0
 31 26  1  0
 41 32  1  0
 47 42  1  0
 53 48  1  0
 59 54  1  0
 65 60  1  0
 65 37  1  0
M  END
>  <Title>  (1000) 
idABKNgen8

$$$$

     RDKit          2D

  9  8  0  0  0  0  0  0  0  0999 V2000
    0.0000    0.0000    0.0000 C   0  0  0  0  0  0  0  0  0  0  0  0
    1.2990    0.7500    0.0000 C   0  0  0  0  0  0  0  0  0  0  0  0
    2.5981    1.5000    0.0000 C   0  0  0  0  0  0  0  0  0  0  0  0
    3.8971    2.2500    0.0000 C   0  0  0  0  0  0  0  0  0  0  0  0
    3.8971    3.7500    0.0000 O   0  0  0  0  0  0  0  0  0  0  0  0
    5.1962    1.5000    0.0000 C   0  0  0  0  0  0  0  0  0  0  0  0
    6.4952    2.2500    0.0000 C   0  0  0  0  0  0  0  0  0  0  0  0
    7.7942    1.5000    0.0000 C   0  0  0  0  0  0  0  0  0  0  0  0
    9.0933    2.2500    0.0000 C   0  0  0  0  0  0  0  0  0  0  0  0
  1  2  1  0
  2  3  3  0
  3  4  1  0
  4  5  2  0
  4  6  1  0
  6  7  2  3
  7  8  1  0
  8  9  1  0
M  END
>  <Title>  (1001) 
idABKOgen8

$$$$

     RDKit          2D

  6  6  0  0  0  0  0  0  0  0999 V2000
    2.1213    1.0607    0.0000 C   0  0  0  0  0  0  0  0  0  0  0  0
    1.0607    0.0000    0.0000 C   0  0  0  0  0  0  0  0  0  0  0  0
    2.1213   -1.0607    0.0000 C   0  0  0  0  0  0  0  0  0  0  0  0
   -0.0000   -1.0607    0.0000 C   0  0  0  0  0  0  0  0  0  0  0  0
   -1.0607    0.0000    0.0000 C   0  0  0  0  0  0  0  0  0  0  0  0
    0.0000    1.0607    0.0000 C   0  0  0  0  0  0  0  0  0  0  0  0
  1  2  1  0
  2  3  1  0
  2  4  1  0
  4  5  2  0
  5  6  1  0
  6  2  1  0
M  END
>  <Title>  (1002) 
idABKPgen8

$$$$

     RDKit          2D

  8  7  0  0  0  0  0  0  0  0999 V2000
    0.0000    0.0000    0.0000 C   0  0  0  0  0  0  0  0  0  0  0  0
    1.2990    0.7500    0.0000 C   0  0  0  0  0  0  0  0  0  0  0  0
    2.5981    1.5000    0.0000 C   0  0  0  0  0  0  0  0  0  0  0  0
    3.8971    2.2500    0.0000 C   0  0  0  0  0  0  0  0  0  0  0  0
    5.1962    3.0000    0.0000 C   0  0  0  0  0  0  0  0  0  0  0  0
    6.4952    3.7500    0.0000 C   0  0  0  0  0  0  0  0  0  0  0  0
    7.7942    3.0000    0.0000 C   0  0  0  0  0  0  0  0  0  0  0  0
    9.0933    3.7500    0.0000 C   0  0  0  0  0  0  0  0  0  0  0  0
  1  2  1  0
  2  3  3  0
  3  4  1  0
  4  5  3  0
  5  6  1  0
  6  7  2  3
  7  8  1  0
M  END
>  <Title>  (1003) 
idABKQgen8

$$$$

     RDKit          2D

 29 32  0  0  0  0  0  0  0  0999 V2000
   -1.0328   -8.4194    0.0000 C   0  0  0  0  0  0  0  0  0  0  0  0
   -1.2675   -6.9379    0.0000 C   0  0  0  0  0  0  0  0  0  0  0  0
   -2.7490   -6.7032    0.0000 C   0  0  0  0  0  0  0  0  0  0  0  0
   -3.8097   -5.6425    0.0000 C   0  0  0  0  0  0  0  0  0  0  0  0
   -4.0443   -4.1610    0.0000 C   0  0  0  0  0  0  0  0  0  0  0  0
   -3.3634   -2.8245    0.0000 C   0  0  0  0  0  0  0  0  0  0  0  0
   -4.4240   -1.7638    0.0000 C   0  0  0  0  0  0  0  0  0  0  0  0
   -4.0358   -0.3150    0.0000 O   0  0  0  0  0  0  0  0  0  0  0  0
   -5.8729   -2.1521    0.0000 N   0  0  0  0  0  0  0  0  0  0  0  0
   -6.9336   -1.0914    0.0000 C   0  0  0  0  0  0  0  0  0  0  0  0
   -6.5453    0.3575    0.0000 N   0  0  0  0  0  0  0  0  0  0  0  0
   -7.6060    1.4181    0.0000 N   0  0  0  0  0  0  0  0  0  0  0  0
   -9.0549    1.0299    0.0000 N   0  0  0  0  0  0  0  0  0  0  0  0
   -9.4431   -0.4190    0.0000 N   0  0  0  0  0  0  0  0  0  0  0  0
   -8.3825   -1.4796    0.0000 N   0  0  0  0  0  0  0  0  0  0  0  0
   -1.8107   -2.3597    0.0000 C   0  0  0  0  0  0  0  0  0  0  0  0
   -1.8107   -3.8597    0.0000 C   0  0  0  0  0  0  0  0  0  0  0  0
   -0.7500   -4.9204    0.0000 C   0  0  0  0  0  0  0  0  0  0  0  0
    0.7500   -4.9204    0.0000 C   0  0  0  0  0  0  0  0  0  0  0  0
    0.0690   -6.2569    0.0000 C   0  0  0  0  0  0  0  0  0  0  0  0
    1.8107   -3.8597    0.0000 N   0  0  0  0  0  0  0  0  0  0  0  0
    1.8107   -2.3597    0.0000 C   0  0  0  0  0  0  0  0  0  0  0  0
    3.1965   -1.7857    0.0000 O   0  0  0  0  0  0  0  0  0  0  0  0
    0.7500   -1.2990    0.0000 C   0  0  0  0  0  0  0  0  0  0  0  0
    1.5000    0.0000    0.0000 C   0  0  0  0  0  0  0  0  0  0  0  0
    0.7500    1.2990    0.0000 C   0  0  0  0  0  0  0  0  0  0  0  0
   -0.7500    1.2990    0.0000 C   0  0  0  0  0  0  0  0  0  0  0  0
   -1.5000    0.0000    0.0000 C   0  0  0  0  0  0  0  0  0  0  0  0
   -0.7500   -1.2990    0.0000 C   0  0  0  0  0  0  0  0  0  0  0  0
  1  2  1  0
  2  3  2  0
  3  4  1  0
  4  5  1  0
  5  6  1  0
  6  7  1  0
  7  8  2  0
  7  9  1  0
  9 10  1  0
 10 11  2  0
 11 12  1  0
 12 13  2  0
 13 14  1  0
 14 15  2  0
  6 16  1  0
 16 17  2  0
 17 18  1  0
 18 19  2  0
 19 20  1  0
 19 21  1  0
 21 22  1  0
 22 23  2  0
 22 24  1  0
 24 25  2  0
 25 26  1  0
 26 27  2  0
 27 28  1  0
 28 29  2  0
 20  2  1  0
 29 24  1  0
 15 10  1  0
 29 16  1  0
M  END
>  <Title>  (1004) 
idABKRgen8

$$$$

     RDKit          2D

  9  9  0  0  0  0  0  0  0  0999 V2000
    3.0000    0.0000    0.0000 C   0  0  0  0  0  0  0  0  0  0  0  0
    1.5000    0.0000    0.0000 C   0  0  0  0  0  0  0  0  0  0  0  0
    0.7500   -1.2990    0.0000 C   0  0  0  0  0  0  0  0  0  0  0  0
   -0.7500   -1.2990    0.0000 C   0  0  0  0  0  0  0  0  0  0  0  0
   -1.5000   -2.5981    0.0000 O   0  0  0  0  0  0  0  0  0  0  0  0
   -1.5000    0.0000    0.0000 C   0  0  0  0  0  0  0  0  0  0  0  0
   -3.0000    0.0000    0.0000 O   0  0  0  0  0  0  0  0  0  0  0  0
   -0.7500    1.2990    0.0000 C   0  0  0  0  0  0  0  0  0  0  0  0
    0.7500    1.2990    0.0000 C   0  0  0  0  0  0  0  0  0  0  0  0
  1  2  1  0
  2  3  2  0
  3  4  1  0
  4  5  1  0
  4  6  1  0
  6  7  1  0
  6  8  1  0
  8  9  1  0
  9  2  1  0
M  END
>  <Title>  (1005) 
idABKSgen8

$$$$

     RDKit          2D

 31 31  0  0  0  0  0  0  0  0999 V2000
    8.9401   -3.0985    0.0000 C   0  0  0  0  0  0  0  0  0  0  0  0
    7.6712   -2.2987    0.0000 C   0  0  0  0  0  0  0  0  0  0  0  0
    7.7293   -0.7998    0.0000 C   0  0  0  0  0  0  0  0  0  0  0  0
    6.4603    0.0000    0.0000 C   0  0  0  0  0  0  0  0  0  0  0  0
    7.7293    0.7998    0.0000 C   0  0  0  0  0  0  0  0  0  0  0  0
    6.2862    1.4899    0.0000 C   0  0  0  0  0  0  0  0  0  0  0  0
    5.7732    2.8994    0.0000 C   0  0  0  0  0  0  0  0  0  0  0  0
    4.9489    4.1526    0.0000 C   0  0  0  0  0  0  0  0  0  0  0  0
    3.8578    5.1820    0.0000 C   0  0  0  0  0  0  0  0  0  0  0  0
    2.5588    5.9320    0.0000 C   0  0  0  0  0  0  0  0  0  0  0  0
    1.1218    6.3622    0.0000 C   0  0  0  0  0  0  0  0  0  0  0  0
   -0.3756    6.4494    0.0000 C   0  0  0  0  0  0  0  0  0  0  0  0
   -1.8528    6.1889    0.0000 C   0  0  0  0  0  0  0  0  0  0  0  0
   -3.2302    5.5948    0.0000 C   0  0  0  0  0  0  0  0  0  0  0  0
   -4.4334    4.6991    0.0000 C   0  0  0  0  0  0  0  0  0  0  0  0
   -5.3975    3.5500    0.0000 C   0  0  0  0  0  0  0  0  0  0  0  0
   -6.0707    2.2096    0.0000 C   0  0  0  0  0  0  0  0  0  0  0  0
   -6.4167    0.7500    0.0000 C   0  0  0  0  0  0  0  0  0  0  0  0
   -6.4167   -0.7500    0.0000 C   0  0  0  0  0  0  0  0  0  0  0  0
   -6.0707   -2.2096    0.0000 C   0  0  0  0  0  0  0  0  0  0  0  0
   -5.3975   -3.5500    0.0000 C   0  0  0  0  0  0  0  0  0  0  0  0
   -4.4334   -4.6991    0.0000 C   0  0  0  0  0  0  0  0  0  0  0  0
   -3.2302   -5.5948    0.0000 C   0  0  0  0  0  0  0  0  0  0  0  0
   -1.8528   -6.1889    0.0000 C   0  0  0  0  0  0  0  0  0  0  0  0
   -0.3756   -6.4494    0.0000 C   0  0  0  0  0  0  0  0  0  0  0  0
    1.1218   -6.3622    0.0000 C   0  0  0  0  0  0  0  0  0  0  0  0
    2.5588   -5.9320    0.0000 C   0  0  0  0  0  0  0  0  0  0  0  0
    3.8578   -5.1820    0.0000 C   0  0  0  0  0  0  0  0  0  0  0  0
    4.9489   -4.1526    0.0000 C   0  0  0  0  0  0  0  0  0  0  0  0
    5.7732   -2.8994    0.0000 C   0  0  0  0  0  0  0  0  0  0  0  0
    6.2862   -1.4899    0.0000 C   0  0  0  0  0  0  0  0  0  0  0  0
  1  2  1  0
  2  3  1  0
  3  4  1  0
  4  5  1  0
  4  6  1  0
  6  7  1  0
  7  8  2  0
  8  9  1  0
  9 10  2  0
 10 11  1  0
 11 12  2  0
 12 13  1  0
 13 14  2  0
 14 15  1  0
 15 16  1  0
 16 17  1  0
 17 18  1  0
 18 19  1  0
 19 20  1  0
 20 21  1  0
 21 22  1  0
 22 23  1  0
 23 24  1  0
 24 25  1  0
 25 26  1  0
 26 27  1  0
 27 28  1  0
 28 29  1  0
 29 30  1  0
 30 31  1  0
 31  4  1  0
M  END
>  <Title>  (1006) 
idABKTgen8

$$$$

     RDKit          2D

 88 88  0  0  0  0  0  0  0  0999 V2000
   22.2742   -0.0000    0.0000 C   0  0  0  0  0  0  0  0  0  0  0  0
   20.7742    0.0000    0.0000 C   0  0  0  0  0  0  0  0  0  0  0  0
   20.7201    1.4990    0.0000 C   0  0  0  0  0  0  0  0  0  0  0  0
   20.5579    2.9902    0.0000 C   0  0  0  0  0  0  0  0  0  0  0  0
   20.2885    4.4658    0.0000 C   0  0  0  0  0  0  0  0  0  0  0  0
   19.9134    5.9182    0.0000 C   0  0  0  0  0  0  0  0  0  0  0  0
   19.4345    7.3397    0.0000 C   0  0  0  0  0  0  0  0  0  0  0  0
   18.8542    8.7229    0.0000 C   0  0  0  0  0  0  0  0  0  0  0  0
   18.1756   10.0606    0.0000 C   0  0  0  0  0  0  0  0  0  0  0  0
   17.4023   11.3459    0.0000 C   0  0  0  0  0  0  0  0  0  0  0  0
   16.5382   12.5720    0.0000 C   0  0  0  0  0  0  0  0  0  0  0  0
   15.5879   13.7326    0.0000 C   0  0  0  0  0  0  0  0  0  0  0  0
   14.5564   14.8216    0.0000 C   0  0  0  0  0  0  0  0  0  0  0  0
   13.4490   15.8333    0.0000 C   0  0  0  0  0  0  0  0  0  0  0  0
   12.2714   16.7625    0.0000 C   0  0  0  0  0  0  0  0  0  0  0  0
   11.0299   17.6043    0.0000 C   0  0  0  0  0  0  0  0  0  0  0  0
    9.7308   18.3543    0.0000 C   0  0  0  0  0  0  0  0  0  0  0  0
    8.3811   19.0086    0.0000 C   0  0  0  0  0  0  0  0  0  0  0  0
    6.9876   19.5638    0.0000 C   0  0  0  0  0  0  0  0  0  0  0  0
    5.5577   20.0170    0.0000 C   0  0  0  0  0  0  0  0  0  0  0  0
    4.0988   20.3659    0.0000 C   0  0  0  0  0  0  0  0  0  0  0  0
    2.6186   20.6085    0.0000 C   0  0  0  0  0  0  0  0  0  0  0  0
    1.1247   20.7438    0.0000 C   0  0  0  0  0  0  0  0  0  0  0  0
   -0.3751   20.7708    0.0000 C   0  0  0  0  0  0  0  0  0  0  0  0
   -1.8729   20.6896    0.0000 C   0  0  0  0  0  0  0  0  0  0  0  0
   -3.3609   20.5006    0.0000 C   0  0  0  0  0  0  0  0  0  0  0  0
   -4.8314   20.2046    0.0000 C   0  0  0  0  0  0  0  0  0  0  0  0
   -6.2767   19.8033    0.0000 C   0  0  0  0  0  0  0  0  0  0  0  0
   -7.6893   19.2988    0.0000 C   0  0  0  0  0  0  0  0  0  0  0  0
   -9.0618   18.6936    0.0000 C   0  0  0  0  0  0  0  0  0  0  0  0
  -10.3871   17.9910    0.0000 C   0  0  0  0  0  0  0  0  0  0  0  0
  -11.6582   17.1946    0.0000 C   0  0  0  0  0  0  0  0  0  0  0  0
  -12.8686   16.3086    0.0000 C   0  0  0  0  0  0  0  0  0  0  0  0
  -14.0118   15.3375    0.0000 C   0  0  0  0  0  0  0  0  0  0  0  0
  -15.0820   14.2864    0.0000 C   0  0  0  0  0  0  0  0  0  0  0  0
  -16.0736   13.1609    0.0000 C   0  0  0  0  0  0  0  0  0  0  0  0
  -16.9813   11.9668    0.0000 C   0  0  0  0  0  0  0  0  0  0  0  0
  -17.8006   10.7102    0.0000 C   0  0  0  0  0  0  0  0  0  0  0  0
  -18.5270    9.3979    0.0000 C   0  0  0  0  0  0  0  0  0  0  0  0
  -19.1568    8.0365    0.0000 C   0  0  0  0  0  0  0  0  0  0  0  0
  -19.6868    6.6332    0.0000 C   0  0  0  0  0  0  0  0  0  0  0  0
  -20.1141    5.1954    0.0000 C   0  0  0  0  0  0  0  0  0  0  0  0
  -20.4365    3.7305    0.0000 C   0  0  0  0  0  0  0  0  0  0  0  0
  -20.6525    2.2461    0.0000 C   0  0  0  0  0  0  0  0  0  0  0  0
  -20.7607    0.7500    0.0000 C   0  0  0  0  0  0  0  0  0  0  0  0
  -20.7607   -0.7500    0.0000 C   0  0  0  0  0  0  0  0  0  0  0  0
  -20.6525   -2.2461    0.0000 C   0  0  0  0  0  0  0  0  0  0  0  0
  -20.4365   -3.7305    0.0000 C   0  0  0  0  0  0  0  0  0  0  0  0
  -20.1141   -5.1954    0.0000 C   0  0  0  0  0  0  0  0  0  0  0  0
  -19.6868   -6.6332    0.0000 C   0  0  0  0  0  0  0  0  0  0  0  0
  -19.1568   -8.0365    0.0000 C   0  0  0  0  0  0  0  0  0  0  0  0
  -18.5270   -9.3979    0.0000 C   0  0  0  0  0  0  0  0  0  0  0  0
  -17.8006  -10.7102    0.0000 C   0  0  0  0  0  0  0  0  0  0  0  0
  -16.9813  -11.9668    0.0000 C   0  0  0  0  0  0  0  0  0  0  0  0
  -16.0736  -13.1609    0.0000 C   0  0  0  0  0  0  0  0  0  0  0  0
  -15.0820  -14.2864    0.0000 C   0  0  0  0  0  0  0  0  0  0  0  0
  -14.0118  -15.3375    0.0000 C   0  0  0  0  0  0  0  0  0  0  0  0
  -12.8686  -16.3086    0.0000 C   0  0  0  0  0  0  0  0  0  0  0  0
  -11.6582  -17.1946    0.0000 C   0  0  0  0  0  0  0  0  0  0  0  0
  -10.3871  -17.9910    0.0000 C   0  0  0  0  0  0  0  0  0  0  0  0
   -9.0618  -18.6936    0.0000 C   0  0  0  0  0  0  0  0  0  0  0  0
   -7.6893  -19.2988    0.0000 C   0  0  0  0  0  0  0  0  0  0  0  0
   -6.2767  -19.8033    0.0000 C   0  0  0  0  0  0  0  0  0  0  0  0
   -4.8314  -20.2046    0.0000 C   0  0  0  0  0  0  0  0  0  0  0  0
   -3.3609  -20.5006    0.0000 C   0  0  0  0  0  0  0  0  0  0  0  0
   -1.8729  -20.6896    0.0000 C   0  0  0  0  0  0  0  0  0  0  0  0
   -0.3751  -20.7708    0.0000 C   0  0  0  0  0  0  0  0  0  0  0  0
    1.1247  -20.7438    0.0000 C   0  0  0  0  0  0  0  0  0  0  0  0
    2.6186  -20.6085    0.0000 C   0  0  0  0  0  0  0  0  0  0  0  0
    4.0988  -20.3659    0.0000 C   0  0  0  0  0  0  0  0  0  0  0  0
    5.5577  -20.0170    0.0000 C   0  0  0  0  0  0  0  0  0  0  0  0
    6.9876  -19.5638    0.0000 C   0  0  0  0  0  0  0  0  0  0  0  0
    8.3811  -19.0086    0.0000 C   0  0  0  0  0  0  0  0  0  0  0  0
    9.7308  -18.3543    0.0000 C   0  0  0  0  0  0  0  0  0  0  0  0
   11.0299  -17.6043    0.0000 C   0  0  0  0  0  0  0  0  0  0  0  0
   12.2714  -16.7625    0.0000 C   0  0  0  0  0  0  0  0  0  0  0  0
   13.4490  -15.8333    0.0000 C   0  0  0  0  0  0  0  0  0  0  0  0
   14.5564  -14.8216    0.0000 C   0  0  0  0  0  0  0  0  0  0  0  0
   15.5879  -13.7326    0.0000 C   0  0  0  0  0  0  0  0  0  0  0  0
   16.5382  -12.5720    0.0000 C   0  0  0  0  0  0  0  0  0  0  0  0
   17.4023  -11.3459    0.0000 C   0  0  0  0  0  0  0  0  0  0  0  0
   18.1756  -10.0606    0.0000 C   0  0  0  0  0  0  0  0  0  0  0  0
   18.8542   -8.7229    0.0000 C   0  0  0  0  0  0  0  0  0  0  0  0
   19.4345   -7.3397    0.0000 C   0  0  0  0  0  0  0  0  0  0  0  0
   19.9134   -5.9182    0.0000 C   0  0  0  0  0  0  0  0  0  0  0  0
   20.2885   -4.4658    0.0000 C   0  0  0  0  0  0  0  0  0  0  0  0
   20.5579   -2.9902    0.0000 C   0  0  0  0  0  0  0  0  0  0  0  0
   20.7201   -1.4990    0.0000 C   0  0  0  0  0  0  0  0  0  0  0  0
  1  2  1  0
  2  3  1  0
  3  4  2  0
  4  5  1  0
  5  6  2  0
  6  7  1  0
  7  8  2  0
  8  9  1  0
  9 10  2  0
 10 11  1  0
 11 12  2  0
 12 13  1  0
 13 14  2  0
 14 15  1  0
 15 16  2  0
 16 17  1  0
 17 18  2  0
 18 19  1  0
 19 20  2  0
 20 21  1  0
 21 22  2  0
 22 23  1  0
 23 24  2  0
 24 25  1  0
 25 26  2  0
 26 27  1  0
 27 28  2  0
 28 29  1  0
 29 30  2  0
 30 31  1  0
 31 32  1  0
 32 33  1  0
 33 34  1  0
 34 35  1  0
 35 36  1  0
 36 37  1  0
 37 38  1  0
 38 39  1  0
 39 40  1  0
 40 41  1  0
 41 42  1  0
 42 43  1  0
 43 44  1  0
 44 45  1  0
 45 46  1  0
 46 47  1  0
 47 48  1  0
 48 49  1  0
 49 50  1  0
 50 51  1  0
 51 52  1  0
 52 53  1  0
 53 54  1  0
 54 55  1  0
 55 56  1  0
 56 57  1  0
 57 58  1  0
 58 59  1  0
 59 60  1  0
 60 61  1  0
 61 62  1  0
 62 63  1  0
 63 64  1  0
 64 65  1  0
 65 66  1  0
 66 67  1  0
 67 68  1  0
 68 69  1  0
 69 70  1  0
 70 71  1  0
 71 72  1  0
 72 73  1  0
 73 74  1  0
 74 75  1  0
 75 76  1  0
 76 77  1  0
 77 78  1  0
 78 79  1  0
 79 80  1  0
 80 81  1  0
 81 82  1  0
 82 83  1  0
 83 84  1  0
 84 85  1  0
 85 86  1  0
 86 87  1  0
 87 88  1  0
 88  2  1  0
M  END
>  <Title>  (1007) 
idABKUgen8

$$$$

     RDKit          2D

 11 11  0  0  0  0  0  0  0  0999 V2000
    3.2286   -0.0000    0.0000 C   0  0  0  0  0  0  0  0  0  0  0  0
    1.7286    0.0000    0.0000 C   0  0  0  0  0  0  0  0  0  0  0  0
    1.0777    1.3515    0.0000 C   0  0  0  0  0  0  0  0  0  0  0  0
   -0.3846    1.6852    0.0000 C   0  0  0  0  0  0  0  0  0  0  0  0
   -0.7184    3.1476    0.0000 O   0  0  0  0  0  0  0  0  0  0  0  0
   -1.5574    0.7500    0.0000 C   0  0  0  0  0  0  0  0  0  0  0  0
   -2.9088    1.4008    0.0000 O   0  0  0  0  0  0  0  0  0  0  0  0
   -1.5574   -0.7500    0.0000 C   0  0  0  0  0  0  0  0  0  0  0  0
   -0.3846   -1.6852    0.0000 C   0  0  0  0  0  0  0  0  0  0  0  0
   -0.7184   -3.1476    0.0000 C   0  0  0  0  0  0  0  0  0  0  0  0
    1.0777   -1.3515    0.0000 C   0  0  0  0  0  0  0  0  0  0  0  0
  1  2  1  0
  2  3  2  0
  3  4  1  0
  4  5  1  0
  4  6  1  0
  6  7  1  0
  6  8  1  0
  8  9  1  0
  9 10  1  0
  9 11  1  0
 11  2  1  0
M  END
>  <Title>  (1008) 
idABKVgen8

$$$$

     RDKit          2D

  6  6  0  0  0  0  0  0  0  0999 V2000
    2.7760    0.0000    0.0000 O   0  0  0  0  0  0  0  0  0  0  0  0
    1.2760    0.0000    0.0000 C   0  0  0  0  0  0  0  0  0  0  0  0
    0.3943    1.2135    0.0000 C   0  0  0  0  0  0  0  0  0  0  0  0
   -1.0323    0.7500    0.0000 C   0  0  0  0  0  0  0  0  0  0  0  0
   -1.0323   -0.7500    0.0000 C   0  0  0  0  0  0  0  0  0  0  0  0
    0.3943   -1.2135    0.0000 C   0  0  0  0  0  0  0  0  0  0  0  0
  1  2  1  0
  2  3  1  0
  3  4  2  0
  4  5  1  0
  5  6  2  0
  6  2  1  0
M  END
>  <Title>  (1009) 
idABKWgen8

$$$$

     RDKit          2D

  7  7  0  0  0  0  0  0  0  0999 V2000
    3.0000    0.0000    0.0000 C   0  0  0  0  0  0  0  0  0  0  0  0
    1.5000    0.0000    0.0000 C   0  0  0  0  0  0  0  0  0  0  0  0
    0.7500   -1.2990    0.0000 C   0  0  0  0  0  0  0  0  0  0  0  0
   -0.7500   -1.2990    0.0000 C   0  0  0  0  0  0  0  0  0  0  0  0
   -1.5000    0.0000    0.0000 C   0  0  0  0  0  0  0  0  0  0  0  0
   -0.7500    1.2990    0.0000 C   0  0  0  0  0  0  0  0  0  0  0  0
    0.7500    1.2990    0.0000 C   0  0  0  0  0  0  0  0  0  0  0  0
  1  2  1  0
  2  3  2  0
  3  4  1  0
  4  5  1  0
  5  6  1  0
  6  7  2  0
  7  2  1  0
M  END
>  <Title>  (1010) 
idABKXgen8

$$$$

     RDKit          2D

 10  9  0  0  0  0  0  0  0  0999 V2000
    0.0000    0.0000    0.0000 C   0  0  0  0  0  0  0  0  0  0  0  0
    1.2990    0.7500    0.0000 C   0  0  0  0  0  0  0  0  0  0  0  0
    2.5981    1.5000    0.0000 C   0  0  0  0  0  0  0  0  0  0  0  0
    3.8971    2.2500    0.0000 C   0  0  0  0  0  0  0  0  0  0  0  0
    3.8971    3.7500    0.0000 O   0  0  0  0  0  0  0  0  0  0  0  0
    5.1962    1.5000    0.0000 N   0  0  0  0  0  0  0  0  0  0  0  0
    6.4952    2.2500    0.0000 C   0  0  0  0  0  0  0  0  0  0  0  0
    7.7942    1.5000    0.0000 C   0  0  0  0  0  0  0  0  0  0  0  0
    9.0933    2.2500    0.0000 C   0  0  0  0  0  0  0  0  0  0  0  0
   10.3923    1.5000    0.0000 C   0  0  0  0  0  0  0  0  0  0  0  0
  1  2  1  0
  2  3  3  0
  3  4  1  0
  4  5  2  0
  4  6  1  0
  6  7  1  0
  7  8  1  0
  8  9  1  0
  9 10  1  0
M  END
>  <Title>  (1011) 
idABKYgen8

$$$$

     RDKit          2D

 21 23  0  0  0  0  0  0  0  0999 V2000
   -3.1476   -2.1380    0.0000 C   0  0  0  0  0  0  0  0  0  0  0  0
   -1.6852   -2.4718    0.0000 C   0  0  0  0  0  0  0  0  0  0  0  0
   -1.3515   -3.9342    0.0000 C   0  0  0  0  0  0  0  0  0  0  0  0
   -0.0000   -4.5850    0.0000 C   0  0  0  0  0  0  0  0  0  0  0  0
    1.3515   -3.9342    0.0000 C   0  0  0  0  0  0  0  0  0  0  0  0
    1.6852   -2.4718    0.0000 C   0  0  0  0  0  0  0  0  0  0  0  0
    3.1476   -2.1380    0.0000 C   0  0  0  0  0  0  0  0  0  0  0  0
    3.5898   -0.7046    0.0000 O   0  0  0  0  0  0  0  0  0  0  0  0
    4.1679   -3.2376    0.0000 N   0  0  0  0  0  0  0  0  0  0  0  0
    5.6303   -2.9038    0.0000 C   0  0  0  0  0  0  0  0  0  0  0  0
    6.6505   -4.0034    0.0000 N   0  0  0  0  0  0  0  0  0  0  0  0
    8.1129   -3.6696    0.0000 N   0  0  0  0  0  0  0  0  0  0  0  0
    8.5551   -2.2362    0.0000 N   0  0  0  0  0  0  0  0  0  0  0  0
    7.5348   -1.1367    0.0000 N   0  0  0  0  0  0  0  0  0  0  0  0
    6.0724   -1.4704    0.0000 N   0  0  0  0  0  0  0  0  0  0  0  0
    0.7500   -1.2990    0.0000 C   0  0  0  0  0  0  0  0  0  0  0  0
    1.5000    0.0000    0.0000 C   0  0  0  0  0  0  0  0  0  0  0  0
    0.7500    1.2990    0.0000 C   0  0  0  0  0  0  0  0  0  0  0  0
   -0.7500    1.2990    0.0000 C   0  0  0  0  0  0  0  0  0  0  0  0
   -1.5000    0.0000    0.0000 C   0  0  0  0  0  0  0  0  0  0  0  0
   -0.7500   -1.2990    0.0000 C   0  0  0  0  0  0  0  0  0  0  0  0
  1  2  1  0
  2  3  2  0
  3  4  1  0
  4  5  1  0
  5  6  2  0
  6  7  1  0
  7  8  2  0
  7  9  1  0
  9 10  1  0
 10 11  2  0
 11 12  1  0
 12 13  2  0
 13 14  1  0
 14 15  2  0
  6 16  1  0
 16 17  2  0
 17 18  1  0
 18 19  2  0
 19 20  1  0
 20 21  2  0
 21  2  1  0
 15 10  1  0
 21 16  1  0
M  END
>  <Title>  (1012) 
idABKZgen8

$$$$

     RDKit          2D

 76 76  0  0  0  0  0  0  0  0999 V2000
   19.4102    0.0000    0.0000 C   0  0  0  0  0  0  0  0  0  0  0  0
   17.9102    0.0000    0.0000 C   0  0  0  0  0  0  0  0  0  0  0  0
   17.8474    1.4987    0.0000 C   0  0  0  0  0  0  0  0  0  0  0  0
   17.6594    2.9869    0.0000 C   0  0  0  0  0  0  0  0  0  0  0  0
   17.3475    4.4541    0.0000 C   0  0  0  0  0  0  0  0  0  0  0  0
   16.9139    5.8901    0.0000 C   0  0  0  0  0  0  0  0  0  0  0  0
   16.3618    7.2847    0.0000 C   0  0  0  0  0  0  0  0  0  0  0  0
   15.6948    8.6283    0.0000 C   0  0  0  0  0  0  0  0  0  0  0  0
   14.9178    9.9113    0.0000 C   0  0  0  0  0  0  0  0  0  0  0  0
   14.0361   11.1249    0.0000 C   0  0  0  0  0  0  0  0  0  0  0  0
   13.0560   12.2604    0.0000 C   0  0  0  0  0  0  0  0  0  0  0  0
   11.9842   13.3098    0.0000 C   0  0  0  0  0  0  0  0  0  0  0  0
   10.8285   14.2660    0.0000 C   0  0  0  0  0  0  0  0  0  0  0  0
    9.5967   15.1221    0.0000 C   0  0  0  0  0  0  0  0  0  0  0  0
    8.2977   15.8721    0.0000 C   0  0  0  0  0  0  0  0  0  0  0  0
    6.9405   16.5107    0.0000 C   0  0  0  0  0  0  0  0  0  0  0  0
    5.5345   17.0336    0.0000 C   0  0  0  0  0  0  0  0  0  0  0  0
    4.0898   17.4370    0.0000 C   0  0  0  0  0  0  0  0  0  0  0  0
    2.6164   17.7180    0.0000 C   0  0  0  0  0  0  0  0  0  0  0  0
    1.1246   17.8748    0.0000 C   0  0  0  0  0  0  0  0  0  0  0  0
   -0.3751   17.9062    0.0000 C   0  0  0  0  0  0  0  0  0  0  0  0
   -1.8721   17.8121    0.0000 C   0  0  0  0  0  0  0  0  0  0  0  0
   -3.3560   17.5929    0.0000 C   0  0  0  0  0  0  0  0  0  0  0  0
   -4.8164   17.2504    0.0000 C   0  0  0  0  0  0  0  0  0  0  0  0
   -6.2430   16.7869    0.0000 C   0  0  0  0  0  0  0  0  0  0  0  0
   -7.6258   16.2056    0.0000 C   0  0  0  0  0  0  0  0  0  0  0  0
   -8.9551   15.5107    0.0000 C   0  0  0  0  0  0  0  0  0  0  0  0
  -10.2216   14.7069    0.0000 C   0  0  0  0  0  0  0  0  0  0  0  0
  -11.4164   13.8000    0.0000 C   0  0  0  0  0  0  0  0  0  0  0  0
  -12.5311   12.7963    0.0000 C   0  0  0  0  0  0  0  0  0  0  0  0
  -13.5579   11.7029    0.0000 C   0  0  0  0  0  0  0  0  0  0  0  0
  -14.4896   10.5273    0.0000 C   0  0  0  0  0  0  0  0  0  0  0  0
  -15.3197    9.2780    0.0000 C   0  0  0  0  0  0  0  0  0  0  0  0
  -16.0423    7.9635    0.0000 C   0  0  0  0  0  0  0  0  0  0  0  0
  -16.6525    6.5932    0.0000 C   0  0  0  0  0  0  0  0  0  0  0  0
  -17.1458    5.1766    0.0000 C   0  0  0  0  0  0  0  0  0  0  0  0
  -17.5188    3.7237    0.0000 C   0  0  0  0  0  0  0  0  0  0  0  0
  -17.7689    2.2447    0.0000 C   0  0  0  0  0  0  0  0  0  0  0  0
  -17.8945    0.7500    0.0000 C   0  0  0  0  0  0  0  0  0  0  0  0
  -17.8945   -0.7500    0.0000 C   0  0  0  0  0  0  0  0  0  0  0  0
  -17.7689   -2.2447    0.0000 C   0  0  0  0  0  0  0  0  0  0  0  0
  -17.5188   -3.7237    0.0000 C   0  0  0  0  0  0  0  0  0  0  0  0
  -17.1458   -5.1766    0.0000 C   0  0  0  0  0  0  0  0  0  0  0  0
  -16.6525   -6.5932    0.0000 C   0  0  0  0  0  0  0  0  0  0  0  0
  -16.0423   -7.9635    0.0000 C   0  0  0  0  0  0  0  0  0  0  0  0
  -15.3197   -9.2780    0.0000 C   0  0  0  0  0  0  0  0  0  0  0  0
  -14.4896  -10.5273    0.0000 C   0  0  0  0  0  0  0  0  0  0  0  0
  -13.5579  -11.7029    0.0000 C   0  0  0  0  0  0  0  0  0  0  0  0
  -12.5311  -12.7963    0.0000 C   0  0  0  0  0  0  0  0  0  0  0  0
  -11.4164  -13.8000    0.0000 C   0  0  0  0  0  0  0  0  0  0  0  0
  -10.2216  -14.7069    0.0000 C   0  0  0  0  0  0  0  0  0  0  0  0
   -8.9551  -15.5107    0.0000 C   0  0  0  0  0  0  0  0  0  0  0  0
   -7.6258  -16.2056    0.0000 C   0  0  0  0  0  0  0  0  0  0  0  0
   -6.2430  -16.7869    0.0000 C   0  0  0  0  0  0  0  0  0  0  0  0
   -4.8164  -17.2504    0.0000 C   0  0  0  0  0  0  0  0  0  0  0  0
   -3.3560  -17.5929    0.0000 C   0  0  0  0  0  0  0  0  0  0  0  0
   -1.8721  -17.8121    0.0000 C   0  0  0  0  0  0  0  0  0  0  0  0
   -0.3751  -17.9062    0.0000 C   0  0  0  0  0  0  0  0  0  0  0  0
    1.1246  -17.8748    0.0000 C   0  0  0  0  0  0  0  0  0  0  0  0
    2.6164  -17.7180    0.0000 C   0  0  0  0  0  0  0  0  0  0  0  0
    4.0898  -17.4370    0.0000 C   0  0  0  0  0  0  0  0  0  0  0  0
    5.5345  -17.0336    0.0000 C   0  0  0  0  0  0  0  0  0  0  0  0
    6.9405  -16.5107    0.0000 C   0  0  0  0  0  0  0  0  0  0  0  0
    8.2977  -15.8721    0.0000 C   0  0  0  0  0  0  0  0  0  0  0  0
    9.5967  -15.1221    0.0000 C   0  0  0  0  0  0  0  0  0  0  0  0
   10.8285  -14.2660    0.0000 C   0  0  0  0  0  0  0  0  0  0  0  0
   11.9842  -13.3098    0.0000 C   0  0  0  0  0  0  0  0  0  0  0  0
   13.0560  -12.2604    0.0000 C   0  0  0  0  0  0  0  0  0  0  0  0
   14.0361  -11.1249    0.0000 C   0  0  0  0  0  0  0  0  0  0  0  0
   14.9178   -9.9113    0.0000 C   0  0  0  0  0  0  0  0  0  0  0  0
   15.6948   -8.6283    0.0000 C   0  0  0  0  0  0  0  0  0  0  0  0
   16.3618   -7.2847    0.0000 C   0  0  0  0  0  0  0  0  0  0  0  0
   16.9139   -5.8901    0.0000 C   0  0  0  0  0  0  0  0  0  0  0  0
   17.3475   -4.4541    0.0000 C   0  0  0  0  0  0  0  0  0  0  0  0
   17.6594   -2.9869    0.0000 C   0  0  0  0  0  0  0  0  0  0  0  0
   17.8474   -1.4987    0.0000 C   0  0  0  0  0  0  0  0  0  0  0  0
  1  2  1  0
  2  3  1  0
  3  4  1  0
  4  5  1  0
  5  6  1  0
  6  7  1  0
  7  8  1  0
  8  9  1  0
  9 10  1  0
 10 11  1  0
 11 12  1  0
 12 13  1  0
 13 14  1  0
 14 15  1  0
 15 16  1  0
 16 17  1  0
 17 18  1  0
 18 19  1  0
 19 20  1  0
 20 21  1  0
 21 22  1  0
 22 23  1  0
 23 24  1  0
 24 25  1  0
 25 26  1  0
 26 27  1  0
 27 28  1  0
 28 29  1  0
 29 30  1  0
 30 31  1  0
 31 32  1  0
 32 33  1  0
 33 34  1  0
 34 35  1  0
 35 36  1  0
 36 37  1  0
 37 38  1  0
 38 39  1  0
 39 40  1  0
 40 41  1  0
 41 42  1  0
 42 43  1  0
 43 44  1  0
 44 45  1  0
 45 46  1  0
 46 47  1  0
 47 48  1  0
 48 49  1  0
 49 50  1  0
 50 51  1  0
 51 52  1  0
 52 53  1  0
 53 54  1  0
 54 55  1  0
 55 56  1  0
 56 57  1  0
 57 58  1  0
 58 59  1  0
 59 60  1  0
 60 61  1  0
 61 62  1  0
 62 63  1  0
 63 64  1  0
 64 65  1  0
 65 66  1  0
 66 67  1  0
 67 68  1  0
 68 69  1  0
 69 70  1  0
 70 71  1  0
 71 72  1  0
 72 73  1  0
 73 74  1  0
 74 75  1  0
 75 76  1  0
 76  2  1  0
M  END
>  <Title>  (1013) 
idABLAgen8

$$$$

     RDKit          2D

 94 94  0  0  0  0  0  0  0  0999 V2000
   23.7063    0.0000    0.0000 C   0  0  0  0  0  0  0  0  0  0  0  0
   22.2063    0.0000    0.0000 C   0  0  0  0  0  0  0  0  0  0  0  0
   22.1557    1.4991    0.0000 C   0  0  0  0  0  0  0  0  0  0  0  0
   22.0039    2.9914    0.0000 C   0  0  0  0  0  0  0  0  0  0  0  0
   21.7518    4.4701    0.0000 C   0  0  0  0  0  0  0  0  0  0  0  0
   21.4004    5.9284    0.0000 C   0  0  0  0  0  0  0  0  0  0  0  0
   20.9513    7.3596    0.0000 C   0  0  0  0  0  0  0  0  0  0  0  0
   20.4067    8.7572    0.0000 C   0  0  0  0  0  0  0  0  0  0  0  0
   19.7689   10.1149    0.0000 C   0  0  0  0  0  0  0  0  0  0  0  0
   19.0410   11.4264    0.0000 C   0  0  0  0  0  0  0  0  0  0  0  0
   18.2262   12.6858    0.0000 C   0  0  0  0  0  0  0  0  0  0  0  0
   17.3282   13.8873    0.0000 C   0  0  0  0  0  0  0  0  0  0  0  0
   16.3511   15.0254    0.0000 C   0  0  0  0  0  0  0  0  0  0  0  0
   15.2994   16.0950    0.0000 C   0  0  0  0  0  0  0  0  0  0  0  0
   14.1780   17.0911    0.0000 C   0  0  0  0  0  0  0  0  0  0  0  0
   12.9918   18.0093    0.0000 C   0  0  0  0  0  0  0  0  0  0  0  0
   11.7464   18.8453    0.0000 C   0  0  0  0  0  0  0  0  0  0  0  0
   10.4473   19.5953    0.0000 C   0  0  0  0  0  0  0  0  0  0  0  0
    9.1006   20.2559    0.0000 C   0  0  0  0  0  0  0  0  0  0  0  0
    7.7124   20.8240    0.0000 C   0  0  0  0  0  0  0  0  0  0  0  0
    6.2890   21.2972    0.0000 C   0  0  0  0  0  0  0  0  0  0  0  0
    4.8368   21.6732    0.0000 C   0  0  0  0  0  0  0  0  0  0  0  0
    3.3627   21.9503    0.0000 C   0  0  0  0  0  0  0  0  0  0  0  0
    1.8731   22.1272    0.0000 C   0  0  0  0  0  0  0  0  0  0  0  0
    0.3751   22.2032    0.0000 C   0  0  0  0  0  0  0  0  0  0  0  0
   -1.1247   22.1778    0.0000 C   0  0  0  0  0  0  0  0  0  0  0  0
   -2.6194   22.0513    0.0000 C   0  0  0  0  0  0  0  0  0  0  0  0
   -4.1021   21.8242    0.0000 C   0  0  0  0  0  0  0  0  0  0  0  0
   -5.5661   21.4974    0.0000 C   0  0  0  0  0  0  0  0  0  0  0  0
   -7.0047   21.0726    0.0000 C   0  0  0  0  0  0  0  0  0  0  0  0
   -8.4113   20.5517    0.0000 C   0  0  0  0  0  0  0  0  0  0  0  0
   -9.7795   19.9370    0.0000 C   0  0  0  0  0  0  0  0  0  0  0  0
  -11.1032   19.2313    0.0000 C   0  0  0  0  0  0  0  0  0  0  0  0
  -12.3761   18.4378    0.0000 C   0  0  0  0  0  0  0  0  0  0  0  0
  -13.5926   17.5602    0.0000 C   0  0  0  0  0  0  0  0  0  0  0  0
  -14.7471   16.6025    0.0000 C   0  0  0  0  0  0  0  0  0  0  0  0
  -15.8343   15.5691    0.0000 C   0  0  0  0  0  0  0  0  0  0  0  0
  -16.8492   14.4646    0.0000 C   0  0  0  0  0  0  0  0  0  0  0  0
  -17.7873   13.2941    0.0000 C   0  0  0  0  0  0  0  0  0  0  0  0
  -18.6442   12.0630    0.0000 C   0  0  0  0  0  0  0  0  0  0  0  0
  -19.4160   10.7768    0.0000 C   0  0  0  0  0  0  0  0  0  0  0  0
  -20.0993    9.4414    0.0000 C   0  0  0  0  0  0  0  0  0  0  0  0
  -20.6908    8.0630    0.0000 C   0  0  0  0  0  0  0  0  0  0  0  0
  -21.1879    6.6478    0.0000 C   0  0  0  0  0  0  0  0  0  0  0  0
  -21.5884    5.2022    0.0000 C   0  0  0  0  0  0  0  0  0  0  0  0
  -21.8903    3.7329    0.0000 C   0  0  0  0  0  0  0  0  0  0  0  0
  -22.0924    2.2466    0.0000 C   0  0  0  0  0  0  0  0  0  0  0  0
  -22.1937    0.7500    0.0000 C   0  0  0  0  0  0  0  0  0  0  0  0
  -22.1937   -0.7500    0.0000 C   0  0  0  0  0  0  0  0  0  0  0  0
  -22.0924   -2.2466    0.0000 C   0  0  0  0  0  0  0  0  0  0  0  0
  -21.8903   -3.7329    0.0000 C   0  0  0  0  0  0  0  0  0  0  0  0
  -21.5884   -5.2022    0.0000 C   0  0  0  0  0  0  0  0  0  0  0  0
  -21.1879   -6.6478    0.0000 C   0  0  0  0  0  0  0  0  0  0  0  0
  -20.6908   -8.0630    0.0000 C   0  0  0  0  0  0  0  0  0  0  0  0
  -20.0993   -9.4414    0.0000 C   0  0  0  0  0  0  0  0  0  0  0  0
  -19.4160  -10.7768    0.0000 C   0  0  0  0  0  0  0  0  0  0  0  0
  -18.6442  -12.0630    0.0000 C   0  0  0  0  0  0  0  0  0  0  0  0
  -17.7873  -13.2941    0.0000 C   0  0  0  0  0  0  0  0  0  0  0  0
  -16.8492  -14.4646    0.0000 C   0  0  0  0  0  0  0  0  0  0  0  0
  -15.8343  -15.5691    0.0000 C   0  0  0  0  0  0  0  0  0  0  0  0
  -14.7471  -16.6025    0.0000 C   0  0  0  0  0  0  0  0  0  0  0  0
  -13.5926  -17.5602    0.0000 C   0  0  0  0  0  0  0  0  0  0  0  0
  -12.3761  -18.4378    0.0000 C   0  0  0  0  0  0  0  0  0  0  0  0
  -11.1032  -19.2313    0.0000 C   0  0  0  0  0  0  0  0  0  0  0  0
   -9.7795  -19.9370    0.0000 C   0  0  0  0  0  0  0  0  0  0  0  0
   -8.4113  -20.5517    0.0000 C   0  0  0  0  0  0  0  0  0  0  0  0
   -7.0047  -21.0726    0.0000 C   0  0  0  0  0  0  0  0  0  0  0  0
   -5.5661  -21.4974    0.0000 C   0  0  0  0  0  0  0  0  0  0  0  0
   -4.1021  -21.8242    0.0000 C   0  0  0  0  0  0  0  0  0  0  0  0
   -2.6194  -22.0513    0.0000 C   0  0  0  0  0  0  0  0  0  0  0  0
   -1.1247  -22.1778    0.0000 C   0  0  0  0  0  0  0  0  0  0  0  0
    0.3751  -22.2032    0.0000 C   0  0  0  0  0  0  0  0  0  0  0  0
    1.8731  -22.1272    0.0000 C   0  0  0  0  0  0  0  0  0  0  0  0
    3.3627  -21.9503    0.0000 C   0  0  0  0  0  0  0  0  0  0  0  0
    4.8368  -21.6732    0.0000 C   0  0  0  0  0  0  0  0  0  0  0  0
    6.2890  -21.2972    0.0000 C   0  0  0  0  0  0  0  0  0  0  0  0
    7.7124  -20.8240    0.0000 C   0  0  0  0  0  0  0  0  0  0  0  0
    9.1006  -20.2559    0.0000 C   0  0  0  0  0  0  0  0  0  0  0  0
   10.4473  -19.5953    0.0000 C   0  0  0  0  0  0  0  0  0  0  0  0
   11.7464  -18.8453    0.0000 C   0  0  0  0  0  0  0  0  0  0  0  0
   12.9918  -18.0093    0.0000 C   0  0  0  0  0  0  0  0  0  0  0  0
   14.1780  -17.0911    0.0000 C   0  0  0  0  0  0  0  0  0  0  0  0
   15.2994  -16.0950    0.0000 C   0  0  0  0  0  0  0  0  0  0  0  0
   16.3511  -15.0254    0.0000 C   0  0  0  0  0  0  0  0  0  0  0  0
   17.3282  -13.8873    0.0000 C   0  0  0  0  0  0  0  0  0  0  0  0
   18.2262  -12.6858    0.0000 C   0  0  0  0  0  0  0  0  0  0  0  0
   19.0410  -11.4264    0.0000 C   0  0  0  0  0  0  0  0  0  0  0  0
   19.7689  -10.1149    0.0000 C   0  0  0  0  0  0  0  0  0  0  0  0
   20.4067   -8.7572    0.0000 C   0  0  0  0  0  0  0  0  0  0  0  0
   20.9513   -7.3596    0.0000 C   0  0  0  0  0  0  0  0  0  0  0  0
   21.4004   -5.9284    0.0000 C   0  0  0  0  0  0  0  0  0  0  0  0
   21.7518   -4.4701    0.0000 C   0  0  0  0  0  0  0  0  0  0  0  0
   22.0039   -2.9914    0.0000 C   0  0  0  0  0  0  0  0  0  0  0  0
   22.1557   -1.4991    0.0000 C   0  0  0  0  0  0  0  0  0  0  0  0
  1  2  1  0
  2  3  1  0
  3  4  1  0
  4  5  1  0
  5  6  1  0
  6  7  1  0
  7  8  1  0
  8  9  1  0
  9 10  1  0
 10 11  1  0
 11 12  1  0
 12 13  1  0
 13 14  1  0
 14 15  1  0
 15 16  1  0
 16 17  1  0
 17 18  1  0
 18 19  1  0
 19 20  1  0
 20 21  1  0
 21 22  1  0
 22 23  1  0
 23 24  1  0
 24 25  1  0
 25 26  1  0
 26 27  1  0
 27 28  1  0
 28 29  1  0
 29 30  1  0
 30 31  1  0
 31 32  1  0
 32 33  1  0
 33 34  1  0
 34 35  1  0
 35 36  1  0
 36 37  1  0
 37 38  1  0
 38 39  1  0
 39 40  1  0
 40 41  1  0
 41 42  1  0
 42 43  1  0
 43 44  1  0
 44 45  1  0
 45 46  1  0
 46 47  1  0
 47 48  1  0
 48 49  1  0
 49 50  1  0
 50 51  1  0
 51 52  1  0
 52 53  1  0
 53 54  1  0
 54 55  1  0
 55 56  1  0
 56 57  1  0
 57 58  1  0
 58 59  1  0
 59 60  1  0
 60 61  1  0
 61 62  1  0
 62 63  1  0
 63 64  1  0
 64 65  1  0
 65 66  1  0
 66 67  1  0
 67 68  1  0
 68 69  1  0
 69 70  1  0
 70 71  1  0
 71 72  1  0
 72 73  1  0
 73 74  1  0
 74 75  1  0
 75 76  1  0
 76 77  1  0
 77 78  1  0
 78 79  1  0
 79 80  1  0
 80 81  1  0
 81 82  1  0
 82 83  1  0
 83 84  1  0
 84 85  1  0
 85 86  1  0
 86 87  1  0
 87 88  1  0
 88 89  1  0
 89 90  1  0
 90 91  1  0
 91 92  1  0
 92 93  1  0
 93 94  1  0
 94  2  1  0
M  END
>  <Title>  (1014) 
idABLBgen8

$$$$

     RDKit          2D

 71 76  0  0  0  0  0  0  0  0999 V2000
  -10.5437   -6.0281    0.0000 C   0  0  0  0  0  0  0  0  0  0  0  0
   -9.2272   -6.7470    0.0000 C   0  0  0  0  0  0  0  0  0  0  0  0
   -9.8503   -8.1114    0.0000 C   0  0  0  0  0  0  0  0  0  0  0  0
  -10.2729   -9.5507    0.0000 C   0  0  0  0  0  0  0  0  0  0  0  0
  -11.7386   -9.2318    0.0000 O   0  0  0  0  0  0  0  0  0  0  0  0
  -10.4864  -11.0354    0.0000 C   0  0  0  0  0  0  0  0  0  0  0  0
  -10.4864  -12.5354    0.0000 C   0  0  0  0  0  0  0  0  0  0  0  0
  -10.2729  -14.0201    0.0000 C   0  0  0  0  0  0  0  0  0  0  0  0
   -9.8503  -15.4594    0.0000 C   0  0  0  0  0  0  0  0  0  0  0  0
   -9.2272  -16.8238    0.0000 C   0  0  0  0  0  0  0  0  0  0  0  0
   -8.4162  -18.0857    0.0000 C   0  0  0  0  0  0  0  0  0  0  0  0
   -7.4339  -19.2193    0.0000 C   0  0  0  0  0  0  0  0  0  0  0  0
   -6.3003  -20.2016    0.0000 C   0  0  0  0  0  0  0  0  0  0  0  0
   -5.0384  -21.0126    0.0000 C   0  0  0  0  0  0  0  0  0  0  0  0
   -3.6740  -21.6357    0.0000 C   0  0  0  0  0  0  0  0  0  0  0  0
   -2.2347  -22.0583    0.0000 C   0  0  0  0  0  0  0  0  0  0  0  0
   -0.7500  -22.2718    0.0000 C   0  0  0  0  0  0  0  0  0  0  0  0
    0.7500  -22.2718    0.0000 C   0  0  0  0  0  0  0  0  0  0  0  0
    2.2347  -22.0583    0.0000 C   0  0  0  0  0  0  0  0  0  0  0  0
    3.6740  -21.6357    0.0000 C   0  0  0  0  0  0  0  0  0  0  0  0
    5.0384  -21.0126    0.0000 C   0  0  0  0  0  0  0  0  0  0  0  0
    6.3003  -20.2016    0.0000 C   0  0  0  0  0  0  0  0  0  0  0  0
    7.4339  -19.2193    0.0000 C   0  0  0  0  0  0  0  0  0  0  0  0
    8.4162  -18.0857    0.0000 C   0  0  0  0  0  0  0  0  0  0  0  0
    9.2272  -16.8238    0.0000 C   0  0  0  0  0  0  0  0  0  0  0  0
    9.8503  -15.4594    0.0000 C   0  0  0  0  0  0  0  0  0  0  0  0
   10.2729  -14.0201    0.0000 C   0  0  0  0  0  0  0  0  0  0  0  0
   10.4864  -12.5354    0.0000 C   0  0  0  0  0  0  0  0  0  0  0  0
   10.4864  -11.0354    0.0000 C   0  0  0  0  0  0  0  0  0  0  0  0
   10.2729   -9.5507    0.0000 C   0  0  0  0  0  0  0  0  0  0  0  0
    9.8503   -8.1114    0.0000 C   0  0  0  0  0  0  0  0  0  0  0  0
    9.2272   -6.7470    0.0000 C   0  0  0  0  0  0  0  0  0  0  0  0
    8.4162   -5.4851    0.0000 C   0  0  0  0  0  0  0  0  0  0  0  0
    7.4339   -4.3515    0.0000 C   0  0  0  0  0  0  0  0  0  0  0  0
    6.3003   -3.3692    0.0000 C   0  0  0  0  0  0  0  0  0  0  0  0
    5.0384   -2.5582    0.0000 C   0  0  0  0  0  0  0  0  0  0  0  0
    3.6740   -1.9351    0.0000 C   0  0  0  0  0  0  0  0  0  0  0  0
    2.2347   -1.5125    0.0000 C   0  0  0  0  0  0  0  0  0  0  0  0
    2.5536   -0.0468    0.0000 C   0  0  0  0  0  0  0  0  0  0  0  0
    1.7208    1.2008    0.0000 O   0  0  0  0  0  0  0  0  0  0  0  0
    3.9824    0.4099    0.0000 N   0  0  0  0  0  0  0  0  0  0  0  0
    4.3012    1.8757    0.0000 C   0  0  0  0  0  0  0  0  0  0  0  0
    5.7300    2.3324    0.0000 N   0  0  0  0  0  0  0  0  0  0  0  0
    6.0488    3.7981    0.0000 N   0  0  0  0  0  0  0  0  0  0  0  0
    4.9389    4.8071    0.0000 N   0  0  0  0  0  0  0  0  0  0  0  0
    3.5101    4.3504    0.0000 N   0  0  0  0  0  0  0  0  0  0  0  0
    3.1913    2.8847    0.0000 N   0  0  0  0  0  0  0  0  0  0  0  0
    0.7500   -1.2990    0.0000 C   0  0  0  0  0  0  0  0  0  0  0  0
    1.5000    0.0000    0.0000 C   0  0  0  0  0  0  0  0  0  0  0  0
    0.7500    1.2990    0.0000 C   0  0  0  0  0  0  0  0  0  0  0  0
   -0.7500    1.2990    0.0000 C   0  0  0  0  0  0  0  0  0  0  0  0
   -1.5000    0.0000    0.0000 C   0  0  0  0  0  0  0  0  0  0  0  0
   -0.7500   -1.2990    0.0000 C   0  0  0  0  0  0  0  0  0  0  0  0
   -2.2347   -1.5125    0.0000 C   0  0  0  0  0  0  0  0  0  0  0  0
   -1.1491   -2.5476    0.0000 C   0  0  0  0  0  0  0  0  0  0  0  0
   -1.5028   -4.0053    0.0000 C   0  0  0  0  0  0  0  0  0  0  0  0
   -2.9420   -4.4279    0.0000 C   0  0  0  0  0  0  0  0  0  0  0  0
   -4.0276   -3.3928    0.0000 C   0  0  0  0  0  0  0  0  0  0  0  0
   -3.6740   -1.9351    0.0000 C   0  0  0  0  0  0  0  0  0  0  0  0
   -5.0384   -2.5582    0.0000 C   0  0  0  0  0  0  0  0  0  0  0  0
   -5.1098   -1.0599    0.0000 C   0  0  0  0  0  0  0  0  0  0  0  0
   -6.4430   -0.3726    0.0000 C   0  0  0  0  0  0  0  0  0  0  0  0
   -7.7049   -1.1836    0.0000 C   0  0  0  0  0  0  0  0  0  0  0  0
   -7.6336   -2.6819    0.0000 C   0  0  0  0  0  0  0  0  0  0  0  0
   -6.3003   -3.3692    0.0000 C   0  0  0  0  0  0  0  0  0  0  0  0
   -7.4339   -4.3515    0.0000 C   0  0  0  0  0  0  0  0  0  0  0  0
   -8.3829   -3.4630    0.0000 C   0  0  0  0  0  0  0  0  0  0  0  0
   -9.1685   -3.3116    0.0000 C   0  0  0  0  0  0  0  0  0  0  0  0
   -9.6924   -3.9162    0.0000 C   0  0  0  0  0  0  0  0  0  0  0  0
   -9.4307   -4.6722    0.0000 C   0  0  0  0  0  0  0  0  0  0  0  0
   -8.4162   -5.4851    0.0000 C   0  0  0  0  0  0  0  0  0  0  0  0
  1  2  1  0
  2  3  2  0
  3  4  1  0
  4  5  1  0
  4  6  1  0
  6  7  1  0
  7  8  1  0
  8  9  1  0
  9 10  1  0
 10 11  1  0
 11 12  1  0
 12 13  1  0
 13 14  1  0
 14 15  1  0
 15 16  1  0
 16 17  1  0
 17 18  1  0
 18 19  1  0
 19 20  1  0
 20 21  1  0
 21 22  1  0
 22 23  1  0
 23 24  1  0
 24 25  1  0
 25 26  1  0
 26 27  1  0
 27 28  1  0
 28 29  1  0
 29 30  1  0
 30 31  1  0
 31 32  1  0
 32 33  1  0
 33 34  1  0
 34 35  1  0
 35 36  1  0
 36 37  1  0
 37 38  1  0
 38 39  1  0
 39 40  2  0
 39 41  1  0
 41 42  1  0
 42 43  2  0
 43 44  1  0
 44 45  2  0
 45 46  1  0
 46 47  2  0
 38 48  1  0
 48 49  2  0
 49 50  1  0
 50 51  2  0
 51 52  1  0
 52 53  2  0
 53 54  1  0
 54 55  2  0
 55 56  1  0
 56 57  2  0
 57 58  1  0
 58 59  2  0
 59 60  1  0
 60 61  2  0
 61 62  1  0
 62 63  2  0
 63 64  1  0
 64 65  2  0
 65 66  1  0
 66 67  2  0
 67 68  1  0
 68 69  2  0
 69 70  1  0
 70 71  2  0
 71  2  1  0
 47 42  1  0
 53 48  1  0
 59 54  1  0
 65 60  1  0
 71 66  1  0
M  END
>  <Title>  (1015) 
idABLCgen8

$$$$

     RDKit          2D

101101  0  0  0  0  0  0  0  0999 V2000
   25.3772    0.0000    0.0000 C   0  0  0  0  0  0  0  0  0  0  0  0
   23.8772    0.0000    0.0000 C   0  0  0  0  0  0  0  0  0  0  0  0
   23.8301   -1.4993    0.0000 C   0  0  0  0  0  0  0  0  0  0  0  0
   23.6889   -2.9926    0.0000 C   0  0  0  0  0  0  0  0  0  0  0  0
   23.4542   -4.4741    0.0000 C   0  0  0  0  0  0  0  0  0  0  0  0
   23.1270   -5.9380    0.0000 C   0  0  0  0  0  0  0  0  0  0  0  0
   22.7085   -7.3785    0.0000 C   0  0  0  0  0  0  0  0  0  0  0  0
   22.2004   -8.7898    0.0000 C   0  0  0  0  0  0  0  0  0  0  0  0
   21.6047  -10.1664    0.0000 C   0  0  0  0  0  0  0  0  0  0  0  0
   20.9237  -11.5029    0.0000 C   0  0  0  0  0  0  0  0  0  0  0  0
   20.1602  -12.7940    0.0000 C   0  0  0  0  0  0  0  0  0  0  0  0
   19.3170  -14.0346    0.0000 C   0  0  0  0  0  0  0  0  0  0  0  0
   18.3977  -15.2199    0.0000 C   0  0  0  0  0  0  0  0  0  0  0  0
   17.4057  -16.3450    0.0000 C   0  0  0  0  0  0  0  0  0  0  0  0
   16.3450  -17.4057    0.0000 C   0  0  0  0  0  0  0  0  0  0  0  0
   15.2199  -18.3977    0.0000 C   0  0  0  0  0  0  0  0  0  0  0  0
   14.0346  -19.3170    0.0000 C   0  0  0  0  0  0  0  0  0  0  0  0
   12.7940  -20.1602    0.0000 C   0  0  0  0  0  0  0  0  0  0  0  0
   11.5029  -20.9237    0.0000 C   0  0  0  0  0  0  0  0  0  0  0  0
   10.1664  -21.6047    0.0000 C   0  0  0  0  0  0  0  0  0  0  0  0
    8.7898  -22.2004    0.0000 C   0  0  0  0  0  0  0  0  0  0  0  0
    7.3785  -22.7085    0.0000 C   0  0  0  0  0  0  0  0  0  0  0  0
    5.9380  -23.1270    0.0000 C   0  0  0  0  0  0  0  0  0  0  0  0
    4.4741  -23.4542    0.0000 C   0  0  0  0  0  0  0  0  0  0  0  0
    2.9926  -23.6889    0.0000 C   0  0  0  0  0  0  0  0  0  0  0  0
    1.4993  -23.8301    0.0000 C   0  0  0  0  0  0  0  0  0  0  0  0
   -0.0000  -23.8772    0.0000 C   0  0  0  0  0  0  0  0  0  0  0  0
   -1.4993  -23.8301    0.0000 C   0  0  0  0  0  0  0  0  0  0  0  0
   -2.9926  -23.6889    0.0000 C   0  0  0  0  0  0  0  0  0  0  0  0
   -4.4741  -23.4542    0.0000 C   0  0  0  0  0  0  0  0  0  0  0  0
   -5.9380  -23.1270    0.0000 C   0  0  0  0  0  0  0  0  0  0  0  0
   -7.3785  -22.7085    0.0000 C   0  0  0  0  0  0  0  0  0  0  0  0
   -8.7898  -22.2004    0.0000 C   0  0  0  0  0  0  0  0  0  0  0  0
  -10.1664  -21.6047    0.0000 C   0  0  0  0  0  0  0  0  0  0  0  0
  -11.5029  -20.9237    0.0000 C   0  0  0  0  0  0  0  0  0  0  0  0
  -12.7940  -20.1602    0.0000 C   0  0  0  0  0  0  0  0  0  0  0  0
  -14.0346  -19.3170    0.0000 C   0  0  0  0  0  0  0  0  0  0  0  0
  -15.2199  -18.3977    0.0000 C   0  0  0  0  0  0  0  0  0  0  0  0
  -16.3450  -17.4057    0.0000 C   0  0  0  0  0  0  0  0  0  0  0  0
  -17.4057  -16.3450    0.0000 C   0  0  0  0  0  0  0  0  0  0  0  0
  -18.3977  -15.2199    0.0000 C   0  0  0  0  0  0  0  0  0  0  0  0
  -19.3170  -14.0346    0.0000 C   0  0  0  0  0  0  0  0  0  0  0  0
  -20.1602  -12.7940    0.0000 C   0  0  0  0  0  0  0  0  0  0  0  0
  -20.9237  -11.5029    0.0000 C   0  0  0  0  0  0  0  0  0  0  0  0
  -21.6047  -10.1664    0.0000 C   0  0  0  0  0  0  0  0  0  0  0  0
  -22.2004   -8.7898    0.0000 C   0  0  0  0  0  0  0  0  0  0  0  0
  -22.7085   -7.3785    0.0000 C   0  0  0  0  0  0  0  0  0  0  0  0
  -23.1270   -5.9380    0.0000 C   0  0  0  0  0  0  0  0  0  0  0  0
  -23.4542   -4.4741    0.0000 C   0  0  0  0  0  0  0  0  0  0  0  0
  -23.6889   -2.9926    0.0000 C   0  0  0  0  0  0  0  0  0  0  0  0
  -23.8301   -1.4993    0.0000 C   0  0  0  0  0  0  0  0  0  0  0  0
  -23.8772   -0.0000    0.0000 C   0  0  0  0  0  0  0  0  0  0  0  0
  -23.8301    1.4993    0.0000 C   0  0  0  0  0  0  0  0  0  0  0  0
  -23.6889    2.9926    0.0000 C   0  0  0  0  0  0  0  0  0  0  0  0
  -23.4542    4.4741    0.0000 C   0  0  0  0  0  0  0  0  0  0  0  0
  -23.1270    5.9380    0.0000 C   0  0  0  0  0  0  0  0  0  0  0  0
  -22.7085    7.3785    0.0000 C   0  0  0  0  0  0  0  0  0  0  0  0
  -22.2004    8.7898    0.0000 C   0  0  0  0  0  0  0  0  0  0  0  0
  -21.6047   10.1664    0.0000 C   0  0  0  0  0  0  0  0  0  0  0  0
  -20.9237   11.5029    0.0000 C   0  0  0  0  0  0  0  0  0  0  0  0
  -20.1602   12.7940    0.0000 C   0  0  0  0  0  0  0  0  0  0  0  0
  -19.3170   14.0346    0.0000 C   0  0  0  0  0  0  0  0  0  0  0  0
  -18.3977   15.2199    0.0000 C   0  0  0  0  0  0  0  0  0  0  0  0
  -17.4057   16.3450    0.0000 C   0  0  0  0  0  0  0  0  0  0  0  0
  -16.3450   17.4057    0.0000 C   0  0  0  0  0  0  0  0  0  0  0  0
  -15.2199   18.3977    0.0000 C   0  0  0  0  0  0  0  0  0  0  0  0
  -14.0346   19.3170    0.0000 C   0  0  0  0  0  0  0  0  0  0  0  0
  -12.7940   20.1602    0.0000 C   0  0  0  0  0  0  0  0  0  0  0  0
  -11.5029   20.9237    0.0000 C   0  0  0  0  0  0  0  0  0  0  0  0
  -10.1664   21.6047    0.0000 C   0  0  0  0  0  0  0  0  0  0  0  0
   -8.7898   22.2004    0.0000 C   0  0  0  0  0  0  0  0  0  0  0  0
   -7.3785   22.7085    0.0000 C   0  0  0  0  0  0  0  0  0  0  0  0
   -5.9380   23.1270    0.0000 C   0  0  0  0  0  0  0  0  0  0  0  0
   -4.4741   23.4542    0.0000 C   0  0  0  0  0  0  0  0  0  0  0  0
   -2.9926   23.6889    0.0000 C   0  0  0  0  0  0  0  0  0  0  0  0
   -1.4993   23.8301    0.0000 C   0  0  0  0  0  0  0  0  0  0  0  0
   -0.0000   23.8772    0.0000 C   0  0  0  0  0  0  0  0  0  0  0  0
    1.4993   23.8301    0.0000 C   0  0  0  0  0  0  0  0  0  0  0  0
    2.9926   23.6889    0.0000 C   0  0  0  0  0  0  0  0  0  0  0  0
    4.4741   23.4542    0.0000 C   0  0  0  0  0  0  0  0  0  0  0  0
    5.9380   23.1270    0.0000 C   0  0  0  0  0  0  0  0  0  0  0  0
    7.3785   22.7085    0.0000 C   0  0  0  0  0  0  0  0  0  0  0  0
    8.7898   22.2004    0.0000 C   0  0  0  0  0  0  0  0  0  0  0  0
   10.1664   21.6047    0.0000 C   0  0  0  0  0  0  0  0  0  0  0  0
   11.5029   20.9237    0.0000 C   0  0  0  0  0  0  0  0  0  0  0  0
   12.7940   20.1602    0.0000 C   0  0  0  0  0  0  0  0  0  0  0  0
   14.0346   19.3170    0.0000 C   0  0  0  0  0  0  0  0  0  0  0  0
   15.2199   18.3977    0.0000 C   0  0  0  0  0  0  0  0  0  0  0  0
   16.3450   17.4057    0.0000 C   0  0  0  0  0  0  0  0  0  0  0  0
   17.4057   16.3450    0.0000 C   0  0  0  0  0  0  0  0  0  0  0  0
   18.3977   15.2199    0.0000 C   0  0  0  0  0  0  0  0  0  0  0  0
   19.3170   14.0346    0.0000 C   0  0  0  0  0  0  0  0  0  0  0  0
   20.1602   12.7940    0.0000 C   0  0  0  0  0  0  0  0  0  0  0  0
   20.9237   11.5029    0.0000 C   0  0  0  0  0  0  0  0  0  0  0  0
   21.6047   10.1664    0.0000 C   0  0  0  0  0  0  0  0  0  0  0  0
   22.2004    8.7898    0.0000 C   0  0  0  0  0  0  0  0  0  0  0  0
   22.7085    7.3785    0.0000 C   0  0  0  0  0  0  0  0  0  0  0  0
   23.1270    5.9380    0.0000 C   0  0  0  0  0  0  0  0  0  0  0  0
   23.4542    4.4741    0.0000 C   0  0  0  0  0  0  0  0  0  0  0  0
   23.6889    2.9926    0.0000 C   0  0  0  0  0  0  0  0  0  0  0  0
   23.8301    1.4993    0.0000 C   0  0  0  0  0  0  0  0  0  0  0  0
  1  2  1  0
  2  3  1  0
  3  4  1  0
  4  5  1  0
  5  6  1  0
  6  7  1  0
  7  8  1  0
  8  9  1  0
  9 10  1  0
 10 11  1  0
 11 12  1  0
 12 13  1  0
 13 14  1  0
 14 15  1  0
 15 16  1  0
 16 17  1  0
 17 18  1  0
 18 19  1  0
 19 20  1  0
 20 21  1  0
 21 22  1  0
 22 23  1  0
 23 24  1  0
 24 25  1  0
 25 26  1  0
 26 27  1  0
 27 28  1  0
 28 29  1  0
 29 30  1  0
 30 31  1  0
 31 32  1  0
 32 33  1  0
 33 34  1  0
 34 35  1  0
 35 36  1  0
 36 37  1  0
 37 38  1  0
 38 39  1  0
 39 40  1  0
 40 41  1  0
 41 42  1  0
 42 43  1  0
 43 44  1  0
 44 45  1  0
 45 46  1  0
 46 47  1  0
 47 48  1  0
 48 49  1  0
 49 50  1  0
 50 51  1  0
 51 52  1  0
 52 53  1  0
 53 54  1  0
 54 55  1  0
 55 56  1  0
 56 57  1  0
 57 58  1  0
 58 59  1  0
 59 60  1  0
 60 61  1  0
 61 62  1  0
 62 63  1  0
 63 64  1  0
 64 65  1  0
 65 66  1  0
 66 67  1  0
 67 68  1  0
 68 69  1  0
 69 70  1  0
 70 71  1  0
 71 72  1  0
 72 73  1  0
 73 74  1  0
 74 75  1  0
 75 76  1  0
 76 77  1  0
 77 78  1  0
 78 79  1  0
 79 80  1  0
 80 81  1  0
 81 82  1  0
 82 83  1  0
 83 84  1  0
 84 85  1  0
 85 86  1  0
 86 87  1  0
 87 88  1  0
 88 89  1  0
 89 90  1  0
 90 91  1  0
 91 92  1  0
 92 93  1  0
 93 94  1  0
 94 95  1  0
 95 96  1  0
 96 97  1  0
 97 98  1  0
 98 99  1  0
 99100  1  0
100101  1  0
101  2  1  0
M  END
>  <Title>  (1016) 
idABLDgen8

$$$$

     RDKit          2D

  9  9  0  0  0  0  0  0  0  0999 V2000
    4.5000    0.0000    0.0000 N   0  0  0  0  0  0  0  0  0  0  0  0
    3.0000    0.0000    0.0000 C   0  0  0  0  0  0  0  0  0  0  0  0
    1.5000    0.0000    0.0000 C   0  0  0  0  0  0  0  0  0  0  0  0
    0.7500   -1.2990    0.0000 C   0  0  0  0  0  0  0  0  0  0  0  0
   -0.7500   -1.2990    0.0000 C   0  0  0  0  0  0  0  0  0  0  0  0
   -1.5000    0.0000    0.0000 C   0  0  0  0  0  0  0  0  0  0  0  0
   -3.0000    0.0000    0.0000 O   0  0  0  0  0  0  0  0  0  0  0  0
   -0.7500    1.2990    0.0000 C   0  0  0  0  0  0  0  0  0  0  0  0
    0.7500    1.2990    0.0000 C   0  0  0  0  0  0  0  0  0  0  0  0
  1  2  3  0
  2  3  1  0
  3  4  2  0
  4  5  1  0
  5  6  1  0
  6  7  1  0
  6  8  1  0
  8  9  1  0
  9  3  1  0
M  END
>  <Title>  (1017) 
idABLEgen8

$$$$

     RDKit          2D

 63 63  0  0  0  0  0  0  0  0999 V2000
   16.3077   -0.0000    0.0000 C   0  0  0  0  0  0  0  0  0  0  0  0
   14.8077    0.0000    0.0000 C   0  0  0  0  0  0  0  0  0  0  0  0
   14.7318   -1.4981    0.0000 C   0  0  0  0  0  0  0  0  0  0  0  0
   14.5046   -2.9808    0.0000 C   0  0  0  0  0  0  0  0  0  0  0  0
   14.1287   -4.4329    0.0000 C   0  0  0  0  0  0  0  0  0  0  0  0
   13.6077   -5.8395    0.0000 C   0  0  0  0  0  0  0  0  0  0  0  0
   12.9471   -7.1862    0.0000 C   0  0  0  0  0  0  0  0  0  0  0  0
   12.1537   -8.4592    0.0000 C   0  0  0  0  0  0  0  0  0  0  0  0
   11.2355   -9.6454    0.0000 C   0  0  0  0  0  0  0  0  0  0  0  0
   10.2020  -10.7325    0.0000 C   0  0  0  0  0  0  0  0  0  0  0  0
    9.0639  -11.7096    0.0000 C   0  0  0  0  0  0  0  0  0  0  0  0
    7.8328  -12.5665    0.0000 C   0  0  0  0  0  0  0  0  0  0  0  0
    6.5212  -13.2945    0.0000 C   0  0  0  0  0  0  0  0  0  0  0  0
    5.1428  -13.8860    0.0000 C   0  0  0  0  0  0  0  0  0  0  0  0
    3.7116  -14.3350    0.0000 C   0  0  0  0  0  0  0  0  0  0  0  0
    2.2423  -14.6370    0.0000 C   0  0  0  0  0  0  0  0  0  0  0  0
    0.7500  -14.7887    0.0000 C   0  0  0  0  0  0  0  0  0  0  0  0
   -0.7500  -14.7887    0.0000 C   0  0  0  0  0  0  0  0  0  0  0  0
   -2.2423  -14.6370    0.0000 C   0  0  0  0  0  0  0  0  0  0  0  0
   -3.7116  -14.3350    0.0000 C   0  0  0  0  0  0  0  0  0  0  0  0
   -5.1428  -13.8860    0.0000 C   0  0  0  0  0  0  0  0  0  0  0  0
   -6.5212  -13.2945    0.0000 C   0  0  0  0  0  0  0  0  0  0  0  0
   -7.8328  -12.5665    0.0000 C   0  0  0  0  0  0  0  0  0  0  0  0
   -9.0639  -11.7096    0.0000 C   0  0  0  0  0  0  0  0  0  0  0  0
  -10.2020  -10.7325    0.0000 C   0  0  0  0  0  0  0  0  0  0  0  0
  -11.2355   -9.6454    0.0000 C   0  0  0  0  0  0  0  0  0  0  0  0
  -12.1537   -8.4592    0.0000 C   0  0  0  0  0  0  0  0  0  0  0  0
  -12.9471   -7.1862    0.0000 C   0  0  0  0  0  0  0  0  0  0  0  0
  -13.6077   -5.8395    0.0000 C   0  0  0  0  0  0  0  0  0  0  0  0
  -14.1287   -4.4329    0.0000 C   0  0  0  0  0  0  0  0  0  0  0  0
  -14.5046   -2.9808    0.0000 C   0  0  0  0  0  0  0  0  0  0  0  0
  -14.7318   -1.4981    0.0000 C   0  0  0  0  0  0  0  0  0  0  0  0
  -14.8077    0.0000    0.0000 C   0  0  0  0  0  0  0  0  0  0  0  0
  -14.7318    1.4981    0.0000 C   0  0  0  0  0  0  0  0  0  0  0  0
  -14.5046    2.9808    0.0000 C   0  0  0  0  0  0  0  0  0  0  0  0
  -14.1287    4.4329    0.0000 C   0  0  0  0  0  0  0  0  0  0  0  0
  -13.6077    5.8395    0.0000 C   0  0  0  0  0  0  0  0  0  0  0  0
  -12.9471    7.1862    0.0000 C   0  0  0  0  0  0  0  0  0  0  0  0
  -12.1537    8.4592    0.0000 C   0  0  0  0  0  0  0  0  0  0  0  0
  -11.2355    9.6454    0.0000 C   0  0  0  0  0  0  0  0  0  0  0  0
  -10.2020   10.7325    0.0000 C   0  0  0  0  0  0  0  0  0  0  0  0
   -9.0639   11.7096    0.0000 C   0  0  0  0  0  0  0  0  0  0  0  0
   -7.8328   12.5665    0.0000 C   0  0  0  0  0  0  0  0  0  0  0  0
   -6.5212   13.2945    0.0000 C   0  0  0  0  0  0  0  0  0  0  0  0
   -5.1428   13.8860    0.0000 C   0  0  0  0  0  0  0  0  0  0  0  0
   -3.7116   14.3350    0.0000 C   0  0  0  0  0  0  0  0  0  0  0  0
   -2.2423   14.6370    0.0000 C   0  0  0  0  0  0  0  0  0  0  0  0
   -0.7500   14.7887    0.0000 C   0  0  0  0  0  0  0  0  0  0  0  0
    0.7500   14.7887    0.0000 C   0  0  0  0  0  0  0  0  0  0  0  0
    2.2423   14.6370    0.0000 C   0  0  0  0  0  0  0  0  0  0  0  0
    3.7116   14.3350    0.0000 C   0  0  0  0  0  0  0  0  0  0  0  0
    5.1428   13.8860    0.0000 C   0  0  0  0  0  0  0  0  0  0  0  0
    6.5212   13.2945    0.0000 C   0  0  0  0  0  0  0  0  0  0  0  0
    7.8328   12.5665    0.0000 C   0  0  0  0  0  0  0  0  0  0  0  0
    9.0639   11.7096    0.0000 C   0  0  0  0  0  0  0  0  0  0  0  0
   10.2020   10.7325    0.0000 C   0  0  0  0  0  0  0  0  0  0  0  0
   11.2355    9.6454    0.0000 C   0  0  0  0  0  0  0  0  0  0  0  0
   12.1537    8.4592    0.0000 C   0  0  0  0  0  0  0  0  0  0  0  0
   12.9471    7.1862    0.0000 C   0  0  0  0  0  0  0  0  0  0  0  0
   13.6077    5.8395    0.0000 C   0  0  0  0  0  0  0  0  0  0  0  0
   14.1287    4.4329    0.0000 C   0  0  0  0  0  0  0  0  0  0  0  0
   14.5046    2.9808    0.0000 C   0  0  0  0  0  0  0  0  0  0  0  0
   14.7318    1.4981    0.0000 C   0  0  0  0  0  0  0  0  0  0  0  0
  1  2  1  0
  2  3  1  0
  3  4  1  0
  4  5  1  0
  5  6  1  0
  6  7  2  0
  7  8  1  0
  8  9  2  0
  9 10  1  0
 10 11  2  0
 11 12  1  0
 12 13  2  0
 13 14  1  0
 14 15  2  0
 15 16  1  0
 16 17  2  0
 17 18  1  0
 18 19  1  0
 19 20  1  0
 20 21  1  0
 21 22  1  0
 22 23  1  0
 23 24  1  0
 24 25  1  0
 25 26  1  0
 26 27  1  0
 27 28  1  0
 28 29  1  0
 29 30  1  0
 30 31  1  0
 31 32  1  0
 32 33  1  0
 33 34  1  0
 34 35  1  0
 35 36  1  0
 36 37  1  0
 37 38  1  0
 38 39  1  0
 39 40  1  0
 40 41  1  0
 41 42  1  0
 42 43  1  0
 43 44  1  0
 44 45  1  0
 45 46  1  0
 46 47  1  0
 47 48  1  0
 48 49  1  0
 49 50  1  0
 50 51  1  0
 51 52  1  0
 52 53  1  0
 53 54  1  0
 54 55  1  0
 55 56  1  0
 56 57  1  0
 57 58  1  0
 58 59  1  0
 59 60  1  0
 60 61  1  0
 61 62  1  0
 62 63  1  0
 63  2  1  0
M  END
>  <Title>  (1018) 
idABLFgen8

$$$$

     RDKit          2D

 99101  0  0  0  0  0  0  0  0999 V2000
   -5.5619   -0.4689    0.0000 C   0  0  0  0  0  0  0  0  0  0  0  0
   -5.1990   -1.9243    0.0000 C   0  0  0  0  0  0  0  0  0  0  0  0
   -6.6409   -2.3378    0.0000 C   0  0  0  0  0  0  0  0  0  0  0  0
   -8.0504   -2.8508    0.0000 C   0  0  0  0  0  0  0  0  0  0  0  0
   -9.4207   -3.4609    0.0000 C   0  0  0  0  0  0  0  0  0  0  0  0
  -10.7451   -4.1651    0.0000 C   0  0  0  0  0  0  0  0  0  0  0  0
  -12.0172   -4.9600    0.0000 C   0  0  0  0  0  0  0  0  0  0  0  0
  -13.2307   -5.8417    0.0000 C   0  0  0  0  0  0  0  0  0  0  0  0
  -14.3798   -6.8058    0.0000 C   0  0  0  0  0  0  0  0  0  0  0  0
  -15.4588   -7.8478    0.0000 C   0  0  0  0  0  0  0  0  0  0  0  0
  -16.4625   -8.9625    0.0000 C   0  0  0  0  0  0  0  0  0  0  0  0
  -17.3860  -10.1446    0.0000 C   0  0  0  0  0  0  0  0  0  0  0  0
  -18.2248  -11.3881    0.0000 C   0  0  0  0  0  0  0  0  0  0  0  0
  -18.9748  -12.6872    0.0000 C   0  0  0  0  0  0  0  0  0  0  0  0
  -19.6323  -14.0353    0.0000 C   0  0  0  0  0  0  0  0  0  0  0  0
  -20.1943  -15.4261    0.0000 C   0  0  0  0  0  0  0  0  0  0  0  0
  -20.6578  -16.8527    0.0000 C   0  0  0  0  0  0  0  0  0  0  0  0
  -21.0207  -18.3081    0.0000 C   0  0  0  0  0  0  0  0  0  0  0  0
  -21.2811  -19.7854    0.0000 C   0  0  0  0  0  0  0  0  0  0  0  0
  -21.4379  -21.2771    0.0000 C   0  0  0  0  0  0  0  0  0  0  0  0
  -21.4903  -22.7762    0.0000 C   0  0  0  0  0  0  0  0  0  0  0  0
  -21.4379  -24.2753    0.0000 C   0  0  0  0  0  0  0  0  0  0  0  0
  -21.2811  -25.7671    0.0000 C   0  0  0  0  0  0  0  0  0  0  0  0
  -21.0207  -27.2443    0.0000 C   0  0  0  0  0  0  0  0  0  0  0  0
  -20.6578  -28.6998    0.0000 C   0  0  0  0  0  0  0  0  0  0  0  0
  -20.1943  -30.1263    0.0000 C   0  0  0  0  0  0  0  0  0  0  0  0
  -19.6323  -31.5171    0.0000 C   0  0  0  0  0  0  0  0  0  0  0  0
  -18.9748  -32.8653    0.0000 C   0  0  0  0  0  0  0  0  0  0  0  0
  -18.2248  -34.1643    0.0000 C   0  0  0  0  0  0  0  0  0  0  0  0
  -17.3860  -35.4079    0.0000 C   0  0  0  0  0  0  0  0  0  0  0  0
  -16.4625  -36.5899    0.0000 C   0  0  0  0  0  0  0  0  0  0  0  0
  -15.4588  -37.7046    0.0000 C   0  0  0  0  0  0  0  0  0  0  0  0
  -14.3798  -38.7466    0.0000 C   0  0  0  0  0  0  0  0  0  0  0  0
  -13.2307  -39.7108    0.0000 C   0  0  0  0  0  0  0  0  0  0  0  0
  -12.0172  -40.5925    0.0000 C   0  0  0  0  0  0  0  0  0  0  0  0
  -10.7451  -41.3874    0.0000 C   0  0  0  0  0  0  0  0  0  0  0  0
   -9.4207  -42.0916    0.0000 C   0  0  0  0  0  0  0  0  0  0  0  0
   -8.0504  -42.7017    0.0000 C   0  0  0  0  0  0  0  0  0  0  0  0
   -6.6409  -43.2147    0.0000 C   0  0  0  0  0  0  0  0  0  0  0  0
   -5.1990  -43.6282    0.0000 C   0  0  0  0  0  0  0  0  0  0  0  0
   -3.7317  -43.9400    0.0000 C   0  0  0  0  0  0  0  0  0  0  0  0
   -2.2463  -44.1488    0.0000 C   0  0  0  0  0  0  0  0  0  0  0  0
   -0.7500  -44.2534    0.0000 C   0  0  0  0  0  0  0  0  0  0  0  0
    0.7500  -44.2534    0.0000 C   0  0  0  0  0  0  0  0  0  0  0  0
    2.2463  -44.1488    0.0000 C   0  0  0  0  0  0  0  0  0  0  0  0
    3.7317  -43.9400    0.0000 C   0  0  0  0  0  0  0  0  0  0  0  0
    5.1990  -43.6282    0.0000 C   0  0  0  0  0  0  0  0  0  0  0  0
    6.6409  -43.2147    0.0000 C   0  0  0  0  0  0  0  0  0  0  0  0
    8.0504  -42.7017    0.0000 C   0  0  0  0  0  0  0  0  0  0  0  0
    9.4207  -42.0916    0.0000 C   0  0  0  0  0  0  0  0  0  0  0  0
   10.7451  -41.3874    0.0000 C   0  0  0  0  0  0  0  0  0  0  0  0
   12.0172  -40.5925    0.0000 C   0  0  0  0  0  0  0  0  0  0  0  0
   13.2307  -39.7108    0.0000 C   0  0  0  0  0  0  0  0  0  0  0  0
   14.3798  -38.7466    0.0000 C   0  0  0  0  0  0  0  0  0  0  0  0
   15.4588  -37.7046    0.0000 C   0  0  0  0  0  0  0  0  0  0  0  0
   16.4625  -36.5899    0.0000 C   0  0  0  0  0  0  0  0  0  0  0  0
   17.3860  -35.4079    0.0000 C   0  0  0  0  0  0  0  0  0  0  0  0
   18.2248  -34.1643    0.0000 C   0  0  0  0  0  0  0  0  0  0  0  0
   18.9748  -32.8653    0.0000 C   0  0  0  0  0  0  0  0  0  0  0  0
   19.6323  -31.5171    0.0000 C   0  0  0  0  0  0  0  0  0  0  0  0
   20.1943  -30.1263    0.0000 C   0  0  0  0  0  0  0  0  0  0  0  0
   20.6578  -28.6998    0.0000 C   0  0  0  0  0  0  0  0  0  0  0  0
   21.0207  -27.2443    0.0000 C   0  0  0  0  0  0  0  0  0  0  0  0
   21.2811  -25.7671    0.0000 C   0  0  0  0  0  0  0  0  0  0  0  0
   21.4379  -24.2753    0.0000 C   0  0  0  0  0  0  0  0  0  0  0  0
   21.4903  -22.7762    0.0000 C   0  0  0  0  0  0  0  0  0  0  0  0
   21.4379  -21.2771    0.0000 C   0  0  0  0  0  0  0  0  0  0  0  0
   21.2811  -19.7854    0.0000 C   0  0  0  0  0  0  0  0  0  0  0  0
   21.0207  -18.3081    0.0000 C   0  0  0  0  0  0  0  0  0  0  0  0
   20.6578  -16.8527    0.0000 C   0  0  0  0  0  0  0  0  0  0  0  0
   20.1943  -15.4261    0.0000 C   0  0  0  0  0  0  0  0  0  0  0  0
   19.6323  -14.0353    0.0000 C   0  0  0  0  0  0  0  0  0  0  0  0
   18.9748  -12.6872    0.0000 C   0  0  0  0  0  0  0  0  0  0  0  0
   18.2248  -11.3881    0.0000 C   0  0  0  0  0  0  0  0  0  0  0  0
   17.3860  -10.1446    0.0000 C   0  0  0  0  0  0  0  0  0  0  0  0
   16.4625   -8.9625    0.0000 C   0  0  0  0  0  0  0  0  0  0  0  0
   15.4588   -7.8478    0.0000 C   0  0  0  0  0  0  0  0  0  0  0  0
   14.3798   -6.8058    0.0000 C   0  0  0  0  0  0  0  0  0  0  0  0
   13.2307   -5.8417    0.0000 C   0  0  0  0  0  0  0  0  0  0  0  0
   12.0172   -4.9600    0.0000 C   0  0  0  0  0  0  0  0  0  0  0  0
   10.7451   -4.1651    0.0000 C   0  0  0  0  0  0  0  0  0  0  0  0
    9.4207   -3.4609    0.0000 C   0  0  0  0  0  0  0  0  0  0  0  0
    8.0504   -2.8508    0.0000 C   0  0  0  0  0  0  0  0  0  0  0  0
    6.6409   -2.3378    0.0000 C   0  0  0  0  0  0  0  0  0  0  0  0
    5.1990   -1.9243    0.0000 C   0  0  0  0  0  0  0  0  0  0  0  0
    3.7317   -1.6124    0.0000 C   0  0  0  0  0  0  0  0  0  0  0  0
    2.2463   -1.4037    0.0000 C   0  0  0  0  0  0  0  0  0  0  0  0
    0.7500   -1.2990    0.0000 C   0  0  0  0  0  0  0  0  0  0  0  0
    1.5000    0.0000    0.0000 C   0  0  0  0  0  0  0  0  0  0  0  0
    0.7500    1.2990    0.0000 C   0  0  0  0  0  0  0  0  0  0  0  0
   -0.7500    1.2990    0.0000 C   0  0  0  0  0  0  0  0  0  0  0  0
   -1.5000    0.0000    0.0000 C   0  0  0  0  0  0  0  0  0  0  0  0
   -0.7500   -1.2990    0.0000 C   0  0  0  0  0  0  0  0  0  0  0  0
   -2.2463   -1.4037    0.0000 C   0  0  0  0  0  0  0  0  0  0  0  0
   -1.3229   -2.5857    0.0000 C   0  0  0  0  0  0  0  0  0  0  0  0
   -1.8848   -3.9765    0.0000 C   0  0  0  0  0  0  0  0  0  0  0  0
   -3.3702   -4.1852    0.0000 C   0  0  0  0  0  0  0  0  0  0  0  0
   -4.2937   -3.0032    0.0000 C   0  0  0  0  0  0  0  0  0  0  0  0
   -3.7317   -1.6124    0.0000 C   0  0  0  0  0  0  0  0  0  0  0  0
  1  2  1  0
  2  3  1  0
  3  4  1  0
  4  5  1  0
  5  6  1  0
  6  7  1  0
  7  8  1  0
  8  9  1  0
  9 10  1  0
 10 11  1  0
 11 12  1  0
 12 13  1  0
 13 14  1  0
 14 15  1  0
 15 16  1  0
 16 17  1  0
 17 18  1  0
 18 19  1  0
 19 20  1  0
 20 21  1  0
 21 22  1  0
 22 23  1  0
 23 24  1  0
 24 25  1  0
 25 26  1  0
 26 27  1  0
 27 28  1  0
 28 29  1  0
 29 30  1  0
 30 31  1  0
 31 32  1  0
 32 33  1  0
 33 34  1  0
 34 35  1  0
 35 36  1  0
 36 37  1  0
 37 38  1  0
 38 39  1  0
 39 40  1  0
 40 41  1  0
 41 42  1  0
 42 43  1  0
 43 44  1  0
 44 45  1  0
 45 46  1  0
 46 47  1  0
 47 48  1  0
 48 49  1  0
 49 50  1  0
 50 51  1  0
 51 52  1  0
 52 53  1  0
 53 54  1  0
 54 55  1  0
 55 56  1  0
 56 57  1  0
 57 58  1  0
 58 59  1  0
 59 60  1  0
 60 61  1  0
 61 62  1  0
 62 63  1  0
 63 64  1  0
 64 65  1  0
 65 66  1  0
 66 67  1  0
 67 68  1  0
 68 69  1  0
 69 70  1  0
 70 71  1  0
 71 72  1  0
 72 73  1  0
 73 74  1  0
 74 75  1  0
 75 76  1  0
 76 77  1  0
 77 78  1  0
 78 79  1  0
 79 80  1  0
 80 81  1  0
 81 82  1  0
 82 83  1  0
 83 84  1  0
 84 85  1  0
 85 86  1  0
 86 87  1  0
 87 88  1  0
 88 89  2  0
 89 90  1  0
 90 91  2  0
 91 92  1  0
 92 93  2  0
 93 94  1  0
 94 95  2  0
 95 96  1  0
 96 97  2  0
 97 98  1  0
 98 99  2  0
 99  2  1  0
 93 88  1  0
 99 94  1  0
M  END
>  <Title>  (1019) 
idABLGgen8

$$$$

     RDKit          2D

 86 86  0  0  0  0  0  0  0  0999 V2000
   21.7969    0.0000    0.0000 C   0  0  0  0  0  0  0  0  0  0  0  0
   20.2969    0.0000    0.0000 C   0  0  0  0  0  0  0  0  0  0  0  0
   20.2414    1.4990    0.0000 C   0  0  0  0  0  0  0  0  0  0  0  0
   20.0755    2.9898    0.0000 C   0  0  0  0  0  0  0  0  0  0  0  0
   19.7998    4.4642    0.0000 C   0  0  0  0  0  0  0  0  0  0  0  0
   19.4161    5.9143    0.0000 C   0  0  0  0  0  0  0  0  0  0  0  0
   18.9263    7.3321    0.0000 C   0  0  0  0  0  0  0  0  0  0  0  0
   18.3331    8.7098    0.0000 C   0  0  0  0  0  0  0  0  0  0  0  0
   17.6398   10.0400    0.0000 C   0  0  0  0  0  0  0  0  0  0  0  0
   16.8501   11.3153    0.0000 C   0  0  0  0  0  0  0  0  0  0  0  0
   15.9685   12.5288    0.0000 C   0  0  0  0  0  0  0  0  0  0  0  0
   14.9996   13.6739    0.0000 C   0  0  0  0  0  0  0  0  0  0  0  0
   13.9488   14.7443    0.0000 C   0  0  0  0  0  0  0  0  0  0  0  0
   12.8218   15.7342    0.0000 C   0  0  0  0  0  0  0  0  0  0  0  0
   11.6247   16.6382    0.0000 C   0  0  0  0  0  0  0  0  0  0  0  0
   10.3642   17.4513    0.0000 C   0  0  0  0  0  0  0  0  0  0  0  0
    9.0471   18.1690    0.0000 C   0  0  0  0  0  0  0  0  0  0  0  0
    7.6806   18.7876    0.0000 C   0  0  0  0  0  0  0  0  0  0  0  0
    6.2721   19.3035    0.0000 C   0  0  0  0  0  0  0  0  0  0  0  0
    4.8293   19.7140    0.0000 C   0  0  0  0  0  0  0  0  0  0  0  0
    3.3602   20.0168    0.0000 C   0  0  0  0  0  0  0  0  0  0  0  0
    1.8728   20.2103    0.0000 C   0  0  0  0  0  0  0  0  0  0  0  0
    0.3751   20.2934    0.0000 C   0  0  0  0  0  0  0  0  0  0  0  0
   -1.1247   20.2657    0.0000 C   0  0  0  0  0  0  0  0  0  0  0  0
   -2.6183   20.1273    0.0000 C   0  0  0  0  0  0  0  0  0  0  0  0
   -4.0976   19.8790    0.0000 C   0  0  0  0  0  0  0  0  0  0  0  0
   -5.5545   19.5221    0.0000 C   0  0  0  0  0  0  0  0  0  0  0  0
   -6.9811   19.0585    0.0000 C   0  0  0  0  0  0  0  0  0  0  0  0
   -8.3695   18.4909    0.0000 C   0  0  0  0  0  0  0  0  0  0  0  0
   -9.7123   17.8223    0.0000 C   0  0  0  0  0  0  0  0  0  0  0  0
  -11.0020   17.0564    0.0000 C   0  0  0  0  0  0  0  0  0  0  0  0
  -12.2316   16.1973    0.0000 C   0  0  0  0  0  0  0  0  0  0  0  0
  -13.3944   15.2497    0.0000 C   0  0  0  0  0  0  0  0  0  0  0  0
  -14.4841   14.2188    0.0000 C   0  0  0  0  0  0  0  0  0  0  0  0
  -15.4946   13.1103    0.0000 C   0  0  0  0  0  0  0  0  0  0  0  0
  -16.4205   11.9302    0.0000 C   0  0  0  0  0  0  0  0  0  0  0  0
  -17.2568   10.6849    0.0000 C   0  0  0  0  0  0  0  0  0  0  0  0
  -17.9987    9.3813    0.0000 C   0  0  0  0  0  0  0  0  0  0  0  0
  -18.6424    8.0264    0.0000 C   0  0  0  0  0  0  0  0  0  0  0  0
  -19.1843    6.6277    0.0000 C   0  0  0  0  0  0  0  0  0  0  0  0
  -19.6214    5.1928    0.0000 C   0  0  0  0  0  0  0  0  0  0  0  0
  -19.9513    3.7295    0.0000 C   0  0  0  0  0  0  0  0  0  0  0  0
  -20.1722    2.2459    0.0000 C   0  0  0  0  0  0  0  0  0  0  0  0
  -20.2830    0.7500    0.0000 C   0  0  0  0  0  0  0  0  0  0  0  0
  -20.2830   -0.7500    0.0000 C   0  0  0  0  0  0  0  0  0  0  0  0
  -20.1722   -2.2459    0.0000 C   0  0  0  0  0  0  0  0  0  0  0  0
  -19.9513   -3.7295    0.0000 C   0  0  0  0  0  0  0  0  0  0  0  0
  -19.6214   -5.1928    0.0000 C   0  0  0  0  0  0  0  0  0  0  0  0
  -19.1843   -6.6277    0.0000 C   0  0  0  0  0  0  0  0  0  0  0  0
  -18.6424   -8.0264    0.0000 C   0  0  0  0  0  0  0  0  0  0  0  0
  -17.9987   -9.3813    0.0000 C   0  0  0  0  0  0  0  0  0  0  0  0
  -17.2568  -10.6849    0.0000 C   0  0  0  0  0  0  0  0  0  0  0  0
  -16.4205  -11.9302    0.0000 C   0  0  0  0  0  0  0  0  0  0  0  0
  -15.4946  -13.1103    0.0000 C   0  0  0  0  0  0  0  0  0  0  0  0
  -14.4841  -14.2188    0.0000 C   0  0  0  0  0  0  0  0  0  0  0  0
  -13.3944  -15.2497    0.0000 C   0  0  0  0  0  0  0  0  0  0  0  0
  -12.2316  -16.1973    0.0000 C   0  0  0  0  0  0  0  0  0  0  0  0
  -11.0020  -17.0564    0.0000 C   0  0  0  0  0  0  0  0  0  0  0  0
   -9.7123  -17.8223    0.0000 C   0  0  0  0  0  0  0  0  0  0  0  0
   -8.3695  -18.4909    0.0000 C   0  0  0  0  0  0  0  0  0  0  0  0
   -6.9811  -19.0585    0.0000 C   0  0  0  0  0  0  0  0  0  0  0  0
   -5.5545  -19.5221    0.0000 C   0  0  0  0  0  0  0  0  0  0  0  0
   -4.0976  -19.8790    0.0000 C   0  0  0  0  0  0  0  0  0  0  0  0
   -2.6183  -20.1273    0.0000 C   0  0  0  0  0  0  0  0  0  0  0  0
   -1.1247  -20.2657    0.0000 C   0  0  0  0  0  0  0  0  0  0  0  0
    0.3751  -20.2934    0.0000 C   0  0  0  0  0  0  0  0  0  0  0  0
    1.8728  -20.2103    0.0000 C   0  0  0  0  0  0  0  0  0  0  0  0
    3.3602  -20.0168    0.0000 C   0  0  0  0  0  0  0  0  0  0  0  0
    4.8293  -19.7140    0.0000 C   0  0  0  0  0  0  0  0  0  0  0  0
    6.2721  -19.3035    0.0000 C   0  0  0  0  0  0  0  0  0  0  0  0
    7.6806  -18.7876    0.0000 C   0  0  0  0  0  0  0  0  0  0  0  0
    9.0471  -18.1690    0.0000 C   0  0  0  0  0  0  0  0  0  0  0  0
   10.3642  -17.4513    0.0000 C   0  0  0  0  0  0  0  0  0  0  0  0
   11.6247  -16.6382    0.0000 C   0  0  0  0  0  0  0  0  0  0  0  0
   12.8218  -15.7342    0.0000 C   0  0  0  0  0  0  0  0  0  0  0  0
   13.9488  -14.7443    0.0000 C   0  0  0  0  0  0  0  0  0  0  0  0
   14.9996  -13.6739    0.0000 C   0  0  0  0  0  0  0  0  0  0  0  0
   15.9685  -12.5288    0.0000 C   0  0  0  0  0  0  0  0  0  0  0  0
   16.8501  -11.3153    0.0000 C   0  0  0  0  0  0  0  0  0  0  0  0
   17.6398  -10.0400    0.0000 C   0  0  0  0  0  0  0  0  0  0  0  0
   18.3331   -8.7098    0.0000 C   0  0  0  0  0  0  0  0  0  0  0  0
   18.9263   -7.3321    0.0000 C   0  0  0  0  0  0  0  0  0  0  0  0
   19.4161   -5.9143    0.0000 C   0  0  0  0  0  0  0  0  0  0  0  0
   19.7998   -4.4642    0.0000 C   0  0  0  0  0  0  0  0  0  0  0  0
   20.0755   -2.9898    0.0000 C   0  0  0  0  0  0  0  0  0  0  0  0
   20.2414   -1.4990    0.0000 C   0  0  0  0  0  0  0  0  0  0  0  0
  1  2  1  0
  2  3  1  0
  3  4  2  0
  4  5  1  0
  5  6  2  0
  6  7  1  0
  7  8  2  0
  8  9  1  0
  9 10  2  0
 10 11  1  0
 11 12  2  0
 12 13  1  0
 13 14  2  0
 14 15  1  0
 15 16  2  0
 16 17  1  0
 17 18  2  0
 18 19  1  0
 19 20  2  0
 20 21  1  0
 21 22  1  0
 22 23  1  0
 23 24  1  0
 24 25  1  0
 25 26  1  0
 26 27  1  0
 27 28  1  0
 28 29  1  0
 29 30  1  0
 30 31  1  0
 31 32  1  0
 32 33  1  0
 33 34  1  0
 34 35  1  0
 35 36  1  0
 36 37  1  0
 37 38  1  0
 38 39  1  0
 39 40  1  0
 40 41  1  0
 41 42  1  0
 42 43  1  0
 43 44  1  0
 44 45  1  0
 45 46  1  0
 46 47  1  0
 47 48  1  0
 48 49  1  0
 49 50  1  0
 50 51  1  0
 51 52  1  0
 52 53  1  0
 53 54  1  0
 54 55  1  0
 55 56  1  0
 56 57  1  0
 57 58  1  0
 58 59  1  0
 59 60  1  0
 60 61  1  0
 61 62  1  0
 62 63  1  0
 63 64  1  0
 64 65  1  0
 65 66  1  0
 66 67  1  0
 67 68  1  0
 68 69  1  0
 69 70  1  0
 70 71  1  0
 71 72  1  0
 72 73  1  0
 73 74  1  0
 74 75  1  0
 75 76  1  0
 76 77  1  0
 77 78  1  0
 78 79  1  0
 79 80  1  0
 80 81  1  0
 81 82  1  0
 82 83  1  0
 83 84  1  0
 84 85  1  0
 85 86  1  0
 86  2  1  0
M  END
>  <Title>  (1020) 
idABLHgen8

$$$$

     RDKit          2D

 61 68  0  0  0  0  0  0  0  0999 V2000
   -2.6807  -16.6853    0.0000 C   0  0  0  0  0  0  0  0  0  0  0  0
   -2.2172  -15.2587    0.0000 C   0  0  0  0  0  0  0  0  0  0  0  0
   -0.7500  -15.5706    0.0000 C   0  0  0  0  0  0  0  0  0  0  0  0
    0.7500  -15.5706    0.0000 C   0  0  0  0  0  0  0  0  0  0  0  0
    2.2172  -15.2587    0.0000 C   0  0  0  0  0  0  0  0  0  0  0  0
    3.5875  -14.6486    0.0000 C   0  0  0  0  0  0  0  0  0  0  0  0
    4.8011  -13.7669    0.0000 C   0  0  0  0  0  0  0  0  0  0  0  0
    5.8048  -12.6522    0.0000 C   0  0  0  0  0  0  0  0  0  0  0  0
    6.5548  -11.3532    0.0000 C   0  0  0  0  0  0  0  0  0  0  0  0
    7.0183   -9.9266    0.0000 C   0  0  0  0  0  0  0  0  0  0  0  0
    7.1751   -8.4348    0.0000 C   0  0  0  0  0  0  0  0  0  0  0  0
    7.0183   -6.9430    0.0000 C   0  0  0  0  0  0  0  0  0  0  0  0
    6.5548   -5.5164    0.0000 C   0  0  0  0  0  0  0  0  0  0  0  0
    5.8048   -4.2174    0.0000 C   0  0  0  0  0  0  0  0  0  0  0  0
    4.8011   -3.1027    0.0000 C   0  0  0  0  0  0  0  0  0  0  0  0
    3.5875   -2.2210    0.0000 N   0  0  0  0  0  0  0  0  0  0  0  0
    2.2172   -1.6109    0.0000 C   0  0  0  0  0  0  0  0  0  0  0  0
    2.6807   -0.1843    0.0000 O   0  0  0  0  0  0  0  0  0  0  0  0
    0.7500   -1.2990    0.0000 C   0  0  0  0  0  0  0  0  0  0  0  0
    1.5000    0.0000    0.0000 C   0  0  0  0  0  0  0  0  0  0  0  0
    0.7500    1.2990    0.0000 C   0  0  0  0  0  0  0  0  0  0  0  0
   -0.7500    1.2990    0.0000 C   0  0  0  0  0  0  0  0  0  0  0  0
   -1.5000    0.0000    0.0000 C   0  0  0  0  0  0  0  0  0  0  0  0
   -0.7500   -1.2990    0.0000 C   0  0  0  0  0  0  0  0  0  0  0  0
   -2.2172   -1.6109    0.0000 C   0  0  0  0  0  0  0  0  0  0  0  0
   -2.6999   -0.4038    0.0000 C   0  0  0  0  0  0  0  0  0  0  0  0
   -3.3471    0.0664    0.0000 C   0  0  0  0  0  0  0  0  0  0  0  0
   -4.0780   -0.2590    0.0000 C   0  0  0  0  0  0  0  0  0  0  0  0
   -5.8578    1.0341    0.0000 Cl  0  0  0  0  0  0  0  0  0  0  0  0
   -4.1616   -1.0546    0.0000 C   0  0  0  0  0  0  0  0  0  0  0  0
   -3.5875   -2.2210    0.0000 C   0  0  0  0  0  0  0  0  0  0  0  0
   -4.8011   -3.1027    0.0000 C   0  0  0  0  0  0  0  0  0  0  0  0
   -5.2646   -1.6761    0.0000 C   0  0  0  0  0  0  0  0  0  0  0  0
   -6.7318   -1.3642    0.0000 C   0  0  0  0  0  0  0  0  0  0  0  0
   -7.7355   -2.4790    0.0000 C   0  0  0  0  0  0  0  0  0  0  0  0
   -7.2720   -3.9055    0.0000 C   0  0  0  0  0  0  0  0  0  0  0  0
   -5.8048   -4.2174    0.0000 C   0  0  0  0  0  0  0  0  0  0  0  0
   -6.5548   -5.5164    0.0000 C   0  0  0  0  0  0  0  0  0  0  0  0
   -7.7748   -5.0675    0.0000 C   0  0  0  0  0  0  0  0  0  0  0  0
   -8.5573   -5.2338    0.0000 C   0  0  0  0  0  0  0  0  0  0  0  0
   -8.8045   -5.9946    0.0000 C   0  0  0  0  0  0  0  0  0  0  0  0
   -8.2692   -6.5892    0.0000 C   0  0  0  0  0  0  0  0  0  0  0  0
   -7.0183   -6.9430    0.0000 C   0  0  0  0  0  0  0  0  0  0  0  0
   -7.1751   -8.4348    0.0000 C   0  0  0  0  0  0  0  0  0  0  0  0
   -8.5454   -7.8247    0.0000 C   0  0  0  0  0  0  0  0  0  0  0  0
   -9.7589   -8.7064    0.0000 C   0  0  0  0  0  0  0  0  0  0  0  0
   -9.6021  -10.1982    0.0000 C   0  0  0  0  0  0  0  0  0  0  0  0
   -8.2318  -10.8083    0.0000 C   0  0  0  0  0  0  0  0  0  0  0  0
   -7.0183   -9.9266    0.0000 C   0  0  0  0  0  0  0  0  0  0  0  0
   -6.5548  -11.3532    0.0000 C   0  0  0  0  0  0  0  0  0  0  0  0
   -7.7048  -11.9594    0.0000 C   0  0  0  0  0  0  0  0  0  0  0  0
   -8.1048  -12.6522    0.0000 C   0  0  0  0  0  0  0  0  0  0  0  0
   -7.7048  -13.3450    0.0000 C   0  0  0  0  0  0  0  0  0  0  0  0
   -6.9048  -13.3450    0.0000 C   0  0  0  0  0  0  0  0  0  0  0  0
   -5.8048  -12.6522    0.0000 C   0  0  0  0  0  0  0  0  0  0  0  0
   -4.8011  -13.7669    0.0000 C   0  0  0  0  0  0  0  0  0  0  0  0
   -6.1714  -14.3770    0.0000 C   0  0  0  0  0  0  0  0  0  0  0  0
   -6.3282  -15.8688    0.0000 C   0  0  0  0  0  0  0  0  0  0  0  0
   -5.1147  -16.7505    0.0000 C   0  0  0  0  0  0  0  0  0  0  0  0
   -3.7443  -16.1404    0.0000 C   0  0  0  0  0  0  0  0  0  0  0  0
   -3.5875  -14.6486    0.0000 C   0  0  0  0  0  0  0  0  0  0  0  0
  1  2  1  0
  2  3  1  0
  3  4  1  0
  4  5  1  0
  5  6  1  0
  6  7  1  0
  7  8  1  0
  8  9  1  0
  9 10  1  0
 10 11  1  0
 11 12  1  0
 12 13  1  0
 13 14  1  0
 14 15  1  0
 15 16  1  0
 16 17  1  0
 17 18  2  0
 17 19  1  0
 19 20  2  0
 20 21  1  0
 21 22  2  0
 22 23  1  0
 23 24  2  0
 24 25  1  0
 25 26  2  0
 26 27  1  0
 27 28  2  0
 28 29  1  0
 28 30  1  0
 30 31  2  0
 31 32  1  0
 32 33  2  0
 33 34  1  0
 34 35  2  0
 35 36  1  0
 36 37  2  0
 37 38  1  0
 38 39  2  0
 39 40  1  0
 40 41  2  0
 41 42  1  0
 42 43  2  0
 43 44  1  0
 44 45  2  0
 45 46  1  0
 46 47  2  0
 47 48  1  0
 48 49  2  0
 49 50  1  0
 50 51  2  0
 51 52  1  0
 52 53  2  0
 53 54  1  0
 54 55  2  0
 55 56  1  0
 56 57  2  0
 57 58  1  0
 58 59  2  0
 59 60  1  0
 60 61  2  0
 61  2  1  0
 24 19  1  0
 31 25  1  0
 37 32  1  0
 43 38  1  0
 49 44  1  0
 55 50  1  0
 61 56  1  0
M  END
>  <Title>  (1021) 
idABLIgen8

$$$$

     RDKit          2D

  6  5  0  0  0  0  0  0  0  0999 V2000
    0.0000    0.0000    0.0000 C   0  0  0  0  0  0  0  0  0  0  0  0
    1.2990    0.7500    0.0000 C   0  0  0  0  0  0  0  0  0  0  0  0
    2.5981   -0.0000    0.0000 C   0  0  0  0  0  0  0  0  0  0  0  0
    3.3481    1.2990    0.0000 C   0  0  0  0  0  0  0  0  0  0  0  0
    1.8481   -1.2990    0.0000 C   0  0  0  0  0  0  0  0  0  0  0  0
    3.8971   -0.7500    0.0000 C   0  0  0  0  0  0  0  0  0  0  0  0
  1  2  1  0
  2  3  1  0
  3  4  1  0
  3  5  1  0
  3  6  1  0
M  END
>  <Title>  (1022) 
idABLJgen8

$$$$

     RDKit          2D

  7  7  0  0  0  0  0  0  0  0999 V2000
    2.7760    0.0000    0.0000 C   0  0  0  0  0  0  0  0  0  0  0  0
    1.2760    0.0000    0.0000 C   0  0  0  0  0  0  0  0  0  0  0  0
    0.3943    1.2135    0.0000 C   0  0  0  0  0  0  0  0  0  0  0  0
   -1.0323    0.7500    0.0000 C   0  0  0  0  0  0  0  0  0  0  0  0
   -1.0323   -0.7500    0.0000 C   0  0  0  0  0  0  0  0  0  0  0  0
   -2.2458   -1.6317    0.0000 O   0  0  0  0  0  0  0  0  0  0  0  0
    0.3943   -1.2135    0.0000 C   0  0  0  0  0  0  0  0  0  0  0  0
  1  2  1  0
  2  3  2  0
  3  4  1  0
  4  5  1  0
  5  6  1  0
  5  7  2  0
  7  2  1  0
M  END
>  <Title>  (1023) 
idABLKgen8

$$$$

     RDKit          2D

 10 10  0  0  0  0  0  0  0  0999 V2000
    4.6309    1.7331    0.0000 C   0  0  0  0  0  0  0  0  0  0  0  0
    3.5702    0.6724    0.0000 C   0  0  0  0  0  0  0  0  0  0  0  0
    2.1213    1.0607    0.0000 C   0  0  0  0  0  0  0  0  0  0  0  0
    1.0607    0.0000    0.0000 C   0  0  0  0  0  0  0  0  0  0  0  0
    2.1213   -1.0607    0.0000 O   0  0  0  0  0  0  0  0  0  0  0  0
   -0.0000   -1.0607    0.0000 C   0  0  0  0  0  0  0  0  0  0  0  0
   -1.0607    0.0000    0.0000 C   0  0  0  0  0  0  0  0  0  0  0  0
   -2.5607    0.0000    0.0000 C   0  0  0  0  0  0  0  0  0  0  0  0
   -4.0607    0.0000    0.0000 N   0  0  0  0  0  0  0  0  0  0  0  0
    0.0000    1.0607    0.0000 C   0  0  0  0  0  0  0  0  0  0  0  0
  1  2  1  0
  2  3  1  0
  3  4  1  0
  4  5  1  0
  4  6  1  0
  6  7  1  0
  7  8  1  0
  8  9  3  0
  7 10  1  0
 10  4  1  0
M  END
>  <Title>  (1024) 
idABLLgen8

$$$$

     RDKit          2D

 93 93  0  0  0  0  0  0  0  0999 V2000
   23.4677   -0.0000    0.0000 C   0  0  0  0  0  0  0  0  0  0  0  0
   21.9677    0.0000    0.0000 C   0  0  0  0  0  0  0  0  0  0  0  0
   21.9164   -1.4991    0.0000 C   0  0  0  0  0  0  0  0  0  0  0  0
   21.7630   -2.9913    0.0000 C   0  0  0  0  0  0  0  0  0  0  0  0
   21.5082   -4.4695    0.0000 C   0  0  0  0  0  0  0  0  0  0  0  0
   21.1530   -5.9268    0.0000 C   0  0  0  0  0  0  0  0  0  0  0  0
   20.6993   -7.3565    0.0000 C   0  0  0  0  0  0  0  0  0  0  0  0
   20.1490   -8.7519    0.0000 C   0  0  0  0  0  0  0  0  0  0  0  0
   19.5048  -10.1065    0.0000 C   0  0  0  0  0  0  0  0  0  0  0  0
   18.7696  -11.4140    0.0000 C   0  0  0  0  0  0  0  0  0  0  0  0
   17.9469  -12.6683    0.0000 C   0  0  0  0  0  0  0  0  0  0  0  0
   17.0406  -13.8635    0.0000 C   0  0  0  0  0  0  0  0  0  0  0  0
   16.0547  -14.9941    0.0000 C   0  0  0  0  0  0  0  0  0  0  0  0
   14.9941  -16.0547    0.0000 C   0  0  0  0  0  0  0  0  0  0  0  0
   13.8635  -17.0406    0.0000 C   0  0  0  0  0  0  0  0  0  0  0  0
   12.6683  -17.9469    0.0000 C   0  0  0  0  0  0  0  0  0  0  0  0
   11.4140  -18.7696    0.0000 C   0  0  0  0  0  0  0  0  0  0  0  0
   10.1065  -19.5048    0.0000 C   0  0  0  0  0  0  0  0  0  0  0  0
    8.7519  -20.1490    0.0000 C   0  0  0  0  0  0  0  0  0  0  0  0
    7.3565  -20.6993    0.0000 C   0  0  0  0  0  0  0  0  0  0  0  0
    5.9268  -21.1530    0.0000 C   0  0  0  0  0  0  0  0  0  0  0  0
    4.4695  -21.5082    0.0000 C   0  0  0  0  0  0  0  0  0  0  0  0
    2.9913  -21.7630    0.0000 C   0  0  0  0  0  0  0  0  0  0  0  0
    1.4991  -21.9164    0.0000 C   0  0  0  0  0  0  0  0  0  0  0  0
   -0.0000  -21.9677    0.0000 C   0  0  0  0  0  0  0  0  0  0  0  0
   -1.4991  -21.9164    0.0000 C   0  0  0  0  0  0  0  0  0  0  0  0
   -2.9913  -21.7630    0.0000 C   0  0  0  0  0  0  0  0  0  0  0  0
   -4.4695  -21.5082    0.0000 C   0  0  0  0  0  0  0  0  0  0  0  0
   -5.9268  -21.1530    0.0000 C   0  0  0  0  0  0  0  0  0  0  0  0
   -7.3565  -20.6993    0.0000 C   0  0  0  0  0  0  0  0  0  0  0  0
   -8.7519  -20.1490    0.0000 C   0  0  0  0  0  0  0  0  0  0  0  0
  -10.1065  -19.5048    0.0000 C   0  0  0  0  0  0  0  0  0  0  0  0
  -11.4140  -18.7696    0.0000 C   0  0  0  0  0  0  0  0  0  0  0  0
  -12.6683  -17.9469    0.0000 C   0  0  0  0  0  0  0  0  0  0  0  0
  -13.8635  -17.0406    0.0000 C   0  0  0  0  0  0  0  0  0  0  0  0
  -14.9941  -16.0547    0.0000 C   0  0  0  0  0  0  0  0  0  0  0  0
  -16.0547  -14.9941    0.0000 C   0  0  0  0  0  0  0  0  0  0  0  0
  -17.0406  -13.8635    0.0000 C   0  0  0  0  0  0  0  0  0  0  0  0
  -17.9469  -12.6683    0.0000 C   0  0  0  0  0  0  0  0  0  0  0  0
  -18.7696  -11.4140    0.0000 C   0  0  0  0  0  0  0  0  0  0  0  0
  -19.5048  -10.1065    0.0000 C   0  0  0  0  0  0  0  0  0  0  0  0
  -20.1490   -8.7519    0.0000 C   0  0  0  0  0  0  0  0  0  0  0  0
  -20.6993   -7.3565    0.0000 C   0  0  0  0  0  0  0  0  0  0  0  0
  -21.1530   -5.9268    0.0000 C   0  0  0  0  0  0  0  0  0  0  0  0
  -21.5082   -4.4695    0.0000 C   0  0  0  0  0  0  0  0  0  0  0  0
  -21.7630   -2.9913    0.0000 C   0  0  0  0  0  0  0  0  0  0  0  0
  -21.9164   -1.4991    0.0000 C   0  0  0  0  0  0  0  0  0  0  0  0
  -21.9677    0.0000    0.0000 C   0  0  0  0  0  0  0  0  0  0  0  0
  -21.9164    1.4991    0.0000 C   0  0  0  0  0  0  0  0  0  0  0  0
  -21.7630    2.9913    0.0000 C   0  0  0  0  0  0  0  0  0  0  0  0
  -21.5082    4.4695    0.0000 C   0  0  0  0  0  0  0  0  0  0  0  0
  -21.1530    5.9268    0.0000 C   0  0  0  0  0  0  0  0  0  0  0  0
  -20.6993    7.3565    0.0000 C   0  0  0  0  0  0  0  0  0  0  0  0
  -20.1490    8.7519    0.0000 C   0  0  0  0  0  0  0  0  0  0  0  0
  -19.5048   10.1065    0.0000 C   0  0  0  0  0  0  0  0  0  0  0  0
  -18.7696   11.4140    0.0000 C   0  0  0  0  0  0  0  0  0  0  0  0
  -17.9469   12.6683    0.0000 C   0  0  0  0  0  0  0  0  0  0  0  0
  -17.0406   13.8635    0.0000 C   0  0  0  0  0  0  0  0  0  0  0  0
  -16.0547   14.9941    0.0000 C   0  0  0  0  0  0  0  0  0  0  0  0
  -14.9941   16.0547    0.0000 C   0  0  0  0  0  0  0  0  0  0  0  0
  -13.8635   17.0406    0.0000 C   0  0  0  0  0  0  0  0  0  0  0  0
  -12.6683   17.9469    0.0000 C   0  0  0  0  0  0  0  0  0  0  0  0
  -11.4140   18.7696    0.0000 C   0  0  0  0  0  0  0  0  0  0  0  0
  -10.1065   19.5048    0.0000 C   0  0  0  0  0  0  0  0  0  0  0  0
   -8.7519   20.1490    0.0000 C   0  0  0  0  0  0  0  0  0  0  0  0
   -7.3565   20.6993    0.0000 C   0  0  0  0  0  0  0  0  0  0  0  0
   -5.9268   21.1530    0.0000 C   0  0  0  0  0  0  0  0  0  0  0  0
   -4.4695   21.5082    0.0000 C   0  0  0  0  0  0  0  0  0  0  0  0
   -2.9913   21.7630    0.0000 C   0  0  0  0  0  0  0  0  0  0  0  0
   -1.4991   21.9164    0.0000 C   0  0  0  0  0  0  0  0  0  0  0  0
    0.0000   21.9677    0.0000 C   0  0  0  0  0  0  0  0  0  0  0  0
    1.4991   21.9164    0.0000 C   0  0  0  0  0  0  0  0  0  0  0  0
    2.9913   21.7630    0.0000 C   0  0  0  0  0  0  0  0  0  0  0  0
    4.4695   21.5082    0.0000 C   0  0  0  0  0  0  0  0  0  0  0  0
    5.9268   21.1530    0.0000 C   0  0  0  0  0  0  0  0  0  0  0  0
    7.3565   20.6993    0.0000 C   0  0  0  0  0  0  0  0  0  0  0  0
    8.7519   20.1490    0.0000 C   0  0  0  0  0  0  0  0  0  0  0  0
   10.1065   19.5048    0.0000 C   0  0  0  0  0  0  0  0  0  0  0  0
   11.4140   18.7696    0.0000 C   0  0  0  0  0  0  0  0  0  0  0  0
   12.6683   17.9469    0.0000 C   0  0  0  0  0  0  0  0  0  0  0  0
   13.8635   17.0406    0.0000 C   0  0  0  0  0  0  0  0  0  0  0  0
   14.9941   16.0547    0.0000 C   0  0  0  0  0  0  0  0  0  0  0  0
   16.0547   14.9941    0.0000 C   0  0  0  0  0  0  0  0  0  0  0  0
   17.0406   13.8635    0.0000 C   0  0  0  0  0  0  0  0  0  0  0  0
   17.9469   12.6683    0.0000 C   0  0  0  0  0  0  0  0  0  0  0  0
   18.7696   11.4140    0.0000 C   0  0  0  0  0  0  0  0  0  0  0  0
   19.5048   10.1065    0.0000 C   0  0  0  0  0  0  0  0  0  0  0  0
   20.1490    8.7519    0.0000 C   0  0  0  0  0  0  0  0  0  0  0  0
   20.6993    7.3565    0.0000 C   0  0  0  0  0  0  0  0  0  0  0  0
   21.1530    5.9268    0.0000 C   0  0  0  0  0  0  0  0  0  0  0  0
   21.5082    4.4695    0.0000 C   0  0  0  0  0  0  0  0  0  0  0  0
   21.7630    2.9913    0.0000 C   0  0  0  0  0  0  0  0  0  0  0  0
   21.9164    1.4991    0.0000 C   0  0  0  0  0  0  0  0  0  0  0  0
  1  2  1  0
  2  3  1  0
  3  4  2  0
  4  5  1  0
  5  6  2  0
  6  7  1  0
  7  8  2  0
  8  9  1  0
  9 10  2  0
 10 11  1  0
 11 12  2  0
 12 13  1  0
 13 14  2  0
 14 15  1  0
 15 16  1  0
 16 17  1  0
 17 18  1  0
 18 19  1  0
 19 20  1  0
 20 21  1  0
 21 22  1  0
 22 23  1  0
 23 24  1  0
 24 25  1  0
 25 26  1  0
 26 27  1  0
 27 28  1  0
 28 29  1  0
 29 30  1  0
 30 31  1  0
 31 32  1  0
 32 33  1  0
 33 34  1  0
 34 35  1  0
 35 36  1  0
 36 37  1  0
 37 38  1  0
 38 39  1  0
 39 40  1  0
 40 41  1  0
 41 42  1  0
 42 43  1  0
 43 44  1  0
 44 45  1  0
 45 46  1  0
 46 47  1  0
 47 48  1  0
 48 49  1  0
 49 50  1  0
 50 51  1  0
 51 52  1  0
 52 53  1  0
 53 54  1  0
 54 55  1  0
 55 56  1  0
 56 57  1  0
 57 58  1  0
 58 59  1  0
 59 60  1  0
 60 61  1  0
 61 62  1  0
 62 63  1  0
 63 64  1  0
 64 65  1  0
 65 66  1  0
 66 67  1  0
 67 68  1  0
 68 69  1  0
 69 70  1  0
 70 71  1  0
 71 72  1  0
 72 73  1  0
 73 74  1  0
 74 75  1  0
 75 76  1  0
 76 77  1  0
 77 78  1  0
 78 79  1  0
 79 80  1  0
 80 81  1  0
 81 82  1  0
 82 83  1  0
 83 84  1  0
 84 85  1  0
 85 86  1  0
 86 87  1  0
 87 88  1  0
 88 89  1  0
 89 90  1  0
 90 91  1  0
 91 92  1  0
 92 93  1  0
 93  2  1  0
M  END
>  <Title>  (1025) 
idABLMgen8

$$$$

     RDKit          2D

 56 63  0  0  0  0  0  0  0  0999 V2000
    6.4958   -4.6081    0.0000 C   0  0  0  0  0  0  0  0  0  0  0  0
    5.0565   -5.0307    0.0000 C   0  0  0  0  0  0  0  0  0  0  0  0
    4.4334   -3.6662    0.0000 C   0  0  0  0  0  0  0  0  0  0  0  0
    3.4511   -2.5326    0.0000 C   0  0  0  0  0  0  0  0  0  0  0  0
    2.1892   -1.7216    0.0000 C   0  0  0  0  0  0  0  0  0  0  0  0
    2.8124   -0.3572    0.0000 C   0  0  0  0  0  0  0  0  0  0  0  0
    0.7500   -1.2990    0.0000 C   0  0  0  0  0  0  0  0  0  0  0  0
    1.5000    0.0000    0.0000 C   0  0  0  0  0  0  0  0  0  0  0  0
    0.7500    1.2990    0.0000 C   0  0  0  0  0  0  0  0  0  0  0  0
   -0.7500    1.2990    0.0000 C   0  0  0  0  0  0  0  0  0  0  0  0
   -1.5000    0.0000    0.0000 C   0  0  0  0  0  0  0  0  0  0  0  0
   -0.7500   -1.2990    0.0000 C   0  0  0  0  0  0  0  0  0  0  0  0
   -2.1892   -1.7216    0.0000 C   0  0  0  0  0  0  0  0  0  0  0  0
   -2.2606   -0.2233    0.0000 C   0  0  0  0  0  0  0  0  0  0  0  0
   -3.5939    0.4640    0.0000 C   0  0  0  0  0  0  0  0  0  0  0  0
   -4.8557   -0.3470    0.0000 C   0  0  0  0  0  0  0  0  0  0  0  0
   -4.7844   -1.8453    0.0000 C   0  0  0  0  0  0  0  0  0  0  0  0
   -3.4511   -2.5326    0.0000 C   0  0  0  0  0  0  0  0  0  0  0  0
   -4.4334   -3.6662    0.0000 C   0  0  0  0  0  0  0  0  0  0  0  0
   -5.3035   -2.4444    0.0000 C   0  0  0  0  0  0  0  0  0  0  0  0
   -6.7967   -2.5869    0.0000 C   0  0  0  0  0  0  0  0  0  0  0  0
   -7.4198   -3.9514    0.0000 C   0  0  0  0  0  0  0  0  0  0  0  0
   -6.5497   -5.1733    0.0000 C   0  0  0  0  0  0  0  0  0  0  0  0
   -5.0565   -5.0307    0.0000 C   0  0  0  0  0  0  0  0  0  0  0  0
   -5.2700   -6.5154    0.0000 C   0  0  0  0  0  0  0  0  0  0  0  0
   -6.6626   -5.9579    0.0000 C   0  0  0  0  0  0  0  0  0  0  0  0
   -7.8416   -6.8851    0.0000 C   0  0  0  0  0  0  0  0  0  0  0  0
   -7.6282   -8.3699    0.0000 C   0  0  0  0  0  0  0  0  0  0  0  0
   -6.2356   -8.9274    0.0000 C   0  0  0  0  0  0  0  0  0  0  0  0
   -5.0565   -8.0001    0.0000 C   0  0  0  0  0  0  0  0  0  0  0  0
   -4.4334   -9.3646    0.0000 C   0  0  0  0  0  0  0  0  0  0  0  0
   -5.8151   -9.9485    0.0000 C   0  0  0  0  0  0  0  0  0  0  0  0
   -5.6867  -11.4430    0.0000 C   0  0  0  0  0  0  0  0  0  0  0  0
   -4.2257  -11.7827    0.0000 C   0  0  0  0  0  0  0  0  0  0  0  0
   -3.4511  -10.4982    0.0000 C   0  0  0  0  0  0  0  0  0  0  0  0
   -2.1892  -11.3092    0.0000 C   0  0  0  0  0  0  0  0  0  0  0  0
   -0.7500  -11.7318    0.0000 C   0  0  0  0  0  0  0  0  0  0  0  0
    0.7500  -11.7318    0.0000 C   0  0  0  0  0  0  0  0  0  0  0  0
    2.1892  -11.3092    0.0000 C   0  0  0  0  0  0  0  0  0  0  0  0
    3.4511  -10.4982    0.0000 C   0  0  0  0  0  0  0  0  0  0  0  0
    4.4334   -9.3646    0.0000 C   0  0  0  0  0  0  0  0  0  0  0  0
    5.8151   -9.9485    0.0000 C   0  0  0  0  0  0  0  0  0  0  0  0
    5.6867  -11.4430    0.0000 C   0  0  0  0  0  0  0  0  0  0  0  0
    4.2257  -11.7827    0.0000 C   0  0  0  0  0  0  0  0  0  0  0  0
    3.6418  -13.1644    0.0000 C   0  0  0  0  0  0  0  0  0  0  0  0
    2.1533  -13.3496    0.0000 O   0  0  0  0  0  0  0  0  0  0  0  0
    4.5464  -14.3609    0.0000 N   0  0  0  0  0  0  0  0  0  0  0  0
    3.9625  -15.7426    0.0000 C   0  0  0  0  0  0  0  0  0  0  0  0
    2.4740  -15.9278    0.0000 N   0  0  0  0  0  0  0  0  0  0  0  0
    1.8901  -17.3095    0.0000 N   0  0  0  0  0  0  0  0  0  0  0  0
    2.7947  -18.5060    0.0000 N   0  0  0  0  0  0  0  0  0  0  0  0
    4.2832  -18.3208    0.0000 N   0  0  0  0  0  0  0  0  0  0  0  0
    4.8671  -16.9391    0.0000 N   0  0  0  0  0  0  0  0  0  0  0  0
    5.0565   -8.0001    0.0000 C   0  0  0  0  0  0  0  0  0  0  0  0
    5.2700   -6.5154    0.0000 C   0  0  0  0  0  0  0  0  0  0  0  0
    6.7700   -6.5154    0.0000 O   0  0  0  0  0  0  0  0  0  0  0  0
  1  2  1  0
  2  3  1  0
  3  4  2  0
  4  5  1  0
  5  6  1  0
  5  7  1  0
  7  8  2  0
  8  9  1  0
  9 10  2  0
 10 11  1  0
 11 12  2  0
 12 13  1  0
 13 14  2  0
 14 15  1  0
 15 16  2  0
 16 17  1  0
 17 18  2  0
 18 19  1  0
 19 20  2  0
 20 21  1  0
 21 22  2  0
 22 23  1  0
 23 24  2  0
 24 25  1  0
 25 26  2  0
 26 27  1  0
 27 28  2  0
 28 29  1  0
 29 30  2  0
 30 31  1  0
 31 32  2  0
 32 33  1  0
 33 34  2  0
 34 35  1  0
 35 36  2  0
 36 37  1  0
 37 38  2  0
 38 39  1  0
 39 40  2  0
 40 41  1  0
 41 42  2  0
 42 43  1  0
 43 44  2  0
 44 45  1  0
 45 46  2  0
 45 47  1  0
 47 48  1  0
 48 49  2  0
 49 50  1  0
 50 51  2  0
 51 52  1  0
 52 53  2  0
 41 54  1  0
 54 55  1  0
 55 56  2  0
 55  2  1  0
 12  7  1  0
 18 13  1  0
 24 19  1  0
 30 25  1  0
 35 31  1  0
 44 40  1  0
 53 48  1  0
M  END
>  <Title>  (1026) 
idABLNgen8

$$$$

     RDKit          2D

  8  8  0  0  0  0  0  0  0  0999 V2000
    5.0260   -1.2990    0.0000 C   0  0  0  0  0  0  0  0  0  0  0  0
    3.5260   -1.2990    0.0000 O   0  0  0  0  0  0  0  0  0  0  0  0
    2.7760    0.0000    0.0000 C   0  0  0  0  0  0  0  0  0  0  0  0
    1.2760    0.0000    0.0000 C   0  0  0  0  0  0  0  0  0  0  0  0
    0.3943    1.2135    0.0000 C   0  0  0  0  0  0  0  0  0  0  0  0
   -1.0323    0.7500    0.0000 C   0  0  0  0  0  0  0  0  0  0  0  0
   -1.0323   -0.7500    0.0000 C   0  0  0  0  0  0  0  0  0  0  0  0
    0.3943   -1.2135    0.0000 C   0  0  0  0  0  0  0  0  0  0  0  0
  1  2  1  0
  2  3  1  0
  3  4  1  0
  4  5  2  0
  5  6  1  0
  6  7  2  0
  7  8  1  0
  8  4  1  0
M  END
>  <Title>  (1027) 
idABLOgen8

$$$$

     RDKit          2D

  7  7  0  0  0  0  0  0  0  0999 V2000
    4.2760   -0.0000    0.0000 N   0  0  0  0  0  0  0  0  0  0  0  0
    2.7760    0.0000    0.0000 C   0  0  0  0  0  0  0  0  0  0  0  0
    1.2760    0.0000    0.0000 C   0  0  0  0  0  0  0  0  0  0  0  0
    0.3943    1.2135    0.0000 C   0  0  0  0  0  0  0  0  0  0  0  0
   -1.0323    0.7500    0.0000 C   0  0  0  0  0  0  0  0  0  0  0  0
   -1.0323   -0.7500    0.0000 C   0  0  0  0  0  0  0  0  0  0  0  0
    0.3943   -1.2135    0.0000 C   0  0  0  0  0  0  0  0  0  0  0  0
  1  2  3  0
  2  3  1  0
  3  4  2  0
  4  5  1  0
  5  6  2  0
  6  7  1  0
  7  3  1  0
M  END
>  <Title>  (1028) 
idABLPgen8

$$$$

     RDKit          2D

  8  8  0  0  0  0  0  0  0  0999 V2000
    4.5000    0.0000    0.0000 C   0  0  0  0  0  0  0  0  0  0  0  0
    3.0000    0.0000    0.0000 C   0  0  0  0  0  0  0  0  0  0  0  0
    1.5000    0.0000    0.0000 C   0  0  0  0  0  0  0  0  0  0  0  0
    0.7500   -1.2990    0.0000 C   0  0  0  0  0  0  0  0  0  0  0  0
   -0.7500   -1.2990    0.0000 C   0  0  0  0  0  0  0  0  0  0  0  0
   -1.5000    0.0000    0.0000 C   0  0  0  0  0  0  0  0  0  0  0  0
   -0.7500    1.2990    0.0000 C   0  0  0  0  0  0  0  0  0  0  0  0
    0.7500    1.2990    0.0000 C   0  0  0  0  0  0  0  0  0  0  0  0
  1  2  3  0
  2  3  1  0
  3  4  2  0
  4  5  1  0
  5  6  1  0
  6  7  1  0
  7  8  1  0
  8  3  1  0
M  END
>  <Title>  (1029) 
idABLQgen8

$$$$

     RDKit          2D

  7  7  0  0  0  0  0  0  0  0999 V2000
    2.7760    0.0000    0.0000 C   0  0  0  0  0  0  0  0  0  0  0  0
    1.2760    0.0000    0.0000 C   0  0  0  0  0  0  0  0  0  0  0  0
    0.3943    1.2135    0.0000 C   0  0  0  0  0  0  0  0  0  0  0  0
   -1.0323    0.7500    0.0000 C   0  0  0  0  0  0  0  0  0  0  0  0
   -2.2458    1.6317    0.0000 F   0  0  0  0  0  0  0  0  0  0  0  0
   -1.0323   -0.7500    0.0000 C   0  0  0  0  0  0  0  0  0  0  0  0
    0.3943   -1.2135    0.0000 C   0  0  0  0  0  0  0  0  0  0  0  0
  1  2  1  0
  2  3  2  0
  3  4  1  0
  4  5  1  0
  4  6  2  0
  6  7  1  0
  7  2  1  0
M  END
>  <Title>  (1030) 
idABLRgen8

$$$$

     RDKit          2D

  7  6  0  0  0  0  0  0  0  0999 V2000
    0.0000    0.0000    0.0000 C   0  0  0  0  0  0  0  0  0  0  0  0
    1.2990    0.7500    0.0000 C   0  0  0  0  0  0  0  0  0  0  0  0
    2.5981   -0.0000    0.0000 C   0  0  0  0  0  0  0  0  0  0  0  0
    3.8971    0.7500    0.0000 C   0  0  0  0  0  0  0  0  0  0  0  0
    3.8971    2.2500    0.0000 O   0  0  0  0  0  0  0  0  0  0  0  0
    5.1962   -0.0000    0.0000 C   0  0  0  0  0  0  0  0  0  0  0  0
    6.4952    0.7500    0.0000 C   0  0  0  0  0  0  0  0  0  0  0  0
  1  2  1  0
  2  3  2  3
  3  4  1  0
  4  5  2  0
  4  6  1  0
  6  7  1  0
M  END
>  <Title>  (1031) 
idABLSgen8

$$$$

     RDKit          2D

  8  8  0  0  0  0  0  0  0  0999 V2000
    5.0260   -1.2990    0.0000 C   0  0  0  0  0  0  0  0  0  0  0  0
    3.5260   -1.2990    0.0000 O   0  0  0  0  0  0  0  0  0  0  0  0
    2.7760    0.0000    0.0000 C   0  0  0  0  0  0  0  0  0  0  0  0
    1.2760    0.0000    0.0000 C   0  0  0  0  0  0  0  0  0  0  0  0
    0.3943    1.2135    0.0000 C   0  0  0  0  0  0  0  0  0  0  0  0
   -1.0323    0.7500    0.0000 C   0  0  0  0  0  0  0  0  0  0  0  0
   -1.0323   -0.7500    0.0000 C   0  0  0  0  0  0  0  0  0  0  0  0
    0.3943   -1.2135    0.0000 C   0  0  0  0  0  0  0  0  0  0  0  0
  1  2  1  0
  2  3  1  0
  3  4  1  0
  4  5  2  0
  5  6  1  0
  6  7  1  0
  7  8  2  0
  8  4  1  0
M  END
>  <Title>  (1032) 
idABLTgen8

$$$$

     RDKit          2D

 69 79  0  0  0  0  0  0  0  0999 V2000
    5.6570   -3.0089    0.0000 C   0  0  0  0  0  0  0  0  0  0  0  0
    4.3580   -3.7589    0.0000 C   0  0  0  0  0  0  0  0  0  0  0  0
    3.4227   -2.5862    0.0000 C   0  0  0  0  0  0  0  0  0  0  0  0
    2.1834   -1.7412    0.0000 C   0  0  0  0  0  0  0  0  0  0  0  0
    2.8342   -0.3897    0.0000 C   0  0  0  0  0  0  0  0  0  0  0  0
    1.9892    0.8496    0.0000 O   0  0  0  0  0  0  0  0  0  0  0  0
    4.3300   -0.2776    0.0000 N   0  0  0  0  0  0  0  0  0  0  0  0
    4.9808    1.0738    0.0000 C   0  0  0  0  0  0  0  0  0  0  0  0
    6.4766    1.1859    0.0000 N   0  0  0  0  0  0  0  0  0  0  0  0
    7.1274    2.5374    0.0000 N   0  0  0  0  0  0  0  0  0  0  0  0
    6.2825    3.7767    0.0000 N   0  0  0  0  0  0  0  0  0  0  0  0
    4.7867    3.6646    0.0000 N   0  0  0  0  0  0  0  0  0  0  0  0
    4.1358    2.3132    0.0000 N   0  0  0  0  0  0  0  0  0  0  0  0
    0.7500   -1.2990    0.0000 C   0  0  0  0  0  0  0  0  0  0  0  0
    1.5000    0.0000    0.0000 C   0  0  0  0  0  0  0  0  0  0  0  0
    0.7500    1.2990    0.0000 C   0  0  0  0  0  0  0  0  0  0  0  0
   -0.7500    1.2990    0.0000 C   0  0  0  0  0  0  0  0  0  0  0  0
   -1.5000    0.0000    0.0000 C   0  0  0  0  0  0  0  0  0  0  0  0
   -0.7500   -1.2990    0.0000 C   0  0  0  0  0  0  0  0  0  0  0  0
   -2.1834   -1.7412    0.0000 C   0  0  0  0  0  0  0  0  0  0  0  0
   -2.2955   -0.2454    0.0000 C   0  0  0  0  0  0  0  0  0  0  0  0
   -3.6469    0.4055    0.0000 C   0  0  0  0  0  0  0  0  0  0  0  0
   -4.8863   -0.4395    0.0000 C   0  0  0  0  0  0  0  0  0  0  0  0
   -4.7742   -1.9353    0.0000 C   0  0  0  0  0  0  0  0  0  0  0  0
   -3.4227   -2.5862    0.0000 C   0  0  0  0  0  0  0  0  0  0  0  0
   -4.3580   -3.7589    0.0000 C   0  0  0  0  0  0  0  0  0  0  0  0
   -5.2932   -2.5862    0.0000 C   0  0  0  0  0  0  0  0  0  0  0  0
   -6.7764   -2.8097    0.0000 C   0  0  0  0  0  0  0  0  0  0  0  0
   -7.3244   -4.2060    0.0000 C   0  0  0  0  0  0  0  0  0  0  0  0
   -6.3892   -5.3788    0.0000 C   0  0  0  0  0  0  0  0  0  0  0  0
   -4.9060   -5.1552    0.0000 C   0  0  0  0  0  0  0  0  0  0  0  0
   -5.0181   -6.6510    0.0000 C   0  0  0  0  0  0  0  0  0  0  0  0
   -6.4514   -6.2089    0.0000 C   0  0  0  0  0  0  0  0  0  0  0  0
   -7.5510   -7.2291    0.0000 C   0  0  0  0  0  0  0  0  0  0  0  0
   -7.2172   -8.6915    0.0000 C   0  0  0  0  0  0  0  0  0  0  0  0
   -5.7839   -9.1337    0.0000 C   0  0  0  0  0  0  0  0  0  0  0  0
   -4.6843   -8.1134    0.0000 C   0  0  0  0  0  0  0  0  0  0  0  0
   -3.9343   -9.4124    0.0000 C   0  0  0  0  0  0  0  0  0  0  0  0
   -5.3676   -9.8546    0.0000 C   0  0  0  0  0  0  0  0  0  0  0  0
   -5.7014  -11.3170    0.0000 C   0  0  0  0  0  0  0  0  0  0  0  0
   -4.6018  -12.3372    0.0000 C   0  0  0  0  0  0  0  0  0  0  0  0
   -3.1685  -11.8951    0.0000 C   0  0  0  0  0  0  0  0  0  0  0  0
   -2.8347  -10.4327    0.0000 C   0  0  0  0  0  0  0  0  0  0  0  0
   -1.4832  -11.0835    0.0000 C   0  0  0  0  0  0  0  0  0  0  0  0
   -2.4185  -12.2563    0.0000 C   0  0  0  0  0  0  0  0  0  0  0  0
   -1.8705  -13.6526    0.0000 C   0  0  0  0  0  0  0  0  0  0  0  0
   -0.3872  -13.8762    0.0000 C   0  0  0  0  0  0  0  0  0  0  0  0
    0.5480  -12.7034    0.0000 C   0  0  0  0  0  0  0  0  0  0  0  0
   -0.0000  -11.3071    0.0000 C   0  0  0  0  0  0  0  0  0  0  0  0
    1.4832  -11.0835    0.0000 C   0  0  0  0  0  0  0  0  0  0  0  0
    1.3712  -12.5793    0.0000 C   0  0  0  0  0  0  0  0  0  0  0  0
    2.6105  -13.4243    0.0000 C   0  0  0  0  0  0  0  0  0  0  0  0
    3.9620  -12.7735    0.0000 C   0  0  0  0  0  0  0  0  0  0  0  0
    4.0741  -11.2777    0.0000 C   0  0  0  0  0  0  0  0  0  0  0  0
    2.8347  -10.4327    0.0000 C   0  0  0  0  0  0  0  0  0  0  0  0
    3.9343   -9.4124    0.0000 C   0  0  0  0  0  0  0  0  0  0  0  0
    4.6843  -10.7115    0.0000 C   0  0  0  0  0  0  0  0  0  0  0  0
    6.1843  -10.7115    0.0000 C   0  0  0  0  0  0  0  0  0  0  0  0
    6.9343   -9.4124    0.0000 C   0  0  0  0  0  0  0  0  0  0  0  0
    6.1843   -8.1134    0.0000 C   0  0  0  0  0  0  0  0  0  0  0  0
    4.6843   -8.1134    0.0000 C   0  0  0  0  0  0  0  0  0  0  0  0
    5.0181   -6.6510    0.0000 C   0  0  0  0  0  0  0  0  0  0  0  0
    6.3695   -7.3018    0.0000 C   0  0  0  0  0  0  0  0  0  0  0  0
    7.6089   -6.4569    0.0000 C   0  0  0  0  0  0  0  0  0  0  0  0
    7.4968   -4.9611    0.0000 C   0  0  0  0  0  0  0  0  0  0  0  0
    8.7361   -4.1161    0.0000 C   0  0  0  0  0  0  0  0  0  0  0  0
    9.9755   -3.2711    0.0000 N   0  0  0  0  0  0  0  0  0  0  0  0
    6.1453   -4.3102    0.0000 C   0  0  0  0  0  0  0  0  0  0  0  0
    4.9060   -5.1552    0.0000 C   0  0  0  0  0  0  0  0  0  0  0  0
  1  2  1  0
  2  3  2  0
  3  4  1  0
  4  5  1  0
  5  6  2  0
  5  7  1  0
  7  8  1  0
  8  9  2  0
  9 10  1  0
 10 11  2  0
 11 12  1  0
 12 13  2  0
  4 14  1  0
 14 15  2  0
 15 16  1  0
 16 17  1  0
 17 18  1  0
 18 19  1  0
 19 20  1  0
 20 21  2  0
 21 22  1  0
 22 23  2  0
 23 24  1  0
 24 25  2  0
 25 26  1  0
 26 27  2  0
 27 28  1  0
 28 29  2  0
 29 30  1  0
 30 31  2  0
 31 32  1  0
 32 33  2  0
 33 34  1  0
 34 35  2  0
 35 36  1  0
 36 37  2  0
 37 38  1  0
 38 39  2  0
 39 40  1  0
 40 41  2  0
 41 42  1  0
 42 43  2  0
 43 44  1  0
 44 45  2  0
 45 46  1  0
 46 47  2  0
 47 48  1  0
 48 49  2  0
 49 50  1  0
 50 51  2  0
 51 52  1  0
 52 53  2  0
 53 54  1  0
 54 55  2  0
 55 56  1  0
 56 57  2  0
 57 58  1  0
 58 59  2  0
 59 60  1  0
 60 61  2  0
 61 62  1  0
 62 63  2  0
 63 64  1  0
 64 65  2  0
 65 66  1  0
 66 67  3  0
 65 68  1  0
 68 69  2  0
 69  2  1  0
 13  8  1  0
 19 14  1  0
 25 20  1  0
 31 26  1  0
 37 32  1  0
 43 38  1  0
 49 44  1  0
 55 50  1  0
 61 56  1  0
 69 62  1  0
M  END
>  <Title>  (1033) 
idABLUgen8

$$$$

     RDKit          2D

 12 12  0  0  0  0  0  0  0  0999 V2000
    4.1621    0.0000    0.0000 C   0  0  0  0  0  0  0  0  0  0  0  0
    2.6621    0.0000    0.0000 C   0  0  0  0  0  0  0  0  0  0  0  0
    2.2395    1.4392    0.0000 C   0  0  0  0  0  0  0  0  0  0  0  0
    1.1059    2.4215    0.0000 C   0  0  0  0  0  0  0  0  0  0  0  0
   -0.3789    2.6350    0.0000 C   0  0  0  0  0  0  0  0  0  0  0  0
   -1.7433    2.0119    0.0000 C   0  0  0  0  0  0  0  0  0  0  0  0
   -2.5543    0.7500    0.0000 C   0  0  0  0  0  0  0  0  0  0  0  0
   -2.5543   -0.7500    0.0000 C   0  0  0  0  0  0  0  0  0  0  0  0
   -1.7433   -2.0119    0.0000 C   0  0  0  0  0  0  0  0  0  0  0  0
   -0.3789   -2.6350    0.0000 C   0  0  0  0  0  0  0  0  0  0  0  0
    1.1059   -2.4215    0.0000 C   0  0  0  0  0  0  0  0  0  0  0  0
    2.2395   -1.4392    0.0000 C   0  0  0  0  0  0  0  0  0  0  0  0
  1  2  1  0
  2  3  1  0
  3  4  1  0
  4  5  1  0
  5  6  1  0
  6  7  2  0
  7  8  1  0
  8  9  1  0
  9 10  1  0
 10 11  1  0
 11 12  1  0
 12  2  1  0
M  END
>  <Title>  (1034) 
idABLVgen8

$$$$

     RDKit          2D

 18 17  0  0  0  0  0  0  0  0999 V2000
    0.0000    0.0000    0.0000 C   0  0  0  0  0  0  0  0  0  0  0  0
   -0.0000   -1.5000    0.0000 C   0  0  0  0  0  0  0  0  0  0  0  0
   -0.0000   -3.0000    0.0000 C   0  0  0  0  0  0  0  0  0  0  0  0
   -0.0000   -4.5000    0.0000 C   0  0  0  0  0  0  0  0  0  0  0  0
   -0.0000   -6.0000    0.0000 C   0  0  0  0  0  0  0  0  0  0  0  0
   -0.0000   -7.5000    0.0000 C   0  0  0  0  0  0  0  0  0  0  0  0
   -0.0000   -9.0000    0.0000 C   0  0  0  0  0  0  0  0  0  0  0  0
   -0.0000  -10.5000    0.0000 C   0  0  0  0  0  0  0  0  0  0  0  0
   -0.0000  -12.0000    0.0000 C   0  0  0  0  0  0  0  0  0  0  0  0
   -0.0000  -13.5000    0.0000 C   0  0  0  0  0  0  0  0  0  0  0  0
   -0.0000  -15.0000    0.0000 C   0  0  0  0  0  0  0  0  0  0  0  0
   -0.0000  -16.5000    0.0000 C   0  0  0  0  0  0  0  0  0  0  0  0
   -0.0000  -18.0000    0.0000 C   0  0  0  0  0  0  0  0  0  0  0  0
   -0.0000  -19.5000    0.0000 C   0  0  0  0  0  0  0  0  0  0  0  0
   -0.0000  -21.0000    0.0000 C   0  0  0  0  0  0  0  0  0  0  0  0
    1.2990  -21.7500    0.0000 C   0  0  0  0  0  0  0  0  0  0  0  0
    1.2990  -23.2500    0.0000 C   0  0  0  0  0  0  0  0  0  0  0  0
    2.5981  -24.0000    0.0000 C   0  0  0  0  0  0  0  0  0  0  0  0
  1  2  3  0
  2  3  1  0
  3  4  3  0
  4  5  1  0
  5  6  3  0
  6  7  1  0
  7  8  3  0
  8  9  1  0
  9 10  3  0
 10 11  1  0
 11 12  3  0
 12 13  1  0
 13 14  3  0
 14 15  1  0
 15 16  2  3
 16 17  1  0
 17 18  1  0
M  END
>  <Title>  (1035) 
idABLWgen8

$$$$

     RDKit          2D

 12 12  0  0  0  0  0  0  0  0999 V2000
    6.0000   -2.5981    0.0000 C   0  0  0  0  0  0  0  0  0  0  0  0
    5.2500   -1.2990    0.0000 C   0  0  0  0  0  0  0  0  0  0  0  0
    6.0000    0.0000    0.0000 O   0  0  0  0  0  0  0  0  0  0  0  0
    3.7500   -1.2990    0.0000 C   0  0  0  0  0  0  0  0  0  0  0  0
    3.0000   -2.5981    0.0000 O   0  0  0  0  0  0  0  0  0  0  0  0
    3.0000    0.0000    0.0000 N   0  0  0  0  0  0  0  0  0  0  0  0
    1.5000    0.0000    0.0000 C   0  0  0  0  0  0  0  0  0  0  0  0
    0.7500   -1.2990    0.0000 C   0  0  0  0  0  0  0  0  0  0  0  0
   -0.7500   -1.2990    0.0000 C   0  0  0  0  0  0  0  0  0  0  0  0
   -1.5000    0.0000    0.0000 C   0  0  0  0  0  0  0  0  0  0  0  0
   -0.7500    1.2990    0.0000 C   0  0  0  0  0  0  0  0  0  0  0  0
    0.7500    1.2990    0.0000 C   0  0  0  0  0  0  0  0  0  0  0  0
  1  2  1  0
  2  3  2  0
  2  4  1  0
  4  5  2  0
  4  6  1  0
  6  7  1  0
  7  8  2  0
  8  9  1  0
  9 10  2  0
 10 11  1  0
 11 12  2  0
 12  7  1  0
M  END
>  <Title>  (1036) 
idABLXgen8

$$$$
