
     RDKit          2D

  9  9  0  0  0  0  0  0  0  0999 V2000
    7.2760   -0.0000    0.0000 C   0  0  0  0  0  0  0  0  0  0  0  0
    5.7760   -0.0000    0.0000 C   0  0  0  0  0  0  0  0  0  0  0  0
    4.2760   -0.0000    0.0000 C   0  0  0  0  0  0  0  0  0  0  0  0
    2.7760    0.0000    0.0000 C   0  0  0  0  0  0  0  0  0  0  0  0
    1.2760    0.0000    0.0000 C   0  0  0  0  0  0  0  0  0  0  0  0
    0.3943    1.2135    0.0000 C   0  0  0  0  0  0  0  0  0  0  0  0
   -1.0323    0.7500    0.0000 C   0  0  0  0  0  0  0  0  0  0  0  0
   -1.0323   -0.7500    0.0000 C   0  0  0  0  0  0  0  0  0  0  0  0
    0.3943   -1.2135    0.0000 C   0  0  0  0  0  0  0  0  0  0  0  0
  1  2  3  0
  2  3  1  0
  3  4  3  0
  4  5  1  0
  5  6  2  0
  6  7  1  0
  7  8  2  0
  8  9  1  0
  9  5  1  0
M  END
>  <Title>  (1) 
idAAAAgen9

$$$$

     RDKit          2D

  9  9  0  0  0  0  0  0  0  0999 V2000
    7.2760   -0.0000    0.0000 C   0  0  0  0  0  0  0  0  0  0  0  0
    5.7760   -0.0000    0.0000 C   0  0  0  0  0  0  0  0  0  0  0  0
    4.2760   -0.0000    0.0000 C   0  0  0  0  0  0  0  0  0  0  0  0
    2.7760    0.0000    0.0000 C   0  0  0  0  0  0  0  0  0  0  0  0
    1.2760    0.0000    0.0000 C   0  0  0  0  0  0  0  0  0  0  0  0
    0.3943    1.2135    0.0000 C   0  0  0  0  0  0  0  0  0  0  0  0
   -1.0323    0.7500    0.0000 C   0  0  0  0  0  0  0  0  0  0  0  0
   -1.0323   -0.7500    0.0000 C   0  0  0  0  0  0  0  0  0  0  0  0
    0.3943   -1.2135    0.0000 C   0  0  0  0  0  0  0  0  0  0  0  0
  1  2  3  0
  2  3  1  0
  3  4  3  0
  4  5  1  0
  5  6  2  0
  6  7  1  0
  7  8  2  0
  8  9  1  0
  9  5  1  0
M  END
>  <Title>  (2) 
idAAABgen9

$$$$

     RDKit          2D

  9  8  0  0  0  0  0  0  0  0999 V2000
    0.0000    0.0000    0.0000 C   0  0  0  0  0  0  0  0  0  0  0  0
   -0.0000   -1.5000    0.0000 C   0  0  0  0  0  0  0  0  0  0  0  0
   -0.0000   -3.0000    0.0000 C   0  0  0  0  0  0  0  0  0  0  0  0
   -0.0000   -4.5000    0.0000 C   0  0  0  0  0  0  0  0  0  0  0  0
   -0.0000   -6.0000    0.0000 C   0  0  0  0  0  0  0  0  0  0  0  0
   -0.0000   -7.5000    0.0000 C   0  0  0  0  0  0  0  0  0  0  0  0
   -0.0000   -9.0000    0.0000 C   0  0  0  0  0  0  0  0  0  0  0  0
    1.2990   -9.7500    0.0000 C   0  0  0  0  0  0  0  0  0  0  0  0
    1.2990  -11.2500    0.0000 C   0  0  0  0  0  0  0  0  0  0  0  0
  1  2  3  0
  2  3  1  0
  3  4  3  0
  4  5  1  0
  5  6  3  0
  6  7  1  0
  7  8  1  0
  8  9  1  0
M  END
>  <Title>  (3) 
idAAACgen9

$$$$

     RDKit          2D

 15 15  0  0  0  0  0  0  0  0999 V2000
   16.2760   -0.0000    0.0000 C   0  0  0  0  0  0  0  0  0  0  0  0
   14.7760   -0.0000    0.0000 C   0  0  0  0  0  0  0  0  0  0  0  0
   13.2760   -0.0000    0.0000 C   0  0  0  0  0  0  0  0  0  0  0  0
   11.7760   -0.0000    0.0000 C   0  0  0  0  0  0  0  0  0  0  0  0
   10.2760   -0.0000    0.0000 C   0  0  0  0  0  0  0  0  0  0  0  0
    8.7760   -0.0000    0.0000 C   0  0  0  0  0  0  0  0  0  0  0  0
    7.2760   -0.0000    0.0000 C   0  0  0  0  0  0  0  0  0  0  0  0
    5.7760   -0.0000    0.0000 C   0  0  0  0  0  0  0  0  0  0  0  0
    4.2760   -0.0000    0.0000 C   0  0  0  0  0  0  0  0  0  0  0  0
    2.7760    0.0000    0.0000 C   0  0  0  0  0  0  0  0  0  0  0  0
    1.2760    0.0000    0.0000 C   0  0  0  0  0  0  0  0  0  0  0  0
    0.3943    1.2135    0.0000 C   0  0  0  0  0  0  0  0  0  0  0  0
   -1.0323    0.7500    0.0000 C   0  0  0  0  0  0  0  0  0  0  0  0
   -1.0323   -0.7500    0.0000 C   0  0  0  0  0  0  0  0  0  0  0  0
    0.3943   -1.2135    0.0000 C   0  0  0  0  0  0  0  0  0  0  0  0
  1  2  3  0
  2  3  1  0
  3  4  3  0
  4  5  1  0
  5  6  3  0
  6  7  1  0
  7  8  3  0
  8  9  1  0
  9 10  3  0
 10 11  1  0
 11 12  2  0
 12 13  1  0
 13 14  2  0
 14 15  1  0
 15 11  1  0
M  END
>  <Title>  (4) 
idAAADgen9

$$$$

     RDKit          2D

 20 22  0  0  0  0  0  0  0  0999 V2000
    2.7760    0.0000    0.0000 C   0  0  0  0  0  0  0  0  0  0  0  0
    1.2760    0.0000    0.0000 C   0  0  0  0  0  0  0  0  0  0  0  0
    0.3943    1.2135    0.0000 C   0  0  0  0  0  0  0  0  0  0  0  0
   -1.0323    0.7500    0.0000 C   0  0  0  0  0  0  0  0  0  0  0  0
   -2.2458    1.6317    0.0000 C   0  0  0  0  0  0  0  0  0  0  0  0
   -3.6161    1.0216    0.0000 O   0  0  0  0  0  0  0  0  0  0  0  0
   -2.0890    3.1235    0.0000 N   0  0  0  0  0  0  0  0  0  0  0  0
   -3.3025    4.0051    0.0000 C   0  0  0  0  0  0  0  0  0  0  0  0
   -4.7291    3.5416    0.0000 N   0  0  0  0  0  0  0  0  0  0  0  0
   -5.6108    4.7551    0.0000 N   0  0  0  0  0  0  0  0  0  0  0  0
   -4.7291    5.9687    0.0000 N   0  0  0  0  0  0  0  0  0  0  0  0
   -3.3025    5.5051    0.0000 N   0  0  0  0  0  0  0  0  0  0  0  0
   -2.0890    6.3868    0.0000 C   0  0  0  0  0  0  0  0  0  0  0  0
   -2.0890    7.8868    0.0000 C   0  0  0  0  0  0  0  0  0  0  0  0
   -0.6624    8.3503    0.0000 C   0  0  0  0  0  0  0  0  0  0  0  0
    0.2192    7.1368    0.0000 C   0  0  0  0  0  0  0  0  0  0  0  0
   -0.6624    5.9233    0.0000 C   0  0  0  0  0  0  0  0  0  0  0  0
   -1.0323   -0.7500    0.0000 C   0  0  0  0  0  0  0  0  0  0  0  0
    0.3943   -1.2135    0.0000 C   0  0  0  0  0  0  0  0  0  0  0  0
    0.8578   -2.6401    0.0000 O   0  0  0  0  0  0  0  0  0  0  0  0
  1  2  1  0
  2  3  2  0
  3  4  1  0
  4  5  1  0
  5  6  2  0
  5  7  1  0
  7  8  1  0
  8  9  2  0
  9 10  1  0
 10 11  2  0
 11 12  1  0
 12 13  1  0
 13 14  2  0
 14 15  1  0
 15 16  2  0
 16 17  1  0
  4 18  1  0
 18 19  2  0
 19 20  1  0
 19  2  1  0
 12  8  1  0
 17 13  1  0
M  END
>  <Title>  (5) 
idAAAEgen9

$$$$

     RDKit          2D

  6  6  0  0  0  0  0  0  0  0999 V2000
    2.7760    0.0000    0.0000 O   0  0  0  0  0  0  0  0  0  0  0  0
    1.2760    0.0000    0.0000 C   0  0  0  0  0  0  0  0  0  0  0  0
    0.3943    1.2135    0.0000 C   0  0  0  0  0  0  0  0  0  0  0  0
   -1.0323    0.7500    0.0000 C   0  0  0  0  0  0  0  0  0  0  0  0
   -1.0323   -0.7500    0.0000 C   0  0  0  0  0  0  0  0  0  0  0  0
    0.3943   -1.2135    0.0000 C   0  0  0  0  0  0  0  0  0  0  0  0
  1  2  1  0
  2  3  2  0
  3  4  1  0
  4  5  2  0
  5  6  1  0
  6  2  1  0
M  END
>  <Title>  (6) 
idAAAFgen9

$$$$

     RDKit          2D

 30 34  0  0  0  0  0  0  0  0999 V2000
    3.9259    2.9505    0.0000 O   0  0  0  0  0  0  0  0  0  0  0  0
    5.1394    2.0689    0.0000 C   0  0  0  0  0  0  0  0  0  0  0  0
    6.5098    2.6790    0.0000 N   0  0  0  0  0  0  0  0  0  0  0  0
    6.6666    4.1707    0.0000 C   0  0  0  0  0  0  0  0  0  0  0  0
    5.5518    5.1744    0.0000 N   0  0  0  0  0  0  0  0  0  0  0  0
    6.1619    6.5448    0.0000 N   0  0  0  0  0  0  0  0  0  0  0  0
    7.6537    6.3880    0.0000 N   0  0  0  0  0  0  0  0  0  0  0  0
    7.9656    4.9207    0.0000 N   0  0  0  0  0  0  0  0  0  0  0  0
    9.3359    4.3106    0.0000 C   0  0  0  0  0  0  0  0  0  0  0  0
   10.6349    5.0606    0.0000 C   0  0  0  0  0  0  0  0  0  0  0  0
   11.7497    4.0569    0.0000 C   0  0  0  0  0  0  0  0  0  0  0  0
   11.1396    2.6866    0.0000 C   0  0  0  0  0  0  0  0  0  0  0  0
    9.6478    2.8434    0.0000 C   0  0  0  0  0  0  0  0  0  0  0  0
    4.9826    0.5771    0.0000 C   0  0  0  0  0  0  0  0  0  0  0  0
    6.0974   -0.4266    0.0000 C   0  0  0  0  0  0  0  0  0  0  0  0
    5.4873   -1.7969    0.0000 C   0  0  0  0  0  0  0  0  0  0  0  0
    6.2373   -3.0960    0.0000 O   0  0  0  0  0  0  0  0  0  0  0  0
    3.9955   -1.6402    0.0000 C   0  0  0  0  0  0  0  0  0  0  0  0
    2.9918   -2.7549    0.0000 C   0  0  0  0  0  0  0  0  0  0  0  0
    3.3037   -4.2221    0.0000 N   0  0  0  0  0  0  0  0  0  0  0  0
    2.0046   -4.9721    0.0000 N   0  0  0  0  0  0  0  0  0  0  0  0
    0.8899   -3.9684    0.0000 N   0  0  0  0  0  0  0  0  0  0  0  0
    1.5000   -2.5981    0.0000 N   0  0  0  0  0  0  0  0  0  0  0  0
    0.7500   -1.2990    0.0000 C   0  0  0  0  0  0  0  0  0  0  0  0
    1.5000    0.0000    0.0000 C   0  0  0  0  0  0  0  0  0  0  0  0
    0.7500    1.2990    0.0000 C   0  0  0  0  0  0  0  0  0  0  0  0
   -0.7500    1.2990    0.0000 C   0  0  0  0  0  0  0  0  0  0  0  0
   -1.5000    0.0000    0.0000 C   0  0  0  0  0  0  0  0  0  0  0  0
   -0.7500   -1.2990    0.0000 C   0  0  0  0  0  0  0  0  0  0  0  0
    3.6836   -0.1729    0.0000 C   0  0  0  0  0  0  0  0  0  0  0  0
  1  2  2  0
  2  3  1  0
  3  4  1  0
  4  5  2  0
  5  6  1  0
  6  7  2  0
  7  8  1  0
  8  9  1  0
  9 10  2  0
 10 11  1  0
 11 12  2  0
 12 13  1  0
  2 14  1  0
 14 15  1  0
 15 16  2  0
 16 17  1  0
 16 18  1  0
 18 19  1  0
 19 20  2  0
 20 21  1  0
 21 22  2  0
 22 23  1  0
 23 24  1  0
 24 25  2  0
 25 26  1  0
 26 27  2  0
 27 28  1  0
 28 29  2  0
 18 30  2  0
  8  4  1  0
 13  9  1  0
 30 14  1  0
 23 19  1  0
 29 24  1  0
M  END
>  <Title>  (7) 
idAAAGgen9

$$$$

     RDKit          2D

 20 22  0  0  0  0  0  0  0  0999 V2000
    2.7760    0.0000    0.0000 C   0  0  0  0  0  0  0  0  0  0  0  0
    1.2760    0.0000    0.0000 C   0  0  0  0  0  0  0  0  0  0  0  0
    0.3943    1.2135    0.0000 C   0  0  0  0  0  0  0  0  0  0  0  0
   -1.0323    0.7500    0.0000 C   0  0  0  0  0  0  0  0  0  0  0  0
   -2.2458    1.6317    0.0000 C   0  0  0  0  0  0  0  0  0  0  0  0
   -3.6161    1.0216    0.0000 O   0  0  0  0  0  0  0  0  0  0  0  0
   -2.0890    3.1235    0.0000 N   0  0  0  0  0  0  0  0  0  0  0  0
   -3.3025    4.0051    0.0000 C   0  0  0  0  0  0  0  0  0  0  0  0
   -4.7291    3.5416    0.0000 N   0  0  0  0  0  0  0  0  0  0  0  0
   -5.6108    4.7551    0.0000 N   0  0  0  0  0  0  0  0  0  0  0  0
   -4.7291    5.9687    0.0000 N   0  0  0  0  0  0  0  0  0  0  0  0
   -3.3025    5.5051    0.0000 N   0  0  0  0  0  0  0  0  0  0  0  0
   -2.0890    6.3868    0.0000 C   0  0  0  0  0  0  0  0  0  0  0  0
   -2.0890    7.8868    0.0000 C   0  0  0  0  0  0  0  0  0  0  0  0
   -0.6624    8.3503    0.0000 C   0  0  0  0  0  0  0  0  0  0  0  0
    0.2192    7.1368    0.0000 C   0  0  0  0  0  0  0  0  0  0  0  0
   -0.6624    5.9233    0.0000 C   0  0  0  0  0  0  0  0  0  0  0  0
   -1.0323   -0.7500    0.0000 C   0  0  0  0  0  0  0  0  0  0  0  0
    0.3943   -1.2135    0.0000 C   0  0  0  0  0  0  0  0  0  0  0  0
    0.8578   -2.6401    0.0000 O   0  0  0  0  0  0  0  0  0  0  0  0
  1  2  1  0
  2  3  2  0
  3  4  1  0
  4  5  1  0
  5  6  2  0
  5  7  1  0
  7  8  1  0
  8  9  2  0
  9 10  1  0
 10 11  2  0
 11 12  1  0
 12 13  1  0
 13 14  2  0
 14 15  1  0
 15 16  1  0
 16 17  2  0
  4 18  1  0
 18 19  2  0
 19 20  1  0
 19  2  1  0
 12  8  1  0
 17 13  1  0
M  END
>  <Title>  (8) 
idAAAHgen9

$$$$

     RDKit          2D

  6  6  0  0  0  0  0  0  0  0999 V2000
    2.7760    0.0000    0.0000 O   0  0  0  0  0  0  0  0  0  0  0  0
    1.2760    0.0000    0.0000 C   0  0  0  0  0  0  0  0  0  0  0  0
    0.3943    1.2135    0.0000 C   0  0  0  0  0  0  0  0  0  0  0  0
   -1.0323    0.7500    0.0000 C   0  0  0  0  0  0  0  0  0  0  0  0
   -1.0323   -0.7500    0.0000 C   0  0  0  0  0  0  0  0  0  0  0  0
    0.3943   -1.2135    0.0000 C   0  0  0  0  0  0  0  0  0  0  0  0
  1  2  1  0
  2  3  2  0
  3  4  1  0
  4  5  1  0
  5  6  2  0
  6  2  1  0
M  END
>  <Title>  (9) 
idAAAIgen9

$$$$

     RDKit          2D

 27 29  0  0  0  0  0  0  0  0999 V2000
    7.5000    2.5981    0.0000 C   0  0  0  0  0  0  0  0  0  0  0  0
    6.0000    2.5981    0.0000 C   0  0  0  0  0  0  0  0  0  0  0  0
    5.2500    3.8971    0.0000 C   0  0  0  0  0  0  0  0  0  0  0  0
    5.2500    1.2990    0.0000 C   0  0  0  0  0  0  0  0  0  0  0  0
    3.7500    1.2990    0.0000 C   0  0  0  0  0  0  0  0  0  0  0  0
    3.0000    2.5981    0.0000 O   0  0  0  0  0  0  0  0  0  0  0  0
    3.0000    0.0000    0.0000 N   0  0  0  0  0  0  0  0  0  0  0  0
    1.5000    0.0000    0.0000 C   0  0  0  0  0  0  0  0  0  0  0  0
    0.7500   -1.2990    0.0000 C   0  0  0  0  0  0  0  0  0  0  0  0
    1.5000   -2.5981    0.0000 C   0  0  0  0  0  0  0  0  0  0  0  0
    3.0000   -2.5981    0.0000 O   0  0  0  0  0  0  0  0  0  0  0  0
    0.7500   -3.8971    0.0000 N   0  0  0  0  0  0  0  0  0  0  0  0
    1.5000   -5.1962    0.0000 C   0  0  0  0  0  0  0  0  0  0  0  0
    2.9918   -5.3529    0.0000 N   0  0  0  0  0  0  0  0  0  0  0  0
    3.3037   -6.8202    0.0000 N   0  0  0  0  0  0  0  0  0  0  0  0
    2.0046   -7.5702    0.0000 N   0  0  0  0  0  0  0  0  0  0  0  0
    0.8899   -6.5665    0.0000 N   0  0  0  0  0  0  0  0  0  0  0  0
   -0.5773   -6.8783    0.0000 C   0  0  0  0  0  0  0  0  0  0  0  0
   -1.1874   -8.2487    0.0000 C   0  0  0  0  0  0  0  0  0  0  0  0
   -2.6792   -8.0919    0.0000 C   0  0  0  0  0  0  0  0  0  0  0  0
   -2.9911   -6.6246    0.0000 C   0  0  0  0  0  0  0  0  0  0  0  0
   -1.6920   -5.8746    0.0000 C   0  0  0  0  0  0  0  0  0  0  0  0
   -0.7500   -1.2990    0.0000 C   0  0  0  0  0  0  0  0  0  0  0  0
   -1.5000    0.0000    0.0000 C   0  0  0  0  0  0  0  0  0  0  0  0
   -0.7500    1.2990    0.0000 C   0  0  0  0  0  0  0  0  0  0  0  0
   -1.5000    2.5981    0.0000 C   0  0  0  0  0  0  0  0  0  0  0  0
    0.7500    1.2990    0.0000 N   0  0  0  0  0  0  0  0  0  0  0  0
  1  2  1  0
  2  3  1  0
  2  4  1  0
  4  5  1  0
  5  6  2  0
  5  7  1  0
  7  8  1  0
  8  9  2  0
  9 10  1  0
 10 11  2  0
 10 12  1  0
 12 13  1  0
 13 14  2  0
 14 15  1  0
 15 16  2  0
 16 17  1  0
 17 18  1  0
 18 19  2  0
 19 20  1  0
 20 21  2  0
 21 22  1  0
  9 23  1  0
 23 24  1  0
 24 25  1  0
 25 26  1  0
 25 27  1  0
 27  8  1  0
 17 13  1  0
 22 18  1  0
M  END
>  <Title>  (10) 
idAAAJgen9

$$$$

     RDKit          2D

 20 22  0  0  0  0  0  0  0  0999 V2000
    3.0000   -2.5981    0.0000 O   0  0  0  0  0  0  0  0  0  0  0  0
    1.5000   -2.5981    0.0000 C   0  0  0  0  0  0  0  0  0  0  0  0
    0.7500   -3.8971    0.0000 N   0  0  0  0  0  0  0  0  0  0  0  0
    1.5000   -5.1962    0.0000 C   0  0  0  0  0  0  0  0  0  0  0  0
    2.9918   -5.3529    0.0000 N   0  0  0  0  0  0  0  0  0  0  0  0
    3.3037   -6.8202    0.0000 N   0  0  0  0  0  0  0  0  0  0  0  0
    2.0046   -7.5702    0.0000 N   0  0  0  0  0  0  0  0  0  0  0  0
    0.8899   -6.5665    0.0000 N   0  0  0  0  0  0  0  0  0  0  0  0
   -0.5773   -6.8783    0.0000 C   0  0  0  0  0  0  0  0  0  0  0  0
   -1.1874   -8.2487    0.0000 C   0  0  0  0  0  0  0  0  0  0  0  0
   -2.6792   -8.0919    0.0000 C   0  0  0  0  0  0  0  0  0  0  0  0
   -2.9911   -6.6246    0.0000 C   0  0  0  0  0  0  0  0  0  0  0  0
   -1.6920   -5.8746    0.0000 C   0  0  0  0  0  0  0  0  0  0  0  0
    0.7500   -1.2990    0.0000 C   0  0  0  0  0  0  0  0  0  0  0  0
    1.5000    0.0000    0.0000 C   0  0  0  0  0  0  0  0  0  0  0  0
    0.7500    1.2990    0.0000 C   0  0  0  0  0  0  0  0  0  0  0  0
   -0.7500    1.2990    0.0000 C   0  0  0  0  0  0  0  0  0  0  0  0
   -1.5000    0.0000    0.0000 C   0  0  0  0  0  0  0  0  0  0  0  0
   -3.0000    0.0000    0.0000 O   0  0  0  0  0  0  0  0  0  0  0  0
   -0.7500   -1.2990    0.0000 C   0  0  0  0  0  0  0  0  0  0  0  0
  1  2  2  0
  2  3  1  0
  3  4  1  0
  4  5  2  0
  5  6  1  0
  6  7  2  0
  7  8  1  0
  8  9  1  0
  9 10  2  0
 10 11  1  0
 11 12  2  0
 12 13  1  0
  2 14  1  0
 14 15  1  0
 15 16  2  0
 16 17  1  0
 17 18  1  0
 18 19  1  0
 18 20  2  0
  8  4  1  0
 13  9  1  0
 20 14  1  0
M  END
>  <Title>  (11) 
idAAAKgen9

$$$$

     RDKit          2D

  8  8  0  0  0  0  0  0  0  0999 V2000
    4.5000    0.0000    0.0000 N   0  0  0  0  0  0  0  0  0  0  0  0
    3.0000    0.0000    0.0000 C   0  0  0  0  0  0  0  0  0  0  0  0
    1.5000    0.0000    0.0000 C   0  0  0  0  0  0  0  0  0  0  0  0
    0.7500   -1.2990    0.0000 C   0  0  0  0  0  0  0  0  0  0  0  0
   -0.7500   -1.2990    0.0000 C   0  0  0  0  0  0  0  0  0  0  0  0
   -1.5000    0.0000    0.0000 C   0  0  0  0  0  0  0  0  0  0  0  0
   -0.7500    1.2990    0.0000 C   0  0  0  0  0  0  0  0  0  0  0  0
    0.7500    1.2990    0.0000 C   0  0  0  0  0  0  0  0  0  0  0  0
  1  2  3  0
  2  3  1  0
  3  4  2  0
  4  5  1  0
  5  6  2  0
  6  7  1  0
  7  8  2  0
  8  3  1  0
M  END
>  <Title>  (12) 
idAAALgen9

$$$$

     RDKit          2D

 10 10  0  0  0  0  0  0  0  0999 V2000
    4.2760   -2.5981    0.0000 C   0  0  0  0  0  0  0  0  0  0  0  0
    3.5260   -1.2990    0.0000 C   0  0  0  0  0  0  0  0  0  0  0  0
    2.7760    0.0000    0.0000 C   0  0  0  0  0  0  0  0  0  0  0  0
    3.5260    1.2990    0.0000 O   0  0  0  0  0  0  0  0  0  0  0  0
    1.2760    0.0000    0.0000 C   0  0  0  0  0  0  0  0  0  0  0  0
    0.3943    1.2135    0.0000 C   0  0  0  0  0  0  0  0  0  0  0  0
    0.8578    2.6401    0.0000 C   0  0  0  0  0  0  0  0  0  0  0  0
   -1.0323    0.7500    0.0000 C   0  0  0  0  0  0  0  0  0  0  0  0
   -1.0323   -0.7500    0.0000 C   0  0  0  0  0  0  0  0  0  0  0  0
    0.3943   -1.2135    0.0000 C   0  0  0  0  0  0  0  0  0  0  0  0
  1  2  3  0
  2  3  1  0
  3  4  2  0
  3  5  1  0
  5  6  2  0
  6  7  1  0
  6  8  1  0
  8  9  1  0
  9 10  2  0
 10  5  1  0
M  END
>  <Title>  (13) 
idAAAMgen9

$$$$

     RDKit          2D

 35 37  0  0  0  0  0  0  0  0999 V2000
   -0.0000   12.9904    0.0000 C   0  0  0  0  0  0  0  0  0  0  0  0
    0.7500   11.6913    0.0000 C   0  0  0  0  0  0  0  0  0  0  0  0
    1.5000   10.3923    0.0000 C   0  0  0  0  0  0  0  0  0  0  0  0
    2.2500    9.0933    0.0000 C   0  0  0  0  0  0  0  0  0  0  0  0
    3.0000    7.7942    0.0000 C   0  0  0  0  0  0  0  0  0  0  0  0
    3.7500    6.4952    0.0000 C   0  0  0  0  0  0  0  0  0  0  0  0
    4.5000    5.1962    0.0000 C   0  0  0  0  0  0  0  0  0  0  0  0
    5.2500    3.8971    0.0000 C   0  0  0  0  0  0  0  0  0  0  0  0
    6.0000    2.5981    0.0000 C   0  0  0  0  0  0  0  0  0  0  0  0
    7.5000    2.5981    0.0000 C   0  0  0  0  0  0  0  0  0  0  0  0
    5.2500    1.2990    0.0000 C   0  0  0  0  0  0  0  0  0  0  0  0
    3.7500    1.2990    0.0000 C   0  0  0  0  0  0  0  0  0  0  0  0
    3.0000    2.5981    0.0000 O   0  0  0  0  0  0  0  0  0  0  0  0
    3.0000    0.0000    0.0000 N   0  0  0  0  0  0  0  0  0  0  0  0
    1.5000    0.0000    0.0000 C   0  0  0  0  0  0  0  0  0  0  0  0
    0.7500   -1.2990    0.0000 C   0  0  0  0  0  0  0  0  0  0  0  0
    1.5000   -2.5981    0.0000 C   0  0  0  0  0  0  0  0  0  0  0  0
    3.0000   -2.5981    0.0000 O   0  0  0  0  0  0  0  0  0  0  0  0
    0.7500   -3.8971    0.0000 N   0  0  0  0  0  0  0  0  0  0  0  0
    1.5000   -5.1962    0.0000 C   0  0  0  0  0  0  0  0  0  0  0  0
    2.9918   -5.3529    0.0000 N   0  0  0  0  0  0  0  0  0  0  0  0
    3.3037   -6.8202    0.0000 N   0  0  0  0  0  0  0  0  0  0  0  0
    2.0046   -7.5702    0.0000 N   0  0  0  0  0  0  0  0  0  0  0  0
    0.8899   -6.5665    0.0000 N   0  0  0  0  0  0  0  0  0  0  0  0
   -0.5773   -6.8783    0.0000 C   0  0  0  0  0  0  0  0  0  0  0  0
   -1.5810   -5.7636    0.0000 C   0  0  0  0  0  0  0  0  0  0  0  0
   -3.0482   -6.0755    0.0000 C   0  0  0  0  0  0  0  0  0  0  0  0
   -3.5118   -7.5021    0.0000 C   0  0  0  0  0  0  0  0  0  0  0  0
   -2.5081   -8.6168    0.0000 C   0  0  0  0  0  0  0  0  0  0  0  0
   -1.0409   -8.3049    0.0000 C   0  0  0  0  0  0  0  0  0  0  0  0
   -0.7500   -1.2990    0.0000 C   0  0  0  0  0  0  0  0  0  0  0  0
   -1.5000    0.0000    0.0000 C   0  0  0  0  0  0  0  0  0  0  0  0
   -0.7500    1.2990    0.0000 C   0  0  0  0  0  0  0  0  0  0  0  0
   -1.5000    2.5981    0.0000 C   0  0  0  0  0  0  0  0  0  0  0  0
    0.7500    1.2990    0.0000 N   0  0  0  0  0  0  0  0  0  0  0  0
  1  2  3  0
  2  3  1  0
  3  4  3  0
  4  5  1  0
  5  6  3  0
  6  7  1  0
  7  8  3  0
  8  9  1  0
  9 10  1  0
  9 11  1  0
 11 12  1  0
 12 13  2  0
 12 14  1  0
 14 15  1  0
 15 16  2  0
 16 17  1  0
 17 18  2  0
 17 19  1  0
 19 20  1  0
 20 21  2  0
 21 22  1  0
 22 23  2  0
 23 24  1  0
 24 25  1  0
 25 26  2  0
 26 27  1  0
 27 28  2  0
 28 29  1  0
 29 30  2  0
 16 31  1  0
 31 32  1  0
 32 33  1  0
 33 34  1  0
 33 35  1  0
 35 15  1  0
 24 20  1  0
 30 25  1  0
M  END
>  <Title>  (14) 
idAAANgen9

$$$$

     RDKit          2D

  8  8  0  0  0  0  0  0  0  0999 V2000
    4.5000    0.0000    0.0000 N   0  0  0  0  0  0  0  0  0  0  0  0
    3.0000    0.0000    0.0000 C   0  0  0  0  0  0  0  0  0  0  0  0
    1.5000    0.0000    0.0000 C   0  0  0  0  0  0  0  0  0  0  0  0
    0.7500   -1.2990    0.0000 C   0  0  0  0  0  0  0  0  0  0  0  0
   -0.7500   -1.2990    0.0000 C   0  0  0  0  0  0  0  0  0  0  0  0
   -1.5000    0.0000    0.0000 C   0  0  0  0  0  0  0  0  0  0  0  0
   -0.7500    1.2990    0.0000 C   0  0  0  0  0  0  0  0  0  0  0  0
    0.7500    1.2990    0.0000 C   0  0  0  0  0  0  0  0  0  0  0  0
  1  2  3  0
  2  3  1  0
  3  4  2  0
  4  5  1  0
  5  6  2  0
  6  7  1  0
  7  8  2  0
  8  3  1  0
M  END
>  <Title>  (15) 
idAAAOgen9

$$$$

     RDKit          2D

  7  7  0  0  0  0  0  0  0  0999 V2000
    4.2760   -0.0000    0.0000 N   0  0  0  0  0  0  0  0  0  0  0  0
    2.7760    0.0000    0.0000 C   0  0  0  0  0  0  0  0  0  0  0  0
    1.2760    0.0000    0.0000 C   0  0  0  0  0  0  0  0  0  0  0  0
    0.3943    1.2135    0.0000 C   0  0  0  0  0  0  0  0  0  0  0  0
   -1.0323    0.7500    0.0000 C   0  0  0  0  0  0  0  0  0  0  0  0
   -1.0323   -0.7500    0.0000 C   0  0  0  0  0  0  0  0  0  0  0  0
    0.3943   -1.2135    0.0000 C   0  0  0  0  0  0  0  0  0  0  0  0
  1  2  3  0
  2  3  1  0
  3  4  1  0
  4  5  1  0
  5  6  2  0
  6  7  1  0
  7  3  1  0
M  END
>  <Title>  (16) 
idAAAPgen9

$$$$

     RDKit          2D

 19 21  0  0  0  0  0  0  0  0999 V2000
    5.9262   -3.3786    0.0000 O   0  0  0  0  0  0  0  0  0  0  0  0
    5.4627   -1.9520    0.0000 C   0  0  0  0  0  0  0  0  0  0  0  0
    3.9955   -1.6402    0.0000 N   0  0  0  0  0  0  0  0  0  0  0  0
    2.9918   -2.7549    0.0000 C   0  0  0  0  0  0  0  0  0  0  0  0
    3.3037   -4.2221    0.0000 N   0  0  0  0  0  0  0  0  0  0  0  0
    2.0046   -4.9721    0.0000 N   0  0  0  0  0  0  0  0  0  0  0  0
    0.8899   -3.9684    0.0000 N   0  0  0  0  0  0  0  0  0  0  0  0
    1.5000   -2.5981    0.0000 N   0  0  0  0  0  0  0  0  0  0  0  0
    0.7500   -1.2990    0.0000 C   0  0  0  0  0  0  0  0  0  0  0  0
    1.5000    0.0000    0.0000 C   0  0  0  0  0  0  0  0  0  0  0  0
    0.7500    1.2990    0.0000 C   0  0  0  0  0  0  0  0  0  0  0  0
   -0.7500    1.2990    0.0000 C   0  0  0  0  0  0  0  0  0  0  0  0
   -1.5000    0.0000    0.0000 C   0  0  0  0  0  0  0  0  0  0  0  0
   -0.7500   -1.2990    0.0000 C   0  0  0  0  0  0  0  0  0  0  0  0
    6.4664   -0.8373    0.0000 C   0  0  0  0  0  0  0  0  0  0  0  0
    6.1545    0.6299    0.0000 C   0  0  0  0  0  0  0  0  0  0  0  0
    7.4536    1.3799    0.0000 C   0  0  0  0  0  0  0  0  0  0  0  0
    8.5683    0.3762    0.0000 C   0  0  0  0  0  0  0  0  0  0  0  0
    7.9582   -0.9941    0.0000 C   0  0  0  0  0  0  0  0  0  0  0  0
  1  2  2  0
  2  3  1  0
  3  4  1  0
  4  5  2  0
  5  6  1  0
  6  7  2  0
  7  8  1  0
  8  9  1  0
  9 10  2  0
 10 11  1  0
 11 12  2  0
 12 13  1  0
 13 14  2  0
  2 15  1  0
 15 16  2  0
 16 17  1  0
 17 18  2  0
 18 19  1  0
  8  4  1  0
 14  9  1  0
 19 15  1  0
M  END
>  <Title>  (17) 
idAAAQgen9

$$$$

     RDKit          2D

 19 21  0  0  0  0  0  0  0  0999 V2000
    5.9262   -3.3786    0.0000 O   0  0  0  0  0  0  0  0  0  0  0  0
    5.4627   -1.9520    0.0000 C   0  0  0  0  0  0  0  0  0  0  0  0
    3.9955   -1.6402    0.0000 N   0  0  0  0  0  0  0  0  0  0  0  0
    2.9918   -2.7549    0.0000 C   0  0  0  0  0  0  0  0  0  0  0  0
    3.3037   -4.2221    0.0000 N   0  0  0  0  0  0  0  0  0  0  0  0
    2.0046   -4.9721    0.0000 N   0  0  0  0  0  0  0  0  0  0  0  0
    0.8899   -3.9684    0.0000 N   0  0  0  0  0  0  0  0  0  0  0  0
    1.5000   -2.5981    0.0000 N   0  0  0  0  0  0  0  0  0  0  0  0
    0.7500   -1.2990    0.0000 C   0  0  0  0  0  0  0  0  0  0  0  0
    1.5000    0.0000    0.0000 C   0  0  0  0  0  0  0  0  0  0  0  0
    0.7500    1.2990    0.0000 C   0  0  0  0  0  0  0  0  0  0  0  0
   -0.7500    1.2990    0.0000 C   0  0  0  0  0  0  0  0  0  0  0  0
   -1.5000    0.0000    0.0000 C   0  0  0  0  0  0  0  0  0  0  0  0
   -0.7500   -1.2990    0.0000 C   0  0  0  0  0  0  0  0  0  0  0  0
    6.4664   -0.8373    0.0000 C   0  0  0  0  0  0  0  0  0  0  0  0
    6.1545    0.6299    0.0000 C   0  0  0  0  0  0  0  0  0  0  0  0
    7.4536    1.3799    0.0000 C   0  0  0  0  0  0  0  0  0  0  0  0
    8.5683    0.3762    0.0000 C   0  0  0  0  0  0  0  0  0  0  0  0
    7.9582   -0.9941    0.0000 C   0  0  0  0  0  0  0  0  0  0  0  0
  1  2  2  0
  2  3  1  0
  3  4  1  0
  4  5  2  0
  5  6  1  0
  6  7  2  0
  7  8  1  0
  8  9  1  0
  9 10  2  0
 10 11  1  0
 11 12  2  0
 12 13  1  0
 13 14  2  0
  2 15  1  0
 15 16  2  0
 16 17  1  0
 17 18  2  0
 18 19  1  0
  8  4  1  0
 14  9  1  0
 19 15  1  0
M  END
>  <Title>  (18) 
idAAARgen9

$$$$

     RDKit          2D

 19 21  0  0  0  0  0  0  0  0999 V2000
    5.9262   -3.3786    0.0000 O   0  0  0  0  0  0  0  0  0  0  0  0
    5.4627   -1.9520    0.0000 C   0  0  0  0  0  0  0  0  0  0  0  0
    3.9955   -1.6402    0.0000 N   0  0  0  0  0  0  0  0  0  0  0  0
    2.9918   -2.7549    0.0000 C   0  0  0  0  0  0  0  0  0  0  0  0
    3.3037   -4.2221    0.0000 N   0  0  0  0  0  0  0  0  0  0  0  0
    2.0046   -4.9721    0.0000 N   0  0  0  0  0  0  0  0  0  0  0  0
    0.8899   -3.9684    0.0000 N   0  0  0  0  0  0  0  0  0  0  0  0
    1.5000   -2.5981    0.0000 N   0  0  0  0  0  0  0  0  0  0  0  0
    0.7500   -1.2990    0.0000 C   0  0  0  0  0  0  0  0  0  0  0  0
    1.5000    0.0000    0.0000 C   0  0  0  0  0  0  0  0  0  0  0  0
    0.7500    1.2990    0.0000 C   0  0  0  0  0  0  0  0  0  0  0  0
   -0.7500    1.2990    0.0000 C   0  0  0  0  0  0  0  0  0  0  0  0
   -1.5000    0.0000    0.0000 C   0  0  0  0  0  0  0  0  0  0  0  0
   -0.7500   -1.2990    0.0000 C   0  0  0  0  0  0  0  0  0  0  0  0
    6.4664   -0.8373    0.0000 C   0  0  0  0  0  0  0  0  0  0  0  0
    6.1545    0.6299    0.0000 C   0  0  0  0  0  0  0  0  0  0  0  0
    7.4536    1.3799    0.0000 C   0  0  0  0  0  0  0  0  0  0  0  0
    8.5683    0.3762    0.0000 C   0  0  0  0  0  0  0  0  0  0  0  0
    7.9582   -0.9941    0.0000 C   0  0  0  0  0  0  0  0  0  0  0  0
  1  2  2  0
  2  3  1  0
  3  4  1  0
  4  5  2  0
  5  6  1  0
  6  7  2  0
  7  8  1  0
  8  9  1  0
  9 10  2  0
 10 11  1  0
 11 12  2  0
 12 13  1  0
 13 14  2  0
  2 15  1  0
 15 16  2  0
 16 17  1  0
 17 18  2  0
 18 19  1  0
  8  4  1  0
 14  9  1  0
 19 15  1  0
M  END
>  <Title>  (19) 
idAAASgen9

$$$$

     RDKit          2D

  9  9  0  0  0  0  0  0  0  0999 V2000
    4.5000    0.0000    0.0000 C   0  0  0  0  0  0  0  0  0  0  0  0
    3.0000    0.0000    0.0000 C   0  0  0  0  0  0  0  0  0  0  0  0
    1.5000    0.0000    0.0000 C   0  0  0  0  0  0  0  0  0  0  0  0
    0.7500   -1.2990    0.0000 C   0  0  0  0  0  0  0  0  0  0  0  0
   -0.7500   -1.2990    0.0000 C   0  0  0  0  0  0  0  0  0  0  0  0
   -1.5000   -2.5981    0.0000 C   0  0  0  0  0  0  0  0  0  0  0  0
   -1.5000    0.0000    0.0000 C   0  0  0  0  0  0  0  0  0  0  0  0
   -0.7500    1.2990    0.0000 C   0  0  0  0  0  0  0  0  0  0  0  0
    0.7500    1.2990    0.0000 N   0  0  0  0  0  0  0  0  0  0  0  0
  1  2  3  0
  2  3  1  0
  3  4  2  0
  4  5  1  0
  5  6  1  0
  5  7  2  0
  7  8  1  0
  8  9  2  0
  9  3  1  0
M  END
>  <Title>  (20) 
idAAATgen9

$$$$

     RDKit          2D

 14 15  0  0  0  0  0  0  0  0999 V2000
   -4.6904   -6.5871    0.0000 C   0  0  0  0  0  0  0  0  0  0  0  0
   -4.3786   -5.1199    0.0000 C   0  0  0  0  0  0  0  0  0  0  0  0
   -2.9520   -4.6564    0.0000 C   0  0  0  0  0  0  0  0  0  0  0  0
   -2.6401   -3.1891    0.0000 N   0  0  0  0  0  0  0  0  0  0  0  0
   -1.2135   -2.7256    0.0000 C   0  0  0  0  0  0  0  0  0  0  0  0
   -0.0000   -3.6073    0.0000 C   0  0  0  0  0  0  0  0  0  0  0  0
   -0.0000   -5.1073    0.0000 C   0  0  0  0  0  0  0  0  0  0  0  0
    1.2135   -2.7256    0.0000 N   0  0  0  0  0  0  0  0  0  0  0  0
    0.7500   -1.2990    0.0000 N   0  0  0  0  0  0  0  0  0  0  0  0
    1.5000    0.0000    0.0000 C   0  0  0  0  0  0  0  0  0  0  0  0
    0.7500    1.2990    0.0000 C   0  0  0  0  0  0  0  0  0  0  0  0
   -0.7500    1.2990    0.0000 C   0  0  0  0  0  0  0  0  0  0  0  0
   -1.5000    0.0000    0.0000 C   0  0  0  0  0  0  0  0  0  0  0  0
   -0.7500   -1.2990    0.0000 C   0  0  0  0  0  0  0  0  0  0  0  0
  1  2  1  0
  2  3  1  0
  3  4  1  0
  4  5  1  0
  5  6  2  0
  6  7  1  0
  6  8  1  0
  8  9  1  0
  9 10  1  0
 10 11  1  0
 11 12  2  0
 12 13  1  0
 13 14  2  0
 14  5  1  0
 14  9  1  0
M  END
>  <Title>  (21) 
idAAAUgen9

$$$$

     RDKit          2D

  7  7  0  0  0  0  0  0  0  0999 V2000
    3.0000    0.0000    0.0000 O   0  0  0  0  0  0  0  0  0  0  0  0
    1.5000    0.0000    0.0000 C   0  0  0  0  0  0  0  0  0  0  0  0
    0.7500   -1.2990    0.0000 C   0  0  0  0  0  0  0  0  0  0  0  0
   -0.7500   -1.2990    0.0000 C   0  0  0  0  0  0  0  0  0  0  0  0
   -1.5000    0.0000    0.0000 C   0  0  0  0  0  0  0  0  0  0  0  0
   -0.7500    1.2990    0.0000 C   0  0  0  0  0  0  0  0  0  0  0  0
    0.7500    1.2990    0.0000 C   0  0  0  0  0  0  0  0  0  0  0  0
  1  2  1  0
  2  3  2  0
  3  4  1  0
  4  5  2  0
  5  6  1  0
  6  7  2  0
  7  2  1  0
M  END
>  <Title>  (22) 
idAAAVgen9

$$$$

     RDKit          2D

 11 12  0  0  0  0  0  0  0  0999 V2000
   -3.0000   -2.5981    0.0000 C   0  0  0  0  0  0  0  0  0  0  0  0
   -1.5000   -2.5981    0.0000 C   0  0  0  0  0  0  0  0  0  0  0  0
   -0.7500   -3.8971    0.0000 N   0  0  0  0  0  0  0  0  0  0  0  0
    0.7500   -3.8971    0.0000 N   0  0  0  0  0  0  0  0  0  0  0  0
    1.5000   -2.5981    0.0000 N   0  0  0  0  0  0  0  0  0  0  0  0
    0.7500   -1.2990    0.0000 N   0  0  0  0  0  0  0  0  0  0  0  0
    1.5000    0.0000    0.0000 C   0  0  0  0  0  0  0  0  0  0  0  0
    0.7500    1.2990    0.0000 C   0  0  0  0  0  0  0  0  0  0  0  0
   -0.7500    1.2990    0.0000 C   0  0  0  0  0  0  0  0  0  0  0  0
   -1.5000    0.0000    0.0000 C   0  0  0  0  0  0  0  0  0  0  0  0
   -0.7500   -1.2990    0.0000 C   0  0  0  0  0  0  0  0  0  0  0  0
  1  2  1  0
  2  3  2  0
  3  4  1  0
  4  5  2  0
  5  6  1  0
  6  7  1  0
  7  8  1  0
  8  9  2  0
  9 10  1  0
 10 11  2  0
 11  2  1  0
 11  6  1  0
M  END
>  <Title>  (23) 
idAAAWgen9

$$$$

     RDKit          2D

 11 11  0  0  0  0  0  0  0  0999 V2000
    7.5000    0.0000    0.0000 C   0  0  0  0  0  0  0  0  0  0  0  0
    6.0000    0.0000    0.0000 C   0  0  0  0  0  0  0  0  0  0  0  0
    4.5000    0.0000    0.0000 C   0  0  0  0  0  0  0  0  0  0  0  0
    3.0000    0.0000    0.0000 C   0  0  0  0  0  0  0  0  0  0  0  0
    1.5000    0.0000    0.0000 C   0  0  0  0  0  0  0  0  0  0  0  0
    0.7500   -1.2990    0.0000 C   0  0  0  0  0  0  0  0  0  0  0  0
   -0.7500   -1.2990    0.0000 C   0  0  0  0  0  0  0  0  0  0  0  0
   -1.5000   -2.5981    0.0000 C   0  0  0  0  0  0  0  0  0  0  0  0
   -1.5000    0.0000    0.0000 C   0  0  0  0  0  0  0  0  0  0  0  0
   -0.7500    1.2990    0.0000 C   0  0  0  0  0  0  0  0  0  0  0  0
    0.7500    1.2990    0.0000 N   0  0  0  0  0  0  0  0  0  0  0  0
  1  2  3  0
  2  3  1  0
  3  4  3  0
  4  5  1  0
  5  6  2  0
  6  7  1  0
  7  8  1  0
  7  9  2  0
  9 10  1  0
 10 11  2  0
 11  5  1  0
M  END
>  <Title>  (24) 
idAAAXgen9

$$$$

     RDKit          2D

  5  5  0  0  0  0  0  0  0  0999 V2000
    1.2760    0.0000    0.0000 C   0  0  0  0  0  0  0  0  0  0  0  0
    0.3943    1.2135    0.0000 C   0  0  0  0  0  0  0  0  0  0  0  0
   -1.0323    0.7500    0.0000 C   0  0  0  0  0  0  0  0  0  0  0  0
   -1.0323   -0.7500    0.0000 C   0  0  0  0  0  0  0  0  0  0  0  0
    0.3943   -1.2135    0.0000 C   0  0  0  0  0  0  0  0  0  0  0  0
  1  2  2  0
  2  3  1  0
  3  4  1  0
  4  5  2  0
  5  1  1  0
M  END
>  <Title>  (25) 
idAAAYgen9

$$$$

     RDKit          2D

 15 15  0  0  0  0  0  0  0  0999 V2000
   16.2760   -0.0000    0.0000 C   0  0  0  0  0  0  0  0  0  0  0  0
   14.7760   -0.0000    0.0000 C   0  0  0  0  0  0  0  0  0  0  0  0
   13.2760   -0.0000    0.0000 C   0  0  0  0  0  0  0  0  0  0  0  0
   11.7760   -0.0000    0.0000 C   0  0  0  0  0  0  0  0  0  0  0  0
   10.2760   -0.0000    0.0000 C   0  0  0  0  0  0  0  0  0  0  0  0
    8.7760   -0.0000    0.0000 C   0  0  0  0  0  0  0  0  0  0  0  0
    7.2760   -0.0000    0.0000 C   0  0  0  0  0  0  0  0  0  0  0  0
    5.7760   -0.0000    0.0000 C   0  0  0  0  0  0  0  0  0  0  0  0
    4.2760   -0.0000    0.0000 C   0  0  0  0  0  0  0  0  0  0  0  0
    2.7760    0.0000    0.0000 C   0  0  0  0  0  0  0  0  0  0  0  0
    1.2760    0.0000    0.0000 C   0  0  0  0  0  0  0  0  0  0  0  0
    0.3943    1.2135    0.0000 C   0  0  0  0  0  0  0  0  0  0  0  0
   -1.0323    0.7500    0.0000 C   0  0  0  0  0  0  0  0  0  0  0  0
   -1.0323   -0.7500    0.0000 C   0  0  0  0  0  0  0  0  0  0  0  0
    0.3943   -1.2135    0.0000 C   0  0  0  0  0  0  0  0  0  0  0  0
  1  2  3  0
  2  3  1  0
  3  4  3  0
  4  5  1  0
  5  6  3  0
  6  7  1  0
  7  8  3  0
  8  9  1  0
  9 10  3  0
 10 11  1  0
 11 12  1  0
 12 13  2  0
 13 14  1  0
 14 15  2  0
 15 11  1  0
M  END
>  <Title>  (26) 
idAAAZgen9

$$$$

     RDKit          2D

  5  5  0  0  0  0  0  0  0  0999 V2000
    1.2760    0.0000    0.0000 C   0  0  0  0  0  0  0  0  0  0  0  0
    0.3943    1.2135    0.0000 C   0  0  0  0  0  0  0  0  0  0  0  0
   -1.0323    0.7500    0.0000 C   0  0  0  0  0  0  0  0  0  0  0  0
   -1.0323   -0.7500    0.0000 C   0  0  0  0  0  0  0  0  0  0  0  0
    0.3943   -1.2135    0.0000 C   0  0  0  0  0  0  0  0  0  0  0  0
  1  2  2  0
  2  3  1  0
  3  4  1  0
  4  5  2  0
  5  1  1  0
M  END
>  <Title>  (27) 
idAABAgen9

$$$$

     RDKit          2D

  7  7  0  0  0  0  0  0  0  0999 V2000
    4.2760   -0.0000    0.0000 N   0  0  0  0  0  0  0  0  0  0  0  0
    2.7760    0.0000    0.0000 C   0  0  0  0  0  0  0  0  0  0  0  0
    1.2760    0.0000    0.0000 C   0  0  0  0  0  0  0  0  0  0  0  0
    0.3943    1.2135    0.0000 C   0  0  0  0  0  0  0  0  0  0  0  0
   -1.0323    0.7500    0.0000 C   0  0  0  0  0  0  0  0  0  0  0  0
   -1.0323   -0.7500    0.0000 C   0  0  0  0  0  0  0  0  0  0  0  0
    0.3943   -1.2135    0.0000 C   0  0  0  0  0  0  0  0  0  0  0  0
  1  2  3  0
  2  3  1  0
  3  4  2  0
  4  5  1  0
  5  6  1  0
  6  7  2  0
  7  3  1  0
M  END
>  <Title>  (28) 
idAABBgen9

$$$$

     RDKit          2D

  5  5  0  0  0  0  0  0  0  0999 V2000
    1.2760    0.0000    0.0000 C   0  0  0  0  0  0  0  0  0  0  0  0
    0.3943    1.2135    0.0000 C   0  0  0  0  0  0  0  0  0  0  0  0
   -1.0323    0.7500    0.0000 C   0  0  0  0  0  0  0  0  0  0  0  0
   -1.0323   -0.7500    0.0000 C   0  0  0  0  0  0  0  0  0  0  0  0
    0.3943   -1.2135    0.0000 C   0  0  0  0  0  0  0  0  0  0  0  0
  1  2  2  0
  2  3  1  0
  3  4  1  0
  4  5  2  0
  5  1  1  0
M  END
>  <Title>  (29) 
idAABCgen9

$$$$

     RDKit          2D

  7  7  0  0  0  0  0  0  0  0999 V2000
    4.2760   -0.0000    0.0000 N   0  0  0  0  0  0  0  0  0  0  0  0
    2.7760    0.0000    0.0000 C   0  0  0  0  0  0  0  0  0  0  0  0
    1.2760    0.0000    0.0000 C   0  0  0  0  0  0  0  0  0  0  0  0
    0.3943    1.2135    0.0000 C   0  0  0  0  0  0  0  0  0  0  0  0
   -1.0323    0.7500    0.0000 C   0  0  0  0  0  0  0  0  0  0  0  0
   -1.0323   -0.7500    0.0000 C   0  0  0  0  0  0  0  0  0  0  0  0
    0.3943   -1.2135    0.0000 C   0  0  0  0  0  0  0  0  0  0  0  0
  1  2  3  0
  2  3  1  0
  3  4  2  0
  4  5  1  0
  5  6  1  0
  6  7  2  0
  7  3  1  0
M  END
>  <Title>  (30) 
idAABDgen9

$$$$

     RDKit          2D

 10 10  0  0  0  0  0  0  0  0999 V2000
    4.5000   -2.5981    0.0000 C   0  0  0  0  0  0  0  0  0  0  0  0
    3.7500   -1.2990    0.0000 C   0  0  0  0  0  0  0  0  0  0  0  0
    3.0000    0.0000    0.0000 C   0  0  0  0  0  0  0  0  0  0  0  0
    3.7500    1.2990    0.0000 O   0  0  0  0  0  0  0  0  0  0  0  0
    1.5000    0.0000    0.0000 C   0  0  0  0  0  0  0  0  0  0  0  0
    0.7500   -1.2990    0.0000 C   0  0  0  0  0  0  0  0  0  0  0  0
   -0.7500   -1.2990    0.0000 C   0  0  0  0  0  0  0  0  0  0  0  0
   -1.5000    0.0000    0.0000 C   0  0  0  0  0  0  0  0  0  0  0  0
   -0.7500    1.2990    0.0000 C   0  0  0  0  0  0  0  0  0  0  0  0
    0.7500    1.2990    0.0000 C   0  0  0  0  0  0  0  0  0  0  0  0
  1  2  3  0
  2  3  1  0
  3  4  2  0
  3  5  1  0
  5  6  2  0
  6  7  1  0
  7  8  2  0
  8  9  1  0
  9 10  2  0
 10  5  1  0
M  END
>  <Title>  (31) 
idAABEgen9

$$$$

     RDKit          2D

  7  7  0  0  0  0  0  0  0  0999 V2000
    4.2760   -0.0000    0.0000 N   0  0  0  0  0  0  0  0  0  0  0  0
    2.7760    0.0000    0.0000 C   0  0  0  0  0  0  0  0  0  0  0  0
    1.2760    0.0000    0.0000 C   0  0  0  0  0  0  0  0  0  0  0  0
    0.3943    1.2135    0.0000 C   0  0  0  0  0  0  0  0  0  0  0  0
   -1.0323    0.7500    0.0000 C   0  0  0  0  0  0  0  0  0  0  0  0
   -1.0323   -0.7500    0.0000 C   0  0  0  0  0  0  0  0  0  0  0  0
    0.3943   -1.2135    0.0000 C   0  0  0  0  0  0  0  0  0  0  0  0
  1  2  3  0
  2  3  1  0
  3  4  2  0
  4  5  1  0
  5  6  2  0
  6  7  1  0
  7  3  1  0
M  END
>  <Title>  (32) 
idAABFgen9

$$$$

     RDKit          2D

  5  5  0  0  0  0  0  0  0  0999 V2000
    1.2760    0.0000    0.0000 C   0  0  0  0  0  0  0  0  0  0  0  0
    0.3943    1.2135    0.0000 C   0  0  0  0  0  0  0  0  0  0  0  0
   -1.0323    0.7500    0.0000 C   0  0  0  0  0  0  0  0  0  0  0  0
   -1.0323   -0.7500    0.0000 C   0  0  0  0  0  0  0  0  0  0  0  0
    0.3943   -1.2135    0.0000 C   0  0  0  0  0  0  0  0  0  0  0  0
  1  2  2  0
  2  3  1  0
  3  4  1  0
  4  5  2  0
  5  1  1  0
M  END
>  <Title>  (33) 
idAABGgen9

$$$$

     RDKit          2D

  7  7  0  0  0  0  0  0  0  0999 V2000
    4.2760   -0.0000    0.0000 N   0  0  0  0  0  0  0  0  0  0  0  0
    2.7760    0.0000    0.0000 C   0  0  0  0  0  0  0  0  0  0  0  0
    1.2760    0.0000    0.0000 C   0  0  0  0  0  0  0  0  0  0  0  0
    0.3943    1.2135    0.0000 C   0  0  0  0  0  0  0  0  0  0  0  0
   -1.0323    0.7500    0.0000 C   0  0  0  0  0  0  0  0  0  0  0  0
   -1.0323   -0.7500    0.0000 C   0  0  0  0  0  0  0  0  0  0  0  0
    0.3943   -1.2135    0.0000 C   0  0  0  0  0  0  0  0  0  0  0  0
  1  2  3  0
  2  3  1  0
  3  4  2  0
  4  5  1  0
  5  6  2  0
  6  7  1  0
  7  3  1  0
M  END
>  <Title>  (34) 
idAABHgen9

$$$$

     RDKit          2D

  5  5  0  0  0  0  0  0  0  0999 V2000
    1.2760    0.0000    0.0000 C   0  0  0  0  0  0  0  0  0  0  0  0
    0.3943    1.2135    0.0000 C   0  0  0  0  0  0  0  0  0  0  0  0
   -1.0323    0.7500    0.0000 C   0  0  0  0  0  0  0  0  0  0  0  0
   -1.0323   -0.7500    0.0000 C   0  0  0  0  0  0  0  0  0  0  0  0
    0.3943   -1.2135    0.0000 C   0  0  0  0  0  0  0  0  0  0  0  0
  1  2  2  0
  2  3  1  0
  3  4  1  0
  4  5  2  0
  5  1  1  0
M  END
>  <Title>  (35) 
idAABIgen9

$$$$

     RDKit          2D

  7  7  0  0  0  0  0  0  0  0999 V2000
    4.2760   -0.0000    0.0000 N   0  0  0  0  0  0  0  0  0  0  0  0
    2.7760    0.0000    0.0000 C   0  0  0  0  0  0  0  0  0  0  0  0
    1.2760    0.0000    0.0000 C   0  0  0  0  0  0  0  0  0  0  0  0
    0.3943    1.2135    0.0000 C   0  0  0  0  0  0  0  0  0  0  0  0
   -1.0323    0.7500    0.0000 C   0  0  0  0  0  0  0  0  0  0  0  0
   -1.0323   -0.7500    0.0000 C   0  0  0  0  0  0  0  0  0  0  0  0
    0.3943   -1.2135    0.0000 C   0  0  0  0  0  0  0  0  0  0  0  0
  1  2  3  0
  2  3  1  0
  3  4  2  0
  4  5  1  0
  5  6  2  0
  6  7  1  0
  7  3  1  0
M  END
>  <Title>  (36) 
idAABJgen9

$$$$

     RDKit          2D

  5  5  0  0  0  0  0  0  0  0999 V2000
    1.2760    0.0000    0.0000 C   0  0  0  0  0  0  0  0  0  0  0  0
    0.3943    1.2135    0.0000 C   0  0  0  0  0  0  0  0  0  0  0  0
   -1.0323    0.7500    0.0000 C   0  0  0  0  0  0  0  0  0  0  0  0
   -1.0323   -0.7500    0.0000 C   0  0  0  0  0  0  0  0  0  0  0  0
    0.3943   -1.2135    0.0000 C   0  0  0  0  0  0  0  0  0  0  0  0
  1  2  2  0
  2  3  1  0
  3  4  1  0
  4  5  2  0
  5  1  1  0
M  END
>  <Title>  (37) 
idAABKgen9

$$$$

     RDKit          2D

  7  7  0  0  0  0  0  0  0  0999 V2000
    4.2760   -0.0000    0.0000 N   0  0  0  0  0  0  0  0  0  0  0  0
    2.7760    0.0000    0.0000 C   0  0  0  0  0  0  0  0  0  0  0  0
    1.2760    0.0000    0.0000 C   0  0  0  0  0  0  0  0  0  0  0  0
    0.3943    1.2135    0.0000 C   0  0  0  0  0  0  0  0  0  0  0  0
   -1.0323    0.7500    0.0000 C   0  0  0  0  0  0  0  0  0  0  0  0
   -1.0323   -0.7500    0.0000 C   0  0  0  0  0  0  0  0  0  0  0  0
    0.3943   -1.2135    0.0000 C   0  0  0  0  0  0  0  0  0  0  0  0
  1  2  3  0
  2  3  1  0
  3  4  2  0
  4  5  1  0
  5  6  2  0
  6  7  1  0
  7  3  1  0
M  END
>  <Title>  (38) 
idAABLgen9

$$$$

     RDKit          2D

  5  5  0  0  0  0  0  0  0  0999 V2000
    1.2760    0.0000    0.0000 C   0  0  0  0  0  0  0  0  0  0  0  0
    0.3943    1.2135    0.0000 C   0  0  0  0  0  0  0  0  0  0  0  0
   -1.0323    0.7500    0.0000 C   0  0  0  0  0  0  0  0  0  0  0  0
   -1.0323   -0.7500    0.0000 C   0  0  0  0  0  0  0  0  0  0  0  0
    0.3943   -1.2135    0.0000 C   0  0  0  0  0  0  0  0  0  0  0  0
  1  2  2  0
  2  3  1  0
  3  4  1  0
  4  5  2  0
  5  1  1  0
M  END
>  <Title>  (39) 
idAABMgen9

$$$$

     RDKit          2D

  7  7  0  0  0  0  0  0  0  0999 V2000
    4.2760   -0.0000    0.0000 N   0  0  0  0  0  0  0  0  0  0  0  0
    2.7760    0.0000    0.0000 C   0  0  0  0  0  0  0  0  0  0  0  0
    1.2760    0.0000    0.0000 C   0  0  0  0  0  0  0  0  0  0  0  0
    0.3943    1.2135    0.0000 C   0  0  0  0  0  0  0  0  0  0  0  0
   -1.0323    0.7500    0.0000 C   0  0  0  0  0  0  0  0  0  0  0  0
   -1.0323   -0.7500    0.0000 C   0  0  0  0  0  0  0  0  0  0  0  0
    0.3943   -1.2135    0.0000 C   0  0  0  0  0  0  0  0  0  0  0  0
  1  2  3  0
  2  3  1  0
  3  4  2  0
  4  5  1  0
  5  6  1  0
  6  7  2  0
  7  3  1  0
M  END
>  <Title>  (40) 
idAABNgen9

$$$$

     RDKit          2D

 17 17  0  0  0  0  0  0  0  0999 V2000
   10.2760   -0.0000    0.0000 C   0  0  0  0  0  0  0  0  0  0  0  0
    8.7760   -0.0000    0.0000 C   0  0  0  0  0  0  0  0  0  0  0  0
    7.2760   -0.0000    0.0000 C   0  0  0  0  0  0  0  0  0  0  0  0
    5.7760   -0.0000    0.0000 C   0  0  0  0  0  0  0  0  0  0  0  0
    4.2760   -0.0000    0.0000 C   0  0  0  0  0  0  0  0  0  0  0  0
    2.7760    0.0000    0.0000 C   0  0  0  0  0  0  0  0  0  0  0  0
    1.2760    0.0000    0.0000 C   0  0  0  0  0  0  0  0  0  0  0  0
    0.3943    1.2135    0.0000 C   0  0  0  0  0  0  0  0  0  0  0  0
   -1.0323    0.7500    0.0000 C   0  0  0  0  0  0  0  0  0  0  0  0
   -1.0323   -0.7500    0.0000 C   0  0  0  0  0  0  0  0  0  0  0  0
   -2.2458   -1.6317    0.0000 C   0  0  0  0  0  0  0  0  0  0  0  0
   -3.4593   -2.5134    0.0000 N   0  0  0  0  0  0  0  0  0  0  0  0
    0.3943   -1.2135    0.0000 C   0  0  0  0  0  0  0  0  0  0  0  0
    0.8578   -2.6401    0.0000 C   0  0  0  0  0  0  0  0  0  0  0  0
    1.3213   -4.0667    0.0000 C   0  0  0  0  0  0  0  0  0  0  0  0
    1.7849   -5.4933    0.0000 C   0  0  0  0  0  0  0  0  0  0  0  0
    2.2484   -6.9199    0.0000 C   0  0  0  0  0  0  0  0  0  0  0  0
  1  2  3  0
  2  3  1  0
  3  4  3  0
  4  5  1  0
  5  6  3  0
  6  7  1  0
  7  8  2  0
  8  9  1  0
  9 10  1  0
 10 11  1  0
 11 12  3  0
 10 13  2  0
 13 14  1  0
 14 15  3  0
 15 16  1  0
 16 17  3  0
 13  7  1  0
M  END
>  <Title>  (41) 
idAABOgen9

$$$$

     RDKit          2D

  7  7  0  0  0  0  0  0  0  0999 V2000
    4.2760   -0.0000    0.0000 C   0  0  0  0  0  0  0  0  0  0  0  0
    2.7760    0.0000    0.0000 C   0  0  0  0  0  0  0  0  0  0  0  0
    1.2760    0.0000    0.0000 C   0  0  0  0  0  0  0  0  0  0  0  0
    0.3943    1.2135    0.0000 C   0  0  0  0  0  0  0  0  0  0  0  0
   -1.0323    0.7500    0.0000 C   0  0  0  0  0  0  0  0  0  0  0  0
   -1.0323   -0.7500    0.0000 C   0  0  0  0  0  0  0  0  0  0  0  0
    0.3943   -1.2135    0.0000 C   0  0  0  0  0  0  0  0  0  0  0  0
  1  2  3  0
  2  3  1  0
  3  4  2  0
  4  5  1  0
  5  6  2  0
  6  7  1  0
  7  3  1  0
M  END
>  <Title>  (42) 
idAABPgen9

$$$$

     RDKit          2D

  7  7  0  0  0  0  0  0  0  0999 V2000
    4.2760   -0.0000    0.0000 N   0  0  0  0  0  0  0  0  0  0  0  0
    2.7760    0.0000    0.0000 C   0  0  0  0  0  0  0  0  0  0  0  0
    1.2760    0.0000    0.0000 C   0  0  0  0  0  0  0  0  0  0  0  0
    0.3943    1.2135    0.0000 C   0  0  0  0  0  0  0  0  0  0  0  0
   -1.0323    0.7500    0.0000 C   0  0  0  0  0  0  0  0  0  0  0  0
   -1.0323   -0.7500    0.0000 C   0  0  0  0  0  0  0  0  0  0  0  0
    0.3943   -1.2135    0.0000 C   0  0  0  0  0  0  0  0  0  0  0  0
  1  2  3  0
  2  3  1  0
  3  4  2  0
  4  5  1  0
  5  6  2  0
  6  7  1  0
  7  3  1  0
M  END
>  <Title>  (43) 
idAABQgen9

$$$$

     RDKit          2D

  7  7  0  0  0  0  0  0  0  0999 V2000
    4.2760   -0.0000    0.0000 C   0  0  0  0  0  0  0  0  0  0  0  0
    2.7760    0.0000    0.0000 C   0  0  0  0  0  0  0  0  0  0  0  0
    1.2760    0.0000    0.0000 C   0  0  0  0  0  0  0  0  0  0  0  0
    0.3943    1.2135    0.0000 C   0  0  0  0  0  0  0  0  0  0  0  0
   -1.0323    0.7500    0.0000 C   0  0  0  0  0  0  0  0  0  0  0  0
   -1.0323   -0.7500    0.0000 C   0  0  0  0  0  0  0  0  0  0  0  0
    0.3943   -1.2135    0.0000 C   0  0  0  0  0  0  0  0  0  0  0  0
  1  2  3  0
  2  3  1  0
  3  4  2  0
  4  5  1  0
  5  6  2  0
  6  7  1  0
  7  3  1  0
M  END
>  <Title>  (44) 
idAABRgen9

$$$$

     RDKit          2D

 11 11  0  0  0  0  0  0  0  0999 V2000
   10.2760   -0.0000    0.0000 N   0  0  0  0  0  0  0  0  0  0  0  0
    8.7760   -0.0000    0.0000 C   0  0  0  0  0  0  0  0  0  0  0  0
    7.2760   -0.0000    0.0000 C   0  0  0  0  0  0  0  0  0  0  0  0
    5.7760   -0.0000    0.0000 C   0  0  0  0  0  0  0  0  0  0  0  0
    4.2760   -0.0000    0.0000 C   0  0  0  0  0  0  0  0  0  0  0  0
    2.7760    0.0000    0.0000 C   0  0  0  0  0  0  0  0  0  0  0  0
    1.2760    0.0000    0.0000 C   0  0  0  0  0  0  0  0  0  0  0  0
    0.3943    1.2135    0.0000 C   0  0  0  0  0  0  0  0  0  0  0  0
   -1.0323    0.7500    0.0000 C   0  0  0  0  0  0  0  0  0  0  0  0
   -1.0323   -0.7500    0.0000 C   0  0  0  0  0  0  0  0  0  0  0  0
    0.3943   -1.2135    0.0000 C   0  0  0  0  0  0  0  0  0  0  0  0
  1  2  3  0
  2  3  1  0
  3  4  3  0
  4  5  1  0
  5  6  3  0
  6  7  1  0
  7  8  2  0
  8  9  1  0
  9 10  1  0
 10 11  2  0
 11  7  1  0
M  END
>  <Title>  (45) 
idAABSgen9

$$$$

     RDKit          2D

  7  7  0  0  0  0  0  0  0  0999 V2000
    4.2760   -0.0000    0.0000 C   0  0  0  0  0  0  0  0  0  0  0  0
    2.7760    0.0000    0.0000 C   0  0  0  0  0  0  0  0  0  0  0  0
    1.2760    0.0000    0.0000 C   0  0  0  0  0  0  0  0  0  0  0  0
    0.3943    1.2135    0.0000 C   0  0  0  0  0  0  0  0  0  0  0  0
   -1.0323    0.7500    0.0000 C   0  0  0  0  0  0  0  0  0  0  0  0
   -1.0323   -0.7500    0.0000 C   0  0  0  0  0  0  0  0  0  0  0  0
    0.3943   -1.2135    0.0000 C   0  0  0  0  0  0  0  0  0  0  0  0
  1  2  3  0
  2  3  1  0
  3  4  2  0
  4  5  1  0
  5  6  2  0
  6  7  1  0
  7  3  1  0
M  END
>  <Title>  (46) 
idAABTgen9

$$$$

     RDKit          2D

 16 16  0  0  0  0  0  0  0  0999 V2000
   16.2760   -0.0000    0.0000 C   0  0  0  0  0  0  0  0  0  0  0  0
   14.7760   -0.0000    0.0000 C   0  0  0  0  0  0  0  0  0  0  0  0
   13.2760   -0.0000    0.0000 C   0  0  0  0  0  0  0  0  0  0  0  0
   11.7760   -0.0000    0.0000 C   0  0  0  0  0  0  0  0  0  0  0  0
   10.2760   -0.0000    0.0000 C   0  0  0  0  0  0  0  0  0  0  0  0
    8.7760   -0.0000    0.0000 C   0  0  0  0  0  0  0  0  0  0  0  0
    7.2760   -0.0000    0.0000 C   0  0  0  0  0  0  0  0  0  0  0  0
    5.7760   -0.0000    0.0000 C   0  0  0  0  0  0  0  0  0  0  0  0
    4.2760   -0.0000    0.0000 C   0  0  0  0  0  0  0  0  0  0  0  0
    2.7760    0.0000    0.0000 C   0  0  0  0  0  0  0  0  0  0  0  0
    1.2760    0.0000    0.0000 C   0  0  0  0  0  0  0  0  0  0  0  0
    0.3943    1.2135    0.0000 C   0  0  0  0  0  0  0  0  0  0  0  0
    0.8578    2.6401    0.0000 O   0  0  0  0  0  0  0  0  0  0  0  0
   -1.0323    0.7500    0.0000 C   0  0  0  0  0  0  0  0  0  0  0  0
   -1.0323   -0.7500    0.0000 C   0  0  0  0  0  0  0  0  0  0  0  0
    0.3943   -1.2135    0.0000 C   0  0  0  0  0  0  0  0  0  0  0  0
  1  2  3  0
  2  3  1  0
  3  4  3  0
  4  5  1  0
  5  6  3  0
  6  7  1  0
  7  8  3  0
  8  9  1  0
  9 10  3  0
 10 11  1  0
 11 12  2  0
 12 13  1  0
 12 14  1  0
 14 15  2  0
 15 16  1  0
 16 11  1  0
M  END
>  <Title>  (47) 
idAABUgen9

$$$$

     RDKit          2D

  7  7  0  0  0  0  0  0  0  0999 V2000
    4.2760   -0.0000    0.0000 C   0  0  0  0  0  0  0  0  0  0  0  0
    2.7760    0.0000    0.0000 C   0  0  0  0  0  0  0  0  0  0  0  0
    1.2760    0.0000    0.0000 C   0  0  0  0  0  0  0  0  0  0  0  0
    0.3943    1.2135    0.0000 C   0  0  0  0  0  0  0  0  0  0  0  0
   -1.0323    0.7500    0.0000 C   0  0  0  0  0  0  0  0  0  0  0  0
   -1.0323   -0.7500    0.0000 C   0  0  0  0  0  0  0  0  0  0  0  0
    0.3943   -1.2135    0.0000 C   0  0  0  0  0  0  0  0  0  0  0  0
  1  2  3  0
  2  3  1  0
  3  4  2  0
  4  5  1  0
  5  6  2  0
  6  7  1  0
  7  3  1  0
M  END
>  <Title>  (48) 
idAABVgen9

$$$$

     RDKit          2D

 13 13  0  0  0  0  0  0  0  0999 V2000
   10.2760   -0.0000    0.0000 C   0  0  0  0  0  0  0  0  0  0  0  0
    8.7760   -0.0000    0.0000 C   0  0  0  0  0  0  0  0  0  0  0  0
    7.2760   -0.0000    0.0000 C   0  0  0  0  0  0  0  0  0  0  0  0
    5.7760   -0.0000    0.0000 C   0  0  0  0  0  0  0  0  0  0  0  0
    4.2760   -0.0000    0.0000 C   0  0  0  0  0  0  0  0  0  0  0  0
    2.7760    0.0000    0.0000 C   0  0  0  0  0  0  0  0  0  0  0  0
    1.2760    0.0000    0.0000 C   0  0  0  0  0  0  0  0  0  0  0  0
    0.3943    1.2135    0.0000 C   0  0  0  0  0  0  0  0  0  0  0  0
    0.8578    2.6401    0.0000 C   0  0  0  0  0  0  0  0  0  0  0  0
    1.3213    4.0667    0.0000 N   0  0  0  0  0  0  0  0  0  0  0  0
   -1.0323    0.7500    0.0000 C   0  0  0  0  0  0  0  0  0  0  0  0
   -1.0323   -0.7500    0.0000 C   0  0  0  0  0  0  0  0  0  0  0  0
    0.3943   -1.2135    0.0000 C   0  0  0  0  0  0  0  0  0  0  0  0
  1  2  3  0
  2  3  1  0
  3  4  3  0
  4  5  1  0
  5  6  3  0
  6  7  1  0
  7  8  2  0
  8  9  1  0
  9 10  3  0
  8 11  1  0
 11 12  2  0
 12 13  1  0
 13  7  1  0
M  END
>  <Title>  (49) 
idAABWgen9

$$$$

     RDKit          2D

  7  7  0  0  0  0  0  0  0  0999 V2000
    4.2760   -0.0000    0.0000 C   0  0  0  0  0  0  0  0  0  0  0  0
    2.7760    0.0000    0.0000 C   0  0  0  0  0  0  0  0  0  0  0  0
    1.2760    0.0000    0.0000 C   0  0  0  0  0  0  0  0  0  0  0  0
    0.3943    1.2135    0.0000 C   0  0  0  0  0  0  0  0  0  0  0  0
   -1.0323    0.7500    0.0000 C   0  0  0  0  0  0  0  0  0  0  0  0
   -1.0323   -0.7500    0.0000 C   0  0  0  0  0  0  0  0  0  0  0  0
    0.3943   -1.2135    0.0000 C   0  0  0  0  0  0  0  0  0  0  0  0
  1  2  3  0
  2  3  1  0
  3  4  2  0
  4  5  1  0
  5  6  2  0
  6  7  1  0
  7  3  1  0
M  END
>  <Title>  (50) 
idAABXgen9

$$$$

     RDKit          2D

 16 17  0  0  0  0  0  0  0  0999 V2000
    3.0000    0.0000    0.0000 C   0  0  0  0  0  0  0  0  0  0  0  0
    1.5000    0.0000    0.0000 C   0  0  0  0  0  0  0  0  0  0  0  0
    0.7500   -1.2990    0.0000 C   0  0  0  0  0  0  0  0  0  0  0  0
   -0.7500   -1.2990    0.0000 C   0  0  0  0  0  0  0  0  0  0  0  0
   -1.5000   -2.5981    0.0000 C   0  0  0  0  0  0  0  0  0  0  0  0
   -1.5000    0.0000    0.0000 N   0  0  0  0  0  0  0  0  0  0  0  0
   -0.7500    1.2990    0.0000 C   0  0  0  0  0  0  0  0  0  0  0  0
    0.7500    1.2990    0.0000 C   0  0  0  0  0  0  0  0  0  0  0  0
    1.5000    2.5981    0.0000 N   0  0  0  0  0  0  0  0  0  0  0  0
    0.7500    3.8971    0.0000 C   0  0  0  0  0  0  0  0  0  0  0  0
   -0.7500    3.8971    0.0000 O   0  0  0  0  0  0  0  0  0  0  0  0
    1.5000    5.1962    0.0000 C   0  0  0  0  0  0  0  0  0  0  0  0
    0.8899    6.5665    0.0000 C   0  0  0  0  0  0  0  0  0  0  0  0
    2.0046    7.5702    0.0000 C   0  0  0  0  0  0  0  0  0  0  0  0
    3.3037    6.8202    0.0000 C   0  0  0  0  0  0  0  0  0  0  0  0
    2.9918    5.3529    0.0000 C   0  0  0  0  0  0  0  0  0  0  0  0
  1  2  1  0
  2  3  2  0
  3  4  1  0
  4  5  1  0
  4  6  1  0
  6  7  1  0
  7  8  1  0
  8  9  1  0
  9 10  1  0
 10 11  2  0
 10 12  1  0
 12 13  2  0
 13 14  1  0
 14 15  2  0
 15 16  1  0
  8  2  1  0
 16 12  1  0
M  END
>  <Title>  (51) 
idAAAAgen9

$$$$

     RDKit          2D

 20 22  0  0  0  0  0  0  0  0999 V2000
   -3.0000   -2.5981    0.0000 C   0  0  0  0  0  0  0  0  0  0  0  0
   -1.5000   -2.5981    0.0000 N   0  0  0  0  0  0  0  0  0  0  0  0
   -0.7500   -3.8971    0.0000 C   0  0  0  0  0  0  0  0  0  0  0  0
    0.7500   -3.8971    0.0000 C   0  0  0  0  0  0  0  0  0  0  0  0
    1.5000   -2.5981    0.0000 C   0  0  0  0  0  0  0  0  0  0  0  0
    3.0000   -2.5981    0.0000 C   0  0  0  0  0  0  0  0  0  0  0  0
    3.7500   -1.2990    0.0000 O   0  0  0  0  0  0  0  0  0  0  0  0
    3.7500   -3.8971    0.0000 N   0  0  0  0  0  0  0  0  0  0  0  0
    5.2500   -3.8971    0.0000 C   0  0  0  0  0  0  0  0  0  0  0  0
    6.0000   -5.1962    0.0000 N   0  0  0  0  0  0  0  0  0  0  0  0
    7.5000   -5.1962    0.0000 N   0  0  0  0  0  0  0  0  0  0  0  0
    8.2500   -3.8971    0.0000 N   0  0  0  0  0  0  0  0  0  0  0  0
    7.5000   -2.5981    0.0000 N   0  0  0  0  0  0  0  0  0  0  0  0
    6.0000   -2.5981    0.0000 N   0  0  0  0  0  0  0  0  0  0  0  0
    0.7500   -1.2990    0.0000 C   0  0  0  0  0  0  0  0  0  0  0  0
    1.5000    0.0000    0.0000 C   0  0  0  0  0  0  0  0  0  0  0  0
    0.7500    1.2990    0.0000 C   0  0  0  0  0  0  0  0  0  0  0  0
   -0.7500    1.2990    0.0000 C   0  0  0  0  0  0  0  0  0  0  0  0
   -1.5000    0.0000    0.0000 C   0  0  0  0  0  0  0  0  0  0  0  0
   -0.7500   -1.2990    0.0000 C   0  0  0  0  0  0  0  0  0  0  0  0
  1  2  1  0
  2  3  1  0
  3  4  1  0
  4  5  1  0
  5  6  1  0
  6  7  2  0
  6  8  1  0
  8  9  1  0
  9 10  2  0
 10 11  1  0
 11 12  2  0
 12 13  1  0
 13 14  2  0
  5 15  1  0
 15 16  2  0
 16 17  1  0
 17 18  2  0
 18 19  1  0
 19 20  2  0
 20  2  1  0
 14  9  1  0
 20 15  1  0
M  END
>  <Title>  (52) 
idAAABgen9

$$$$

     RDKit          2D

  7  7  0  0  0  0  0  0  0  0999 V2000
    3.0000    0.0000    0.0000 C   0  0  0  0  0  0  0  0  0  0  0  0
    1.5000    0.0000    0.0000 C   0  0  0  0  0  0  0  0  0  0  0  0
    0.7500   -1.2990    0.0000 C   0  0  0  0  0  0  0  0  0  0  0  0
   -0.7500   -1.2990    0.0000 C   0  0  0  0  0  0  0  0  0  0  0  0
   -1.5000    0.0000    0.0000 C   0  0  0  0  0  0  0  0  0  0  0  0
   -0.7500    1.2990    0.0000 C   0  0  0  0  0  0  0  0  0  0  0  0
    0.7500    1.2990    0.0000 C   0  0  0  0  0  0  0  0  0  0  0  0
  1  2  1  0
  2  3  2  0
  3  4  1  0
  4  5  1  0
  5  6  2  0
  6  7  1  0
  7  2  1  0
M  END
>  <Title>  (53) 
idAAACgen9

$$$$

     RDKit          2D

 14 15  0  0  0  0  0  0  0  0999 V2000
    3.3107   -8.3323    0.0000 C   0  0  0  0  0  0  0  0  0  0  0  0
    2.5607   -7.0333    0.0000 C   0  0  0  0  0  0  0  0  0  0  0  0
    1.1118   -6.6450    0.0000 C   0  0  0  0  0  0  0  0  0  0  0  0
    1.5000   -5.1962    0.0000 C   0  0  0  0  0  0  0  0  0  0  0  0
    0.7500   -3.8971    0.0000 C   0  0  0  0  0  0  0  0  0  0  0  0
   -0.7500   -3.8971    0.0000 O   0  0  0  0  0  0  0  0  0  0  0  0
    1.5000   -2.5981    0.0000 N   0  0  0  0  0  0  0  0  0  0  0  0
    0.7500   -1.2990    0.0000 C   0  0  0  0  0  0  0  0  0  0  0  0
    1.5000    0.0000    0.0000 N   0  0  0  0  0  0  0  0  0  0  0  0
    0.7500    1.2990    0.0000 N   0  0  0  0  0  0  0  0  0  0  0  0
   -0.7500    1.2990    0.0000 N   0  0  0  0  0  0  0  0  0  0  0  0
   -1.5000    0.0000    0.0000 N   0  0  0  0  0  0  0  0  0  0  0  0
   -0.7500   -1.2990    0.0000 N   0  0  0  0  0  0  0  0  0  0  0  0
    2.9489   -5.5844    0.0000 C   0  0  0  0  0  0  0  0  0  0  0  0
  1  2  1  0
  2  3  2  0
  3  4  1  0
  4  5  1  0
  5  6  2  0
  5  7  1  0
  7  8  1  0
  8  9  2  0
  9 10  1  0
 10 11  2  0
 11 12  1  0
 12 13  2  0
  4 14  1  0
 14  2  1  0
 13  8  1  0
M  END
>  <Title>  (54) 
idAAADgen9

$$$$

     RDKit          2D

 11 12  0  0  0  0  0  0  0  0999 V2000
    2.3250    2.9520    0.0000 C   0  0  0  0  0  0  0  0  0  0  0  0
    0.8578    2.6401    0.0000 N   0  0  0  0  0  0  0  0  0  0  0  0
   -0.1459    3.7548    0.0000 C   0  0  0  0  0  0  0  0  0  0  0  0
    0.3177    5.1814    0.0000 C   0  0  0  0  0  0  0  0  0  0  0  0
    0.0058    6.6486    0.0000 C   0  0  0  0  0  0  0  0  0  0  0  0
    1.4324    6.1851    0.0000 C   0  0  0  0  0  0  0  0  0  0  0  0
    0.3943    1.2135    0.0000 C   0  0  0  0  0  0  0  0  0  0  0  0
    1.2760    0.0000    0.0000 C   0  0  0  0  0  0  0  0  0  0  0  0
    0.3943   -1.2135    0.0000 C   0  0  0  0  0  0  0  0  0  0  0  0
   -1.0323   -0.7500    0.0000 C   0  0  0  0  0  0  0  0  0  0  0  0
   -1.0323    0.7500    0.0000 C   0  0  0  0  0  0  0  0  0  0  0  0
  1  2  1  0
  2  3  1  0
  3  4  1  0
  4  5  1  0
  5  6  1  0
  2  7  1  0
  7  8  2  0
  8  9  1  0
  9 10  2  0
 10 11  1  0
  6  4  1  0
 11  7  1  0
M  END
>  <Title>  (55) 
idAAAEgen9

$$$$

     RDKit          2D

  7  6  0  0  0  0  0  0  0  0999 V2000
    0.0000    0.0000    0.0000 C   0  0  0  0  0  0  0  0  0  0  0  0
   -0.0000   -1.5000    0.0000 C   0  0  0  0  0  0  0  0  0  0  0  0
   -0.0000   -3.0000    0.0000 C   0  0  0  0  0  0  0  0  0  0  0  0
   -0.0000   -4.5000    0.0000 C   0  0  0  0  0  0  0  0  0  0  0  0
   -0.0000   -6.0000    0.0000 C   0  0  0  0  0  0  0  0  0  0  0  0
   -0.0000   -7.5000    0.0000 C   0  0  0  0  0  0  0  0  0  0  0  0
   -0.0000   -9.0000    0.0000 C   0  0  0  0  0  0  0  0  0  0  0  0
  1  2  3  0
  2  3  1  0
  3  4  3  0
  4  5  1  0
  5  6  3  0
  6  7  1  0
M  END
>  <Title>  (56) 
idAAAFgen9

$$$$

     RDKit          2D

  4  3  0  0  0  0  0  0  0  0999 V2000
    0.0000    0.0000    0.0000 C   0  0  0  0  0  0  0  0  0  0  0  0
    1.2990    0.7500    0.0000 C   0  0  0  0  0  0  0  0  0  0  0  0
    2.5981   -0.0000    0.0000 C   0  0  0  0  0  0  0  0  0  0  0  0
    3.8971    0.7500    0.0000 C   0  0  0  0  0  0  0  0  0  0  0  0
  1  2  1  0
  2  3  2  3
  3  4  1  0
M  END
>  <Title>  (57) 
idAAAGgen9

$$$$

     RDKit          2D

120120  0  0  0  0  0  0  0  0999 V2000
   29.9125    0.0000    0.0000 C   0  0  0  0  0  0  0  0  0  0  0  0
   28.4125    0.0000    0.0000 C   0  0  0  0  0  0  0  0  0  0  0  0
   28.3729    1.4995    0.0000 C   0  0  0  0  0  0  0  0  0  0  0  0
   28.2542    2.9948    0.0000 C   0  0  0  0  0  0  0  0  0  0  0  0
   28.0568    4.4817    0.0000 C   0  0  0  0  0  0  0  0  0  0  0  0
   27.7811    5.9562    0.0000 C   0  0  0  0  0  0  0  0  0  0  0  0
   27.4281    7.4140    0.0000 C   0  0  0  0  0  0  0  0  0  0  0  0
   26.9986    8.8512    0.0000 C   0  0  0  0  0  0  0  0  0  0  0  0
   26.4938   10.2638    0.0000 C   0  0  0  0  0  0  0  0  0  0  0  0
   25.9152   11.6477    0.0000 C   0  0  0  0  0  0  0  0  0  0  0  0
   25.2644   12.9991    0.0000 C   0  0  0  0  0  0  0  0  0  0  0  0
   24.5432   14.3144    0.0000 C   0  0  0  0  0  0  0  0  0  0  0  0
   23.7535   15.5897    0.0000 C   0  0  0  0  0  0  0  0  0  0  0  0
   22.8977   16.8216    0.0000 C   0  0  0  0  0  0  0  0  0  0  0  0
   21.9780   18.0065    0.0000 C   0  0  0  0  0  0  0  0  0  0  0  0
   20.9971   19.1413    0.0000 C   0  0  0  0  0  0  0  0  0  0  0  0
   19.9576   20.2228    0.0000 C   0  0  0  0  0  0  0  0  0  0  0  0
   18.8625   21.2479    0.0000 C   0  0  0  0  0  0  0  0  0  0  0  0
   17.7149   22.2138    0.0000 C   0  0  0  0  0  0  0  0  0  0  0  0
   16.5179   23.1177    0.0000 C   0  0  0  0  0  0  0  0  0  0  0  0
   15.2748   23.9572    0.0000 C   0  0  0  0  0  0  0  0  0  0  0  0
   13.9892   24.7300    0.0000 C   0  0  0  0  0  0  0  0  0  0  0  0
   12.6645   25.4338    0.0000 C   0  0  0  0  0  0  0  0  0  0  0  0
   11.3046   26.0667    0.0000 C   0  0  0  0  0  0  0  0  0  0  0  0
    9.9132   26.6270    0.0000 C   0  0  0  0  0  0  0  0  0  0  0  0
    8.4941   27.1131    0.0000 C   0  0  0  0  0  0  0  0  0  0  0  0
    7.0514   27.5236    0.0000 C   0  0  0  0  0  0  0  0  0  0  0  0
    5.5890   27.8573    0.0000 C   0  0  0  0  0  0  0  0  0  0  0  0
    4.1110   28.1135    0.0000 C   0  0  0  0  0  0  0  0  0  0  0  0
    2.6216   28.2913    0.0000 C   0  0  0  0  0  0  0  0  0  0  0  0
    1.1248   28.3902    0.0000 C   0  0  0  0  0  0  0  0  0  0  0  0
   -0.3750   28.4100    0.0000 C   0  0  0  0  0  0  0  0  0  0  0  0
   -1.8739   28.3506    0.0000 C   0  0  0  0  0  0  0  0  0  0  0  0
   -3.3675   28.2122    0.0000 C   0  0  0  0  0  0  0  0  0  0  0  0
   -4.8517   27.9952    0.0000 C   0  0  0  0  0  0  0  0  0  0  0  0
   -6.3224   27.7001    0.0000 C   0  0  0  0  0  0  0  0  0  0  0  0
   -7.7754   27.3278    0.0000 C   0  0  0  0  0  0  0  0  0  0  0  0
   -9.2068   26.8794    0.0000 C   0  0  0  0  0  0  0  0  0  0  0  0
  -10.6126   26.3560    0.0000 C   0  0  0  0  0  0  0  0  0  0  0  0
  -11.9887   25.7592    0.0000 C   0  0  0  0  0  0  0  0  0  0  0  0
  -13.3315   25.0906    0.0000 C   0  0  0  0  0  0  0  0  0  0  0  0
  -14.6371   24.3521    0.0000 C   0  0  0  0  0  0  0  0  0  0  0  0
  -15.9019   23.5457    0.0000 C   0  0  0  0  0  0  0  0  0  0  0  0
  -17.1223   22.6736    0.0000 C   0  0  0  0  0  0  0  0  0  0  0  0
  -18.2951   21.7384    0.0000 C   0  0  0  0  0  0  0  0  0  0  0  0
  -19.4168   20.7426    0.0000 C   0  0  0  0  0  0  0  0  0  0  0  0
  -20.4845   19.6889    0.0000 C   0  0  0  0  0  0  0  0  0  0  0  0
  -21.4950   18.5804    0.0000 C   0  0  0  0  0  0  0  0  0  0  0  0
  -22.4456   17.4201    0.0000 C   0  0  0  0  0  0  0  0  0  0  0  0
  -23.3337   16.2113    0.0000 C   0  0  0  0  0  0  0  0  0  0  0  0
  -24.1568   14.9572    0.0000 C   0  0  0  0  0  0  0  0  0  0  0  0
  -24.9125   13.6615    0.0000 C   0  0  0  0  0  0  0  0  0  0  0  0
  -25.5987   12.3277    0.0000 C   0  0  0  0  0  0  0  0  0  0  0  0
  -26.2137   10.9595    0.0000 C   0  0  0  0  0  0  0  0  0  0  0  0
  -26.7555    9.5608    0.0000 C   0  0  0  0  0  0  0  0  0  0  0  0
  -27.2228    8.1355    0.0000 C   0  0  0  0  0  0  0  0  0  0  0  0
  -27.6142    6.6874    0.0000 C   0  0  0  0  0  0  0  0  0  0  0  0
  -27.9287    5.2208    0.0000 C   0  0  0  0  0  0  0  0  0  0  0  0
  -28.1653    3.7396    0.0000 C   0  0  0  0  0  0  0  0  0  0  0  0
  -28.3234    2.2479    0.0000 C   0  0  0  0  0  0  0  0  0  0  0  0
  -28.4026    0.7500    0.0000 C   0  0  0  0  0  0  0  0  0  0  0  0
  -28.4026   -0.7500    0.0000 C   0  0  0  0  0  0  0  0  0  0  0  0
  -28.3234   -2.2479    0.0000 C   0  0  0  0  0  0  0  0  0  0  0  0
  -28.1653   -3.7396    0.0000 C   0  0  0  0  0  0  0  0  0  0  0  0
  -27.9287   -5.2208    0.0000 C   0  0  0  0  0  0  0  0  0  0  0  0
  -27.6142   -6.6874    0.0000 C   0  0  0  0  0  0  0  0  0  0  0  0
  -27.2228   -8.1355    0.0000 C   0  0  0  0  0  0  0  0  0  0  0  0
  -26.7555   -9.5608    0.0000 C   0  0  0  0  0  0  0  0  0  0  0  0
  -26.2137  -10.9595    0.0000 C   0  0  0  0  0  0  0  0  0  0  0  0
  -25.5987  -12.3277    0.0000 C   0  0  0  0  0  0  0  0  0  0  0  0
  -24.9125  -13.6615    0.0000 C   0  0  0  0  0  0  0  0  0  0  0  0
  -24.1568  -14.9572    0.0000 C   0  0  0  0  0  0  0  0  0  0  0  0
  -23.3337  -16.2113    0.0000 C   0  0  0  0  0  0  0  0  0  0  0  0
  -22.4456  -17.4201    0.0000 C   0  0  0  0  0  0  0  0  0  0  0  0
  -21.4950  -18.5804    0.0000 C   0  0  0  0  0  0  0  0  0  0  0  0
  -20.4845  -19.6889    0.0000 C   0  0  0  0  0  0  0  0  0  0  0  0
  -19.4168  -20.7426    0.0000 C   0  0  0  0  0  0  0  0  0  0  0  0
  -18.2951  -21.7384    0.0000 C   0  0  0  0  0  0  0  0  0  0  0  0
  -17.1223  -22.6736    0.0000 C   0  0  0  0  0  0  0  0  0  0  0  0
  -15.9019  -23.5457    0.0000 C   0  0  0  0  0  0  0  0  0  0  0  0
  -14.6371  -24.3521    0.0000 C   0  0  0  0  0  0  0  0  0  0  0  0
  -13.3315  -25.0906    0.0000 C   0  0  0  0  0  0  0  0  0  0  0  0
  -11.9887  -25.7592    0.0000 C   0  0  0  0  0  0  0  0  0  0  0  0
  -10.6126  -26.3560    0.0000 C   0  0  0  0  0  0  0  0  0  0  0  0
   -9.2068  -26.8794    0.0000 C   0  0  0  0  0  0  0  0  0  0  0  0
   -7.7754  -27.3278    0.0000 C   0  0  0  0  0  0  0  0  0  0  0  0
   -6.3224  -27.7001    0.0000 C   0  0  0  0  0  0  0  0  0  0  0  0
   -4.8517  -27.9952    0.0000 C   0  0  0  0  0  0  0  0  0  0  0  0
   -3.3675  -28.2122    0.0000 C   0  0  0  0  0  0  0  0  0  0  0  0
   -1.8739  -28.3506    0.0000 C   0  0  0  0  0  0  0  0  0  0  0  0
   -0.3750  -28.4100    0.0000 C   0  0  0  0  0  0  0  0  0  0  0  0
    1.1248  -28.3902    0.0000 C   0  0  0  0  0  0  0  0  0  0  0  0
    2.6216  -28.2913    0.0000 C   0  0  0  0  0  0  0  0  0  0  0  0
    4.1110  -28.1135    0.0000 C   0  0  0  0  0  0  0  0  0  0  0  0
    5.5890  -27.8573    0.0000 C   0  0  0  0  0  0  0  0  0  0  0  0
    7.0514  -27.5236    0.0000 C   0  0  0  0  0  0  0  0  0  0  0  0
    8.4941  -27.1131    0.0000 C   0  0  0  0  0  0  0  0  0  0  0  0
    9.9132  -26.6270    0.0000 C   0  0  0  0  0  0  0  0  0  0  0  0
   11.3046  -26.0667    0.0000 C   0  0  0  0  0  0  0  0  0  0  0  0
   12.6645  -25.4338    0.0000 C   0  0  0  0  0  0  0  0  0  0  0  0
   13.9892  -24.7300    0.0000 C   0  0  0  0  0  0  0  0  0  0  0  0
   15.2748  -23.9572    0.0000 C   0  0  0  0  0  0  0  0  0  0  0  0
   16.5179  -23.1177    0.0000 C   0  0  0  0  0  0  0  0  0  0  0  0
   17.7149  -22.2138    0.0000 C   0  0  0  0  0  0  0  0  0  0  0  0
   18.8625  -21.2479    0.0000 C   0  0  0  0  0  0  0  0  0  0  0  0
   19.9576  -20.2228    0.0000 C   0  0  0  0  0  0  0  0  0  0  0  0
   20.9971  -19.1413    0.0000 C   0  0  0  0  0  0  0  0  0  0  0  0
   21.9780  -18.0065    0.0000 C   0  0  0  0  0  0  0  0  0  0  0  0
   22.8977  -16.8216    0.0000 C   0  0  0  0  0  0  0  0  0  0  0  0
   23.7535  -15.5897    0.0000 C   0  0  0  0  0  0  0  0  0  0  0  0
   24.5432  -14.3144    0.0000 C   0  0  0  0  0  0  0  0  0  0  0  0
   25.2644  -12.9991    0.0000 C   0  0  0  0  0  0  0  0  0  0  0  0
   25.9152  -11.6477    0.0000 C   0  0  0  0  0  0  0  0  0  0  0  0
   26.4938  -10.2638    0.0000 C   0  0  0  0  0  0  0  0  0  0  0  0
   26.9986   -8.8512    0.0000 C   0  0  0  0  0  0  0  0  0  0  0  0
   27.4281   -7.4140    0.0000 C   0  0  0  0  0  0  0  0  0  0  0  0
   27.7811   -5.9562    0.0000 C   0  0  0  0  0  0  0  0  0  0  0  0
   28.0568   -4.4817    0.0000 C   0  0  0  0  0  0  0  0  0  0  0  0
   28.2542   -2.9948    0.0000 C   0  0  0  0  0  0  0  0  0  0  0  0
   28.3729   -1.4995    0.0000 C   0  0  0  0  0  0  0  0  0  0  0  0
  1  2  1  0
  2  3  1  0
  3  4  1  0
  4  5  1  0
  5  6  1  0
  6  7  1  0
  7  8  1  0
  8  9  1  0
  9 10  1  0
 10 11  1  0
 11 12  1  0
 12 13  1  0
 13 14  1  0
 14 15  1  0
 15 16  1  0
 16 17  1  0
 17 18  1  0
 18 19  1  0
 19 20  1  0
 20 21  1  0
 21 22  1  0
 22 23  1  0
 23 24  1  0
 24 25  1  0
 25 26  1  0
 26 27  1  0
 27 28  1  0
 28 29  1  0
 29 30  1  0
 30 31  1  0
 31 32  1  0
 32 33  1  0
 33 34  1  0
 34 35  1  0
 35 36  1  0
 36 37  1  0
 37 38  1  0
 38 39  1  0
 39 40  1  0
 40 41  1  0
 41 42  1  0
 42 43  1  0
 43 44  1  0
 44 45  1  0
 45 46  1  0
 46 47  1  0
 47 48  1  0
 48 49  1  0
 49 50  1  0
 50 51  1  0
 51 52  1  0
 52 53  1  0
 53 54  1  0
 54 55  1  0
 55 56  1  0
 56 57  1  0
 57 58  1  0
 58 59  1  0
 59 60  1  0
 60 61  1  0
 61 62  1  0
 62 63  1  0
 63 64  1  0
 64 65  1  0
 65 66  1  0
 66 67  1  0
 67 68  1  0
 68 69  1  0
 69 70  1  0
 70 71  1  0
 71 72  1  0
 72 73  1  0
 73 74  1  0
 74 75  1  0
 75 76  1  0
 76 77  1  0
 77 78  1  0
 78 79  1  0
 79 80  1  0
 80 81  1  0
 81 82  1  0
 82 83  1  0
 83 84  1  0
 84 85  1  0
 85 86  1  0
 86 87  1  0
 87 88  1  0
 88 89  1  0
 89 90  1  0
 90 91  1  0
 91 92  1  0
 92 93  1  0
 93 94  1  0
 94 95  1  0
 95 96  1  0
 96 97  1  0
 97 98  1  0
 98 99  1  0
 99100  1  0
100101  1  0
101102  1  0
102103  1  0
103104  1  0
104105  1  0
105106  1  0
106107  1  0
107108  1  0
108109  1  0
109110  1  0
110111  1  0
111112  1  0
112113  1  0
113114  1  0
114115  1  0
115116  1  0
116117  1  0
117118  1  0
118119  1  0
119120  1  0
120  2  1  0
M  END
>  <Title>  (58) 
idAAAHgen9

$$$$

     RDKit          2D

 93 93  0  0  0  0  0  0  0  0999 V2000
   23.4677   -0.0000    0.0000 C   0  0  0  0  0  0  0  0  0  0  0  0
   21.9677    0.0000    0.0000 C   0  0  0  0  0  0  0  0  0  0  0  0
   21.9164   -1.4991    0.0000 C   0  0  0  0  0  0  0  0  0  0  0  0
   21.7630   -2.9913    0.0000 C   0  0  0  0  0  0  0  0  0  0  0  0
   21.5082   -4.4695    0.0000 C   0  0  0  0  0  0  0  0  0  0  0  0
   21.1530   -5.9268    0.0000 C   0  0  0  0  0  0  0  0  0  0  0  0
   20.6993   -7.3565    0.0000 C   0  0  0  0  0  0  0  0  0  0  0  0
   20.1490   -8.7519    0.0000 C   0  0  0  0  0  0  0  0  0  0  0  0
   19.5048  -10.1065    0.0000 C   0  0  0  0  0  0  0  0  0  0  0  0
   18.7696  -11.4140    0.0000 C   0  0  0  0  0  0  0  0  0  0  0  0
   17.9469  -12.6683    0.0000 C   0  0  0  0  0  0  0  0  0  0  0  0
   17.0406  -13.8635    0.0000 C   0  0  0  0  0  0  0  0  0  0  0  0
   16.0547  -14.9941    0.0000 C   0  0  0  0  0  0  0  0  0  0  0  0
   14.9941  -16.0547    0.0000 C   0  0  0  0  0  0  0  0  0  0  0  0
   13.8635  -17.0406    0.0000 C   0  0  0  0  0  0  0  0  0  0  0  0
   12.6683  -17.9469    0.0000 C   0  0  0  0  0  0  0  0  0  0  0  0
   11.4140  -18.7696    0.0000 C   0  0  0  0  0  0  0  0  0  0  0  0
   10.1065  -19.5048    0.0000 C   0  0  0  0  0  0  0  0  0  0  0  0
    8.7519  -20.1490    0.0000 C   0  0  0  0  0  0  0  0  0  0  0  0
    7.3565  -20.6993    0.0000 C   0  0  0  0  0  0  0  0  0  0  0  0
    5.9268  -21.1530    0.0000 C   0  0  0  0  0  0  0  0  0  0  0  0
    4.4695  -21.5082    0.0000 C   0  0  0  0  0  0  0  0  0  0  0  0
    2.9913  -21.7630    0.0000 C   0  0  0  0  0  0  0  0  0  0  0  0
    1.4991  -21.9164    0.0000 C   0  0  0  0  0  0  0  0  0  0  0  0
   -0.0000  -21.9677    0.0000 C   0  0  0  0  0  0  0  0  0  0  0  0
   -1.4991  -21.9164    0.0000 C   0  0  0  0  0  0  0  0  0  0  0  0
   -2.9913  -21.7630    0.0000 C   0  0  0  0  0  0  0  0  0  0  0  0
   -4.4695  -21.5082    0.0000 C   0  0  0  0  0  0  0  0  0  0  0  0
   -5.9268  -21.1530    0.0000 C   0  0  0  0  0  0  0  0  0  0  0  0
   -7.3565  -20.6993    0.0000 C   0  0  0  0  0  0  0  0  0  0  0  0
   -8.7519  -20.1490    0.0000 C   0  0  0  0  0  0  0  0  0  0  0  0
  -10.1065  -19.5048    0.0000 C   0  0  0  0  0  0  0  0  0  0  0  0
  -11.4140  -18.7696    0.0000 C   0  0  0  0  0  0  0  0  0  0  0  0
  -12.6683  -17.9469    0.0000 C   0  0  0  0  0  0  0  0  0  0  0  0
  -13.8635  -17.0406    0.0000 C   0  0  0  0  0  0  0  0  0  0  0  0
  -14.9941  -16.0547    0.0000 C   0  0  0  0  0  0  0  0  0  0  0  0
  -16.0547  -14.9941    0.0000 C   0  0  0  0  0  0  0  0  0  0  0  0
  -17.0406  -13.8635    0.0000 C   0  0  0  0  0  0  0  0  0  0  0  0
  -17.9469  -12.6683    0.0000 C   0  0  0  0  0  0  0  0  0  0  0  0
  -18.7696  -11.4140    0.0000 C   0  0  0  0  0  0  0  0  0  0  0  0
  -19.5048  -10.1065    0.0000 C   0  0  0  0  0  0  0  0  0  0  0  0
  -20.1490   -8.7519    0.0000 C   0  0  0  0  0  0  0  0  0  0  0  0
  -20.6993   -7.3565    0.0000 C   0  0  0  0  0  0  0  0  0  0  0  0
  -21.1530   -5.9268    0.0000 C   0  0  0  0  0  0  0  0  0  0  0  0
  -21.5082   -4.4695    0.0000 C   0  0  0  0  0  0  0  0  0  0  0  0
  -21.7630   -2.9913    0.0000 C   0  0  0  0  0  0  0  0  0  0  0  0
  -21.9164   -1.4991    0.0000 C   0  0  0  0  0  0  0  0  0  0  0  0
  -21.9677    0.0000    0.0000 C   0  0  0  0  0  0  0  0  0  0  0  0
  -21.9164    1.4991    0.0000 C   0  0  0  0  0  0  0  0  0  0  0  0
  -21.7630    2.9913    0.0000 C   0  0  0  0  0  0  0  0  0  0  0  0
  -21.5082    4.4695    0.0000 C   0  0  0  0  0  0  0  0  0  0  0  0
  -21.1530    5.9268    0.0000 C   0  0  0  0  0  0  0  0  0  0  0  0
  -20.6993    7.3565    0.0000 C   0  0  0  0  0  0  0  0  0  0  0  0
  -20.1490    8.7519    0.0000 C   0  0  0  0  0  0  0  0  0  0  0  0
  -19.5048   10.1065    0.0000 C   0  0  0  0  0  0  0  0  0  0  0  0
  -18.7696   11.4140    0.0000 C   0  0  0  0  0  0  0  0  0  0  0  0
  -17.9469   12.6683    0.0000 C   0  0  0  0  0  0  0  0  0  0  0  0
  -17.0406   13.8635    0.0000 C   0  0  0  0  0  0  0  0  0  0  0  0
  -16.0547   14.9941    0.0000 C   0  0  0  0  0  0  0  0  0  0  0  0
  -14.9941   16.0547    0.0000 C   0  0  0  0  0  0  0  0  0  0  0  0
  -13.8635   17.0406    0.0000 C   0  0  0  0  0  0  0  0  0  0  0  0
  -12.6683   17.9469    0.0000 C   0  0  0  0  0  0  0  0  0  0  0  0
  -11.4140   18.7696    0.0000 C   0  0  0  0  0  0  0  0  0  0  0  0
  -10.1065   19.5048    0.0000 C   0  0  0  0  0  0  0  0  0  0  0  0
   -8.7519   20.1490    0.0000 C   0  0  0  0  0  0  0  0  0  0  0  0
   -7.3565   20.6993    0.0000 C   0  0  0  0  0  0  0  0  0  0  0  0
   -5.9268   21.1530    0.0000 C   0  0  0  0  0  0  0  0  0  0  0  0
   -4.4695   21.5082    0.0000 C   0  0  0  0  0  0  0  0  0  0  0  0
   -2.9913   21.7630    0.0000 C   0  0  0  0  0  0  0  0  0  0  0  0
   -1.4991   21.9164    0.0000 C   0  0  0  0  0  0  0  0  0  0  0  0
    0.0000   21.9677    0.0000 C   0  0  0  0  0  0  0  0  0  0  0  0
    1.4991   21.9164    0.0000 C   0  0  0  0  0  0  0  0  0  0  0  0
    2.9913   21.7630    0.0000 C   0  0  0  0  0  0  0  0  0  0  0  0
    4.4695   21.5082    0.0000 C   0  0  0  0  0  0  0  0  0  0  0  0
    5.9268   21.1530    0.0000 C   0  0  0  0  0  0  0  0  0  0  0  0
    7.3565   20.6993    0.0000 C   0  0  0  0  0  0  0  0  0  0  0  0
    8.7519   20.1490    0.0000 C   0  0  0  0  0  0  0  0  0  0  0  0
   10.1065   19.5048    0.0000 C   0  0  0  0  0  0  0  0  0  0  0  0
   11.4140   18.7696    0.0000 C   0  0  0  0  0  0  0  0  0  0  0  0
   12.6683   17.9469    0.0000 C   0  0  0  0  0  0  0  0  0  0  0  0
   13.8635   17.0406    0.0000 C   0  0  0  0  0  0  0  0  0  0  0  0
   14.9941   16.0547    0.0000 C   0  0  0  0  0  0  0  0  0  0  0  0
   16.0547   14.9941    0.0000 C   0  0  0  0  0  0  0  0  0  0  0  0
   17.0406   13.8635    0.0000 C   0  0  0  0  0  0  0  0  0  0  0  0
   17.9469   12.6683    0.0000 C   0  0  0  0  0  0  0  0  0  0  0  0
   18.7696   11.4140    0.0000 C   0  0  0  0  0  0  0  0  0  0  0  0
   19.5048   10.1065    0.0000 C   0  0  0  0  0  0  0  0  0  0  0  0
   20.1490    8.7519    0.0000 C   0  0  0  0  0  0  0  0  0  0  0  0
   20.6993    7.3565    0.0000 C   0  0  0  0  0  0  0  0  0  0  0  0
   21.1530    5.9268    0.0000 C   0  0  0  0  0  0  0  0  0  0  0  0
   21.5082    4.4695    0.0000 C   0  0  0  0  0  0  0  0  0  0  0  0
   21.7630    2.9913    0.0000 C   0  0  0  0  0  0  0  0  0  0  0  0
   21.9164    1.4991    0.0000 C   0  0  0  0  0  0  0  0  0  0  0  0
  1  2  1  0
  2  3  1  0
  3  4  1  0
  4  5  2  0
  5  6  1  0
  6  7  2  0
  7  8  1  0
  8  9  2  0
  9 10  1  0
 10 11  2  0
 11 12  1  0
 12 13  2  0
 13 14  1  0
 14 15  2  0
 15 16  1  0
 16 17  2  0
 17 18  1  0
 18 19  2  0
 19 20  1  0
 20 21  2  0
 21 22  1  0
 22 23  2  0
 23 24  1  0
 24 25  2  0
 25 26  1  0
 26 27  2  0
 27 28  1  0
 28 29  2  0
 29 30  1  0
 30 31  2  0
 31 32  1  0
 32 33  2  0
 33 34  1  0
 34 35  2  0
 35 36  1  0
 36 37  2  0
 37 38  1  0
 38 39  2  0
 39 40  1  0
 40 41  2  0
 41 42  1  0
 42 43  2  0
 43 44  1  0
 44 45  2  0
 45 46  1  0
 46 47  2  0
 47 48  1  0
 48 49  2  0
 49 50  1  0
 50 51  2  0
 51 52  1  0
 52 53  2  0
 53 54  1  0
 54 55  1  0
 55 56  1  0
 56 57  1  0
 57 58  1  0
 58 59  1  0
 59 60  1  0
 60 61  1  0
 61 62  1  0
 62 63  1  0
 63 64  1  0
 64 65  1  0
 65 66  1  0
 66 67  1  0
 67 68  1  0
 68 69  1  0
 69 70  1  0
 70 71  1  0
 71 72  1  0
 72 73  1  0
 73 74  1  0
 74 75  1  0
 75 76  1  0
 76 77  1  0
 77 78  1  0
 78 79  1  0
 79 80  1  0
 80 81  1  0
 81 82  1  0
 82 83  1  0
 83 84  1  0
 84 85  1  0
 85 86  1  0
 86 87  1  0
 87 88  1  0
 88 89  1  0
 89 90  1  0
 90 91  1  0
 91 92  1  0
 92 93  1  0
 93  2  1  0
M  END
>  <Title>  (59) 
idAAAIgen9

$$$$

     RDKit          2D

 91 92  0  0  0  0  0  0  0  0999 V2000
   15.6424    4.6856    0.0000 C   0  0  0  0  0  0  0  0  0  0  0  0
   16.4100    4.4705    0.0000 C   0  0  0  0  0  0  0  0  0  0  0  0
   17.0076    5.8463    0.0000 C   0  0  0  0  0  0  0  0  0  0  0  0
   17.9542    7.0099    0.0000 C   0  0  0  0  0  0  0  0  0  0  0  0
   19.1796    7.8749    0.0000 C   0  0  0  0  0  0  0  0  0  0  0  0
   20.5930    8.3772    0.0000 C   0  0  0  0  0  0  0  0  0  0  0  0
   22.0895    8.4796    0.0000 C   0  0  0  0  0  0  0  0  0  0  0  0
   23.5582    8.1744    0.0000 C   0  0  0  0  0  0  0  0  0  0  0  0
   24.8900    7.4843    0.0000 C   0  0  0  0  0  0  0  0  0  0  0  0
   25.9862    6.4605    0.0000 C   0  0  0  0  0  0  0  0  0  0  0  0
   26.7656    5.1789    0.0000 C   0  0  0  0  0  0  0  0  0  0  0  0
   27.1703    3.7345    0.0000 C   0  0  0  0  0  0  0  0  0  0  0  0
   27.1703    2.2345    0.0000 C   0  0  0  0  0  0  0  0  0  0  0  0
   26.7656    0.7901    0.0000 C   0  0  0  0  0  0  0  0  0  0  0  0
   25.9862   -0.4915    0.0000 C   0  0  0  0  0  0  0  0  0  0  0  0
   24.8900   -1.5154    0.0000 C   0  0  0  0  0  0  0  0  0  0  0  0
   23.5582   -2.2055    0.0000 C   0  0  0  0  0  0  0  0  0  0  0  0
   22.0895   -2.5106    0.0000 C   0  0  0  0  0  0  0  0  0  0  0  0
   20.5930   -2.4083    0.0000 C   0  0  0  0  0  0  0  0  0  0  0  0
   19.1796   -1.9060    0.0000 C   0  0  0  0  0  0  0  0  0  0  0  0
   17.9542   -1.0409    0.0000 C   0  0  0  0  0  0  0  0  0  0  0  0
   17.0076    0.1226    0.0000 C   0  0  0  0  0  0  0  0  0  0  0  0
   16.4100    1.4984    0.0000 C   0  0  0  0  0  0  0  0  0  0  0  0
   15.7782    0.0000    0.0000 C   0  0  0  0  0  0  0  0  0  0  0  0
   15.7129   -1.4348    0.0000 C   0  0  0  0  0  0  0  0  0  0  0  0
   15.5173   -2.8577    0.0000 C   0  0  0  0  0  0  0  0  0  0  0  0
   15.1931   -4.2569    0.0000 C   0  0  0  0  0  0  0  0  0  0  0  0
   14.7431   -5.6209    0.0000 C   0  0  0  0  0  0  0  0  0  0  0  0
   14.1709   -6.9382    0.0000 C   0  0  0  0  0  0  0  0  0  0  0  0
   13.4812   -8.1981    0.0000 C   0  0  0  0  0  0  0  0  0  0  0  0
   12.6799   -9.3901    0.0000 C   0  0  0  0  0  0  0  0  0  0  0  0
   11.7735  -10.5042    0.0000 C   0  0  0  0  0  0  0  0  0  0  0  0
   10.7695  -11.5313    0.0000 C   0  0  0  0  0  0  0  0  0  0  0  0
    9.6763  -12.4628    0.0000 C   0  0  0  0  0  0  0  0  0  0  0  0
    8.5029  -13.2911    0.0000 C   0  0  0  0  0  0  0  0  0  0  0  0
    7.2590  -14.0093    0.0000 C   0  0  0  0  0  0  0  0  0  0  0  0
    5.9550  -14.6113    0.0000 C   0  0  0  0  0  0  0  0  0  0  0  0
    4.6017  -15.0923    0.0000 C   0  0  0  0  0  0  0  0  0  0  0  0
    3.2102  -15.4482    0.0000 C   0  0  0  0  0  0  0  0  0  0  0  0
    1.7921  -15.6761    0.0000 C   0  0  0  0  0  0  0  0  0  0  0  0
    0.3592  -15.7741    0.0000 C   0  0  0  0  0  0  0  0  0  0  0  0
   -1.0767  -15.7414    0.0000 C   0  0  0  0  0  0  0  0  0  0  0  0
   -2.5037  -15.5783    0.0000 C   0  0  0  0  0  0  0  0  0  0  0  0
   -3.9100  -15.2861    0.0000 C   0  0  0  0  0  0  0  0  0  0  0  0
   -5.2838  -14.8672    0.0000 C   0  0  0  0  0  0  0  0  0  0  0  0
   -6.6139  -14.3251    0.0000 C   0  0  0  0  0  0  0  0  0  0  0  0
   -7.8891  -13.6643    0.0000 C   0  0  0  0  0  0  0  0  0  0  0  0
   -9.0990  -12.8903    0.0000 C   0  0  0  0  0  0  0  0  0  0  0  0
  -10.2335  -12.0095    0.0000 C   0  0  0  0  0  0  0  0  0  0  0  0
  -11.2832  -11.0292    0.0000 C   0  0  0  0  0  0  0  0  0  0  0  0
  -12.2394   -9.9575    0.0000 C   0  0  0  0  0  0  0  0  0  0  0  0
  -13.0941   -8.8032    0.0000 C   0  0  0  0  0  0  0  0  0  0  0  0
  -13.8404   -7.5760    0.0000 C   0  0  0  0  0  0  0  0  0  0  0  0
  -14.4720   -6.2861    0.0000 C   0  0  0  0  0  0  0  0  0  0  0  0
  -14.9836   -4.9440    0.0000 C   0  0  0  0  0  0  0  0  0  0  0  0
  -15.3711   -3.5610    0.0000 C   0  0  0  0  0  0  0  0  0  0  0  0
  -15.6313   -2.1485    0.0000 C   0  0  0  0  0  0  0  0  0  0  0  0
  -15.7619   -0.7181    0.0000 C   0  0  0  0  0  0  0  0  0  0  0  0
  -15.7619    0.7181    0.0000 C   0  0  0  0  0  0  0  0  0  0  0  0
  -15.6313    2.1485    0.0000 C   0  0  0  0  0  0  0  0  0  0  0  0
  -15.3711    3.5610    0.0000 C   0  0  0  0  0  0  0  0  0  0  0  0
  -14.9836    4.9440    0.0000 C   0  0  0  0  0  0  0  0  0  0  0  0
  -14.4720    6.2861    0.0000 C   0  0  0  0  0  0  0  0  0  0  0  0
  -13.8404    7.5760    0.0000 C   0  0  0  0  0  0  0  0  0  0  0  0
  -13.0941    8.8032    0.0000 C   0  0  0  0  0  0  0  0  0  0  0  0
  -12.2394    9.9575    0.0000 C   0  0  0  0  0  0  0  0  0  0  0  0
  -11.2832   11.0292    0.0000 C   0  0  0  0  0  0  0  0  0  0  0  0
  -10.2335   12.0095    0.0000 C   0  0  0  0  0  0  0  0  0  0  0  0
   -9.0990   12.8903    0.0000 C   0  0  0  0  0  0  0  0  0  0  0  0
   -7.8891   13.6643    0.0000 C   0  0  0  0  0  0  0  0  0  0  0  0
   -6.6139   14.3251    0.0000 C   0  0  0  0  0  0  0  0  0  0  0  0
   -5.2838   14.8672    0.0000 C   0  0  0  0  0  0  0  0  0  0  0  0
   -3.9100   15.2861    0.0000 C   0  0  0  0  0  0  0  0  0  0  0  0
   -2.5037   15.5783    0.0000 C   0  0  0  0  0  0  0  0  0  0  0  0
   -1.0767   15.7414    0.0000 C   0  0  0  0  0  0  0  0  0  0  0  0
    0.3592   15.7741    0.0000 C   0  0  0  0  0  0  0  0  0  0  0  0
    1.7921   15.6761    0.0000 C   0  0  0  0  0  0  0  0  0  0  0  0
    3.2102   15.4482    0.0000 C   0  0  0  0  0  0  0  0  0  0  0  0
    4.6017   15.0923    0.0000 C   0  0  0  0  0  0  0  0  0  0  0  0
    5.9550   14.6113    0.0000 C   0  0  0  0  0  0  0  0  0  0  0  0
    7.2590   14.0093    0.0000 C   0  0  0  0  0  0  0  0  0  0  0  0
    8.5029   13.2911    0.0000 C   0  0  0  0  0  0  0  0  0  0  0  0
    9.6763   12.4628    0.0000 C   0  0  0  0  0  0  0  0  0  0  0  0
   10.7695   11.5313    0.0000 C   0  0  0  0  0  0  0  0  0  0  0  0
   11.7735   10.5042    0.0000 C   0  0  0  0  0  0  0  0  0  0  0  0
   12.6799    9.3901    0.0000 C   0  0  0  0  0  0  0  0  0  0  0  0
   13.4812    8.1981    0.0000 C   0  0  0  0  0  0  0  0  0  0  0  0
   14.1709    6.9382    0.0000 C   0  0  0  0  0  0  0  0  0  0  0  0
   14.7431    5.6209    0.0000 C   0  0  0  0  0  0  0  0  0  0  0  0
   15.1931    4.2569    0.0000 C   0  0  0  0  0  0  0  0  0  0  0  0
   16.2057    2.9845    0.0000 C   0  0  0  0  0  0  0  0  0  0  0  0
  1  2  1  0
  2  3  2  0
  3  4  1  0
  4  5  1  0
  5  6  1  0
  6  7  1  0
  7  8  1  0
  8  9  1  0
  9 10  1  0
 10 11  1  0
 11 12  1  0
 12 13  1  0
 13 14  1  0
 14 15  1  0
 15 16  1  0
 16 17  1  0
 17 18  1  0
 18 19  1  0
 19 20  1  0
 20 21  1  0
 21 22  1  0
 22 23  1  0
 23 24  1  0
 24 25  1  0
 25 26  1  0
 26 27  1  0
 27 28  1  0
 28 29  1  0
 29 30  1  0
 30 31  1  0
 31 32  1  0
 32 33  1  0
 33 34  1  0
 34 35  1  0
 35 36  1  0
 36 37  1  0
 37 38  1  0
 38 39  1  0
 39 40  1  0
 40 41  1  0
 41 42  1  0
 42 43  1  0
 43 44  1  0
 44 45  1  0
 45 46  1  0
 46 47  1  0
 47 48  1  0
 48 49  1  0
 49 50  1  0
 50 51  1  0
 51 52  1  0
 52 53  1  0
 53 54  1  0
 54 55  1  0
 55 56  1  0
 56 57  1  0
 57 58  1  0
 58 59  1  0
 59 60  1  0
 60 61  1  0
 61 62  1  0
 62 63  1  0
 63 64  1  0
 64 65  1  0
 65 66  1  0
 66 67  1  0
 67 68  1  0
 68 69  1  0
 69 70  1  0
 70 71  1  0
 71 72  1  0
 72 73  1  0
 73 74  1  0
 74 75  1  0
 75 76  1  0
 76 77  1  0
 77 78  1  0
 78 79  1  0
 79 80  1  0
 80 81  1  0
 81 82  1  0
 82 83  1  0
 83 84  1  0
 84 85  1  0
 85 86  1  0
 86 87  1  0
 87 88  1  0
 88 89  1  0
 89 90  1  0
 90 91  1  0
 91  2  1  0
 91 23  1  0
M  END
>  <Title>  (60) 
idAAAJgen9

$$$$

     RDKit          2D

  6  6  0  0  0  0  0  0  0  0999 V2000
    2.7760    0.0000    0.0000 C   0  0  0  0  0  0  0  0  0  0  0  0
    1.2760    0.0000    0.0000 C   0  0  0  0  0  0  0  0  0  0  0  0
    0.3943    1.2135    0.0000 C   0  0  0  0  0  0  0  0  0  0  0  0
   -1.0323    0.7500    0.0000 C   0  0  0  0  0  0  0  0  0  0  0  0
   -1.0323   -0.7500    0.0000 C   0  0  0  0  0  0  0  0  0  0  0  0
    0.3943   -1.2135    0.0000 C   0  0  0  0  0  0  0  0  0  0  0  0
  1  2  1  0
  2  3  2  0
  3  4  1  0
  4  5  1  0
  5  6  2  0
  6  2  1  0
M  END
>  <Title>  (61) 
idAAAKgen9

$$$$

     RDKit          2D

  9  9  0  0  0  0  0  0  0  0999 V2000
    5.0260   -1.2990    0.0000 C   0  0  0  0  0  0  0  0  0  0  0  0
    3.5260   -1.2990    0.0000 C   0  0  0  0  0  0  0  0  0  0  0  0
    2.7760   -2.5981    0.0000 O   0  0  0  0  0  0  0  0  0  0  0  0
    2.7760    0.0000    0.0000 C   0  0  0  0  0  0  0  0  0  0  0  0
    1.2760    0.0000    0.0000 C   0  0  0  0  0  0  0  0  0  0  0  0
    0.3943    1.2135    0.0000 C   0  0  0  0  0  0  0  0  0  0  0  0
   -1.0323    0.7500    0.0000 C   0  0  0  0  0  0  0  0  0  0  0  0
   -1.0323   -0.7500    0.0000 C   0  0  0  0  0  0  0  0  0  0  0  0
    0.3943   -1.2135    0.0000 C   0  0  0  0  0  0  0  0  0  0  0  0
  1  2  1  0
  2  3  2  0
  2  4  1  0
  4  5  1  0
  5  6  2  0
  6  7  1  0
  7  8  2  0
  8  9  1  0
  9  5  1  0
M  END
>  <Title>  (62) 
idAAALgen9

$$$$

     RDKit          2D

 80 80  0  0  0  0  0  0  0  0999 V2000
   20.3648    0.0000    0.0000 C   0  0  0  0  0  0  0  0  0  0  0  0
   18.8648    0.0000    0.0000 C   0  0  0  0  0  0  0  0  0  0  0  0
   18.8052    1.4988    0.0000 C   0  0  0  0  0  0  0  0  0  0  0  0
   18.6267    2.9882    0.0000 C   0  0  0  0  0  0  0  0  0  0  0  0
   18.3304    4.4586    0.0000 C   0  0  0  0  0  0  0  0  0  0  0  0
   17.9182    5.9009    0.0000 C   0  0  0  0  0  0  0  0  0  0  0  0
   17.3927    7.3058    0.0000 C   0  0  0  0  0  0  0  0  0  0  0  0
   16.7573    8.6646    0.0000 C   0  0  0  0  0  0  0  0  0  0  0  0
   16.0159    9.9685    0.0000 C   0  0  0  0  0  0  0  0  0  0  0  0
   15.1733   11.2095    0.0000 C   0  0  0  0  0  0  0  0  0  0  0  0
   14.2347   12.3796    0.0000 C   0  0  0  0  0  0  0  0  0  0  0  0
   13.2062   13.4714    0.0000 C   0  0  0  0  0  0  0  0  0  0  0  0
   12.0941   14.4781    0.0000 C   0  0  0  0  0  0  0  0  0  0  0  0
   10.9056   15.3932    0.0000 C   0  0  0  0  0  0  0  0  0  0  0  0
    9.6481   16.2110    0.0000 C   0  0  0  0  0  0  0  0  0  0  0  0
    8.3297   16.9263    0.0000 C   0  0  0  0  0  0  0  0  0  0  0  0
    6.9586   17.5345    0.0000 C   0  0  0  0  0  0  0  0  0  0  0  0
    5.5434   18.0320    0.0000 C   0  0  0  0  0  0  0  0  0  0  0  0
    4.0933   18.4154    0.0000 C   0  0  0  0  0  0  0  0  0  0  0  0
    2.6172   18.6824    0.0000 C   0  0  0  0  0  0  0  0  0  0  0  0
    1.1246   18.8313    0.0000 C   0  0  0  0  0  0  0  0  0  0  0  0
   -0.3751   18.8611    0.0000 C   0  0  0  0  0  0  0  0  0  0  0  0
   -1.8724   18.7717    0.0000 C   0  0  0  0  0  0  0  0  0  0  0  0
   -3.3579   18.5636    0.0000 C   0  0  0  0  0  0  0  0  0  0  0  0
   -4.8222   18.2381    0.0000 C   0  0  0  0  0  0  0  0  0  0  0  0
   -6.2559   17.7973    0.0000 C   0  0  0  0  0  0  0  0  0  0  0  0
   -7.6502   17.2440    0.0000 C   0  0  0  0  0  0  0  0  0  0  0  0
   -8.9960   16.5817    0.0000 C   0  0  0  0  0  0  0  0  0  0  0  0
  -10.2850   15.8146    0.0000 C   0  0  0  0  0  0  0  0  0  0  0  0
  -11.5090   14.9474    0.0000 C   0  0  0  0  0  0  0  0  0  0  0  0
  -12.6602   13.9858    0.0000 C   0  0  0  0  0  0  0  0  0  0  0  0
  -13.7313   12.9357    0.0000 C   0  0  0  0  0  0  0  0  0  0  0  0
  -14.7157   11.8039    0.0000 C   0  0  0  0  0  0  0  0  0  0  0  0
  -15.6070   10.5974    0.0000 C   0  0  0  0  0  0  0  0  0  0  0  0
  -16.3996    9.3239    0.0000 C   0  0  0  0  0  0  0  0  0  0  0  0
  -17.0885    7.9915    0.0000 C   0  0  0  0  0  0  0  0  0  0  0  0
  -17.6694    6.6086    0.0000 C   0  0  0  0  0  0  0  0  0  0  0  0
  -18.1386    5.1838    0.0000 C   0  0  0  0  0  0  0  0  0  0  0  0
  -18.4931    3.7263    0.0000 C   0  0  0  0  0  0  0  0  0  0  0  0
  -18.7307    2.2453    0.0000 C   0  0  0  0  0  0  0  0  0  0  0  0
  -18.8499    0.7500    0.0000 C   0  0  0  0  0  0  0  0  0  0  0  0
  -18.8499   -0.7500    0.0000 C   0  0  0  0  0  0  0  0  0  0  0  0
  -18.7307   -2.2453    0.0000 C   0  0  0  0  0  0  0  0  0  0  0  0
  -18.4931   -3.7263    0.0000 C   0  0  0  0  0  0  0  0  0  0  0  0
  -18.1386   -5.1838    0.0000 C   0  0  0  0  0  0  0  0  0  0  0  0
  -17.6694   -6.6086    0.0000 C   0  0  0  0  0  0  0  0  0  0  0  0
  -17.0885   -7.9915    0.0000 C   0  0  0  0  0  0  0  0  0  0  0  0
  -16.3996   -9.3239    0.0000 C   0  0  0  0  0  0  0  0  0  0  0  0
  -15.6070  -10.5974    0.0000 C   0  0  0  0  0  0  0  0  0  0  0  0
  -14.7157  -11.8039    0.0000 C   0  0  0  0  0  0  0  0  0  0  0  0
  -13.7313  -12.9357    0.0000 C   0  0  0  0  0  0  0  0  0  0  0  0
  -12.6602  -13.9858    0.0000 C   0  0  0  0  0  0  0  0  0  0  0  0
  -11.5090  -14.9474    0.0000 C   0  0  0  0  0  0  0  0  0  0  0  0
  -10.2850  -15.8146    0.0000 C   0  0  0  0  0  0  0  0  0  0  0  0
   -8.9960  -16.5817    0.0000 C   0  0  0  0  0  0  0  0  0  0  0  0
   -7.6502  -17.2440    0.0000 C   0  0  0  0  0  0  0  0  0  0  0  0
   -6.2559  -17.7973    0.0000 C   0  0  0  0  0  0  0  0  0  0  0  0
   -4.8222  -18.2381    0.0000 C   0  0  0  0  0  0  0  0  0  0  0  0
   -3.3579  -18.5636    0.0000 C   0  0  0  0  0  0  0  0  0  0  0  0
   -1.8724  -18.7717    0.0000 C   0  0  0  0  0  0  0  0  0  0  0  0
   -0.3751  -18.8611    0.0000 C   0  0  0  0  0  0  0  0  0  0  0  0
    1.1246  -18.8313    0.0000 C   0  0  0  0  0  0  0  0  0  0  0  0
    2.6172  -18.6824    0.0000 C   0  0  0  0  0  0  0  0  0  0  0  0
    4.0933  -18.4154    0.0000 C   0  0  0  0  0  0  0  0  0  0  0  0
    5.5434  -18.0320    0.0000 C   0  0  0  0  0  0  0  0  0  0  0  0
    6.9586  -17.5345    0.0000 C   0  0  0  0  0  0  0  0  0  0  0  0
    8.3297  -16.9263    0.0000 C   0  0  0  0  0  0  0  0  0  0  0  0
    9.6481  -16.2110    0.0000 C   0  0  0  0  0  0  0  0  0  0  0  0
   10.9056  -15.3932    0.0000 C   0  0  0  0  0  0  0  0  0  0  0  0
   12.0941  -14.4781    0.0000 C   0  0  0  0  0  0  0  0  0  0  0  0
   13.2062  -13.4714    0.0000 C   0  0  0  0  0  0  0  0  0  0  0  0
   14.2347  -12.3796    0.0000 C   0  0  0  0  0  0  0  0  0  0  0  0
   15.1733  -11.2095    0.0000 C   0  0  0  0  0  0  0  0  0  0  0  0
   16.0159   -9.9685    0.0000 C   0  0  0  0  0  0  0  0  0  0  0  0
   16.7573   -8.6646    0.0000 C   0  0  0  0  0  0  0  0  0  0  0  0
   17.3927   -7.3058    0.0000 C   0  0  0  0  0  0  0  0  0  0  0  0
   17.9182   -5.9009    0.0000 C   0  0  0  0  0  0  0  0  0  0  0  0
   18.3304   -4.4586    0.0000 C   0  0  0  0  0  0  0  0  0  0  0  0
   18.6267   -2.9882    0.0000 C   0  0  0  0  0  0  0  0  0  0  0  0
   18.8052   -1.4988    0.0000 C   0  0  0  0  0  0  0  0  0  0  0  0
  1  2  1  0
  2  3  1  0
  3  4  1  0
  4  5  1  0
  5  6  1  0
  6  7  1  0
  7  8  1  0
  8  9  1  0
  9 10  1  0
 10 11  1  0
 11 12  1  0
 12 13  1  0
 13 14  1  0
 14 15  1  0
 15 16  1  0
 16 17  1  0
 17 18  1  0
 18 19  1  0
 19 20  1  0
 20 21  1  0
 21 22  1  0
 22 23  1  0
 23 24  1  0
 24 25  1  0
 25 26  1  0
 26 27  1  0
 27 28  1  0
 28 29  1  0
 29 30  1  0
 30 31  1  0
 31 32  1  0
 32 33  1  0
 33 34  1  0
 34 35  1  0
 35 36  1  0
 36 37  1  0
 37 38  1  0
 38 39  1  0
 39 40  1  0
 40 41  1  0
 41 42  1  0
 42 43  1  0
 43 44  1  0
 44 45  1  0
 45 46  1  0
 46 47  1  0
 47 48  1  0
 48 49  1  0
 49 50  1  0
 50 51  1  0
 51 52  1  0
 52 53  1  0
 53 54  1  0
 54 55  1  0
 55 56  1  0
 56 57  1  0
 57 58  1  0
 58 59  1  0
 59 60  1  0
 60 61  1  0
 61 62  1  0
 62 63  1  0
 63 64  1  0
 64 65  1  0
 65 66  1  0
 66 67  1  0
 67 68  1  0
 68 69  1  0
 69 70  1  0
 70 71  1  0
 71 72  1  0
 72 73  1  0
 73 74  1  0
 74 75  1  0
 75 76  1  0
 76 77  1  0
 77 78  1  0
 78 79  1  0
 79 80  1  0
 80  2  1  0
M  END
>  <Title>  (63) 
idAAAMgen9

$$$$

     RDKit          2D

 12 13  0  0  0  0  0  0  0  0999 V2000
    2.7760    0.0000    0.0000 C   0  0  0  0  0  0  0  0  0  0  0  0
    1.2760    0.0000    0.0000 C   0  0  0  0  0  0  0  0  0  0  0  0
    0.3943    1.2135    0.0000 C   0  0  0  0  0  0  0  0  0  0  0  0
   -1.0323    0.7500    0.0000 C   0  0  0  0  0  0  0  0  0  0  0  0
   -2.2458    1.6317    0.0000 C   0  0  0  0  0  0  0  0  0  0  0  0
   -3.6724    1.1682    0.0000 C   0  0  0  0  0  0  0  0  0  0  0  0
   -4.5541    2.3817    0.0000 C   0  0  0  0  0  0  0  0  0  0  0  0
   -3.6724    3.5952    0.0000 C   0  0  0  0  0  0  0  0  0  0  0  0
   -2.2458    3.1317    0.0000 C   0  0  0  0  0  0  0  0  0  0  0  0
   -1.0323   -0.7500    0.0000 C   0  0  0  0  0  0  0  0  0  0  0  0
   -2.2458   -1.6317    0.0000 C   0  0  0  0  0  0  0  0  0  0  0  0
    0.3943   -1.2135    0.0000 C   0  0  0  0  0  0  0  0  0  0  0  0
  1  2  1  0
  2  3  2  0
  3  4  1  0
  4  5  1  0
  5  6  2  0
  6  7  1  0
  7  8  2  0
  8  9  1  0
  4 10  1  0
 10 11  1  0
 10 12  2  0
 12  2  1  0
  9  5  1  0
M  END
>  <Title>  (64) 
idAAANgen9

$$$$

     RDKit          2D

 16 16  0  0  0  0  0  0  0  0999 V2000
   10.5000    2.5981    0.0000 C   0  0  0  0  0  0  0  0  0  0  0  0
    9.7500    1.2990    0.0000 C   0  0  0  0  0  0  0  0  0  0  0  0
    8.2500    1.2990    0.0000 C   0  0  0  0  0  0  0  0  0  0  0  0
    7.5000   -0.0000    0.0000 N   0  0  0  0  0  0  0  0  0  0  0  0
    6.0000    0.0000    0.0000 C   0  0  0  0  0  0  0  0  0  0  0  0
    5.2500   -1.2990    0.0000 C   0  0  0  0  0  0  0  0  0  0  0  0
    6.0000   -2.5981    0.0000 C   0  0  0  0  0  0  0  0  0  0  0  0
    3.7500   -1.2990    0.0000 C   0  0  0  0  0  0  0  0  0  0  0  0
    3.0000   -2.5981    0.0000 O   0  0  0  0  0  0  0  0  0  0  0  0
    3.0000    0.0000    0.0000 N   0  0  0  0  0  0  0  0  0  0  0  0
    1.5000    0.0000    0.0000 C   0  0  0  0  0  0  0  0  0  0  0  0
    0.7500   -1.2990    0.0000 C   0  0  0  0  0  0  0  0  0  0  0  0
   -0.7500   -1.2990    0.0000 C   0  0  0  0  0  0  0  0  0  0  0  0
   -1.5000    0.0000    0.0000 C   0  0  0  0  0  0  0  0  0  0  0  0
   -0.7500    1.2990    0.0000 C   0  0  0  0  0  0  0  0  0  0  0  0
    0.7500    1.2990    0.0000 C   0  0  0  0  0  0  0  0  0  0  0  0
  1  2  1  0
  2  3  1  0
  3  4  1  0
  4  5  1  0
  5  6  1  0
  6  7  1  0
  6  8  1  0
  8  9  2  0
  8 10  1  0
 10 11  1  0
 11 12  2  0
 12 13  1  0
 13 14  2  0
 14 15  1  0
 15 16  1  0
 16 11  1  0
M  END
>  <Title>  (65) 
idAAAOgen9

$$$$

     RDKit          2D

 54 55  0  0  0  0  0  0  0  0999 V2000
   -2.3177   -1.0192    0.0000 C   0  0  0  0  0  0  0  0  0  0  0  0
   -2.5057    0.4689    0.0000 C   0  0  0  0  0  0  0  0  0  0  0  0
   -4.0028    0.3747    0.0000 C   0  0  0  0  0  0  0  0  0  0  0  0
   -5.4998    0.4689    0.0000 C   0  0  0  0  0  0  0  0  0  0  0  0
   -6.9732    0.7500    0.0000 C   0  0  0  0  0  0  0  0  0  0  0  0
   -8.3998    1.2135    0.0000 C   0  0  0  0  0  0  0  0  0  0  0  0
   -9.7571    1.8522    0.0000 C   0  0  0  0  0  0  0  0  0  0  0  0
  -11.0235    2.6559    0.0000 C   0  0  0  0  0  0  0  0  0  0  0  0
  -12.1793    3.6121    0.0000 C   0  0  0  0  0  0  0  0  0  0  0  0
  -13.2061    4.7055    0.0000 C   0  0  0  0  0  0  0  0  0  0  0  0
  -14.0878    5.9190    0.0000 C   0  0  0  0  0  0  0  0  0  0  0  0
  -14.8104    7.2335    0.0000 C   0  0  0  0  0  0  0  0  0  0  0  0
  -15.3626    8.6282    0.0000 C   0  0  0  0  0  0  0  0  0  0  0  0
  -15.7357   10.0810    0.0000 C   0  0  0  0  0  0  0  0  0  0  0  0
  -15.9237   11.5692    0.0000 C   0  0  0  0  0  0  0  0  0  0  0  0
  -15.9237   13.0692    0.0000 C   0  0  0  0  0  0  0  0  0  0  0  0
  -15.7357   14.5574    0.0000 C   0  0  0  0  0  0  0  0  0  0  0  0
  -15.3626   16.0103    0.0000 C   0  0  0  0  0  0  0  0  0  0  0  0
  -14.8104   17.4049    0.0000 C   0  0  0  0  0  0  0  0  0  0  0  0
  -14.0878   18.7194    0.0000 C   0  0  0  0  0  0  0  0  0  0  0  0
  -13.2061   19.9329    0.0000 C   0  0  0  0  0  0  0  0  0  0  0  0
  -12.1793   21.0264    0.0000 C   0  0  0  0  0  0  0  0  0  0  0  0
  -11.0235   21.9825    0.0000 C   0  0  0  0  0  0  0  0  0  0  0  0
   -9.7571   22.7862    0.0000 C   0  0  0  0  0  0  0  0  0  0  0  0
   -8.3998   23.4249    0.0000 C   0  0  0  0  0  0  0  0  0  0  0  0
   -6.9732   23.8884    0.0000 C   0  0  0  0  0  0  0  0  0  0  0  0
   -5.4998   24.1695    0.0000 C   0  0  0  0  0  0  0  0  0  0  0  0
   -4.0028   24.2637    0.0000 C   0  0  0  0  0  0  0  0  0  0  0  0
   -2.5057   24.1695    0.0000 C   0  0  0  0  0  0  0  0  0  0  0  0
   -1.0323   23.8884    0.0000 C   0  0  0  0  0  0  0  0  0  0  0  0
    0.3943   23.4249    0.0000 C   0  0  0  0  0  0  0  0  0  0  0  0
    1.7515   22.7862    0.0000 C   0  0  0  0  0  0  0  0  0  0  0  0
    3.0180   21.9825    0.0000 C   0  0  0  0  0  0  0  0  0  0  0  0
    4.1738   21.0264    0.0000 C   0  0  0  0  0  0  0  0  0  0  0  0
    5.2006   19.9329    0.0000 C   0  0  0  0  0  0  0  0  0  0  0  0
    6.0823   18.7194    0.0000 C   0  0  0  0  0  0  0  0  0  0  0  0
    6.8049   17.4049    0.0000 C   0  0  0  0  0  0  0  0  0  0  0  0
    7.3571   16.0103    0.0000 C   0  0  0  0  0  0  0  0  0  0  0  0
    7.7302   14.5574    0.0000 C   0  0  0  0  0  0  0  0  0  0  0  0
    7.9182   13.0692    0.0000 C   0  0  0  0  0  0  0  0  0  0  0  0
    7.9182   11.5692    0.0000 C   0  0  0  0  0  0  0  0  0  0  0  0
    7.7302   10.0810    0.0000 C   0  0  0  0  0  0  0  0  0  0  0  0
    7.3571    8.6282    0.0000 C   0  0  0  0  0  0  0  0  0  0  0  0
    6.8049    7.2335    0.0000 C   0  0  0  0  0  0  0  0  0  0  0  0
    6.0823    5.9190    0.0000 C   0  0  0  0  0  0  0  0  0  0  0  0
    5.2006    4.7055    0.0000 C   0  0  0  0  0  0  0  0  0  0  0  0
    4.1738    3.6121    0.0000 C   0  0  0  0  0  0  0  0  0  0  0  0
    3.0180    2.6559    0.0000 C   0  0  0  0  0  0  0  0  0  0  0  0
    1.7515    1.8522    0.0000 C   0  0  0  0  0  0  0  0  0  0  0  0
    0.3943    1.2135    0.0000 C   0  0  0  0  0  0  0  0  0  0  0  0
    1.2760    0.0000    0.0000 C   0  0  0  0  0  0  0  0  0  0  0  0
    0.3943   -1.2135    0.0000 C   0  0  0  0  0  0  0  0  0  0  0  0
   -1.0323   -0.7500    0.0000 C   0  0  0  0  0  0  0  0  0  0  0  0
   -1.0323    0.7500    0.0000 C   0  0  0  0  0  0  0  0  0  0  0  0
  1  2  1  0
  2  3  1  0
  3  4  2  0
  4  5  1  0
  5  6  2  0
  6  7  1  0
  7  8  2  0
  8  9  1  0
  9 10  2  0
 10 11  1  0
 11 12  2  0
 12 13  1  0
 13 14  2  0
 14 15  1  0
 15 16  2  0
 16 17  1  0
 17 18  2  0
 18 19  1  0
 19 20  2  0
 20 21  1  0
 21 22  2  0
 22 23  1  0
 23 24  2  0
 24 25  1  0
 25 26  2  0
 26 27  1  0
 27 28  2  0
 28 29  1  0
 29 30  2  0
 30 31  1  0
 31 32  2  0
 32 33  1  0
 33 34  2  0
 34 35  1  0
 35 36  2  0
 36 37  1  0
 37 38  2  0
 38 39  1  0
 39 40  2  0
 40 41  1  0
 41 42  2  0
 42 43  1  0
 43 44  2  0
 44 45  1  0
 45 46  2  0
 46 47  1  0
 47 48  2  0
 48 49  1  0
 49 50  2  0
 50 51  1  0
 51 52  2  0
 52 53  1  0
 53 54  2  0
 54  2  1  0
 54 50  1  0
M  END
>  <Title>  (66) 
idAAAPgen9

$$$$

     RDKit          2D

  6  5  0  0  0  0  0  0  0  0999 V2000
    0.0000    0.0000    0.0000 C   0  0  0  0  0  0  0  0  0  0  0  0
   -0.0000   -1.5000    0.0000 C   0  0  0  0  0  0  0  0  0  0  0  0
   -0.0000   -3.0000    0.0000 C   0  0  0  0  0  0  0  0  0  0  0  0
    1.2990   -3.7500    0.0000 C   0  0  0  0  0  0  0  0  0  0  0  0
    1.2990   -5.2500    0.0000 C   0  0  0  0  0  0  0  0  0  0  0  0
    2.5981   -6.0000    0.0000 C   0  0  0  0  0  0  0  0  0  0  0  0
  1  2  3  0
  2  3  1  0
  3  4  1  0
  4  5  2  3
  5  6  1  0
M  END
>  <Title>  (67) 
idAAAQgen9

$$$$

     RDKit          2D

104105  0  0  0  0  0  0  0  0999 V2000
   -2.3896    0.0990    0.0000 C   0  0  0  0  0  0  0  0  0  0  0  0
   -2.2470   -1.3942    0.0000 C   0  0  0  0  0  0  0  0  0  0  0  0
   -3.7349   -1.5841    0.0000 C   0  0  0  0  0  0  0  0  0  0  0  0
   -5.2078   -1.8679    0.0000 C   0  0  0  0  0  0  0  0  0  0  0  0
   -6.6597   -2.2447    0.0000 C   0  0  0  0  0  0  0  0  0  0  0  0
   -8.0848   -2.7127    0.0000 C   0  0  0  0  0  0  0  0  0  0  0  0
   -9.4774   -3.2702    0.0000 C   0  0  0  0  0  0  0  0  0  0  0  0
  -10.8318   -3.9149    0.0000 C   0  0  0  0  0  0  0  0  0  0  0  0
  -12.1426   -4.6442    0.0000 C   0  0  0  0  0  0  0  0  0  0  0  0
  -13.4044   -5.4552    0.0000 C   0  0  0  0  0  0  0  0  0  0  0  0
  -14.6123   -6.3445    0.0000 C   0  0  0  0  0  0  0  0  0  0  0  0
  -15.7614   -7.3087    0.0000 C   0  0  0  0  0  0  0  0  0  0  0  0
  -16.8470   -8.3438    0.0000 C   0  0  0  0  0  0  0  0  0  0  0  0
  -17.8648   -9.4457    0.0000 C   0  0  0  0  0  0  0  0  0  0  0  0
  -18.8106  -10.6099    0.0000 C   0  0  0  0  0  0  0  0  0  0  0  0
  -19.6807  -11.8318    0.0000 C   0  0  0  0  0  0  0  0  0  0  0  0
  -20.4715  -13.1064    0.0000 C   0  0  0  0  0  0  0  0  0  0  0  0
  -21.1799  -14.4286    0.0000 C   0  0  0  0  0  0  0  0  0  0  0  0
  -21.8031  -15.7930    0.0000 C   0  0  0  0  0  0  0  0  0  0  0  0
  -22.3384  -17.1942    0.0000 C   0  0  0  0  0  0  0  0  0  0  0  0
  -22.7838  -18.6266    0.0000 C   0  0  0  0  0  0  0  0  0  0  0  0
  -23.1374  -20.0843    0.0000 C   0  0  0  0  0  0  0  0  0  0  0  0
  -23.3979  -21.5615    0.0000 C   0  0  0  0  0  0  0  0  0  0  0  0
  -23.5641  -23.0523    0.0000 C   0  0  0  0  0  0  0  0  0  0  0  0
  -23.6355  -24.5506    0.0000 C   0  0  0  0  0  0  0  0  0  0  0  0
  -23.6117  -26.0504    0.0000 C   0  0  0  0  0  0  0  0  0  0  0  0
  -23.4928  -27.5457    0.0000 C   0  0  0  0  0  0  0  0  0  0  0  0
  -23.2794  -29.0304    0.0000 C   0  0  0  0  0  0  0  0  0  0  0  0
  -22.9721  -30.4986    0.0000 C   0  0  0  0  0  0  0  0  0  0  0  0
  -22.5724  -31.9444    0.0000 C   0  0  0  0  0  0  0  0  0  0  0  0
  -22.0818  -33.3619    0.0000 C   0  0  0  0  0  0  0  0  0  0  0  0
  -21.5023  -34.7454    0.0000 C   0  0  0  0  0  0  0  0  0  0  0  0
  -20.8362  -36.0894    0.0000 C   0  0  0  0  0  0  0  0  0  0  0  0
  -20.0862  -37.3884    0.0000 C   0  0  0  0  0  0  0  0  0  0  0  0
  -19.2553  -38.6373    0.0000 C   0  0  0  0  0  0  0  0  0  0  0  0
  -18.3469  -39.8309    0.0000 C   0  0  0  0  0  0  0  0  0  0  0  0
  -17.3646  -40.9645    0.0000 C   0  0  0  0  0  0  0  0  0  0  0  0
  -16.3124  -42.0336    0.0000 C   0  0  0  0  0  0  0  0  0  0  0  0
  -15.1945  -43.0337    0.0000 C   0  0  0  0  0  0  0  0  0  0  0  0
  -14.0154  -43.9610    0.0000 C   0  0  0  0  0  0  0  0  0  0  0  0
  -12.7799  -44.8116    0.0000 C   0  0  0  0  0  0  0  0  0  0  0  0
  -11.4929  -45.5821    0.0000 C   0  0  0  0  0  0  0  0  0  0  0  0
  -10.1597  -46.2694    0.0000 C   0  0  0  0  0  0  0  0  0  0  0  0
   -8.7855  -46.8708    0.0000 C   0  0  0  0  0  0  0  0  0  0  0  0
   -7.3760  -47.3838    0.0000 C   0  0  0  0  0  0  0  0  0  0  0  0
   -5.9368  -47.8064    0.0000 C   0  0  0  0  0  0  0  0  0  0  0  0
   -4.4736  -48.1369    0.0000 C   0  0  0  0  0  0  0  0  0  0  0  0
   -2.9925  -48.3739    0.0000 C   0  0  0  0  0  0  0  0  0  0  0  0
   -1.4992  -48.5165    0.0000 C   0  0  0  0  0  0  0  0  0  0  0  0
   -0.0000  -48.5641    0.0000 C   0  0  0  0  0  0  0  0  0  0  0  0
    1.4992  -48.5165    0.0000 C   0  0  0  0  0  0  0  0  0  0  0  0
    2.9925  -48.3739    0.0000 C   0  0  0  0  0  0  0  0  0  0  0  0
    4.4736  -48.1369    0.0000 C   0  0  0  0  0  0  0  0  0  0  0  0
    5.9368  -47.8064    0.0000 C   0  0  0  0  0  0  0  0  0  0  0  0
    7.3760  -47.3838    0.0000 C   0  0  0  0  0  0  0  0  0  0  0  0
    8.7855  -46.8708    0.0000 C   0  0  0  0  0  0  0  0  0  0  0  0
   10.1597  -46.2694    0.0000 C   0  0  0  0  0  0  0  0  0  0  0  0
   11.4929  -45.5821    0.0000 C   0  0  0  0  0  0  0  0  0  0  0  0
   12.7799  -44.8116    0.0000 C   0  0  0  0  0  0  0  0  0  0  0  0
   14.0154  -43.9610    0.0000 C   0  0  0  0  0  0  0  0  0  0  0  0
   15.1945  -43.0337    0.0000 C   0  0  0  0  0  0  0  0  0  0  0  0
   16.3124  -42.0336    0.0000 C   0  0  0  0  0  0  0  0  0  0  0  0
   17.3646  -40.9645    0.0000 C   0  0  0  0  0  0  0  0  0  0  0  0
   18.3469  -39.8309    0.0000 C   0  0  0  0  0  0  0  0  0  0  0  0
   19.2553  -38.6373    0.0000 C   0  0  0  0  0  0  0  0  0  0  0  0
   20.0862  -37.3884    0.0000 C   0  0  0  0  0  0  0  0  0  0  0  0
   20.8362  -36.0894    0.0000 C   0  0  0  0  0  0  0  0  0  0  0  0
   21.5023  -34.7454    0.0000 C   0  0  0  0  0  0  0  0  0  0  0  0
   22.0818  -33.3619    0.0000 C   0  0  0  0  0  0  0  0  0  0  0  0
   22.5724  -31.9444    0.0000 C   0  0  0  0  0  0  0  0  0  0  0  0
   22.9721  -30.4986    0.0000 C   0  0  0  0  0  0  0  0  0  0  0  0
   23.2794  -29.0304    0.0000 C   0  0  0  0  0  0  0  0  0  0  0  0
   23.4928  -27.5457    0.0000 C   0  0  0  0  0  0  0  0  0  0  0  0
   23.6117  -26.0504    0.0000 C   0  0  0  0  0  0  0  0  0  0  0  0
   23.6355  -24.5506    0.0000 C   0  0  0  0  0  0  0  0  0  0  0  0
   23.5641  -23.0523    0.0000 C   0  0  0  0  0  0  0  0  0  0  0  0
   23.3979  -21.5615    0.0000 C   0  0  0  0  0  0  0  0  0  0  0  0
   23.1374  -20.0843    0.0000 C   0  0  0  0  0  0  0  0  0  0  0  0
   22.7838  -18.6266    0.0000 C   0  0  0  0  0  0  0  0  0  0  0  0
   22.3384  -17.1942    0.0000 C   0  0  0  0  0  0  0  0  0  0  0  0
   21.8031  -15.7930    0.0000 C   0  0  0  0  0  0  0  0  0  0  0  0
   21.1799  -14.4286    0.0000 C   0  0  0  0  0  0  0  0  0  0  0  0
   20.4715  -13.1064    0.0000 C   0  0  0  0  0  0  0  0  0  0  0  0
   19.6807  -11.8318    0.0000 C   0  0  0  0  0  0  0  0  0  0  0  0
   18.8106  -10.6099    0.0000 C   0  0  0  0  0  0  0  0  0  0  0  0
   17.8648   -9.4457    0.0000 C   0  0  0  0  0  0  0  0  0  0  0  0
   16.8470   -8.3438    0.0000 C   0  0  0  0  0  0  0  0  0  0  0  0
   15.7614   -7.3087    0.0000 C   0  0  0  0  0  0  0  0  0  0  0  0
   14.6123   -6.3445    0.0000 C   0  0  0  0  0  0  0  0  0  0  0  0
   13.4044   -5.4552    0.0000 C   0  0  0  0  0  0  0  0  0  0  0  0
   12.1426   -4.6442    0.0000 C   0  0  0  0  0  0  0  0  0  0  0  0
   10.8318   -3.9149    0.0000 C   0  0  0  0  0  0  0  0  0  0  0  0
    9.4774   -3.2702    0.0000 C   0  0  0  0  0  0  0  0  0  0  0  0
    8.0848   -2.7127    0.0000 C   0  0  0  0  0  0  0  0  0  0  0  0
    6.6597   -2.2447    0.0000 C   0  0  0  0  0  0  0  0  0  0  0  0
    5.2078   -1.8679    0.0000 C   0  0  0  0  0  0  0  0  0  0  0  0
    3.7349   -1.5841    0.0000 C   0  0  0  0  0  0  0  0  0  0  0  0
    2.2470   -1.3942    0.0000 C   0  0  0  0  0  0  0  0  0  0  0  0
    0.7500   -1.2990    0.0000 C   0  0  0  0  0  0  0  0  0  0  0  0
    1.5000    0.0000    0.0000 C   0  0  0  0  0  0  0  0  0  0  0  0
    0.7500    1.2990    0.0000 C   0  0  0  0  0  0  0  0  0  0  0  0
   -0.7500    1.2990    0.0000 C   0  0  0  0  0  0  0  0  0  0  0  0
   -1.5000    0.0000    0.0000 C   0  0  0  0  0  0  0  0  0  0  0  0
   -0.7500   -1.2990    0.0000 C   0  0  0  0  0  0  0  0  0  0  0  0
  1  2  1  0
  2  3  1  0
  3  4  1  0
  4  5  1  0
  5  6  1  0
  6  7  1  0
  7  8  1  0
  8  9  1  0
  9 10  1  0
 10 11  1  0
 11 12  1  0
 12 13  1  0
 13 14  1  0
 14 15  1  0
 15 16  1  0
 16 17  1  0
 17 18  1  0
 18 19  1  0
 19 20  1  0
 20 21  1  0
 21 22  1  0
 22 23  1  0
 23 24  1  0
 24 25  1  0
 25 26  1  0
 26 27  1  0
 27 28  1  0
 28 29  1  0
 29 30  1  0
 30 31  1  0
 31 32  1  0
 32 33  1  0
 33 34  1  0
 34 35  1  0
 35 36  1  0
 36 37  1  0
 37 38  1  0
 38 39  1  0
 39 40  1  0
 40 41  1  0
 41 42  1  0
 42 43  1  0
 43 44  1  0
 44 45  1  0
 45 46  1  0
 46 47  1  0
 47 48  1  0
 48 49  1  0
 49 50  1  0
 50 51  1  0
 51 52  1  0
 52 53  1  0
 53 54  1  0
 54 55  1  0
 55 56  1  0
 56 57  1  0
 57 58  1  0
 58 59  1  0
 59 60  1  0
 60 61  1  0
 61 62  1  0
 62 63  1  0
 63 64  1  0
 64 65  1  0
 65 66  1  0
 66 67  1  0
 67 68  1  0
 68 69  1  0
 69 70  1  0
 70 71  1  0
 71 72  1  0
 72 73  1  0
 73 74  1  0
 74 75  1  0
 75 76  1  0
 76 77  1  0
 77 78  1  0
 78 79  1  0
 79 80  1  0
 80 81  1  0
 81 82  1  0
 82 83  1  0
 83 84  1  0
 84 85  1  0
 85 86  1  0
 86 87  1  0
 87 88  1  0
 88 89  1  0
 89 90  1  0
 90 91  1  0
 91 92  1  0
 92 93  1  0
 93 94  1  0
 94 95  1  0
 95 96  1  0
 96 97  1  0
 97 98  1  0
 98 99  1  0
 99100  2  0
100101  1  0
101102  2  0
102103  1  0
103104  2  0
104  2  1  0
104 99  1  0
M  END
>  <Title>  (68) 
idAAARgen9

$$$$

     RDKit          2D

104107  0  0  0  0  0  0  0  0999 V2000
   21.7969    0.0000    0.0000 C   0  0  0  0  0  0  0  0  0  0  0  0
   20.2969    0.0000    0.0000 C   0  0  0  0  0  0  0  0  0  0  0  0
   20.2414    1.4990    0.0000 C   0  0  0  0  0  0  0  0  0  0  0  0
   20.0755    2.9898    0.0000 C   0  0  0  0  0  0  0  0  0  0  0  0
   19.7998    4.4642    0.0000 C   0  0  0  0  0  0  0  0  0  0  0  0
   19.4161    5.9143    0.0000 C   0  0  0  0  0  0  0  0  0  0  0  0
   18.9263    7.3321    0.0000 C   0  0  0  0  0  0  0  0  0  0  0  0
   18.3331    8.7098    0.0000 C   0  0  0  0  0  0  0  0  0  0  0  0
   17.6398   10.0400    0.0000 C   0  0  0  0  0  0  0  0  0  0  0  0
   16.8501   11.3153    0.0000 C   0  0  0  0  0  0  0  0  0  0  0  0
   15.9685   12.5288    0.0000 C   0  0  0  0  0  0  0  0  0  0  0  0
   14.9996   13.6739    0.0000 C   0  0  0  0  0  0  0  0  0  0  0  0
   13.9488   14.7443    0.0000 C   0  0  0  0  0  0  0  0  0  0  0  0
   12.8218   15.7342    0.0000 C   0  0  0  0  0  0  0  0  0  0  0  0
   11.6247   16.6382    0.0000 C   0  0  0  0  0  0  0  0  0  0  0  0
   10.3642   17.4513    0.0000 C   0  0  0  0  0  0  0  0  0  0  0  0
    9.0471   18.1690    0.0000 C   0  0  0  0  0  0  0  0  0  0  0  0
    7.6806   18.7876    0.0000 C   0  0  0  0  0  0  0  0  0  0  0  0
    6.2721   19.3035    0.0000 C   0  0  0  0  0  0  0  0  0  0  0  0
    4.8293   19.7140    0.0000 C   0  0  0  0  0  0  0  0  0  0  0  0
    3.3602   20.0168    0.0000 C   0  0  0  0  0  0  0  0  0  0  0  0
    1.8728   20.2103    0.0000 C   0  0  0  0  0  0  0  0  0  0  0  0
    0.3751   20.2934    0.0000 C   0  0  0  0  0  0  0  0  0  0  0  0
   -1.1247   20.2657    0.0000 C   0  0  0  0  0  0  0  0  0  0  0  0
   -2.6183   20.1273    0.0000 C   0  0  0  0  0  0  0  0  0  0  0  0
   -4.0976   19.8790    0.0000 C   0  0  0  0  0  0  0  0  0  0  0  0
   -5.5545   19.5221    0.0000 C   0  0  0  0  0  0  0  0  0  0  0  0
   -6.9811   19.0585    0.0000 C   0  0  0  0  0  0  0  0  0  0  0  0
   -8.3695   18.4909    0.0000 C   0  0  0  0  0  0  0  0  0  0  0  0
   -9.7123   17.8223    0.0000 C   0  0  0  0  0  0  0  0  0  0  0  0
  -11.0020   17.0564    0.0000 C   0  0  0  0  0  0  0  0  0  0  0  0
  -12.2316   16.1973    0.0000 C   0  0  0  0  0  0  0  0  0  0  0  0
  -13.3944   15.2497    0.0000 C   0  0  0  0  0  0  0  0  0  0  0  0
  -14.4841   14.2188    0.0000 C   0  0  0  0  0  0  0  0  0  0  0  0
  -15.4946   13.1103    0.0000 C   0  0  0  0  0  0  0  0  0  0  0  0
  -16.4205   11.9302    0.0000 C   0  0  0  0  0  0  0  0  0  0  0  0
  -17.2568   10.6849    0.0000 C   0  0  0  0  0  0  0  0  0  0  0  0
  -17.9987    9.3813    0.0000 C   0  0  0  0  0  0  0  0  0  0  0  0
  -18.6424    8.0264    0.0000 C   0  0  0  0  0  0  0  0  0  0  0  0
  -19.1843    6.6277    0.0000 C   0  0  0  0  0  0  0  0  0  0  0  0
  -19.6214    5.1928    0.0000 C   0  0  0  0  0  0  0  0  0  0  0  0
  -19.9513    3.7295    0.0000 C   0  0  0  0  0  0  0  0  0  0  0  0
  -20.1722    2.2459    0.0000 C   0  0  0  0  0  0  0  0  0  0  0  0
  -20.2830    0.7500    0.0000 C   0  0  0  0  0  0  0  0  0  0  0  0
  -20.2830   -0.7500    0.0000 C   0  0  0  0  0  0  0  0  0  0  0  0
  -20.1722   -2.2459    0.0000 C   0  0  0  0  0  0  0  0  0  0  0  0
  -19.9513   -3.7295    0.0000 C   0  0  0  0  0  0  0  0  0  0  0  0
  -19.6214   -5.1928    0.0000 C   0  0  0  0  0  0  0  0  0  0  0  0
  -19.1843   -6.6277    0.0000 C   0  0  0  0  0  0  0  0  0  0  0  0
  -18.6424   -8.0264    0.0000 C   0  0  0  0  0  0  0  0  0  0  0  0
  -17.9987   -9.3813    0.0000 C   0  0  0  0  0  0  0  0  0  0  0  0
  -17.2568  -10.6849    0.0000 C   0  0  0  0  0  0  0  0  0  0  0  0
  -16.4205  -11.9302    0.0000 C   0  0  0  0  0  0  0  0  0  0  0  0
  -15.4946  -13.1103    0.0000 C   0  0  0  0  0  0  0  0  0  0  0  0
  -14.4841  -14.2188    0.0000 C   0  0  0  0  0  0  0  0  0  0  0  0
  -13.3944  -15.2497    0.0000 C   0  0  0  0  0  0  0  0  0  0  0  0
  -12.2316  -16.1973    0.0000 C   0  0  0  0  0  0  0  0  0  0  0  0
  -11.0020  -17.0564    0.0000 C   0  0  0  0  0  0  0  0  0  0  0  0
   -9.7123  -17.8223    0.0000 C   0  0  0  0  0  0  0  0  0  0  0  0
   -8.3695  -18.4909    0.0000 C   0  0  0  0  0  0  0  0  0  0  0  0
   -6.9811  -19.0585    0.0000 C   0  0  0  0  0  0  0  0  0  0  0  0
   -5.5545  -19.5221    0.0000 C   0  0  0  0  0  0  0  0  0  0  0  0
   -4.0976  -19.8790    0.0000 C   0  0  0  0  0  0  0  0  0  0  0  0
   -2.6183  -20.1273    0.0000 C   0  0  0  0  0  0  0  0  0  0  0  0
   -1.1247  -20.2657    0.0000 C   0  0  0  0  0  0  0  0  0  0  0  0
    0.3751  -20.2934    0.0000 C   0  0  0  0  0  0  0  0  0  0  0  0
    1.8728  -20.2103    0.0000 C   0  0  0  0  0  0  0  0  0  0  0  0
    3.3602  -20.0168    0.0000 C   0  0  0  0  0  0  0  0  0  0  0  0
    4.8293  -19.7140    0.0000 C   0  0  0  0  0  0  0  0  0  0  0  0
    6.2721  -19.3035    0.0000 C   0  0  0  0  0  0  0  0  0  0  0  0
    7.6806  -18.7876    0.0000 C   0  0  0  0  0  0  0  0  0  0  0  0
    9.0471  -18.1690    0.0000 C   0  0  0  0  0  0  0  0  0  0  0  0
   10.3642  -17.4513    0.0000 C   0  0  0  0  0  0  0  0  0  0  0  0
   11.6247  -16.6382    0.0000 C   0  0  0  0  0  0  0  0  0  0  0  0
   12.8218  -15.7342    0.0000 C   0  0  0  0  0  0  0  0  0  0  0  0
   13.9488  -14.7443    0.0000 C   0  0  0  0  0  0  0  0  0  0  0  0
   14.9996  -13.6739    0.0000 C   0  0  0  0  0  0  0  0  0  0  0  0
   15.9685  -12.5288    0.0000 C   0  0  0  0  0  0  0  0  0  0  0  0
   16.8501  -11.3153    0.0000 C   0  0  0  0  0  0  0  0  0  0  0  0
   17.6398  -10.0400    0.0000 C   0  0  0  0  0  0  0  0  0  0  0  0
   18.3331   -8.7098    0.0000 C   0  0  0  0  0  0  0  0  0  0  0  0
   18.9263   -7.3321    0.0000 C   0  0  0  0  0  0  0  0  0  0  0  0
   19.4161   -5.9143    0.0000 C   0  0  0  0  0  0  0  0  0  0  0  0
   19.7998   -4.4642    0.0000 C   0  0  0  0  0  0  0  0  0  0  0  0
   20.0755   -2.9898    0.0000 C   0  0  0  0  0  0  0  0  0  0  0  0
   20.2414   -1.4990    0.0000 C   0  0  0  0  0  0  0  0  0  0  0  0
   21.7374   -1.6098    0.0000 C   0  0  0  0  0  0  0  0  0  0  0  0
   22.5812   -0.3697    0.0000 C   0  0  0  0  0  0  0  0  0  0  0  0
   24.0771   -0.4804    0.0000 C   0  0  0  0  0  0  0  0  0  0  0  0
   24.7292   -1.8313    0.0000 C   0  0  0  0  0  0  0  0  0  0  0  0
   23.8853   -3.0714    0.0000 C   0  0  0  0  0  0  0  0  0  0  0  0
   22.3894   -2.9606    0.0000 C   0  0  0  0  0  0  0  0  0  0  0  0
   21.5455   -4.2007    0.0000 C   0  0  0  0  0  0  0  0  0  0  0  0
   20.0496   -4.0900    0.0000 C   0  0  0  0  0  0  0  0  0  0  0  0
   19.2057   -5.3301    0.0000 C   0  0  0  0  0  0  0  0  0  0  0  0
   19.8577   -6.6809    0.0000 C   0  0  0  0  0  0  0  0  0  0  0  0
   21.3536   -6.7917    0.0000 C   0  0  0  0  0  0  0  0  0  0  0  0
   22.1975   -5.5516    0.0000 C   0  0  0  0  0  0  0  0  0  0  0  0
   23.6934   -5.6624    0.0000 C   0  0  0  0  0  0  0  0  0  0  0  0
   24.3454   -7.0133    0.0000 C   0  0  0  0  0  0  0  0  0  0  0  0
   25.8413   -7.1241    0.0000 C   0  0  0  0  0  0  0  0  0  0  0  0
   26.6852   -5.8840    0.0000 C   0  0  0  0  0  0  0  0  0  0  0  0
   26.0332   -4.5331    0.0000 C   0  0  0  0  0  0  0  0  0  0  0  0
   24.5373   -4.4223    0.0000 C   0  0  0  0  0  0  0  0  0  0  0  0
  1  2  1  0
  2  3  2  0
  3  4  1  0
  4  5  1  0
  5  6  1  0
  6  7  1  0
  7  8  1  0
  8  9  1  0
  9 10  1  0
 10 11  1  0
 11 12  1  0
 12 13  1  0
 13 14  1  0
 14 15  1  0
 15 16  1  0
 16 17  1  0
 17 18  1  0
 18 19  1  0
 19 20  1  0
 20 21  1  0
 21 22  1  0
 22 23  1  0
 23 24  1  0
 24 25  1  0
 25 26  1  0
 26 27  1  0
 27 28  1  0
 28 29  1  0
 29 30  1  0
 30 31  1  0
 31 32  1  0
 32 33  1  0
 33 34  1  0
 34 35  1  0
 35 36  1  0
 36 37  1  0
 37 38  1  0
 38 39  1  0
 39 40  1  0
 40 41  1  0
 41 42  1  0
 42 43  1  0
 43 44  1  0
 44 45  1  0
 45 46  1  0
 46 47  1  0
 47 48  1  0
 48 49  1  0
 49 50  1  0
 50 51  1  0
 51 52  1  0
 52 53  1  0
 53 54  1  0
 54 55  1  0
 55 56  1  0
 56 57  1  0
 57 58  1  0
 58 59  1  0
 59 60  1  0
 60 61  1  0
 61 62  1  0
 62 63  1  0
 63 64  1  0
 64 65  1  0
 65 66  1  0
 66 67  1  0
 67 68  1  0
 68 69  1  0
 69 70  1  0
 70 71  1  0
 71 72  1  0
 72 73  1  0
 73 74  1  0
 74 75  1  0
 75 76  2  0
 76 77  1  0
 77 78  2  0
 78 79  1  0
 79 80  2  0
 80 81  1  0
 81 82  2  0
 82 83  1  0
 83 84  2  0
 84 85  1  0
 85 86  2  0
 86 87  1  0
 87 88  2  0
 88 89  1  0
 89 90  2  0
 90 91  1  0
 91 92  2  0
 92 93  1  0
 93 94  2  0
 94 95  1  0
 95 96  2  0
 96 97  1  0
 97 98  2  0
 98 99  1  0
 99100  2  0
100101  1  0
101102  2  0
102103  1  0
103104  2  0
 86  2  1  0
 92 87  1  0
 98 93  1  0
104 99  1  0
M  END
>  <Title>  (69) 
idAAASgen9

$$$$

     RDKit          2D

 26 29  0  0  0  0  0  0  0  0999 V2000
   -1.3240   -6.3062    0.0000 C   0  0  0  0  0  0  0  0  0  0  0  0
   -0.7500   -4.9204    0.0000 C   0  0  0  0  0  0  0  0  0  0  0  0
    0.7500   -4.9204    0.0000 C   0  0  0  0  0  0  0  0  0  0  0  0
    1.8107   -3.8597    0.0000 C   0  0  0  0  0  0  0  0  0  0  0  0
    1.8107   -2.3597    0.0000 C   0  0  0  0  0  0  0  0  0  0  0  0
    3.1965   -1.7857    0.0000 C   0  0  0  0  0  0  0  0  0  0  0  0
    3.3923   -0.2985    0.0000 O   0  0  0  0  0  0  0  0  0  0  0  0
    4.3865   -2.6988    0.0000 N   0  0  0  0  0  0  0  0  0  0  0  0
    5.7723   -2.1248    0.0000 C   0  0  0  0  0  0  0  0  0  0  0  0
    6.9624   -3.0379    0.0000 N   0  0  0  0  0  0  0  0  0  0  0  0
    8.3482   -2.4639    0.0000 N   0  0  0  0  0  0  0  0  0  0  0  0
    8.5440   -0.9767    0.0000 N   0  0  0  0  0  0  0  0  0  0  0  0
    7.3539   -0.0636    0.0000 N   0  0  0  0  0  0  0  0  0  0  0  0
    5.9681   -0.6376    0.0000 N   0  0  0  0  0  0  0  0  0  0  0  0
    0.7500   -1.2990    0.0000 C   0  0  0  0  0  0  0  0  0  0  0  0
    1.5000    0.0000    0.0000 C   0  0  0  0  0  0  0  0  0  0  0  0
    0.7500    1.2990    0.0000 C   0  0  0  0  0  0  0  0  0  0  0  0
   -0.7500    1.2990    0.0000 C   0  0  0  0  0  0  0  0  0  0  0  0
   -1.5000    0.0000    0.0000 C   0  0  0  0  0  0  0  0  0  0  0  0
   -0.7500   -1.2990    0.0000 C   0  0  0  0  0  0  0  0  0  0  0  0
   -1.8107   -2.3597    0.0000 C   0  0  0  0  0  0  0  0  0  0  0  0
   -3.1097   -1.6097    0.0000 C   0  0  0  0  0  0  0  0  0  0  0  0
   -4.4087   -2.3597    0.0000 C   0  0  0  0  0  0  0  0  0  0  0  0
   -4.4087   -3.8597    0.0000 C   0  0  0  0  0  0  0  0  0  0  0  0
   -3.1097   -4.6097    0.0000 C   0  0  0  0  0  0  0  0  0  0  0  0
   -1.8107   -3.8597    0.0000 C   0  0  0  0  0  0  0  0  0  0  0  0
  1  2  1  0
  2  3  2  0
  3  4  1  0
  4  5  1  0
  5  6  1  0
  6  7  2  0
  6  8  1  0
  8  9  1  0
  9 10  2  0
 10 11  1  0
 11 12  2  0
 12 13  1  0
 13 14  2  0
  5 15  1  0
 15 16  2  0
 16 17  1  0
 17 18  2  0
 18 19  1  0
 19 20  2  0
 20 21  1  0
 21 22  2  0
 22 23  1  0
 23 24  2  0
 24 25  1  0
 25 26  2  0
 26  2  1  0
 14  9  1  0
 20 15  1  0
 26 21  1  0
M  END
>  <Title>  (70) 
idAAATgen9

$$$$

     RDKit          2D

  8  8  0  0  0  0  0  0  0  0999 V2000
    3.0000    0.0000    0.0000 C   0  0  0  0  0  0  0  0  0  0  0  0
    1.5000    0.0000    0.0000 C   0  0  0  0  0  0  0  0  0  0  0  0
    0.7500   -1.2990    0.0000 C   0  0  0  0  0  0  0  0  0  0  0  0
   -0.7500   -1.2990    0.0000 C   0  0  0  0  0  0  0  0  0  0  0  0
   -1.5000    0.0000    0.0000 C   0  0  0  0  0  0  0  0  0  0  0  0
   -3.0000    0.0000    0.0000 O   0  0  0  0  0  0  0  0  0  0  0  0
   -0.7500    1.2990    0.0000 C   0  0  0  0  0  0  0  0  0  0  0  0
    0.7500    1.2990    0.0000 C   0  0  0  0  0  0  0  0  0  0  0  0
  1  2  1  0
  2  3  2  0
  3  4  1  0
  4  5  2  0
  5  6  1  0
  5  7  1  0
  7  8  2  0
  8  2  1  0
M  END
>  <Title>  (71) 
idAAAUgen9

$$$$

     RDKit          2D

 22 24  0  0  0  0  0  0  0  0999 V2000
    9.1375    4.9736    0.0000 C   0  0  0  0  0  0  0  0  0  0  0  0
    8.9807    3.4818    0.0000 C   0  0  0  0  0  0  0  0  0  0  0  0
    7.6104    2.8717    0.0000 C   0  0  0  0  0  0  0  0  0  0  0  0
    7.4536    1.3799    0.0000 C   0  0  0  0  0  0  0  0  0  0  0  0
    6.1545    0.6299    0.0000 C   0  0  0  0  0  0  0  0  0  0  0  0
    6.4664   -0.8373    0.0000 C   0  0  0  0  0  0  0  0  0  0  0  0
    5.4627   -1.9520    0.0000 C   0  0  0  0  0  0  0  0  0  0  0  0
    5.9262   -3.3786    0.0000 O   0  0  0  0  0  0  0  0  0  0  0  0
    3.9955   -1.6402    0.0000 N   0  0  0  0  0  0  0  0  0  0  0  0
    2.9918   -2.7549    0.0000 C   0  0  0  0  0  0  0  0  0  0  0  0
    3.3037   -4.2221    0.0000 N   0  0  0  0  0  0  0  0  0  0  0  0
    2.0046   -4.9721    0.0000 N   0  0  0  0  0  0  0  0  0  0  0  0
    0.8899   -3.9684    0.0000 N   0  0  0  0  0  0  0  0  0  0  0  0
    1.5000   -2.5981    0.0000 C   0  0  0  0  0  0  0  0  0  0  0  0
    0.7500   -1.2990    0.0000 C   0  0  0  0  0  0  0  0  0  0  0  0
    1.5000    0.0000    0.0000 C   0  0  0  0  0  0  0  0  0  0  0  0
    0.7500    1.2990    0.0000 C   0  0  0  0  0  0  0  0  0  0  0  0
   -0.7500    1.2990    0.0000 C   0  0  0  0  0  0  0  0  0  0  0  0
   -1.5000    0.0000    0.0000 C   0  0  0  0  0  0  0  0  0  0  0  0
   -0.7500   -1.2990    0.0000 C   0  0  0  0  0  0  0  0  0  0  0  0
    7.9582   -0.9941    0.0000 C   0  0  0  0  0  0  0  0  0  0  0  0
    8.5683    0.3762    0.0000 C   0  0  0  0  0  0  0  0  0  0  0  0
  1  2  1  0
  2  3  1  0
  3  4  1  0
  4  5  2  0
  5  6  1  0
  6  7  1  0
  7  8  2  0
  7  9  1  0
  9 10  1  0
 10 11  2  0
 11 12  1  0
 12 13  2  0
 13 14  1  0
 14 15  1  0
 15 16  2  0
 16 17  1  0
 17 18  2  0
 18 19  1  0
 19 20  2  0
  6 21  1  0
 21 22  1  0
 22  4  1  0
 14 10  1  0
 20 15  1  0
M  END
>  <Title>  (72) 
idAAAVgen9

$$$$

     RDKit          2D

105106  0  0  0  0  0  0  0  0999 V2000
   -2.3882    0.1001    0.0000 C   0  0  0  0  0  0  0  0  0  0  0  0
   -2.2470   -1.3932    0.0000 C   0  0  0  0  0  0  0  0  0  0  0  0
   -3.7352   -1.5812    0.0000 C   0  0  0  0  0  0  0  0  0  0  0  0
   -5.2086   -1.8623    0.0000 C   0  0  0  0  0  0  0  0  0  0  0  0
   -6.6615   -2.2353    0.0000 C   0  0  0  0  0  0  0  0  0  0  0  0
   -8.0881   -2.6989    0.0000 C   0  0  0  0  0  0  0  0  0  0  0  0
   -9.4828   -3.2510    0.0000 C   0  0  0  0  0  0  0  0  0  0  0  0
  -10.8400   -3.8897    0.0000 C   0  0  0  0  0  0  0  0  0  0  0  0
  -12.1545   -4.6123    0.0000 C   0  0  0  0  0  0  0  0  0  0  0  0
  -13.4210   -5.4161    0.0000 C   0  0  0  0  0  0  0  0  0  0  0  0
  -14.6345   -6.2978    0.0000 C   0  0  0  0  0  0  0  0  0  0  0  0
  -15.7903   -7.2539    0.0000 C   0  0  0  0  0  0  0  0  0  0  0  0
  -16.8837   -8.2807    0.0000 C   0  0  0  0  0  0  0  0  0  0  0  0
  -17.9105   -9.3742    0.0000 C   0  0  0  0  0  0  0  0  0  0  0  0
  -18.8667  -10.5299    0.0000 C   0  0  0  0  0  0  0  0  0  0  0  0
  -19.7483  -11.7435    0.0000 C   0  0  0  0  0  0  0  0  0  0  0  0
  -20.5521  -13.0100    0.0000 C   0  0  0  0  0  0  0  0  0  0  0  0
  -21.2747  -14.3244    0.0000 C   0  0  0  0  0  0  0  0  0  0  0  0
  -21.9134  -15.6817    0.0000 C   0  0  0  0  0  0  0  0  0  0  0  0
  -22.4656  -17.0763    0.0000 C   0  0  0  0  0  0  0  0  0  0  0  0
  -22.9291  -18.5029    0.0000 C   0  0  0  0  0  0  0  0  0  0  0  0
  -23.3021  -19.9558    0.0000 C   0  0  0  0  0  0  0  0  0  0  0  0
  -23.5832  -21.4292    0.0000 C   0  0  0  0  0  0  0  0  0  0  0  0
  -23.7712  -22.9174    0.0000 C   0  0  0  0  0  0  0  0  0  0  0  0
  -23.8654  -24.4144    0.0000 C   0  0  0  0  0  0  0  0  0  0  0  0
  -23.8654  -25.9144    0.0000 C   0  0  0  0  0  0  0  0  0  0  0  0
  -23.7712  -27.4115    0.0000 C   0  0  0  0  0  0  0  0  0  0  0  0
  -23.5832  -28.8996    0.0000 C   0  0  0  0  0  0  0  0  0  0  0  0
  -23.3021  -30.3731    0.0000 C   0  0  0  0  0  0  0  0  0  0  0  0
  -22.9291  -31.8259    0.0000 C   0  0  0  0  0  0  0  0  0  0  0  0
  -22.4656  -33.2525    0.0000 C   0  0  0  0  0  0  0  0  0  0  0  0
  -21.9134  -34.6472    0.0000 C   0  0  0  0  0  0  0  0  0  0  0  0
  -21.2747  -36.0044    0.0000 C   0  0  0  0  0  0  0  0  0  0  0  0
  -20.5521  -37.3189    0.0000 C   0  0  0  0  0  0  0  0  0  0  0  0
  -19.7483  -38.5854    0.0000 C   0  0  0  0  0  0  0  0  0  0  0  0
  -18.8667  -39.7989    0.0000 C   0  0  0  0  0  0  0  0  0  0  0  0
  -17.9105  -40.9547    0.0000 C   0  0  0  0  0  0  0  0  0  0  0  0
  -16.8837  -42.0481    0.0000 C   0  0  0  0  0  0  0  0  0  0  0  0
  -15.7903  -43.0750    0.0000 C   0  0  0  0  0  0  0  0  0  0  0  0
  -14.6345  -44.0311    0.0000 C   0  0  0  0  0  0  0  0  0  0  0  0
  -13.4210  -44.9128    0.0000 C   0  0  0  0  0  0  0  0  0  0  0  0
  -12.1545  -45.7165    0.0000 C   0  0  0  0  0  0  0  0  0  0  0  0
  -10.8400  -46.4391    0.0000 C   0  0  0  0  0  0  0  0  0  0  0  0
   -9.4828  -47.0778    0.0000 C   0  0  0  0  0  0  0  0  0  0  0  0
   -8.0881  -47.6300    0.0000 C   0  0  0  0  0  0  0  0  0  0  0  0
   -6.6615  -48.0935    0.0000 C   0  0  0  0  0  0  0  0  0  0  0  0
   -5.2086  -48.4666    0.0000 C   0  0  0  0  0  0  0  0  0  0  0  0
   -3.7352  -48.7476    0.0000 C   0  0  0  0  0  0  0  0  0  0  0  0
   -2.2470  -48.9356    0.0000 C   0  0  0  0  0  0  0  0  0  0  0  0
   -0.7500  -49.0298    0.0000 C   0  0  0  0  0  0  0  0  0  0  0  0
    0.7500  -49.0298    0.0000 C   0  0  0  0  0  0  0  0  0  0  0  0
    2.2470  -48.9356    0.0000 C   0  0  0  0  0  0  0  0  0  0  0  0
    3.7352  -48.7476    0.0000 C   0  0  0  0  0  0  0  0  0  0  0  0
    5.2086  -48.4666    0.0000 C   0  0  0  0  0  0  0  0  0  0  0  0
    6.6615  -48.0935    0.0000 C   0  0  0  0  0  0  0  0  0  0  0  0
    8.0881  -47.6300    0.0000 C   0  0  0  0  0  0  0  0  0  0  0  0
    9.4828  -47.0778    0.0000 C   0  0  0  0  0  0  0  0  0  0  0  0
   10.8400  -46.4391    0.0000 C   0  0  0  0  0  0  0  0  0  0  0  0
   12.1545  -45.7165    0.0000 C   0  0  0  0  0  0  0  0  0  0  0  0
   13.4210  -44.9128    0.0000 C   0  0  0  0  0  0  0  0  0  0  0  0
   14.6345  -44.0311    0.0000 C   0  0  0  0  0  0  0  0  0  0  0  0
   15.7903  -43.0750    0.0000 C   0  0  0  0  0  0  0  0  0  0  0  0
   16.8837  -42.0481    0.0000 C   0  0  0  0  0  0  0  0  0  0  0  0
   17.9105  -40.9547    0.0000 C   0  0  0  0  0  0  0  0  0  0  0  0
   18.8667  -39.7989    0.0000 C   0  0  0  0  0  0  0  0  0  0  0  0
   19.7483  -38.5854    0.0000 C   0  0  0  0  0  0  0  0  0  0  0  0
   20.5521  -37.3189    0.0000 C   0  0  0  0  0  0  0  0  0  0  0  0
   21.2747  -36.0044    0.0000 C   0  0  0  0  0  0  0  0  0  0  0  0
   21.9134  -34.6472    0.0000 C   0  0  0  0  0  0  0  0  0  0  0  0
   22.4656  -33.2525    0.0000 C   0  0  0  0  0  0  0  0  0  0  0  0
   22.9291  -31.8259    0.0000 C   0  0  0  0  0  0  0  0  0  0  0  0
   23.3021  -30.3731    0.0000 C   0  0  0  0  0  0  0  0  0  0  0  0
   23.5832  -28.8996    0.0000 C   0  0  0  0  0  0  0  0  0  0  0  0
   23.7712  -27.4115    0.0000 C   0  0  0  0  0  0  0  0  0  0  0  0
   23.8654  -25.9144    0.0000 C   0  0  0  0  0  0  0  0  0  0  0  0
   23.8654  -24.4144    0.0000 C   0  0  0  0  0  0  0  0  0  0  0  0
   23.7712  -22.9174    0.0000 C   0  0  0  0  0  0  0  0  0  0  0  0
   23.5832  -21.4292    0.0000 C   0  0  0  0  0  0  0  0  0  0  0  0
   23.3021  -19.9558    0.0000 C   0  0  0  0  0  0  0  0  0  0  0  0
   22.9291  -18.5029    0.0000 C   0  0  0  0  0  0  0  0  0  0  0  0
   22.4656  -17.0763    0.0000 C   0  0  0  0  0  0  0  0  0  0  0  0
   21.9134  -15.6817    0.0000 C   0  0  0  0  0  0  0  0  0  0  0  0
   21.2747  -14.3244    0.0000 C   0  0  0  0  0  0  0  0  0  0  0  0
   20.5521  -13.0100    0.0000 C   0  0  0  0  0  0  0  0  0  0  0  0
   19.7483  -11.7435    0.0000 C   0  0  0  0  0  0  0  0  0  0  0  0
   18.8667  -10.5299    0.0000 C   0  0  0  0  0  0  0  0  0  0  0  0
   17.9105   -9.3742    0.0000 C   0  0  0  0  0  0  0  0  0  0  0  0
   16.8837   -8.2807    0.0000 C   0  0  0  0  0  0  0  0  0  0  0  0
   15.7903   -7.2539    0.0000 C   0  0  0  0  0  0  0  0  0  0  0  0
   14.6345   -6.2978    0.0000 C   0  0  0  0  0  0  0  0  0  0  0  0
   13.4210   -5.4161    0.0000 C   0  0  0  0  0  0  0  0  0  0  0  0
   12.1545   -4.6123    0.0000 C   0  0  0  0  0  0  0  0  0  0  0  0
   10.8400   -3.8897    0.0000 C   0  0  0  0  0  0  0  0  0  0  0  0
    9.4828   -3.2510    0.0000 C   0  0  0  0  0  0  0  0  0  0  0  0
    8.0881   -2.6989    0.0000 C   0  0  0  0  0  0  0  0  0  0  0  0
    6.6615   -2.2353    0.0000 C   0  0  0  0  0  0  0  0  0  0  0  0
    5.2086   -1.8623    0.0000 C   0  0  0  0  0  0  0  0  0  0  0  0
    3.7352   -1.5812    0.0000 C   0  0  0  0  0  0  0  0  0  0  0  0
    2.2470   -1.3932    0.0000 C   0  0  0  0  0  0  0  0  0  0  0  0
    0.7500   -1.2990    0.0000 C   0  0  0  0  0  0  0  0  0  0  0  0
    1.5000    0.0000    0.0000 C   0  0  0  0  0  0  0  0  0  0  0  0
    0.7500    1.2990    0.0000 C   0  0  0  0  0  0  0  0  0  0  0  0
   -0.7500    1.2990    0.0000 C   0  0  0  0  0  0  0  0  0  0  0  0
   -1.5000    0.0000    0.0000 C   0  0  0  0  0  0  0  0  0  0  0  0
   -0.7500   -1.2990    0.0000 C   0  0  0  0  0  0  0  0  0  0  0  0
  1  2  1  0
  2  3  1  0
  3  4  1  0
  4  5  1  0
  5  6  1  0
  6  7  1  0
  7  8  1  0
  8  9  1  0
  9 10  1  0
 10 11  1  0
 11 12  1  0
 12 13  1  0
 13 14  1  0
 14 15  1  0
 15 16  1  0
 16 17  1  0
 17 18  1  0
 18 19  1  0
 19 20  1  0
 20 21  1  0
 21 22  1  0
 22 23  1  0
 23 24  1  0
 24 25  1  0
 25 26  1  0
 26 27  1  0
 27 28  1  0
 28 29  1  0
 29 30  1  0
 30 31  1  0
 31 32  1  0
 32 33  1  0
 33 34  1  0
 34 35  1  0
 35 36  1  0
 36 37  1  0
 37 38  1  0
 38 39  1  0
 39 40  1  0
 40 41  1  0
 41 42  1  0
 42 43  1  0
 43 44  1  0
 44 45  1  0
 45 46  1  0
 46 47  1  0
 47 48  1  0
 48 49  1  0
 49 50  1  0
 50 51  1  0
 51 52  1  0
 52 53  1  0
 53 54  1  0
 54 55  1  0
 55 56  1  0
 56 57  1  0
 57 58  1  0
 58 59  1  0
 59 60  1  0
 60 61  1  0
 61 62  1  0
 62 63  1  0
 63 64  1  0
 64 65  1  0
 65 66  1  0
 66 67  1  0
 67 68  1  0
 68 69  1  0
 69 70  1  0
 70 71  1  0
 71 72  1  0
 72 73  1  0
 73 74  1  0
 74 75  1  0
 75 76  1  0
 76 77  1  0
 77 78  1  0
 78 79  1  0
 79 80  1  0
 80 81  1  0
 81 82  1  0
 82 83  1  0
 83 84  1  0
 84 85  1  0
 85 86  1  0
 86 87  1  0
 87 88  1  0
 88 89  1  0
 89 90  1  0
 90 91  1  0
 91 92  1  0
 92 93  1  0
 93 94  1  0
 94 95  1  0
 95 96  1  0
 96 97  1  0
 97 98  1  0
 98 99  1  0
 99100  1  0
100101  1  0
101102  1  0
102103  1  0
103104  1  0
104105  2  0
105  2  1  0
105100  1  0
M  END
>  <Title>  (73) 
idAAAWgen9

$$$$

     RDKit          2D

 49 56  0  0  0  0  0  0  0  0999 V2000
    3.1097   -7.2078    0.0000 C   0  0  0  0  0  0  0  0  0  0  0  0
    2.0490   -6.1471    0.0000 C   0  0  0  0  0  0  0  0  0  0  0  0
    2.7990   -4.8481    0.0000 C   0  0  0  0  0  0  0  0  0  0  0  0
    2.7990   -3.3481    0.0000 C   0  0  0  0  0  0  0  0  0  0  0  0
    2.0490   -2.0490    0.0000 C   0  0  0  0  0  0  0  0  0  0  0  0
    3.1097   -0.9884    0.0000 C   0  0  0  0  0  0  0  0  0  0  0  0
    2.7215    0.4605    0.0000 O   0  0  0  0  0  0  0  0  0  0  0  0
    4.5586   -1.3766    0.0000 N   0  0  0  0  0  0  0  0  0  0  0  0
    5.6192   -0.3159    0.0000 C   0  0  0  0  0  0  0  0  0  0  0  0
    5.3846    1.1656    0.0000 N   0  0  0  0  0  0  0  0  0  0  0  0
    6.7211    1.8466    0.0000 N   0  0  0  0  0  0  0  0  0  0  0  0
    7.7818    0.7859    0.0000 N   0  0  0  0  0  0  0  0  0  0  0  0
    7.1008   -0.5506    0.0000 N   0  0  0  0  0  0  0  0  0  0  0  0
    7.7818   -1.8871    0.0000 C   0  0  0  0  0  0  0  0  0  0  0  0
    6.9648   -3.1451    0.0000 C   0  0  0  0  0  0  0  0  0  0  0  0
    7.6458   -4.4816    0.0000 C   0  0  0  0  0  0  0  0  0  0  0  0
    9.1437   -4.5601    0.0000 C   0  0  0  0  0  0  0  0  0  0  0  0
    9.9607   -3.3021    0.0000 C   0  0  0  0  0  0  0  0  0  0  0  0
    9.2797   -1.9656    0.0000 C   0  0  0  0  0  0  0  0  0  0  0  0
   10.0967   -0.7076    0.0000 C   0  0  0  0  0  0  0  0  0  0  0  0
   11.5946   -0.7861    0.0000 C   0  0  0  0  0  0  0  0  0  0  0  0
   12.4116    0.4719    0.0000 C   0  0  0  0  0  0  0  0  0  0  0  0
   11.7306    1.8084    0.0000 C   0  0  0  0  0  0  0  0  0  0  0  0
   10.2326    1.8869    0.0000 C   0  0  0  0  0  0  0  0  0  0  0  0
    9.4157    0.6289    0.0000 C   0  0  0  0  0  0  0  0  0  0  0  0
    0.7500   -1.2990    0.0000 C   0  0  0  0  0  0  0  0  0  0  0  0
    1.5000    0.0000    0.0000 C   0  0  0  0  0  0  0  0  0  0  0  0
    0.7500    1.2990    0.0000 C   0  0  0  0  0  0  0  0  0  0  0  0
   -0.7500    1.2990    0.0000 C   0  0  0  0  0  0  0  0  0  0  0  0
   -1.5000    0.0000    0.0000 C   0  0  0  0  0  0  0  0  0  0  0  0
   -0.7500   -1.2990    0.0000 C   0  0  0  0  0  0  0  0  0  0  0  0
   -2.0490   -2.0490    0.0000 C   0  0  0  0  0  0  0  0  0  0  0  0
   -2.7990   -0.7500    0.0000 C   0  0  0  0  0  0  0  0  0  0  0  0
   -4.2990   -0.7500    0.0000 C   0  0  0  0  0  0  0  0  0  0  0  0
   -5.0490   -2.0490    0.0000 C   0  0  0  0  0  0  0  0  0  0  0  0
   -4.2990   -3.3481    0.0000 C   0  0  0  0  0  0  0  0  0  0  0  0
   -2.7990   -3.3481    0.0000 C   0  0  0  0  0  0  0  0  0  0  0  0
   -2.7990   -4.8481    0.0000 C   0  0  0  0  0  0  0  0  0  0  0  0
   -4.2990   -4.8481    0.0000 C   0  0  0  0  0  0  0  0  0  0  0  0
   -5.0490   -6.1471    0.0000 C   0  0  0  0  0  0  0  0  0  0  0  0
   -4.2990   -7.4462    0.0000 C   0  0  0  0  0  0  0  0  0  0  0  0
   -2.7990   -7.4462    0.0000 C   0  0  0  0  0  0  0  0  0  0  0  0
   -2.0490   -6.1471    0.0000 C   0  0  0  0  0  0  0  0  0  0  0  0
   -0.7500   -6.8971    0.0000 C   0  0  0  0  0  0  0  0  0  0  0  0
   -1.5000   -8.1962    0.0000 C   0  0  0  0  0  0  0  0  0  0  0  0
   -0.7500   -9.4952    0.0000 C   0  0  0  0  0  0  0  0  0  0  0  0
    0.7500   -9.4952    0.0000 C   0  0  0  0  0  0  0  0  0  0  0  0
    1.5000   -8.1962    0.0000 C   0  0  0  0  0  0  0  0  0  0  0  0
    0.7500   -6.8971    0.0000 C   0  0  0  0  0  0  0  0  0  0  0  0
  1  2  1  0
  2  3  1  0
  3  4  1  0
  4  5  1  0
  5  6  1  0
  6  7  2  0
  6  8  1  0
  8  9  1  0
  9 10  2  0
 10 11  1  0
 11 12  2  0
 12 13  1  0
 13 14  1  0
 14 15  2  0
 15 16  1  0
 16 17  2  0
 17 18  1  0
 18 19  2  0
 19 20  1  0
 20 21  2  0
 21 22  1  0
 22 23  2  0
 23 24  1  0
 24 25  2  0
  5 26  1  0
 26 27  2  0
 27 28  1  0
 28 29  2  0
 29 30  1  0
 30 31  2  0
 31 32  1  0
 32 33  2  0
 33 34  1  0
 34 35  2  0
 35 36  1  0
 36 37  2  0
 37 38  1  0
 38 39  2  0
 39 40  1  0
 40 41  2  0
 41 42  1  0
 42 43  2  0
 43 44  1  0
 44 45  2  0
 45 46  1  0
 46 47  2  0
 47 48  1  0
 48 49  2  0
 49  2  1  0
 13  9  1  0
 19 14  1  0
 25 20  1  0
 31 26  1  0
 37 32  1  0
 43 38  1  0
 49 44  1  0
M  END
>  <Title>  (74) 
idAAAXgen9

$$$$

     RDKit          2D

 44 46  0  0  0  0  0  0  0  0999 V2000
   -4.5001    1.6767    0.0000 C   0  0  0  0  0  0  0  0  0  0  0  0
   -4.0896    0.2339    0.0000 C   0  0  0  0  0  0  0  0  0  0  0  0
   -2.6350   -0.1319    0.0000 C   0  0  0  0  0  0  0  0  0  0  0  0
   -2.2245   -1.5747    0.0000 C   0  0  0  0  0  0  0  0  0  0  0  0
   -3.6232   -2.1165    0.0000 C   0  0  0  0  0  0  0  0  0  0  0  0
   -4.8985   -2.9062    0.0000 C   0  0  0  0  0  0  0  0  0  0  0  0
   -6.0070   -3.9167    0.0000 C   0  0  0  0  0  0  0  0  0  0  0  0
   -6.9110   -5.1137    0.0000 C   0  0  0  0  0  0  0  0  0  0  0  0
   -7.5796   -6.4565    0.0000 C   0  0  0  0  0  0  0  0  0  0  0  0
   -7.9901   -7.8992    0.0000 C   0  0  0  0  0  0  0  0  0  0  0  0
   -8.1285   -9.3928    0.0000 C   0  0  0  0  0  0  0  0  0  0  0  0
   -7.9901  -10.8864    0.0000 C   0  0  0  0  0  0  0  0  0  0  0  0
   -7.5796  -12.3292    0.0000 C   0  0  0  0  0  0  0  0  0  0  0  0
   -6.9110  -13.6719    0.0000 C   0  0  0  0  0  0  0  0  0  0  0  0
   -6.0070  -14.8689    0.0000 C   0  0  0  0  0  0  0  0  0  0  0  0
   -4.8985  -15.8795    0.0000 C   0  0  0  0  0  0  0  0  0  0  0  0
   -3.6232  -16.6691    0.0000 C   0  0  0  0  0  0  0  0  0  0  0  0
   -2.2245  -17.2110    0.0000 C   0  0  0  0  0  0  0  0  0  0  0  0
   -0.7500  -17.4866    0.0000 C   0  0  0  0  0  0  0  0  0  0  0  0
    0.7500  -17.4866    0.0000 C   0  0  0  0  0  0  0  0  0  0  0  0
    2.2245  -17.2110    0.0000 C   0  0  0  0  0  0  0  0  0  0  0  0
    3.6232  -16.6691    0.0000 C   0  0  0  0  0  0  0  0  0  0  0  0
    4.8985  -15.8795    0.0000 C   0  0  0  0  0  0  0  0  0  0  0  0
    6.0070  -14.8689    0.0000 C   0  0  0  0  0  0  0  0  0  0  0  0
    6.9110  -13.6719    0.0000 C   0  0  0  0  0  0  0  0  0  0  0  0
    7.5796  -12.3292    0.0000 C   0  0  0  0  0  0  0  0  0  0  0  0
    7.9901  -10.8864    0.0000 C   0  0  0  0  0  0  0  0  0  0  0  0
    8.1285   -9.3928    0.0000 C   0  0  0  0  0  0  0  0  0  0  0  0
    7.9901   -7.8992    0.0000 C   0  0  0  0  0  0  0  0  0  0  0  0
    7.5796   -6.4565    0.0000 C   0  0  0  0  0  0  0  0  0  0  0  0
    6.9110   -5.1137    0.0000 C   0  0  0  0  0  0  0  0  0  0  0  0
    6.0070   -3.9167    0.0000 C   0  0  0  0  0  0  0  0  0  0  0  0
    4.8985   -2.9062    0.0000 C   0  0  0  0  0  0  0  0  0  0  0  0
    3.6232   -2.1165    0.0000 C   0  0  0  0  0  0  0  0  0  0  0  0
    4.5707   -0.9537    0.0000 C   0  0  0  0  0  0  0  0  0  0  0  0
    3.7577    0.3068    0.0000 C   0  0  0  0  0  0  0  0  0  0  0  0
    2.3076   -0.0770    0.0000 C   0  0  0  0  0  0  0  0  0  0  0  0
    2.2245   -1.5747    0.0000 C   0  0  0  0  0  0  0  0  0  0  0  0
    0.7500   -1.2990    0.0000 C   0  0  0  0  0  0  0  0  0  0  0  0
    1.5000    0.0000    0.0000 C   0  0  0  0  0  0  0  0  0  0  0  0
    0.7500    1.2990    0.0000 C   0  0  0  0  0  0  0  0  0  0  0  0
   -0.7500    1.2990    0.0000 C   0  0  0  0  0  0  0  0  0  0  0  0
   -1.5000    0.0000    0.0000 C   0  0  0  0  0  0  0  0  0  0  0  0
   -0.7500   -1.2990    0.0000 C   0  0  0  0  0  0  0  0  0  0  0  0
  1  2  1  0
  2  3  1  0
  3  4  1  0
  4  5  1  0
  5  6  2  0
  6  7  1  0
  7  8  2  0
  8  9  1  0
  9 10  2  0
 10 11  1  0
 11 12  2  0
 12 13  1  0
 13 14  2  0
 14 15  1  0
 15 16  2  0
 16 17  1  0
 17 18  2  0
 18 19  1  0
 19 20  2  0
 20 21  1  0
 21 22  2  0
 22 23  1  0
 23 24  2  0
 24 25  1  0
 25 26  2  0
 26 27  1  0
 27 28  2  0
 28 29  1  0
 29 30  2  0
 30 31  1  0
 31 32  2  0
 32 33  1  0
 33 34  2  0
 34 35  1  0
 35 36  2  0
 36 37  1  0
 37 38  2  0
 38 39  1  0
 39 40  2  0
 40 41  1  0
 41 42  2  0
 42 43  1  0
 43 44  2  0
 44  4  1  0
 38 34  1  0
 44 39  1  0
M  END
>  <Title>  (75) 
idAAAYgen9

$$$$

     RDKit          2D

  9  9  0  0  0  0  0  0  0  0999 V2000
    4.2760   -0.0000    0.0000 C   0  0  0  0  0  0  0  0  0  0  0  0
    2.7760    0.0000    0.0000 C   0  0  0  0  0  0  0  0  0  0  0  0
    1.2760    0.0000    0.0000 C   0  0  0  0  0  0  0  0  0  0  0  0
    0.3943    1.2135    0.0000 C   0  0  0  0  0  0  0  0  0  0  0  0
   -1.0323    0.7500    0.0000 C   0  0  0  0  0  0  0  0  0  0  0  0
   -2.2458    1.6317    0.0000 C   0  0  0  0  0  0  0  0  0  0  0  0
   -1.0323   -0.7500    0.0000 C   0  0  0  0  0  0  0  0  0  0  0  0
   -2.2458   -1.6317    0.0000 O   0  0  0  0  0  0  0  0  0  0  0  0
    0.3943   -1.2135    0.0000 N   0  0  0  0  0  0  0  0  0  0  0  0
  1  2  3  0
  2  3  1  0
  3  4  2  0
  4  5  1  0
  5  6  1  0
  5  7  1  0
  7  8  2  0
  7  9  1  0
  9  3  1  0
M  END
>  <Title>  (76) 
idAAAZgen9

$$$$

     RDKit          2D

  7  6  0  0  0  0  0  0  0  0999 V2000
    0.0000    0.0000    0.0000 C   0  0  0  0  0  0  0  0  0  0  0  0
    1.2990    0.7500    0.0000 C   0  0  0  0  0  0  0  0  0  0  0  0
    2.5981    1.5000    0.0000 C   0  0  0  0  0  0  0  0  0  0  0  0
    3.8971    2.2500    0.0000 C   0  0  0  0  0  0  0  0  0  0  0  0
    5.1962    1.5000    0.0000 C   0  0  0  0  0  0  0  0  0  0  0  0
    3.8971    3.7500    0.0000 C   0  0  0  0  0  0  0  0  0  0  0  0
    5.1962    4.5000    0.0000 C   0  0  0  0  0  0  0  0  0  0  0  0
  1  2  1  0
  2  3  3  0
  3  4  1  0
  4  5  1  0
  4  6  1  0
  6  7  1  0
M  END
>  <Title>  (77) 
idAABAgen9

$$$$

     RDKit          2D

 22 24  0  0  0  0  0  0  0  0999 V2000
    3.0000    0.0000    0.0000 C   0  0  0  0  0  0  0  0  0  0  0  0
    1.5000    0.0000    0.0000 C   0  0  0  0  0  0  0  0  0  0  0  0
    0.7500   -1.2990    0.0000 C   0  0  0  0  0  0  0  0  0  0  0  0
   -0.7500   -1.2990    0.0000 C   0  0  0  0  0  0  0  0  0  0  0  0
   -1.5000    0.0000    0.0000 C   0  0  0  0  0  0  0  0  0  0  0  0
   -3.0000    0.0000    0.0000 C   0  0  0  0  0  0  0  0  0  0  0  0
   -3.7500    1.2990    0.0000 O   0  0  0  0  0  0  0  0  0  0  0  0
   -3.7500   -1.2990    0.0000 N   0  0  0  0  0  0  0  0  0  0  0  0
   -5.2500   -1.2990    0.0000 C   0  0  0  0  0  0  0  0  0  0  0  0
   -6.1317   -0.0855    0.0000 N   0  0  0  0  0  0  0  0  0  0  0  0
   -7.5583   -0.5490    0.0000 N   0  0  0  0  0  0  0  0  0  0  0  0
   -7.5583   -2.0490    0.0000 N   0  0  0  0  0  0  0  0  0  0  0  0
   -6.1317   -2.5126    0.0000 N   0  0  0  0  0  0  0  0  0  0  0  0
   -5.6682   -3.9391    0.0000 C   0  0  0  0  0  0  0  0  0  0  0  0
   -4.2009   -4.2510    0.0000 C   0  0  0  0  0  0  0  0  0  0  0  0
   -3.7374   -5.6776    0.0000 C   0  0  0  0  0  0  0  0  0  0  0  0
   -4.7411   -6.7923    0.0000 C   0  0  0  0  0  0  0  0  0  0  0  0
   -6.2083   -6.4805    0.0000 C   0  0  0  0  0  0  0  0  0  0  0  0
   -6.6718   -5.0539    0.0000 C   0  0  0  0  0  0  0  0  0  0  0  0
   -0.7500    1.2990    0.0000 C   0  0  0  0  0  0  0  0  0  0  0  0
   -1.5000    2.5981    0.0000 C   0  0  0  0  0  0  0  0  0  0  0  0
    0.7500    1.2990    0.0000 C   0  0  0  0  0  0  0  0  0  0  0  0
  1  2  1  0
  2  3  1  0
  3  4  1  0
  4  5  1  0
  5  6  1  0
  6  7  2  0
  6  8  1  0
  8  9  1  0
  9 10  2  0
 10 11  1  0
 11 12  2  0
 12 13  1  0
 13 14  1  0
 14 15  2  0
 15 16  1  0
 16 17  2  0
 17 18  1  0
 18 19  2  0
  5 20  1  0
 20 21  1  0
 20 22  1  0
 22  2  1  0
 13  9  1  0
 19 14  1  0
M  END
>  <Title>  (78) 
idAABBgen9

$$$$

     RDKit          2D

 15 15  0  0  0  0  0  0  0  0999 V2000
   16.2760   -0.0000    0.0000 C   0  0  0  0  0  0  0  0  0  0  0  0
   14.7760   -0.0000    0.0000 C   0  0  0  0  0  0  0  0  0  0  0  0
   13.2760   -0.0000    0.0000 C   0  0  0  0  0  0  0  0  0  0  0  0
   11.7760   -0.0000    0.0000 C   0  0  0  0  0  0  0  0  0  0  0  0
   10.2760   -0.0000    0.0000 C   0  0  0  0  0  0  0  0  0  0  0  0
    8.7760   -0.0000    0.0000 C   0  0  0  0  0  0  0  0  0  0  0  0
    7.2760   -0.0000    0.0000 C   0  0  0  0  0  0  0  0  0  0  0  0
    5.7760   -0.0000    0.0000 C   0  0  0  0  0  0  0  0  0  0  0  0
    4.2760   -0.0000    0.0000 C   0  0  0  0  0  0  0  0  0  0  0  0
    2.7760    0.0000    0.0000 C   0  0  0  0  0  0  0  0  0  0  0  0
    1.2760    0.0000    0.0000 C   0  0  0  0  0  0  0  0  0  0  0  0
    0.3943    1.2135    0.0000 C   0  0  0  0  0  0  0  0  0  0  0  0
   -1.0323    0.7500    0.0000 C   0  0  0  0  0  0  0  0  0  0  0  0
   -1.0323   -0.7500    0.0000 C   0  0  0  0  0  0  0  0  0  0  0  0
    0.3943   -1.2135    0.0000 C   0  0  0  0  0  0  0  0  0  0  0  0
  1  2  3  0
  2  3  1  0
  3  4  3  0
  4  5  1  0
  5  6  3  0
  6  7  1  0
  7  8  3  0
  8  9  1  0
  9 10  3  0
 10 11  1  0
 11 12  1  0
 12 13  2  0
 13 14  1  0
 14 15  1  0
 15 11  1  0
M  END
>  <Title>  (79) 
idAABCgen9

$$$$

     RDKit          2D

  8  8  0  0  0  0  0  0  0  0999 V2000
    2.7760    0.0000    0.0000 C   0  0  0  0  0  0  0  0  0  0  0  0
    1.2760    0.0000    0.0000 C   0  0  0  0  0  0  0  0  0  0  0  0
    0.3943    1.2135    0.0000 C   0  0  0  0  0  0  0  0  0  0  0  0
   -1.0323    0.7500    0.0000 C   0  0  0  0  0  0  0  0  0  0  0  0
   -2.2458    1.6317    0.0000 C   0  0  0  0  0  0  0  0  0  0  0  0
   -1.0323   -0.7500    0.0000 N   0  0  0  0  0  0  0  0  0  0  0  0
    0.3943   -1.2135    0.0000 C   0  0  0  0  0  0  0  0  0  0  0  0
    0.8578   -2.6401    0.0000 O   0  0  0  0  0  0  0  0  0  0  0  0
  1  2  1  0
  2  3  2  0
  3  4  1  0
  4  5  1  0
  4  6  1  0
  6  7  1  0
  7  8  2  0
  7  2  1  0
M  END
>  <Title>  (80) 
idAABDgen9

$$$$

     RDKit          2D

 53 53  0  0  0  0  0  0  0  0999 V2000
   13.2059   -2.5981    0.0000 O   0  0  0  0  0  0  0  0  0  0  0  0
   13.9559   -1.2990    0.0000 C   0  0  0  0  0  0  0  0  0  0  0  0
   15.4559   -1.2990    0.0000 O   0  0  0  0  0  0  0  0  0  0  0  0
   13.2059   -0.0000    0.0000 O   0  0  0  0  0  0  0  0  0  0  0  0
   11.7059    0.0000    0.0000 C   0  0  0  0  0  0  0  0  0  0  0  0
   11.6098    1.4969    0.0000 C   0  0  0  0  0  0  0  0  0  0  0  0
   11.3231    2.9693    0.0000 C   0  0  0  0  0  0  0  0  0  0  0  0
   10.8504    4.3928    0.0000 C   0  0  0  0  0  0  0  0  0  0  0  0
   10.1996    5.7443    0.0000 C   0  0  0  0  0  0  0  0  0  0  0  0
    9.3813    7.0014    0.0000 C   0  0  0  0  0  0  0  0  0  0  0  0
    8.4089    8.1436    0.0000 C   0  0  0  0  0  0  0  0  0  0  0  0
    7.2985    9.1520    0.0000 C   0  0  0  0  0  0  0  0  0  0  0  0
    6.0683   10.0102    0.0000 C   0  0  0  0  0  0  0  0  0  0  0  0
    4.7384   10.7040    0.0000 C   0  0  0  0  0  0  0  0  0  0  0  0
    3.3307   11.2221    0.0000 C   0  0  0  0  0  0  0  0  0  0  0  0
    1.8683   11.5559    0.0000 C   0  0  0  0  0  0  0  0  0  0  0  0
    0.3752   11.6999    0.0000 C   0  0  0  0  0  0  0  0  0  0  0  0
   -1.1240   11.6518    0.0000 C   0  0  0  0  0  0  0  0  0  0  0  0
   -2.6048   11.4124    0.0000 C   0  0  0  0  0  0  0  0  0  0  0  0
   -4.0428   10.9856    0.0000 C   0  0  0  0  0  0  0  0  0  0  0  0
   -5.4144   10.3784    0.0000 C   0  0  0  0  0  0  0  0  0  0  0  0
   -6.6971    9.6009    0.0000 C   0  0  0  0  0  0  0  0  0  0  0  0
   -7.8699    8.6656    0.0000 C   0  0  0  0  0  0  0  0  0  0  0  0
   -8.9134    7.5881    0.0000 C   0  0  0  0  0  0  0  0  0  0  0  0
   -9.8106    6.3860    0.0000 C   0  0  0  0  0  0  0  0  0  0  0  0
  -10.5467    5.0790    0.0000 C   0  0  0  0  0  0  0  0  0  0  0  0
  -11.1096    3.6886    0.0000 C   0  0  0  0  0  0  0  0  0  0  0  0
  -11.4900    2.2377    0.0000 C   0  0  0  0  0  0  0  0  0  0  0  0
  -11.6819    0.7500    0.0000 C   0  0  0  0  0  0  0  0  0  0  0  0
  -11.6819   -0.7500    0.0000 C   0  0  0  0  0  0  0  0  0  0  0  0
  -11.4900   -2.2377    0.0000 C   0  0  0  0  0  0  0  0  0  0  0  0
  -11.1096   -3.6886    0.0000 C   0  0  0  0  0  0  0  0  0  0  0  0
  -10.5467   -5.0790    0.0000 C   0  0  0  0  0  0  0  0  0  0  0  0
   -9.8106   -6.3860    0.0000 C   0  0  0  0  0  0  0  0  0  0  0  0
   -8.9134   -7.5881    0.0000 C   0  0  0  0  0  0  0  0  0  0  0  0
   -7.8699   -8.6656    0.0000 C   0  0  0  0  0  0  0  0  0  0  0  0
   -6.6971   -9.6009    0.0000 C   0  0  0  0  0  0  0  0  0  0  0  0
   -5.4144  -10.3784    0.0000 C   0  0  0  0  0  0  0  0  0  0  0  0
   -4.0428  -10.9856    0.0000 C   0  0  0  0  0  0  0  0  0  0  0  0
   -2.6048  -11.4124    0.0000 C   0  0  0  0  0  0  0  0  0  0  0  0
   -1.1240  -11.6518    0.0000 C   0  0  0  0  0  0  0  0  0  0  0  0
    0.3752  -11.6999    0.0000 C   0  0  0  0  0  0  0  0  0  0  0  0
    1.8683  -11.5559    0.0000 C   0  0  0  0  0  0  0  0  0  0  0  0
    3.3307  -11.2221    0.0000 C   0  0  0  0  0  0  0  0  0  0  0  0
    4.7384  -10.7040    0.0000 C   0  0  0  0  0  0  0  0  0  0  0  0
    6.0683  -10.0102    0.0000 C   0  0  0  0  0  0  0  0  0  0  0  0
    7.2985   -9.1520    0.0000 C   0  0  0  0  0  0  0  0  0  0  0  0
    8.4089   -8.1436    0.0000 C   0  0  0  0  0  0  0  0  0  0  0  0
    9.3813   -7.0014    0.0000 C   0  0  0  0  0  0  0  0  0  0  0  0
   10.1996   -5.7443    0.0000 C   0  0  0  0  0  0  0  0  0  0  0  0
   10.8504   -4.3928    0.0000 C   0  0  0  0  0  0  0  0  0  0  0  0
   11.3231   -2.9693    0.0000 C   0  0  0  0  0  0  0  0  0  0  0  0
   11.6098   -1.4969    0.0000 C   0  0  0  0  0  0  0  0  0  0  0  0
  1  2  2  0
  2  3  1  0
  2  4  1  0
  4  5  1  0
  5  6  1  0
  6  7  2  0
  7  8  1  0
  8  9  1  0
  9 10  1  0
 10 11  1  0
 11 12  1  0
 12 13  1  0
 13 14  1  0
 14 15  1  0
 15 16  1  0
 16 17  1  0
 17 18  1  0
 18 19  1  0
 19 20  1  0
 20 21  1  0
 21 22  1  0
 22 23  1  0
 23 24  1  0
 24 25  1  0
 25 26  1  0
 26 27  1  0
 27 28  1  0
 28 29  1  0
 29 30  1  0
 30 31  1  0
 31 32  1  0
 32 33  1  0
 33 34  1  0
 34 35  1  0
 35 36  1  0
 36 37  1  0
 37 38  1  0
 38 39  1  0
 39 40  1  0
 40 41  1  0
 41 42  1  0
 42 43  1  0
 43 44  1  0
 44 45  1  0
 45 46  1  0
 46 47  1  0
 47 48  1  0
 48 49  1  0
 49 50  1  0
 50 51  1  0
 51 52  1  0
 52 53  1  0
 53  5  1  0
M  END
>  <Title>  (81) 
idAABEgen9

$$$$

     RDKit          2D

 23 23  0  0  0  0  0  0  0  0999 V2000
   25.0607    0.0000    0.0000 C   0  0  0  0  0  0  0  0  0  0  0  0
   23.5607    0.0000    0.0000 C   0  0  0  0  0  0  0  0  0  0  0  0
   22.0607    0.0000    0.0000 C   0  0  0  0  0  0  0  0  0  0  0  0
   20.5607    0.0000    0.0000 C   0  0  0  0  0  0  0  0  0  0  0  0
   19.0607    0.0000    0.0000 C   0  0  0  0  0  0  0  0  0  0  0  0
   17.5607    0.0000    0.0000 C   0  0  0  0  0  0  0  0  0  0  0  0
   16.0607    0.0000    0.0000 C   0  0  0  0  0  0  0  0  0  0  0  0
   14.5607    0.0000    0.0000 C   0  0  0  0  0  0  0  0  0  0  0  0
   13.0607    0.0000    0.0000 C   0  0  0  0  0  0  0  0  0  0  0  0
   11.5607    0.0000    0.0000 C   0  0  0  0  0  0  0  0  0  0  0  0
   10.0607    0.0000    0.0000 C   0  0  0  0  0  0  0  0  0  0  0  0
    8.5607    0.0000    0.0000 C   0  0  0  0  0  0  0  0  0  0  0  0
    7.0607    0.0000    0.0000 C   0  0  0  0  0  0  0  0  0  0  0  0
    5.5607    0.0000    0.0000 C   0  0  0  0  0  0  0  0  0  0  0  0
    4.0607    0.0000    0.0000 C   0  0  0  0  0  0  0  0  0  0  0  0
    2.5607    0.0000    0.0000 C   0  0  0  0  0  0  0  0  0  0  0  0
    1.0607    0.0000    0.0000 C   0  0  0  0  0  0  0  0  0  0  0  0
   -0.0000   -1.0607    0.0000 C   0  0  0  0  0  0  0  0  0  0  0  0
   -0.0000   -2.5607    0.0000 C   0  0  0  0  0  0  0  0  0  0  0  0
    1.2990   -3.3107    0.0000 O   0  0  0  0  0  0  0  0  0  0  0  0
   -1.2990   -3.3107    0.0000 O   0  0  0  0  0  0  0  0  0  0  0  0
   -1.0607    0.0000    0.0000 C   0  0  0  0  0  0  0  0  0  0  0  0
    0.0000    1.0607    0.0000 C   0  0  0  0  0  0  0  0  0  0  0  0
  1  2  3  0
  2  3  1  0
  3  4  3  0
  4  5  1  0
  5  6  3  0
  6  7  1  0
  7  8  3  0
  8  9  1  0
  9 10  3  0
 10 11  1  0
 11 12  3  0
 12 13  1  0
 13 14  3  0
 14 15  1  0
 15 16  3  0
 16 17  1  0
 17 18  2  0
 18 19  1  0
 19 20  2  0
 19 21  1  0
 18 22  1  0
 22 23  2  0
 23 17  1  0
M  END
>  <Title>  (82) 
idAABFgen9

$$$$

     RDKit          2D

 10 10  0  0  0  0  0  0  0  0999 V2000
    7.5000    0.0000    0.0000 C   0  0  0  0  0  0  0  0  0  0  0  0
    6.0000    0.0000    0.0000 C   0  0  0  0  0  0  0  0  0  0  0  0
    4.5000    0.0000    0.0000 C   0  0  0  0  0  0  0  0  0  0  0  0
    3.0000    0.0000    0.0000 C   0  0  0  0  0  0  0  0  0  0  0  0
    1.5000    0.0000    0.0000 C   0  0  0  0  0  0  0  0  0  0  0  0
    0.7500   -1.2990    0.0000 C   0  0  0  0  0  0  0  0  0  0  0  0
   -0.7500   -1.2990    0.0000 C   0  0  0  0  0  0  0  0  0  0  0  0
   -1.5000    0.0000    0.0000 C   0  0  0  0  0  0  0  0  0  0  0  0
   -0.7500    1.2990    0.0000 C   0  0  0  0  0  0  0  0  0  0  0  0
    0.7500    1.2990    0.0000 C   0  0  0  0  0  0  0  0  0  0  0  0
  1  2  3  0
  2  3  1  0
  3  4  3  0
  4  5  1  0
  5  6  2  0
  6  7  1  0
  7  8  2  0
  8  9  1  0
  9 10  2  0
 10  5  1  0
M  END
>  <Title>  (83) 
idAABGgen9

$$$$

     RDKit          2D

 62 71  0  0  0  0  0  0  0  0999 V2000
    6.2168   -5.0497    0.0000 C   0  0  0  0  0  0  0  0  0  0  0  0
    4.7353   -5.2844    0.0000 C   0  0  0  0  0  0  0  0  0  0  0  0
    4.2718   -3.8578    0.0000 C   0  0  0  0  0  0  0  0  0  0  0  0
    3.3901   -2.6442    0.0000 C   0  0  0  0  0  0  0  0  0  0  0  0
    2.1766   -1.7626    0.0000 C   0  0  0  0  0  0  0  0  0  0  0  0
    2.8576   -0.4261    0.0000 C   0  0  0  0  0  0  0  0  0  0  0  0
    2.0406    0.8320    0.0000 O   0  0  0  0  0  0  0  0  0  0  0  0
    4.3555   -0.3475    0.0000 N   0  0  0  0  0  0  0  0  0  0  0  0
    5.0365    0.9890    0.0000 C   0  0  0  0  0  0  0  0  0  0  0  0
    6.5344    1.0675    0.0000 N   0  0  0  0  0  0  0  0  0  0  0  0
    7.2154    2.4040    0.0000 N   0  0  0  0  0  0  0  0  0  0  0  0
    6.3985    3.6620    0.0000 N   0  0  0  0  0  0  0  0  0  0  0  0
    4.9005    3.5835    0.0000 N   0  0  0  0  0  0  0  0  0  0  0  0
    4.2195    2.2470    0.0000 N   0  0  0  0  0  0  0  0  0  0  0  0
    0.7500   -1.2990    0.0000 C   0  0  0  0  0  0  0  0  0  0  0  0
    1.5000    0.0000    0.0000 C   0  0  0  0  0  0  0  0  0  0  0  0
    0.7500    1.2990    0.0000 C   0  0  0  0  0  0  0  0  0  0  0  0
   -0.7500    1.2990    0.0000 C   0  0  0  0  0  0  0  0  0  0  0  0
   -1.5000    0.0000    0.0000 C   0  0  0  0  0  0  0  0  0  0  0  0
   -0.7500   -1.2990    0.0000 C   0  0  0  0  0  0  0  0  0  0  0  0
   -2.1766   -1.7626    0.0000 C   0  0  0  0  0  0  0  0  0  0  0  0
   -2.3334   -0.2708    0.0000 C   0  0  0  0  0  0  0  0  0  0  0  0
   -3.7037    0.3393    0.0000 C   0  0  0  0  0  0  0  0  0  0  0  0
   -4.9172   -0.5424    0.0000 C   0  0  0  0  0  0  0  0  0  0  0  0
   -4.7604   -2.0341    0.0000 C   0  0  0  0  0  0  0  0  0  0  0  0
   -3.3901   -2.6442    0.0000 C   0  0  0  0  0  0  0  0  0  0  0  0
   -4.2718   -3.8578    0.0000 C   0  0  0  0  0  0  0  0  0  0  0  0
   -5.2755   -2.7430    0.0000 C   0  0  0  0  0  0  0  0  0  0  0  0
   -6.7427   -3.0549    0.0000 C   0  0  0  0  0  0  0  0  0  0  0  0
   -7.2062   -4.4815    0.0000 C   0  0  0  0  0  0  0  0  0  0  0  0
   -6.2025   -5.5962    0.0000 C   0  0  0  0  0  0  0  0  0  0  0  0
   -4.7353   -5.2844    0.0000 C   0  0  0  0  0  0  0  0  0  0  0  0
   -4.7353   -6.7844    0.0000 C   0  0  0  0  0  0  0  0  0  0  0  0
   -6.2025   -6.4725    0.0000 C   0  0  0  0  0  0  0  0  0  0  0  0
   -7.2062   -7.5872    0.0000 C   0  0  0  0  0  0  0  0  0  0  0  0
   -6.7427   -9.0138    0.0000 C   0  0  0  0  0  0  0  0  0  0  0  0
   -5.2755   -9.3257    0.0000 C   0  0  0  0  0  0  0  0  0  0  0  0
   -4.2718   -8.2109    0.0000 C   0  0  0  0  0  0  0  0  0  0  0  0
   -3.3901   -9.4245    0.0000 C   0  0  0  0  0  0  0  0  0  0  0  0
   -4.7604  -10.0346    0.0000 C   0  0  0  0  0  0  0  0  0  0  0  0
   -4.9172  -11.5263    0.0000 C   0  0  0  0  0  0  0  0  0  0  0  0
   -3.7037  -12.4080    0.0000 C   0  0  0  0  0  0  0  0  0  0  0  0
   -2.3334  -11.7979    0.0000 C   0  0  0  0  0  0  0  0  0  0  0  0
   -2.1766  -10.3061    0.0000 C   0  0  0  0  0  0  0  0  0  0  0  0
   -0.7500  -10.7697    0.0000 C   0  0  0  0  0  0  0  0  0  0  0  0
   -1.5000  -12.0687    0.0000 C   0  0  0  0  0  0  0  0  0  0  0  0
   -0.7500  -13.3677    0.0000 C   0  0  0  0  0  0  0  0  0  0  0  0
    0.7500  -13.3677    0.0000 C   0  0  0  0  0  0  0  0  0  0  0  0
    1.5000  -12.0687    0.0000 C   0  0  0  0  0  0  0  0  0  0  0  0
    0.7500  -10.7697    0.0000 C   0  0  0  0  0  0  0  0  0  0  0  0
    2.1766  -10.3061    0.0000 C   0  0  0  0  0  0  0  0  0  0  0  0
    2.3334  -11.7979    0.0000 C   0  0  0  0  0  0  0  0  0  0  0  0
    3.7037  -12.4080    0.0000 C   0  0  0  0  0  0  0  0  0  0  0  0
    4.9172  -11.5263    0.0000 C   0  0  0  0  0  0  0  0  0  0  0  0
    4.7604  -10.0346    0.0000 C   0  0  0  0  0  0  0  0  0  0  0  0
    3.3901   -9.4245    0.0000 C   0  0  0  0  0  0  0  0  0  0  0  0
    4.2718   -8.2109    0.0000 C   0  0  0  0  0  0  0  0  0  0  0  0
    5.2755   -9.3257    0.0000 C   0  0  0  0  0  0  0  0  0  0  0  0
    6.7427   -9.0138    0.0000 C   0  0  0  0  0  0  0  0  0  0  0  0
    7.2062   -7.5872    0.0000 C   0  0  0  0  0  0  0  0  0  0  0  0
    6.2025   -6.4725    0.0000 C   0  0  0  0  0  0  0  0  0  0  0  0
    4.7353   -6.7844    0.0000 C   0  0  0  0  0  0  0  0  0  0  0  0
  1  2  1  0
  2  3  1  0
  3  4  2  0
  4  5  1  0
  5  6  1  0
  6  7  2  0
  6  8  1  0
  8  9  1  0
  9 10  2  0
 10 11  1  0
 11 12  2  0
 12 13  1  0
 13 14  2  0
  5 15  1  0
 15 16  2  0
 16 17  1  0
 17 18  2  0
 18 19  1  0
 19 20  2  0
 20 21  1  0
 21 22  2  0
 22 23  1  0
 23 24  2  0
 24 25  1  0
 25 26  2  0
 26 27  1  0
 27 28  2  0
 28 29  1  0
 29 30  2  0
 30 31  1  0
 31 32  2  0
 32 33  1  0
 33 34  2  0
 34 35  1  0
 35 36  2  0
 36 37  1  0
 37 38  2  0
 38 39  1  0
 39 40  2  0
 40 41  1  0
 41 42  2  0
 42 43  1  0
 43 44  2  0
 44 45  1  0
 45 46  2  0
 46 47  1  0
 47 48  2  0
 48 49  1  0
 49 50  2  0
 50 51  1  0
 51 52  2  0
 52 53  1  0
 53 54  2  0
 54 55  1  0
 55 56  2  0
 56 57  1  0
 57 58  2  0
 58 59  1  0
 59 60  2  0
 60 61  1  0
 61 62  2  0
 62  2  1  0
 14  9  1  0
 20 15  1  0
 26 21  1  0
 32 27  1  0
 38 33  1  0
 44 39  1  0
 50 45  1  0
 56 51  1  0
 62 57  1  0
M  END
>  <Title>  (84) 
idAABHgen9

$$$$

     RDKit          2D

  8  8  0  0  0  0  0  0  0  0999 V2000
    3.0000    0.0000    0.0000 C   0  0  0  0  0  0  0  0  0  0  0  0
    1.5000    0.0000    0.0000 C   0  0  0  0  0  0  0  0  0  0  0  0
    0.7500   -1.2990    0.0000 C   0  0  0  0  0  0  0  0  0  0  0  0
   -0.7500   -1.2990    0.0000 C   0  0  0  0  0  0  0  0  0  0  0  0
   -1.5000    0.0000    0.0000 C   0  0  0  0  0  0  0  0  0  0  0  0
   -0.7500    1.2990    0.0000 C   0  0  0  0  0  0  0  0  0  0  0  0
   -1.5000    2.5981    0.0000 C   0  0  0  0  0  0  0  0  0  0  0  0
    0.7500    1.2990    0.0000 C   0  0  0  0  0  0  0  0  0  0  0  0
  1  2  1  0
  2  3  2  0
  3  4  1  0
  4  5  2  0
  5  6  1  0
  6  7  1  0
  6  8  2  0
  8  2  1  0
M  END
>  <Title>  (85) 
idAABIgen9

$$$$

     RDKit          2D

 57 57  0  0  0  0  0  0  0  0999 V2000
   14.8760    0.0000    0.0000 C   0  0  0  0  0  0  0  0  0  0  0  0
   13.3760    0.0000    0.0000 C   0  0  0  0  0  0  0  0  0  0  0  0
   13.2919   -1.4976    0.0000 C   0  0  0  0  0  0  0  0  0  0  0  0
   13.0407   -2.9764    0.0000 C   0  0  0  0  0  0  0  0  0  0  0  0
   12.6254   -4.4178    0.0000 C   0  0  0  0  0  0  0  0  0  0  0  0
   12.0514   -5.8036    0.0000 C   0  0  0  0  0  0  0  0  0  0  0  0
   11.3258   -7.1165    0.0000 C   0  0  0  0  0  0  0  0  0  0  0  0
   10.4578   -8.3398    0.0000 C   0  0  0  0  0  0  0  0  0  0  0  0
    9.4583   -9.4583    0.0000 C   0  0  0  0  0  0  0  0  0  0  0  0
    8.3398  -10.4578    0.0000 C   0  0  0  0  0  0  0  0  0  0  0  0
    7.1165  -11.3258    0.0000 C   0  0  0  0  0  0  0  0  0  0  0  0
    5.8036  -12.0514    0.0000 C   0  0  0  0  0  0  0  0  0  0  0  0
    4.4178  -12.6254    0.0000 C   0  0  0  0  0  0  0  0  0  0  0  0
    2.9764  -13.0407    0.0000 C   0  0  0  0  0  0  0  0  0  0  0  0
    1.4976  -13.2919    0.0000 C   0  0  0  0  0  0  0  0  0  0  0  0
   -0.0000  -13.3760    0.0000 C   0  0  0  0  0  0  0  0  0  0  0  0
   -1.4976  -13.2919    0.0000 C   0  0  0  0  0  0  0  0  0  0  0  0
   -2.9764  -13.0407    0.0000 C   0  0  0  0  0  0  0  0  0  0  0  0
   -4.4178  -12.6254    0.0000 C   0  0  0  0  0  0  0  0  0  0  0  0
   -5.8036  -12.0514    0.0000 C   0  0  0  0  0  0  0  0  0  0  0  0
   -7.1165  -11.3258    0.0000 C   0  0  0  0  0  0  0  0  0  0  0  0
   -8.3398  -10.4578    0.0000 C   0  0  0  0  0  0  0  0  0  0  0  0
   -9.4583   -9.4583    0.0000 C   0  0  0  0  0  0  0  0  0  0  0  0
  -10.4578   -8.3398    0.0000 C   0  0  0  0  0  0  0  0  0  0  0  0
  -11.3258   -7.1165    0.0000 C   0  0  0  0  0  0  0  0  0  0  0  0
  -12.0514   -5.8036    0.0000 C   0  0  0  0  0  0  0  0  0  0  0  0
  -12.6254   -4.4178    0.0000 C   0  0  0  0  0  0  0  0  0  0  0  0
  -13.0407   -2.9764    0.0000 C   0  0  0  0  0  0  0  0  0  0  0  0
  -13.2919   -1.4976    0.0000 C   0  0  0  0  0  0  0  0  0  0  0  0
  -13.3760    0.0000    0.0000 C   0  0  0  0  0  0  0  0  0  0  0  0
  -13.2919    1.4976    0.0000 C   0  0  0  0  0  0  0  0  0  0  0  0
  -13.0407    2.9764    0.0000 C   0  0  0  0  0  0  0  0  0  0  0  0
  -12.6254    4.4178    0.0000 C   0  0  0  0  0  0  0  0  0  0  0  0
  -12.0514    5.8036    0.0000 C   0  0  0  0  0  0  0  0  0  0  0  0
  -11.3258    7.1165    0.0000 C   0  0  0  0  0  0  0  0  0  0  0  0
  -10.4578    8.3398    0.0000 C   0  0  0  0  0  0  0  0  0  0  0  0
   -9.4583    9.4583    0.0000 C   0  0  0  0  0  0  0  0  0  0  0  0
   -8.3398   10.4578    0.0000 C   0  0  0  0  0  0  0  0  0  0  0  0
   -7.1165   11.3258    0.0000 C   0  0  0  0  0  0  0  0  0  0  0  0
   -5.8036   12.0514    0.0000 C   0  0  0  0  0  0  0  0  0  0  0  0
   -4.4178   12.6254    0.0000 C   0  0  0  0  0  0  0  0  0  0  0  0
   -2.9764   13.0407    0.0000 C   0  0  0  0  0  0  0  0  0  0  0  0
   -1.4976   13.2919    0.0000 C   0  0  0  0  0  0  0  0  0  0  0  0
    0.0000   13.3760    0.0000 C   0  0  0  0  0  0  0  0  0  0  0  0
    1.4976   13.2919    0.0000 C   0  0  0  0  0  0  0  0  0  0  0  0
    2.9764   13.0407    0.0000 C   0  0  0  0  0  0  0  0  0  0  0  0
    4.4178   12.6254    0.0000 C   0  0  0  0  0  0  0  0  0  0  0  0
    5.8036   12.0514    0.0000 C   0  0  0  0  0  0  0  0  0  0  0  0
    7.1165   11.3258    0.0000 C   0  0  0  0  0  0  0  0  0  0  0  0
    8.3398   10.4578    0.0000 C   0  0  0  0  0  0  0  0  0  0  0  0
    9.4583    9.4583    0.0000 C   0  0  0  0  0  0  0  0  0  0  0  0
   10.4578    8.3398    0.0000 C   0  0  0  0  0  0  0  0  0  0  0  0
   11.3258    7.1165    0.0000 C   0  0  0  0  0  0  0  0  0  0  0  0
   12.0514    5.8036    0.0000 C   0  0  0  0  0  0  0  0  0  0  0  0
   12.6254    4.4178    0.0000 C   0  0  0  0  0  0  0  0  0  0  0  0
   13.0407    2.9764    0.0000 C   0  0  0  0  0  0  0  0  0  0  0  0
   13.2919    1.4976    0.0000 C   0  0  0  0  0  0  0  0  0  0  0  0
  1  2  1  0
  2  3  1  0
  3  4  1  0
  4  5  1  0
  5  6  1  0
  6  7  1  0
  7  8  1  0
  8  9  1  0
  9 10  1  0
 10 11  1  0
 11 12  1  0
 12 13  1  0
 13 14  1  0
 14 15  1  0
 15 16  1  0
 16 17  1  0
 17 18  1  0
 18 19  1  0
 19 20  1  0
 20 21  1  0
 21 22  1  0
 22 23  1  0
 23 24  1  0
 24 25  1  0
 25 26  1  0
 26 27  1  0
 27 28  1  0
 28 29  1  0
 29 30  1  0
 30 31  1  0
 31 32  1  0
 32 33  1  0
 33 34  1  0
 34 35  1  0
 35 36  1  0
 36 37  1  0
 37 38  1  0
 38 39  1  0
 39 40  1  0
 40 41  1  0
 41 42  1  0
 42 43  1  0
 43 44  1  0
 44 45  1  0
 45 46  1  0
 46 47  1  0
 47 48  1  0
 48 49  1  0
 49 50  1  0
 50 51  1  0
 51 52  1  0
 52 53  1  0
 53 54  1  0
 54 55  1  0
 55 56  1  0
 56 57  1  0
 57  2  1  0
M  END
>  <Title>  (86) 
idAABJgen9

$$$$

     RDKit          2D

 54 54  0  0  0  0  0  0  0  0999 V2000
   15.9331   -1.2990    0.0000 C   0  0  0  0  0  0  0  0  0  0  0  0
   14.4331   -1.2990    0.0000 C   0  0  0  0  0  0  0  0  0  0  0  0
   13.6831    0.0000    0.0000 C   0  0  0  0  0  0  0  0  0  0  0  0
   12.1831    0.0000    0.0000 C   0  0  0  0  0  0  0  0  0  0  0  0
   12.0907    1.4972    0.0000 C   0  0  0  0  0  0  0  0  0  0  0  0
   11.8151    2.9716    0.0000 C   0  0  0  0  0  0  0  0  0  0  0  0
   11.3604    4.4010    0.0000 C   0  0  0  0  0  0  0  0  0  0  0  0
   10.7334    5.7637    0.0000 C   0  0  0  0  0  0  0  0  0  0  0  0
    9.9438    7.0391    0.0000 C   0  0  0  0  0  0  0  0  0  0  0  0
    9.0034    8.2077    0.0000 C   0  0  0  0  0  0  0  0  0  0  0  0
    7.9265    9.2519    0.0000 C   0  0  0  0  0  0  0  0  0  0  0  0
    6.7295   10.1558    0.0000 C   0  0  0  0  0  0  0  0  0  0  0  0
    5.4305   10.9058    0.0000 C   0  0  0  0  0  0  0  0  0  0  0  0
    4.0491   11.4905    0.0000 C   0  0  0  0  0  0  0  0  0  0  0  0
    2.6064   11.9010    0.0000 C   0  0  0  0  0  0  0  0  0  0  0  0
    1.1241   12.1311    0.0000 C   0  0  0  0  0  0  0  0  0  0  0  0
   -0.3752   12.1773    0.0000 C   0  0  0  0  0  0  0  0  0  0  0  0
   -1.8688   12.0389    0.0000 C   0  0  0  0  0  0  0  0  0  0  0  0
   -3.3341   11.7180    0.0000 C   0  0  0  0  0  0  0  0  0  0  0  0
   -4.7488   11.2194    0.0000 C   0  0  0  0  0  0  0  0  0  0  0  0
   -6.0915   10.5508    0.0000 C   0  0  0  0  0  0  0  0  0  0  0  0
   -7.3419    9.7223    0.0000 C   0  0  0  0  0  0  0  0  0  0  0  0
   -8.4810    8.7464    0.0000 C   0  0  0  0  0  0  0  0  0  0  0  0
   -9.4916    7.6378    0.0000 C   0  0  0  0  0  0  0  0  0  0  0  0
  -10.3582    6.4136    0.0000 C   0  0  0  0  0  0  0  0  0  0  0  0
  -11.0679    5.0920    0.0000 C   0  0  0  0  0  0  0  0  0  0  0  0
  -11.6097    3.6933    0.0000 C   0  0  0  0  0  0  0  0  0  0  0  0
  -11.9756    2.2386    0.0000 C   0  0  0  0  0  0  0  0  0  0  0  0
  -12.1599    0.7500    0.0000 C   0  0  0  0  0  0  0  0  0  0  0  0
  -12.1599   -0.7500    0.0000 C   0  0  0  0  0  0  0  0  0  0  0  0
  -11.9756   -2.2386    0.0000 C   0  0  0  0  0  0  0  0  0  0  0  0
  -11.6097   -3.6933    0.0000 C   0  0  0  0  0  0  0  0  0  0  0  0
  -11.0679   -5.0920    0.0000 C   0  0  0  0  0  0  0  0  0  0  0  0
  -10.3582   -6.4136    0.0000 C   0  0  0  0  0  0  0  0  0  0  0  0
   -9.4916   -7.6378    0.0000 C   0  0  0  0  0  0  0  0  0  0  0  0
   -8.4810   -8.7464    0.0000 C   0  0  0  0  0  0  0  0  0  0  0  0
   -7.3419   -9.7223    0.0000 C   0  0  0  0  0  0  0  0  0  0  0  0
   -6.0915  -10.5508    0.0000 C   0  0  0  0  0  0  0  0  0  0  0  0
   -4.7488  -11.2194    0.0000 C   0  0  0  0  0  0  0  0  0  0  0  0
   -3.3341  -11.7180    0.0000 C   0  0  0  0  0  0  0  0  0  0  0  0
   -1.8688  -12.0389    0.0000 C   0  0  0  0  0  0  0  0  0  0  0  0
   -0.3752  -12.1773    0.0000 C   0  0  0  0  0  0  0  0  0  0  0  0
    1.1241  -12.1311    0.0000 C   0  0  0  0  0  0  0  0  0  0  0  0
    2.6064  -11.9010    0.0000 C   0  0  0  0  0  0  0  0  0  0  0  0
    4.0491  -11.4905    0.0000 C   0  0  0  0  0  0  0  0  0  0  0  0
    5.4305  -10.9058    0.0000 C   0  0  0  0  0  0  0  0  0  0  0  0
    6.7295  -10.1558    0.0000 C   0  0  0  0  0  0  0  0  0  0  0  0
    7.9265   -9.2519    0.0000 C   0  0  0  0  0  0  0  0  0  0  0  0
    9.0034   -8.2077    0.0000 C   0  0  0  0  0  0  0  0  0  0  0  0
    9.9438   -7.0391    0.0000 C   0  0  0  0  0  0  0  0  0  0  0  0
   10.7334   -5.7637    0.0000 C   0  0  0  0  0  0  0  0  0  0  0  0
   11.3604   -4.4010    0.0000 C   0  0  0  0  0  0  0  0  0  0  0  0
   11.8151   -2.9716    0.0000 C   0  0  0  0  0  0  0  0  0  0  0  0
   12.0907   -1.4972    0.0000 C   0  0  0  0  0  0  0  0  0  0  0  0
  1  2  1  0
  2  3  1  0
  3  4  1  0
  4  5  1  0
  5  6  1  0
  6  7  1  0
  7  8  1  0
  8  9  1  0
  9 10  1  0
 10 11  1  0
 11 12  1  0
 12 13  1  0
 13 14  1  0
 14 15  1  0
 15 16  1  0
 16 17  1  0
 17 18  1  0
 18 19  1  0
 19 20  1  0
 20 21  1  0
 21 22  1  0
 22 23  1  0
 23 24  1  0
 24 25  1  0
 25 26  1  0
 26 27  1  0
 27 28  1  0
 28 29  1  0
 29 30  1  0
 30 31  1  0
 31 32  1  0
 32 33  1  0
 33 34  1  0
 34 35  1  0
 35 36  1  0
 36 37  1  0
 37 38  1  0
 38 39  1  0
 39 40  1  0
 40 41  1  0
 41 42  1  0
 42 43  1  0
 43 44  1  0
 44 45  1  0
 45 46  1  0
 46 47  1  0
 47 48  1  0
 48 49  1  0
 49 50  1  0
 50 51  1  0
 51 52  1  0
 52 53  1  0
 53 54  1  0
 54  4  1  0
M  END
>  <Title>  (87) 
idAABKgen9

$$$$

     RDKit          2D

 16 17  0  0  0  0  0  0  0  0999 V2000
   -2.4240   -8.7293    0.0000 C   0  0  0  0  0  0  0  0  0  0  0  0
   -1.0537   -8.1192    0.0000 N   0  0  0  0  0  0  0  0  0  0  0  0
    0.2454   -8.8692    0.0000 C   0  0  0  0  0  0  0  0  0  0  0  0
    1.3601   -7.8655    0.0000 C   0  0  0  0  0  0  0  0  0  0  0  0
    0.7500   -6.4952    0.0000 C   0  0  0  0  0  0  0  0  0  0  0  0
    1.5000   -5.1962    0.0000 C   0  0  0  0  0  0  0  0  0  0  0  0
    3.0000   -5.1962    0.0000 O   0  0  0  0  0  0  0  0  0  0  0  0
    0.7500   -3.8971    0.0000 O   0  0  0  0  0  0  0  0  0  0  0  0
    1.5000   -2.5981    0.0000 C   0  0  0  0  0  0  0  0  0  0  0  0
    0.7500   -1.2990    0.0000 C   0  0  0  0  0  0  0  0  0  0  0  0
    1.5000    0.0000    0.0000 C   0  0  0  0  0  0  0  0  0  0  0  0
    0.7500    1.2990    0.0000 C   0  0  0  0  0  0  0  0  0  0  0  0
   -0.7500    1.2990    0.0000 C   0  0  0  0  0  0  0  0  0  0  0  0
   -1.5000    0.0000    0.0000 C   0  0  0  0  0  0  0  0  0  0  0  0
   -0.7500   -1.2990    0.0000 C   0  0  0  0  0  0  0  0  0  0  0  0
   -0.7418   -6.6520    0.0000 C   0  0  0  0  0  0  0  0  0  0  0  0
  1  2  1  0
  2  3  1  0
  3  4  2  0
  4  5  1  0
  5  6  1  0
  6  7  2  0
  6  8  1  0
  8  9  1  0
  9 10  1  0
 10 11  2  0
 11 12  1  0
 12 13  2  0
 13 14  1  0
 14 15  2  0
  5 16  1  0
 16  2  1  0
 15 10  1  0
M  END
>  <Title>  (88) 
idAABLgen9

$$$$

     RDKit          2D

  6  5  0  0  0  0  0  0  0  0999 V2000
    0.0000    0.0000    0.0000 C   0  0  0  0  0  0  0  0  0  0  0  0
   -0.0000   -1.5000    0.0000 C   0  0  0  0  0  0  0  0  0  0  0  0
   -0.0000   -3.0000    0.0000 C   0  0  0  0  0  0  0  0  0  0  0  0
   -0.0000   -4.5000    0.0000 C   0  0  0  0  0  0  0  0  0  0  0  0
   -0.0000   -6.0000    0.0000 C   0  0  0  0  0  0  0  0  0  0  0  0
    1.2990   -6.7500    0.0000 C   0  0  0  0  0  0  0  0  0  0  0  0
  1  2  3  0
  2  3  1  0
  3  4  3  0
  4  5  1  0
  5  6  1  0
M  END
>  <Title>  (89) 
idAABMgen9

$$$$

     RDKit          2D

 23 24  0  0  0  0  0  0  0  0999 V2000
   19.7475  -11.5433    0.0000 C   0  0  0  0  0  0  0  0  0  0  0  0
   18.3772  -10.9332    0.0000 C   0  0  0  0  0  0  0  0  0  0  0  0
   17.0068  -10.3231    0.0000 C   0  0  0  0  0  0  0  0  0  0  0  0
   15.6365   -9.7130    0.0000 C   0  0  0  0  0  0  0  0  0  0  0  0
   14.2662   -9.1029    0.0000 C   0  0  0  0  0  0  0  0  0  0  0  0
   12.8959   -8.4928    0.0000 C   0  0  0  0  0  0  0  0  0  0  0  0
   11.5256   -7.8827    0.0000 C   0  0  0  0  0  0  0  0  0  0  0  0
   10.1552   -7.2726    0.0000 C   0  0  0  0  0  0  0  0  0  0  0  0
    8.7849   -6.6625    0.0000 C   0  0  0  0  0  0  0  0  0  0  0  0
    7.4146   -6.0524    0.0000 C   0  0  0  0  0  0  0  0  0  0  0  0
    6.0443   -5.4423    0.0000 C   0  0  0  0  0  0  0  0  0  0  0  0
    4.6740   -4.8322    0.0000 C   0  0  0  0  0  0  0  0  0  0  0  0
    3.3037   -4.2221    0.0000 C   0  0  0  0  0  0  0  0  0  0  0  0
    2.9918   -2.7549    0.0000 C   0  0  0  0  0  0  0  0  0  0  0  0
    1.5000   -2.5981    0.0000 C   0  0  0  0  0  0  0  0  0  0  0  0
    0.7500   -1.2990    0.0000 C   0  0  0  0  0  0  0  0  0  0  0  0
    1.5000    0.0000    0.0000 C   0  0  0  0  0  0  0  0  0  0  0  0
    0.7500    1.2990    0.0000 C   0  0  0  0  0  0  0  0  0  0  0  0
   -0.7500    1.2990    0.0000 C   0  0  0  0  0  0  0  0  0  0  0  0
   -1.5000    0.0000    0.0000 C   0  0  0  0  0  0  0  0  0  0  0  0
   -0.7500   -1.2990    0.0000 C   0  0  0  0  0  0  0  0  0  0  0  0
    0.8899   -3.9684    0.0000 C   0  0  0  0  0  0  0  0  0  0  0  0
    2.0046   -4.9721    0.0000 C   0  0  0  0  0  0  0  0  0  0  0  0
  1  2  3  0
  2  3  1  0
  3  4  3  0
  4  5  1  0
  5  6  3  0
  6  7  1  0
  7  8  3  0
  8  9  1  0
  9 10  3  0
 10 11  1  0
 11 12  3  0
 12 13  1  0
 13 14  2  0
 14 15  1  0
 15 16  1  0
 16 17  2  0
 17 18  1  0
 18 19  2  0
 19 20  1  0
 20 21  2  0
 15 22  1  0
 22 23  2  0
 23 13  1  0
 21 16  1  0
M  END
>  <Title>  (90) 
idAABNgen9

$$$$

     RDKit          2D

  9  9  0  0  0  0  0  0  0  0999 V2000
    5.0260   -1.2990    0.0000 C   0  0  0  0  0  0  0  0  0  0  0  0
    3.5260   -1.2990    0.0000 C   0  0  0  0  0  0  0  0  0  0  0  0
    2.7760    0.0000    0.0000 C   0  0  0  0  0  0  0  0  0  0  0  0
    3.5260    1.2990    0.0000 O   0  0  0  0  0  0  0  0  0  0  0  0
    1.2760    0.0000    0.0000 C   0  0  0  0  0  0  0  0  0  0  0  0
    0.3943    1.2135    0.0000 C   0  0  0  0  0  0  0  0  0  0  0  0
   -1.0323    0.7500    0.0000 C   0  0  0  0  0  0  0  0  0  0  0  0
   -1.0323   -0.7500    0.0000 C   0  0  0  0  0  0  0  0  0  0  0  0
    0.3943   -1.2135    0.0000 C   0  0  0  0  0  0  0  0  0  0  0  0
  1  2  1  0
  2  3  1  0
  3  4  2  0
  3  5  1  0
  5  6  2  0
  6  7  1  0
  7  8  2  0
  8  9  1  0
  9  5  1  0
M  END
>  <Title>  (91) 
idAABOgen9

$$$$

     RDKit          2D

 17 17  0  0  0  0  0  0  0  0999 V2000
   19.0607    0.0000    0.0000 C   0  0  0  0  0  0  0  0  0  0  0  0
   17.5607    0.0000    0.0000 C   0  0  0  0  0  0  0  0  0  0  0  0
   16.0607    0.0000    0.0000 C   0  0  0  0  0  0  0  0  0  0  0  0
   14.5607    0.0000    0.0000 C   0  0  0  0  0  0  0  0  0  0  0  0
   13.0607    0.0000    0.0000 C   0  0  0  0  0  0  0  0  0  0  0  0
   11.5607    0.0000    0.0000 C   0  0  0  0  0  0  0  0  0  0  0  0
   10.0607    0.0000    0.0000 C   0  0  0  0  0  0  0  0  0  0  0  0
    8.5607    0.0000    0.0000 C   0  0  0  0  0  0  0  0  0  0  0  0
    7.0607    0.0000    0.0000 C   0  0  0  0  0  0  0  0  0  0  0  0
    5.5607    0.0000    0.0000 C   0  0  0  0  0  0  0  0  0  0  0  0
    4.0607    0.0000    0.0000 C   0  0  0  0  0  0  0  0  0  0  0  0
    2.5607    0.0000    0.0000 C   0  0  0  0  0  0  0  0  0  0  0  0
    1.0607    0.0000    0.0000 C   0  0  0  0  0  0  0  0  0  0  0  0
   -0.0000   -1.0607    0.0000 C   0  0  0  0  0  0  0  0  0  0  0  0
   -0.0000   -2.5607    0.0000 O   0  0  0  0  0  0  0  0  0  0  0  0
   -1.0607    0.0000    0.0000 C   0  0  0  0  0  0  0  0  0  0  0  0
    0.0000    1.0607    0.0000 C   0  0  0  0  0  0  0  0  0  0  0  0
  1  2  3  0
  2  3  1  0
  3  4  3  0
  4  5  1  0
  5  6  3  0
  6  7  1  0
  7  8  3  0
  8  9  1  0
  9 10  3  0
 10 11  1  0
 11 12  3  0
 12 13  1  0
 13 14  2  0
 14 15  1  0
 14 16  1  0
 16 17  2  0
 17 13  1  0
M  END
>  <Title>  (92) 
idAABPgen9

$$$$

     RDKit          2D

106106  0  0  0  0  0  0  0  0999 V2000
   26.3319    0.0000    0.0000 C   0  0  0  0  0  0  0  0  0  0  0  0
   24.8319    0.0000    0.0000 C   0  0  0  0  0  0  0  0  0  0  0  0
   24.7866   -1.4993    0.0000 C   0  0  0  0  0  0  0  0  0  0  0  0
   24.6509   -2.9932    0.0000 C   0  0  0  0  0  0  0  0  0  0  0  0
   24.4252   -4.4761    0.0000 C   0  0  0  0  0  0  0  0  0  0  0  0
   24.1104   -5.9427    0.0000 C   0  0  0  0  0  0  0  0  0  0  0  0
   23.7076   -7.3876    0.0000 C   0  0  0  0  0  0  0  0  0  0  0  0
   23.2183   -8.8055    0.0000 C   0  0  0  0  0  0  0  0  0  0  0  0
   22.6442  -10.1913    0.0000 C   0  0  0  0  0  0  0  0  0  0  0  0
   21.9876  -11.5400    0.0000 C   0  0  0  0  0  0  0  0  0  0  0  0
   21.2507  -12.8465    0.0000 C   0  0  0  0  0  0  0  0  0  0  0  0
   20.4363  -14.1062    0.0000 C   0  0  0  0  0  0  0  0  0  0  0  0
   19.5473  -15.3143    0.0000 C   0  0  0  0  0  0  0  0  0  0  0  0
   18.5870  -16.4666    0.0000 C   0  0  0  0  0  0  0  0  0  0  0  0
   17.5588  -17.5588    0.0000 C   0  0  0  0  0  0  0  0  0  0  0  0
   16.4666  -18.5870    0.0000 C   0  0  0  0  0  0  0  0  0  0  0  0
   15.3143  -19.5473    0.0000 C   0  0  0  0  0  0  0  0  0  0  0  0
   14.1062  -20.4363    0.0000 C   0  0  0  0  0  0  0  0  0  0  0  0
   12.8465  -21.2507    0.0000 C   0  0  0  0  0  0  0  0  0  0  0  0
   11.5400  -21.9876    0.0000 C   0  0  0  0  0  0  0  0  0  0  0  0
   10.1913  -22.6442    0.0000 C   0  0  0  0  0  0  0  0  0  0  0  0
    8.8055  -23.2183    0.0000 C   0  0  0  0  0  0  0  0  0  0  0  0
    7.3876  -23.7076    0.0000 C   0  0  0  0  0  0  0  0  0  0  0  0
    5.9427  -24.1104    0.0000 C   0  0  0  0  0  0  0  0  0  0  0  0
    4.4761  -24.4252    0.0000 C   0  0  0  0  0  0  0  0  0  0  0  0
    2.9932  -24.6509    0.0000 C   0  0  0  0  0  0  0  0  0  0  0  0
    1.4993  -24.7866    0.0000 C   0  0  0  0  0  0  0  0  0  0  0  0
   -0.0000  -24.8319    0.0000 C   0  0  0  0  0  0  0  0  0  0  0  0
   -1.4993  -24.7866    0.0000 C   0  0  0  0  0  0  0  0  0  0  0  0
   -2.9932  -24.6509    0.0000 C   0  0  0  0  0  0  0  0  0  0  0  0
   -4.4761  -24.4252    0.0000 C   0  0  0  0  0  0  0  0  0  0  0  0
   -5.9427  -24.1104    0.0000 C   0  0  0  0  0  0  0  0  0  0  0  0
   -7.3876  -23.7076    0.0000 C   0  0  0  0  0  0  0  0  0  0  0  0
   -8.8055  -23.2183    0.0000 C   0  0  0  0  0  0  0  0  0  0  0  0
  -10.1913  -22.6442    0.0000 C   0  0  0  0  0  0  0  0  0  0  0  0
  -11.5400  -21.9876    0.0000 C   0  0  0  0  0  0  0  0  0  0  0  0
  -12.8465  -21.2507    0.0000 C   0  0  0  0  0  0  0  0  0  0  0  0
  -14.1062  -20.4363    0.0000 C   0  0  0  0  0  0  0  0  0  0  0  0
  -15.3143  -19.5473    0.0000 C   0  0  0  0  0  0  0  0  0  0  0  0
  -16.4666  -18.5870    0.0000 C   0  0  0  0  0  0  0  0  0  0  0  0
  -17.5588  -17.5588    0.0000 C   0  0  0  0  0  0  0  0  0  0  0  0
  -18.5870  -16.4666    0.0000 C   0  0  0  0  0  0  0  0  0  0  0  0
  -19.5473  -15.3143    0.0000 C   0  0  0  0  0  0  0  0  0  0  0  0
  -20.4363  -14.1062    0.0000 C   0  0  0  0  0  0  0  0  0  0  0  0
  -21.2507  -12.8465    0.0000 C   0  0  0  0  0  0  0  0  0  0  0  0
  -21.9876  -11.5400    0.0000 C   0  0  0  0  0  0  0  0  0  0  0  0
  -22.6442  -10.1913    0.0000 C   0  0  0  0  0  0  0  0  0  0  0  0
  -23.2183   -8.8055    0.0000 C   0  0  0  0  0  0  0  0  0  0  0  0
  -23.7076   -7.3876    0.0000 C   0  0  0  0  0  0  0  0  0  0  0  0
  -24.1104   -5.9427    0.0000 C   0  0  0  0  0  0  0  0  0  0  0  0
  -24.4252   -4.4761    0.0000 C   0  0  0  0  0  0  0  0  0  0  0  0
  -24.6509   -2.9932    0.0000 C   0  0  0  0  0  0  0  0  0  0  0  0
  -24.7866   -1.4993    0.0000 C   0  0  0  0  0  0  0  0  0  0  0  0
  -24.8319    0.0000    0.0000 C   0  0  0  0  0  0  0  0  0  0  0  0
  -24.7866    1.4993    0.0000 C   0  0  0  0  0  0  0  0  0  0  0  0
  -24.6509    2.9932    0.0000 C   0  0  0  0  0  0  0  0  0  0  0  0
  -24.4252    4.4761    0.0000 C   0  0  0  0  0  0  0  0  0  0  0  0
  -24.1104    5.9427    0.0000 C   0  0  0  0  0  0  0  0  0  0  0  0
  -23.7076    7.3876    0.0000 C   0  0  0  0  0  0  0  0  0  0  0  0
  -23.2183    8.8055    0.0000 C   0  0  0  0  0  0  0  0  0  0  0  0
  -22.6442   10.1913    0.0000 C   0  0  0  0  0  0  0  0  0  0  0  0
  -21.9876   11.5400    0.0000 C   0  0  0  0  0  0  0  0  0  0  0  0
  -21.2507   12.8465    0.0000 C   0  0  0  0  0  0  0  0  0  0  0  0
  -20.4363   14.1062    0.0000 C   0  0  0  0  0  0  0  0  0  0  0  0
  -19.5473   15.3143    0.0000 C   0  0  0  0  0  0  0  0  0  0  0  0
  -18.5870   16.4666    0.0000 C   0  0  0  0  0  0  0  0  0  0  0  0
  -17.5588   17.5588    0.0000 C   0  0  0  0  0  0  0  0  0  0  0  0
  -16.4666   18.5870    0.0000 C   0  0  0  0  0  0  0  0  0  0  0  0
  -15.3143   19.5473    0.0000 C   0  0  0  0  0  0  0  0  0  0  0  0
  -14.1062   20.4363    0.0000 C   0  0  0  0  0  0  0  0  0  0  0  0
  -12.8465   21.2507    0.0000 C   0  0  0  0  0  0  0  0  0  0  0  0
  -11.5400   21.9876    0.0000 C   0  0  0  0  0  0  0  0  0  0  0  0
  -10.1913   22.6442    0.0000 C   0  0  0  0  0  0  0  0  0  0  0  0
   -8.8055   23.2183    0.0000 C   0  0  0  0  0  0  0  0  0  0  0  0
   -7.3876   23.7076    0.0000 C   0  0  0  0  0  0  0  0  0  0  0  0
   -5.9427   24.1104    0.0000 C   0  0  0  0  0  0  0  0  0  0  0  0
   -4.4761   24.4252    0.0000 C   0  0  0  0  0  0  0  0  0  0  0  0
   -2.9932   24.6509    0.0000 C   0  0  0  0  0  0  0  0  0  0  0  0
   -1.4993   24.7866    0.0000 C   0  0  0  0  0  0  0  0  0  0  0  0
    0.0000   24.8319    0.0000 C   0  0  0  0  0  0  0  0  0  0  0  0
    1.4993   24.7866    0.0000 C   0  0  0  0  0  0  0  0  0  0  0  0
    2.9932   24.6509    0.0000 C   0  0  0  0  0  0  0  0  0  0  0  0
    4.4761   24.4252    0.0000 C   0  0  0  0  0  0  0  0  0  0  0  0
    5.9427   24.1104    0.0000 C   0  0  0  0  0  0  0  0  0  0  0  0
    7.3876   23.7076    0.0000 C   0  0  0  0  0  0  0  0  0  0  0  0
    8.8055   23.2183    0.0000 C   0  0  0  0  0  0  0  0  0  0  0  0
   10.1913   22.6442    0.0000 C   0  0  0  0  0  0  0  0  0  0  0  0
   11.5400   21.9876    0.0000 C   0  0  0  0  0  0  0  0  0  0  0  0
   12.8465   21.2507    0.0000 C   0  0  0  0  0  0  0  0  0  0  0  0
   14.1062   20.4363    0.0000 C   0  0  0  0  0  0  0  0  0  0  0  0
   15.3143   19.5473    0.0000 C   0  0  0  0  0  0  0  0  0  0  0  0
   16.4666   18.5870    0.0000 C   0  0  0  0  0  0  0  0  0  0  0  0
   17.5588   17.5588    0.0000 C   0  0  0  0  0  0  0  0  0  0  0  0
   18.5870   16.4666    0.0000 C   0  0  0  0  0  0  0  0  0  0  0  0
   19.5473   15.3143    0.0000 C   0  0  0  0  0  0  0  0  0  0  0  0
   20.4363   14.1062    0.0000 C   0  0  0  0  0  0  0  0  0  0  0  0
   21.2507   12.8465    0.0000 C   0  0  0  0  0  0  0  0  0  0  0  0
   21.9876   11.5400    0.0000 C   0  0  0  0  0  0  0  0  0  0  0  0
   22.6442   10.1913    0.0000 C   0  0  0  0  0  0  0  0  0  0  0  0
   23.2183    8.8055    0.0000 C   0  0  0  0  0  0  0  0  0  0  0  0
   23.7076    7.3876    0.0000 C   0  0  0  0  0  0  0  0  0  0  0  0
   24.1104    5.9427    0.0000 C   0  0  0  0  0  0  0  0  0  0  0  0
   24.4252    4.4761    0.0000 C   0  0  0  0  0  0  0  0  0  0  0  0
   24.6509    2.9932    0.0000 C   0  0  0  0  0  0  0  0  0  0  0  0
   26.1400    3.1740    0.0000 C   0  0  0  0  0  0  0  0  0  0  0  0
   24.7866    1.4993    0.0000 C   0  0  0  0  0  0  0  0  0  0  0  0
  1  2  1  0
  2  3  1  0
  3  4  2  0
  4  5  1  0
  5  6  1  0
  6  7  1  0
  7  8  1  0
  8  9  1  0
  9 10  1  0
 10 11  1  0
 11 12  1  0
 12 13  1  0
 13 14  1  0
 14 15  1  0
 15 16  1  0
 16 17  1  0
 17 18  1  0
 18 19  1  0
 19 20  1  0
 20 21  1  0
 21 22  1  0
 22 23  1  0
 23 24  1  0
 24 25  1  0
 25 26  1  0
 26 27  1  0
 27 28  1  0
 28 29  1  0
 29 30  1  0
 30 31  1  0
 31 32  1  0
 32 33  1  0
 33 34  1  0
 34 35  1  0
 35 36  1  0
 36 37  1  0
 37 38  1  0
 38 39  1  0
 39 40  1  0
 40 41  1  0
 41 42  1  0
 42 43  1  0
 43 44  1  0
 44 45  1  0
 45 46  1  0
 46 47  1  0
 47 48  1  0
 48 49  1  0
 49 50  1  0
 50 51  1  0
 51 52  1  0
 52 53  1  0
 53 54  1  0
 54 55  1  0
 55 56  1  0
 56 57  1  0
 57 58  1  0
 58 59  1  0
 59 60  1  0
 60 61  1  0
 61 62  1  0
 62 63  1  0
 63 64  1  0
 64 65  1  0
 65 66  1  0
 66 67  1  0
 67 68  1  0
 68 69  1  0
 69 70  1  0
 70 71  1  0
 71 72  1  0
 72 73  1  0
 73 74  1  0
 74 75  1  0
 75 76  1  0
 76 77  1  0
 77 78  1  0
 78 79  1  0
 79 80  1  0
 80 81  1  0
 81 82  1  0
 82 83  1  0
 83 84  1  0
 84 85  1  0
 85 86  1  0
 86 87  1  0
 87 88  1  0
 88 89  1  0
 89 90  1  0
 90 91  1  0
 91 92  1  0
 92 93  1  0
 93 94  1  0
 94 95  1  0
 95 96  1  0
 96 97  1  0
 97 98  1  0
 98 99  1  0
 99100  1  0
100101  1  0
101102  1  0
102103  1  0
103104  1  0
104105  1  0
104106  1  0
106  2  1  0
M  END
>  <Title>  (93) 
idAABQgen9

$$$$

     RDKit          2D

127126  0  0  0  0  0  0  0  0999 V2000
    0.0000    0.0000    0.0000 C   0  0  0  0  0  0  0  0  0  0  0  0
    1.2990    0.7500    0.0000 C   0  0  0  0  0  0  0  0  0  0  0  0
    2.5981   -0.0000    0.0000 C   0  0  0  0  0  0  0  0  0  0  0  0
    3.8971    0.7500    0.0000 C   0  0  0  0  0  0  0  0  0  0  0  0
    5.1962   -0.0000    0.0000 C   0  0  0  0  0  0  0  0  0  0  0  0
    6.4952    0.7500    0.0000 C   0  0  0  0  0  0  0  0  0  0  0  0
    7.7942   -0.0000    0.0000 C   0  0  0  0  0  0  0  0  0  0  0  0
    9.0933    0.7500    0.0000 C   0  0  0  0  0  0  0  0  0  0  0  0
   10.3923   -0.0000    0.0000 C   0  0  0  0  0  0  0  0  0  0  0  0
   11.6913    0.7500    0.0000 C   0  0  0  0  0  0  0  0  0  0  0  0
   12.9904   -0.0000    0.0000 C   0  0  0  0  0  0  0  0  0  0  0  0
   14.2894    0.7500    0.0000 C   0  0  0  0  0  0  0  0  0  0  0  0
   15.5885   -0.0000    0.0000 C   0  0  0  0  0  0  0  0  0  0  0  0
   16.8875    0.7500    0.0000 C   0  0  0  0  0  0  0  0  0  0  0  0
   18.1865   -0.0000    0.0000 C   0  0  0  0  0  0  0  0  0  0  0  0
   19.4856    0.7500    0.0000 C   0  0  0  0  0  0  0  0  0  0  0  0
   20.7846   -0.0000    0.0000 C   0  0  0  0  0  0  0  0  0  0  0  0
   22.0836    0.7500    0.0000 C   0  0  0  0  0  0  0  0  0  0  0  0
   23.3827   -0.0000    0.0000 C   0  0  0  0  0  0  0  0  0  0  0  0
   24.6817    0.7500    0.0000 C   0  0  0  0  0  0  0  0  0  0  0  0
   25.9808   -0.0000    0.0000 C   0  0  0  0  0  0  0  0  0  0  0  0
   27.2798    0.7500    0.0000 C   0  0  0  0  0  0  0  0  0  0  0  0
   28.5788   -0.0000    0.0000 C   0  0  0  0  0  0  0  0  0  0  0  0
   29.8779    0.7500    0.0000 C   0  0  0  0  0  0  0  0  0  0  0  0
   31.1769   -0.0000    0.0000 C   0  0  0  0  0  0  0  0  0  0  0  0
   32.4760    0.7500    0.0000 C   0  0  0  0  0  0  0  0  0  0  0  0
   33.7750   -0.0000    0.0000 C   0  0  0  0  0  0  0  0  0  0  0  0
   35.0740    0.7500    0.0000 C   0  0  0  0  0  0  0  0  0  0  0  0
   36.3731   -0.0000    0.0000 C   0  0  0  0  0  0  0  0  0  0  0  0
   37.6721    0.7500    0.0000 C   0  0  0  0  0  0  0  0  0  0  0  0
   38.9711   -0.0000    0.0000 C   0  0  0  0  0  0  0  0  0  0  0  0
   40.2702    0.7500    0.0000 C   0  0  0  0  0  0  0  0  0  0  0  0
   41.5692   -0.0000    0.0000 C   0  0  0  0  0  0  0  0  0  0  0  0
   42.8683    0.7500    0.0000 C   0  0  0  0  0  0  0  0  0  0  0  0
   44.1673   -0.0000    0.0000 C   0  0  0  0  0  0  0  0  0  0  0  0
   45.4663    0.7500    0.0000 C   0  0  0  0  0  0  0  0  0  0  0  0
   46.7654   -0.0000    0.0000 C   0  0  0  0  0  0  0  0  0  0  0  0
   48.0644    0.7500    0.0000 C   0  0  0  0  0  0  0  0  0  0  0  0
   49.3634   -0.0000    0.0000 C   0  0  0  0  0  0  0  0  0  0  0  0
   50.6625    0.7500    0.0000 C   0  0  0  0  0  0  0  0  0  0  0  0
   51.9615   -0.0000    0.0000 C   0  0  0  0  0  0  0  0  0  0  0  0
   53.2606    0.7500    0.0000 C   0  0  0  0  0  0  0  0  0  0  0  0
   54.5596   -0.0000    0.0000 C   0  0  0  0  0  0  0  0  0  0  0  0
   55.8586    0.7500    0.0000 C   0  0  0  0  0  0  0  0  0  0  0  0
   57.1577   -0.0000    0.0000 C   0  0  0  0  0  0  0  0  0  0  0  0
   58.4567    0.7500    0.0000 C   0  0  0  0  0  0  0  0  0  0  0  0
   59.7558   -0.0000    0.0000 C   0  0  0  0  0  0  0  0  0  0  0  0
   61.0548    0.7500    0.0000 C   0  0  0  0  0  0  0  0  0  0  0  0
   62.3538   -0.0000    0.0000 C   0  0  0  0  0  0  0  0  0  0  0  0
   63.6529    0.7500    0.0000 C   0  0  0  0  0  0  0  0  0  0  0  0
   64.9519   -0.0000    0.0000 C   0  0  0  0  0  0  0  0  0  0  0  0
   66.2509    0.7500    0.0000 C   0  0  0  0  0  0  0  0  0  0  0  0
   67.5500   -0.0000    0.0000 C   0  0  0  0  0  0  0  0  0  0  0  0
   68.8490    0.7500    0.0000 C   0  0  0  0  0  0  0  0  0  0  0  0
   70.1481   -0.0000    0.0000 C   0  0  0  0  0  0  0  0  0  0  0  0
   71.4471    0.7500    0.0000 C   0  0  0  0  0  0  0  0  0  0  0  0
   72.7461   -0.0000    0.0000 C   0  0  0  0  0  0  0  0  0  0  0  0
   74.0452    0.7500    0.0000 C   0  0  0  0  0  0  0  0  0  0  0  0
   75.3442   -0.0000    0.0000 C   0  0  0  0  0  0  0  0  0  0  0  0
   76.6432    0.7500    0.0000 C   0  0  0  0  0  0  0  0  0  0  0  0
   77.9423   -0.0000    0.0000 C   0  0  0  0  0  0  0  0  0  0  0  0
   79.2413    0.7500    0.0000 C   0  0  0  0  0  0  0  0  0  0  0  0
   80.5404   -0.0000    0.0000 C   0  0  0  0  0  0  0  0  0  0  0  0
   81.8394    0.7500    0.0000 C   0  0  0  0  0  0  0  0  0  0  0  0
   83.1384   -0.0000    0.0000 C   0  0  0  0  0  0  0  0  0  0  0  0
   84.4375    0.7500    0.0000 C   0  0  0  0  0  0  0  0  0  0  0  0
   85.7365   -0.0000    0.0000 C   0  0  0  0  0  0  0  0  0  0  0  0
   87.0356    0.7500    0.0000 C   0  0  0  0  0  0  0  0  0  0  0  0
   88.3346   -0.0000    0.0000 C   0  0  0  0  0  0  0  0  0  0  0  0
   89.6336    0.7500    0.0000 C   0  0  0  0  0  0  0  0  0  0  0  0
   90.9327   -0.0000    0.0000 C   0  0  0  0  0  0  0  0  0  0  0  0
   92.2317    0.7500    0.0000 C   0  0  0  0  0  0  0  0  0  0  0  0
   93.5307   -0.0000    0.0000 C   0  0  0  0  0  0  0  0  0  0  0  0
   94.8298    0.7500    0.0000 C   0  0  0  0  0  0  0  0  0  0  0  0
   96.1288   -0.0000    0.0000 C   0  0  0  0  0  0  0  0  0  0  0  0
   97.4279    0.7500    0.0000 C   0  0  0  0  0  0  0  0  0  0  0  0
   98.7269   -0.0000    0.0000 C   0  0  0  0  0  0  0  0  0  0  0  0
  100.0259    0.7500    0.0000 C   0  0  0  0  0  0  0  0  0  0  0  0
  101.3250   -0.0000    0.0000 C   0  0  0  0  0  0  0  0  0  0  0  0
  102.6240    0.7500    0.0000 C   0  0  0  0  0  0  0  0  0  0  0  0
  103.9230   -0.0000    0.0000 C   0  0  0  0  0  0  0  0  0  0  0  0
  105.2221    0.7500    0.0000 C   0  0  0  0  0  0  0  0  0  0  0  0
  106.5211   -0.0000    0.0000 C   0  0  0  0  0  0  0  0  0  0  0  0
  107.8202    0.7500    0.0000 C   0  0  0  0  0  0  0  0  0  0  0  0
  109.1192   -0.0000    0.0000 C   0  0  0  0  0  0  0  0  0  0  0  0
  110.4182    0.7500    0.0000 C   0  0  0  0  0  0  0  0  0  0  0  0
  111.7173   -0.0000    0.0000 C   0  0  0  0  0  0  0  0  0  0  0  0
  113.0163    0.7500    0.0000 C   0  0  0  0  0  0  0  0  0  0  0  0
  114.3154   -0.0000    0.0000 C   0  0  0  0  0  0  0  0  0  0  0  0
  115.6144    0.7500    0.0000 C   0  0  0  0  0  0  0  0  0  0  0  0
  116.9134   -0.0000    0.0000 C   0  0  0  0  0  0  0  0  0  0  0  0
  118.2125    0.7500    0.0000 C   0  0  0  0  0  0  0  0  0  0  0  0
  119.5115   -0.0000    0.0000 C   0  0  0  0  0  0  0  0  0  0  0  0
  120.8105    0.7500    0.0000 C   0  0  0  0  0  0  0  0  0  0  0  0
  122.1096   -0.0000    0.0000 C   0  0  0  0  0  0  0  0  0  0  0  0
  123.4086    0.7500    0.0000 C   0  0  0  0  0  0  0  0  0  0  0  0
  124.7077   -0.0000    0.0000 C   0  0  0  0  0  0  0  0  0  0  0  0
  126.0067    0.7500    0.0000 C   0  0  0  0  0  0  0  0  0  0  0  0
  127.3057   -0.0000    0.0000 C   0  0  0  0  0  0  0  0  0  0  0  0
  128.6048    0.7500    0.0000 C   0  0  0  0  0  0  0  0  0  0  0  0
  129.9038   -0.0000    0.0000 C   0  0  0  0  0  0  0  0  0  0  0  0
  131.2028    0.7500    0.0000 C   0  0  0  0  0  0  0  0  0  0  0  0
  132.5019   -0.0000    0.0000 C   0  0  0  0  0  0  0  0  0  0  0  0
  133.8009    0.7500    0.0000 C   0  0  0  0  0  0  0  0  0  0  0  0
  135.1000   -0.0000    0.0000 C   0  0  0  0  0  0  0  0  0  0  0  0
  136.3990    0.7500    0.0000 C   0  0  0  0  0  0  0  0  0  0  0  0
  137.6980   -0.0000    0.0000 C   0  0  0  0  0  0  0  0  0  0  0  0
  138.9971    0.7500    0.0000 C   0  0  0  0  0  0  0  0  0  0  0  0
  140.2961   -0.0000    0.0000 C   0  0  0  0  0  0  0  0  0  0  0  0
  141.5952    0.7500    0.0000 C   0  0  0  0  0  0  0  0  0  0  0  0
  142.8942   -0.0000    0.0000 C   0  0  0  0  0  0  0  0  0  0  0  0
  144.1932    0.7500    0.0000 C   0  0  0  0  0  0  0  0  0  0  0  0
  145.4923   -0.0000    0.0000 C   0  0  0  0  0  0  0  0  0  0  0  0
  146.7913    0.7500    0.0000 C   0  0  0  0  0  0  0  0  0  0  0  0
  148.0903   -0.0000    0.0000 C   0  0  0  0  0  0  0  0  0  0  0  0
  149.3894    0.7500    0.0000 C   0  0  0  0  0  0  0  0  0  0  0  0
  150.6884   -0.0000    0.0000 C   0  0  0  0  0  0  0  0  0  0  0  0
  151.9875    0.7500    0.0000 C   0  0  0  0  0  0  0  0  0  0  0  0
  153.2865   -0.0000    0.0000 C   0  0  0  0  0  0  0  0  0  0  0  0
  154.5855    0.7500    0.0000 C   0  0  0  0  0  0  0  0  0  0  0  0
  155.8846   -0.0000    0.0000 C   0  0  0  0  0  0  0  0  0  0  0  0
  157.1836    0.7500    0.0000 C   0  0  0  0  0  0  0  0  0  0  0  0
  158.4826   -0.0000    0.0000 C   0  0  0  0  0  0  0  0  0  0  0  0
  159.7817    0.7500    0.0000 C   0  0  0  0  0  0  0  0  0  0  0  0
  161.0807   -0.0000    0.0000 C   0  0  0  0  0  0  0  0  0  0  0  0
  162.3798    0.7500    0.0000 C   0  0  0  0  0  0  0  0  0  0  0  0
  163.6788   -0.0000    0.0000 C   0  0  0  0  0  0  0  0  0  0  0  0
  1  2  1  0
  2  3  2  3
  3  4  1  0
  4  5  1  0
  5  6  1  0
  6  7  1  0
  7  8  1  0
  8  9  1  0
  9 10  1  0
 10 11  1  0
 11 12  1  0
 12 13  1  0
 13 14  1  0
 14 15  1  0
 15 16  1  0
 16 17  1  0
 17 18  1  0
 18 19  1  0
 19 20  1  0
 20 21  1  0
 21 22  1  0
 22 23  1  0
 23 24  1  0
 24 25  1  0
 25 26  1  0
 26 27  1  0
 27 28  1  0
 28 29  1  0
 29 30  1  0
 30 31  1  0
 31 32  1  0
 32 33  1  0
 33 34  1  0
 34 35  1  0
 35 36  1  0
 36 37  1  0
 37 38  1  0
 38 39  1  0
 39 40  1  0
 40 41  1  0
 41 42  1  0
 42 43  1  0
 43 44  1  0
 44 45  1  0
 45 46  1  0
 46 47  1  0
 47 48  1  0
 48 49  1  0
 49 50  1  0
 50 51  1  0
 51 52  1  0
 52 53  1  0
 53 54  1  0
 54 55  1  0
 55 56  1  0
 56 57  1  0
 57 58  1  0
 58 59  1  0
 59 60  1  0
 60 61  1  0
 61 62  1  0
 62 63  1  0
 63 64  1  0
 64 65  1  0
 65 66  1  0
 66 67  1  0
 67 68  1  0
 68 69  1  0
 69 70  1  0
 70 71  1  0
 71 72  1  0
 72 73  1  0
 73 74  1  0
 74 75  1  0
 75 76  1  0
 76 77  1  0
 77 78  1  0
 78 79  1  0
 79 80  1  0
 80 81  1  0
 81 82  1  0
 82 83  1  0
 83 84  1  0
 84 85  1  0
 85 86  1  0
 86 87  1  0
 87 88  1  0
 88 89  1  0
 89 90  1  0
 90 91  1  0
 91 92  1  0
 92 93  1  0
 93 94  1  0
 94 95  1  0
 95 96  1  0
 96 97  1  0
 97 98  1  0
 98 99  1  0
 99100  1  0
100101  1  0
101102  1  0
102103  1  0
103104  1  0
104105  1  0
105106  1  0
106107  1  0
107108  1  0
108109  1  0
109110  1  0
110111  1  0
111112  1  0
112113  1  0
113114  1  0
114115  1  0
115116  1  0
116117  1  0
117118  1  0
118119  1  0
119120  1  0
120121  1  0
121122  1  0
122123  1  0
123124  1  0
124125  1  0
125126  1  0
126127  1  0
M  END
>  <Title>  (94) 
idAABRgen9

$$$$

     RDKit          2D

  7  7  0  0  0  0  0  0  0  0999 V2000
    4.2760   -0.0000    0.0000 N   0  0  0  0  0  0  0  0  0  0  0  0
    2.7760    0.0000    0.0000 C   0  0  0  0  0  0  0  0  0  0  0  0
    1.2760    0.0000    0.0000 C   0  0  0  0  0  0  0  0  0  0  0  0
    0.3943    1.2135    0.0000 C   0  0  0  0  0  0  0  0  0  0  0  0
   -1.0323    0.7500    0.0000 C   0  0  0  0  0  0  0  0  0  0  0  0
   -1.0323   -0.7500    0.0000 C   0  0  0  0  0  0  0  0  0  0  0  0
    0.3943   -1.2135    0.0000 C   0  0  0  0  0  0  0  0  0  0  0  0
  1  2  3  0
  2  3  1  0
  3  4  2  0
  4  5  1  0
  5  6  1  0
  6  7  2  0
  7  3  1  0
M  END
>  <Title>  (95) 
idAABSgen9

$$$$

     RDKit          2D

 16 16  0  0  0  0  0  0  0  0999 V2000
   16.5000    0.0000    0.0000 C   0  0  0  0  0  0  0  0  0  0  0  0
   15.0000    0.0000    0.0000 C   0  0  0  0  0  0  0  0  0  0  0  0
   13.5000    0.0000    0.0000 C   0  0  0  0  0  0  0  0  0  0  0  0
   12.0000    0.0000    0.0000 C   0  0  0  0  0  0  0  0  0  0  0  0
   10.5000    0.0000    0.0000 C   0  0  0  0  0  0  0  0  0  0  0  0
    9.0000    0.0000    0.0000 C   0  0  0  0  0  0  0  0  0  0  0  0
    7.5000    0.0000    0.0000 C   0  0  0  0  0  0  0  0  0  0  0  0
    6.0000    0.0000    0.0000 C   0  0  0  0  0  0  0  0  0  0  0  0
    4.5000    0.0000    0.0000 C   0  0  0  0  0  0  0  0  0  0  0  0
    3.0000    0.0000    0.0000 C   0  0  0  0  0  0  0  0  0  0  0  0
    1.5000    0.0000    0.0000 C   0  0  0  0  0  0  0  0  0  0  0  0
    0.7500   -1.2990    0.0000 C   0  0  0  0  0  0  0  0  0  0  0  0
   -0.7500   -1.2990    0.0000 C   0  0  0  0  0  0  0  0  0  0  0  0
   -1.5000    0.0000    0.0000 C   0  0  0  0  0  0  0  0  0  0  0  0
   -0.7500    1.2990    0.0000 C   0  0  0  0  0  0  0  0  0  0  0  0
    0.7500    1.2990    0.0000 C   0  0  0  0  0  0  0  0  0  0  0  0
  1  2  3  0
  2  3  1  0
  3  4  3  0
  4  5  1  0
  5  6  3  0
  6  7  1  0
  7  8  3  0
  8  9  1  0
  9 10  3  0
 10 11  1  0
 11 12  2  0
 12 13  1  0
 13 14  1  0
 14 15  1  0
 15 16  1  0
 16 11  1  0
M  END
>  <Title>  (96) 
idAABTgen9

$$$$

     RDKit          2D

  8  8  0  0  0  0  0  0  0  0999 V2000
    4.0607    0.0000    0.0000 C   0  0  0  0  0  0  0  0  0  0  0  0
    2.5607    0.0000    0.0000 C   0  0  0  0  0  0  0  0  0  0  0  0
    1.0607    0.0000    0.0000 C   0  0  0  0  0  0  0  0  0  0  0  0
   -0.0000   -1.0607    0.0000 C   0  0  0  0  0  0  0  0  0  0  0  0
   -0.0000   -2.5607    0.0000 C   0  0  0  0  0  0  0  0  0  0  0  0
   -0.0000   -4.0607    0.0000 N   0  0  0  0  0  0  0  0  0  0  0  0
   -1.0607    0.0000    0.0000 C   0  0  0  0  0  0  0  0  0  0  0  0
    0.0000    1.0607    0.0000 C   0  0  0  0  0  0  0  0  0  0  0  0
  1  2  3  0
  2  3  1  0
  3  4  2  0
  4  5  1  0
  5  6  3  0
  4  7  1  0
  7  8  2  0
  8  3  1  0
M  END
>  <Title>  (97) 
idAABUgen9

$$$$

     RDKit          2D

 15 16  0  0  0  0  0  0  0  0999 V2000
    2.7760    0.0000    0.0000 C   0  0  0  0  0  0  0  0  0  0  0  0
    1.2760    0.0000    0.0000 C   0  0  0  0  0  0  0  0  0  0  0  0
    0.3943    1.2135    0.0000 C   0  0  0  0  0  0  0  0  0  0  0  0
   -1.0323    0.7500    0.0000 C   0  0  0  0  0  0  0  0  0  0  0  0
   -1.0323   -0.7500    0.0000 C   0  0  0  0  0  0  0  0  0  0  0  0
   -2.2458   -1.6317    0.0000 C   0  0  0  0  0  0  0  0  0  0  0  0
   -2.0890   -3.1235    0.0000 O   0  0  0  0  0  0  0  0  0  0  0  0
   -3.6161   -1.0216    0.0000 N   0  0  0  0  0  0  0  0  0  0  0  0
   -4.8297   -1.9033    0.0000 C   0  0  0  0  0  0  0  0  0  0  0  0
   -4.8297   -3.4033    0.0000 N   0  0  0  0  0  0  0  0  0  0  0  0
   -6.2562   -3.8668    0.0000 N   0  0  0  0  0  0  0  0  0  0  0  0
   -7.1379   -2.6533    0.0000 N   0  0  0  0  0  0  0  0  0  0  0  0
   -6.2562   -1.4397    0.0000 N   0  0  0  0  0  0  0  0  0  0  0  0
    0.3943   -1.2135    0.0000 C   0  0  0  0  0  0  0  0  0  0  0  0
    0.8578   -2.6401    0.0000 O   0  0  0  0  0  0  0  0  0  0  0  0
  1  2  1  0
  2  3  2  0
  3  4  1  0
  4  5  2  0
  5  6  1  0
  6  7  2  0
  6  8  1  0
  8  9  1  0
  9 10  2  0
 10 11  1  0
 11 12  2  0
 12 13  1  0
  5 14  1  0
 14 15  2  0
 14  2  1  0
 13  9  1  0
M  END
>  <Title>  (98) 
idAABVgen9

$$$$

     RDKit          2D

 56 62  0  0  0  0  0  0  0  0999 V2000
   -8.7577  -11.5705    0.0000 C   0  0  0  0  0  0  0  0  0  0  0  0
   -7.3222  -11.1351    0.0000 C   0  0  0  0  0  0  0  0  0  0  0  0
   -6.7482  -12.5209    0.0000 C   0  0  0  0  0  0  0  0  0  0  0  0
   -5.9149  -13.7681    0.0000 C   0  0  0  0  0  0  0  0  0  0  0  0
   -4.8542  -14.8288    0.0000 C   0  0  0  0  0  0  0  0  0  0  0  0
   -3.6070  -15.6621    0.0000 C   0  0  0  0  0  0  0  0  0  0  0  0
   -2.2212  -16.2362    0.0000 C   0  0  0  0  0  0  0  0  0  0  0  0
   -0.7500  -16.5288    0.0000 C   0  0  0  0  0  0  0  0  0  0  0  0
    0.7500  -16.5288    0.0000 C   0  0  0  0  0  0  0  0  0  0  0  0
    2.2212  -16.2362    0.0000 C   0  0  0  0  0  0  0  0  0  0  0  0
    3.6070  -15.6621    0.0000 C   0  0  0  0  0  0  0  0  0  0  0  0
    4.8542  -14.8288    0.0000 C   0  0  0  0  0  0  0  0  0  0  0  0
    5.9149  -13.7681    0.0000 C   0  0  0  0  0  0  0  0  0  0  0  0
    6.7482  -12.5209    0.0000 C   0  0  0  0  0  0  0  0  0  0  0  0
    7.3222  -11.1351    0.0000 C   0  0  0  0  0  0  0  0  0  0  0  0
    7.6149   -9.6639    0.0000 C   0  0  0  0  0  0  0  0  0  0  0  0
    7.6149   -8.1639    0.0000 C   0  0  0  0  0  0  0  0  0  0  0  0
    7.3222   -6.6927    0.0000 C   0  0  0  0  0  0  0  0  0  0  0  0
    6.7482   -5.3069    0.0000 C   0  0  0  0  0  0  0  0  0  0  0  0
    5.9149   -4.0597    0.0000 C   0  0  0  0  0  0  0  0  0  0  0  0
    4.8542   -2.9991    0.0000 C   0  0  0  0  0  0  0  0  0  0  0  0
    3.6070   -2.1657    0.0000 C   0  0  0  0  0  0  0  0  0  0  0  0
    4.5812   -1.0251    0.0000 C   0  0  0  0  0  0  0  0  0  0  0  0
    3.7974    0.2539    0.0000 C   0  0  0  0  0  0  0  0  0  0  0  0
    2.3389   -0.0963    0.0000 C   0  0  0  0  0  0  0  0  0  0  0  0
    2.2212   -1.5917    0.0000 C   0  0  0  0  0  0  0  0  0  0  0  0
    0.7500   -1.2990    0.0000 C   0  0  0  0  0  0  0  0  0  0  0  0
    1.5000    0.0000    0.0000 C   0  0  0  0  0  0  0  0  0  0  0  0
    0.7500    1.2990    0.0000 C   0  0  0  0  0  0  0  0  0  0  0  0
   -0.7500    1.2990    0.0000 C   0  0  0  0  0  0  0  0  0  0  0  0
   -1.5000    0.0000    0.0000 C   0  0  0  0  0  0  0  0  0  0  0  0
   -0.7500   -1.2990    0.0000 C   0  0  0  0  0  0  0  0  0  0  0  0
   -2.2212   -1.5917    0.0000 C   0  0  0  0  0  0  0  0  0  0  0  0
   -2.6721   -0.3724    0.0000 C   0  0  0  0  0  0  0  0  0  0  0  0
   -3.3068    0.1146    0.0000 C   0  0  0  0  0  0  0  0  0  0  0  0
   -4.0459   -0.1915    0.0000 C   0  0  0  0  0  0  0  0  0  0  0  0
   -4.1503   -0.9847    0.0000 C   0  0  0  0  0  0  0  0  0  0  0  0
   -3.6070   -2.1657    0.0000 C   0  0  0  0  0  0  0  0  0  0  0  0
   -4.8542   -2.9991    0.0000 C   0  0  0  0  0  0  0  0  0  0  0  0
   -5.2424   -1.5502    0.0000 C   0  0  0  0  0  0  0  0  0  0  0  0
   -6.6913   -1.1619    0.0000 C   0  0  0  0  0  0  0  0  0  0  0  0
   -7.7520   -2.2226    0.0000 C   0  0  0  0  0  0  0  0  0  0  0  0
   -7.3638   -3.6715    0.0000 C   0  0  0  0  0  0  0  0  0  0  0  0
   -5.9149   -4.0597    0.0000 C   0  0  0  0  0  0  0  0  0  0  0  0
   -6.7482   -5.3069    0.0000 C   0  0  0  0  0  0  0  0  0  0  0  0
   -7.9292   -4.7636    0.0000 C   0  0  0  0  0  0  0  0  0  0  0  0
   -8.7224   -4.8680    0.0000 C   0  0  0  0  0  0  0  0  0  0  0  0
   -9.0285   -5.6071    0.0000 C   0  0  0  0  0  0  0  0  0  0  0  0
   -8.5415   -6.2418    0.0000 C   0  0  0  0  0  0  0  0  0  0  0  0
   -7.3222   -6.6927    0.0000 C   0  0  0  0  0  0  0  0  0  0  0  0
   -7.6149   -8.1639    0.0000 C   0  0  0  0  0  0  0  0  0  0  0  0
   -8.9139   -7.4139    0.0000 C   0  0  0  0  0  0  0  0  0  0  0  0
  -10.2130   -8.1639    0.0000 C   0  0  0  0  0  0  0  0  0  0  0  0
  -10.2130   -9.6639    0.0000 C   0  0  0  0  0  0  0  0  0  0  0  0
   -8.9139  -10.4139    0.0000 C   0  0  0  0  0  0  0  0  0  0  0  0
   -7.6149   -9.6639    0.0000 C   0  0  0  0  0  0  0  0  0  0  0  0
  1  2  1  0
  2  3  2  0
  3  4  1  0
  4  5  1  0
  5  6  1  0
  6  7  1  0
  7  8  1  0
  8  9  1  0
  9 10  2  0
 10 11  1  0
 11 12  2  0
 12 13  1  0
 13 14  2  0
 14 15  1  0
 15 16  2  0
 16 17  1  0
 17 18  2  0
 18 19  1  0
 19 20  2  0
 20 21  1  0
 21 22  2  0
 22 23  1  0
 23 24  2  0
 24 25  1  0
 25 26  2  0
 26 27  1  0
 27 28  2  0
 28 29  1  0
 29 30  2  0
 30 31  1  0
 31 32  2  0
 32 33  1  0
 33 34  2  0
 34 35  1  0
 35 36  2  0
 36 37  1  0
 37 38  2  0
 38 39  1  0
 39 40  2  0
 40 41  1  0
 41 42  2  0
 42 43  1  0
 43 44  2  0
 44 45  1  0
 45 46  2  0
 46 47  1  0
 47 48  2  0
 48 49  1  0
 49 50  2  0
 50 51  1  0
 51 52  2  0
 52 53  1  0
 53 54  2  0
 54 55  1  0
 55 56  2  0
 56  2  1  0
 26 22  1  0
 32 27  1  0
 38 33  1  0
 44 39  1  0
 50 45  1  0
 56 51  1  0
M  END
>  <Title>  (99) 
idAABWgen9

$$$$

     RDKit          2D

  7  7  0  0  0  0  0  0  0  0999 V2000
    3.0000    0.0000    0.0000 C   0  0  0  0  0  0  0  0  0  0  0  0
    1.5000    0.0000    0.0000 C   0  0  0  0  0  0  0  0  0  0  0  0
    0.7500   -1.2990    0.0000 C   0  0  0  0  0  0  0  0  0  0  0  0
   -0.7500   -1.2990    0.0000 C   0  0  0  0  0  0  0  0  0  0  0  0
   -1.5000    0.0000    0.0000 C   0  0  0  0  0  0  0  0  0  0  0  0
   -0.7500    1.2990    0.0000 C   0  0  0  0  0  0  0  0  0  0  0  0
    0.7500    1.2990    0.0000 C   0  0  0  0  0  0  0  0  0  0  0  0
  1  2  1  0
  2  3  2  0
  3  4  1  0
  4  5  2  0
  5  6  1  0
  6  7  2  0
  7  2  1  0
M  END
>  <Title>  (100) 
idAABXgen9

$$$$

     RDKit          2D

 10 10  0  0  0  0  0  0  0  0999 V2000
    8.5607   -2.5981    0.0000 N   0  0  0  0  0  0  0  0  0  0  0  0
    7.0607   -2.5981    0.0000 C   0  0  0  0  0  0  0  0  0  0  0  0
    5.5607   -2.5981    0.0000 C   0  0  0  0  0  0  0  0  0  0  0  0
    4.8107   -1.2990    0.0000 C   0  0  0  0  0  0  0  0  0  0  0  0
    3.3107   -1.2990    0.0000 C   0  0  0  0  0  0  0  0  0  0  0  0
    2.5607    0.0000    0.0000 C   0  0  0  0  0  0  0  0  0  0  0  0
    1.0607    0.0000    0.0000 C   0  0  0  0  0  0  0  0  0  0  0  0
   -0.0000   -1.0607    0.0000 C   0  0  0  0  0  0  0  0  0  0  0  0
   -1.0607    0.0000    0.0000 C   0  0  0  0  0  0  0  0  0  0  0  0
    0.0000    1.0607    0.0000 C   0  0  0  0  0  0  0  0  0  0  0  0
  1  2  3  0
  2  3  1  0
  3  4  2  3
  4  5  1  0
  5  6  2  3
  6  7  1  0
  7  8  2  0
  8  9  1  0
  9 10  2  0
 10  7  1  0
M  END
>  <Title>  (101) 
idAABYgen9

$$$$

     RDKit          2D

121120  0  0  0  0  0  0  0  0999 V2000
    0.0000    0.0000    0.0000 C   0  0  0  0  0  0  0  0  0  0  0  0
    1.2990    0.7500    0.0000 C   0  0  0  0  0  0  0  0  0  0  0  0
    2.5981   -0.0000    0.0000 C   0  0  0  0  0  0  0  0  0  0  0  0
    3.8971    0.7500    0.0000 C   0  0  0  0  0  0  0  0  0  0  0  0
    5.1962   -0.0000    0.0000 C   0  0  0  0  0  0  0  0  0  0  0  0
    6.4952    0.7500    0.0000 C   0  0  0  0  0  0  0  0  0  0  0  0
    7.7942   -0.0000    0.0000 C   0  0  0  0  0  0  0  0  0  0  0  0
    9.0933    0.7500    0.0000 C   0  0  0  0  0  0  0  0  0  0  0  0
   10.3923   -0.0000    0.0000 C   0  0  0  0  0  0  0  0  0  0  0  0
   11.6913    0.7500    0.0000 C   0  0  0  0  0  0  0  0  0  0  0  0
   12.9904   -0.0000    0.0000 C   0  0  0  0  0  0  0  0  0  0  0  0
   14.2894    0.7500    0.0000 C   0  0  0  0  0  0  0  0  0  0  0  0
   15.5885   -0.0000    0.0000 C   0  0  0  0  0  0  0  0  0  0  0  0
   16.8875    0.7500    0.0000 C   0  0  0  0  0  0  0  0  0  0  0  0
   18.1865   -0.0000    0.0000 C   0  0  0  0  0  0  0  0  0  0  0  0
   19.4856    0.7500    0.0000 C   0  0  0  0  0  0  0  0  0  0  0  0
   20.7846   -0.0000    0.0000 C   0  0  0  0  0  0  0  0  0  0  0  0
   22.0836    0.7500    0.0000 C   0  0  0  0  0  0  0  0  0  0  0  0
   23.3827   -0.0000    0.0000 C   0  0  0  0  0  0  0  0  0  0  0  0
   24.6817    0.7500    0.0000 C   0  0  0  0  0  0  0  0  0  0  0  0
   25.9808   -0.0000    0.0000 C   0  0  0  0  0  0  0  0  0  0  0  0
   27.2798    0.7500    0.0000 C   0  0  0  0  0  0  0  0  0  0  0  0
   28.5788   -0.0000    0.0000 C   0  0  0  0  0  0  0  0  0  0  0  0
   29.8779    0.7500    0.0000 C   0  0  0  0  0  0  0  0  0  0  0  0
   31.1769   -0.0000    0.0000 C   0  0  0  0  0  0  0  0  0  0  0  0
   32.4760    0.7500    0.0000 C   0  0  0  0  0  0  0  0  0  0  0  0
   33.7750   -0.0000    0.0000 C   0  0  0  0  0  0  0  0  0  0  0  0
   35.0740    0.7500    0.0000 C   0  0  0  0  0  0  0  0  0  0  0  0
   36.3731   -0.0000    0.0000 C   0  0  0  0  0  0  0  0  0  0  0  0
   37.6721    0.7500    0.0000 C   0  0  0  0  0  0  0  0  0  0  0  0
   38.9711   -0.0000    0.0000 C   0  0  0  0  0  0  0  0  0  0  0  0
   40.2702    0.7500    0.0000 C   0  0  0  0  0  0  0  0  0  0  0  0
   41.5692   -0.0000    0.0000 C   0  0  0  0  0  0  0  0  0  0  0  0
   42.8683    0.7500    0.0000 C   0  0  0  0  0  0  0  0  0  0  0  0
   44.1673   -0.0000    0.0000 C   0  0  0  0  0  0  0  0  0  0  0  0
   45.4663    0.7500    0.0000 C   0  0  0  0  0  0  0  0  0  0  0  0
   46.7654   -0.0000    0.0000 C   0  0  0  0  0  0  0  0  0  0  0  0
   48.0644    0.7500    0.0000 C   0  0  0  0  0  0  0  0  0  0  0  0
   49.3634   -0.0000    0.0000 C   0  0  0  0  0  0  0  0  0  0  0  0
   50.6625    0.7500    0.0000 C   0  0  0  0  0  0  0  0  0  0  0  0
   51.9615   -0.0000    0.0000 C   0  0  0  0  0  0  0  0  0  0  0  0
   53.2606    0.7500    0.0000 C   0  0  0  0  0  0  0  0  0  0  0  0
   54.5596   -0.0000    0.0000 C   0  0  0  0  0  0  0  0  0  0  0  0
   55.8586    0.7500    0.0000 C   0  0  0  0  0  0  0  0  0  0  0  0
   57.1577   -0.0000    0.0000 C   0  0  0  0  0  0  0  0  0  0  0  0
   58.4567    0.7500    0.0000 C   0  0  0  0  0  0  0  0  0  0  0  0
   59.7558   -0.0000    0.0000 C   0  0  0  0  0  0  0  0  0  0  0  0
   61.0548    0.7500    0.0000 C   0  0  0  0  0  0  0  0  0  0  0  0
   62.3538   -0.0000    0.0000 C   0  0  0  0  0  0  0  0  0  0  0  0
   63.6529    0.7500    0.0000 C   0  0  0  0  0  0  0  0  0  0  0  0
   64.9519   -0.0000    0.0000 C   0  0  0  0  0  0  0  0  0  0  0  0
   66.2509    0.7500    0.0000 C   0  0  0  0  0  0  0  0  0  0  0  0
   67.5500   -0.0000    0.0000 C   0  0  0  0  0  0  0  0  0  0  0  0
   68.8490    0.7500    0.0000 C   0  0  0  0  0  0  0  0  0  0  0  0
   70.1481   -0.0000    0.0000 C   0  0  0  0  0  0  0  0  0  0  0  0
   71.4471    0.7500    0.0000 C   0  0  0  0  0  0  0  0  0  0  0  0
   72.7461   -0.0000    0.0000 C   0  0  0  0  0  0  0  0  0  0  0  0
   74.0452    0.7500    0.0000 C   0  0  0  0  0  0  0  0  0  0  0  0
   75.3442   -0.0000    0.0000 C   0  0  0  0  0  0  0  0  0  0  0  0
   76.6432    0.7500    0.0000 C   0  0  0  0  0  0  0  0  0  0  0  0
   77.9423   -0.0000    0.0000 C   0  0  0  0  0  0  0  0  0  0  0  0
   79.2413    0.7500    0.0000 C   0  0  0  0  0  0  0  0  0  0  0  0
   80.5404   -0.0000    0.0000 C   0  0  0  0  0  0  0  0  0  0  0  0
   81.8394    0.7500    0.0000 C   0  0  0  0  0  0  0  0  0  0  0  0
   83.1384   -0.0000    0.0000 C   0  0  0  0  0  0  0  0  0  0  0  0
   84.4375    0.7500    0.0000 C   0  0  0  0  0  0  0  0  0  0  0  0
   85.7365   -0.0000    0.0000 C   0  0  0  0  0  0  0  0  0  0  0  0
   87.0356    0.7500    0.0000 C   0  0  0  0  0  0  0  0  0  0  0  0
   88.3346   -0.0000    0.0000 C   0  0  0  0  0  0  0  0  0  0  0  0
   89.6336    0.7500    0.0000 C   0  0  0  0  0  0  0  0  0  0  0  0
   90.9327   -0.0000    0.0000 C   0  0  0  0  0  0  0  0  0  0  0  0
   92.2317    0.7500    0.0000 C   0  0  0  0  0  0  0  0  0  0  0  0
   93.5307   -0.0000    0.0000 C   0  0  0  0  0  0  0  0  0  0  0  0
   94.8298    0.7500    0.0000 C   0  0  0  0  0  0  0  0  0  0  0  0
   96.1288   -0.0000    0.0000 C   0  0  0  0  0  0  0  0  0  0  0  0
   97.4279    0.7500    0.0000 C   0  0  0  0  0  0  0  0  0  0  0  0
   98.7269   -0.0000    0.0000 C   0  0  0  0  0  0  0  0  0  0  0  0
  100.0259    0.7500    0.0000 C   0  0  0  0  0  0  0  0  0  0  0  0
  101.3250   -0.0000    0.0000 C   0  0  0  0  0  0  0  0  0  0  0  0
  102.6240    0.7500    0.0000 C   0  0  0  0  0  0  0  0  0  0  0  0
  103.9230   -0.0000    0.0000 C   0  0  0  0  0  0  0  0  0  0  0  0
  105.2221    0.7500    0.0000 C   0  0  0  0  0  0  0  0  0  0  0  0
  106.5211   -0.0000    0.0000 C   0  0  0  0  0  0  0  0  0  0  0  0
  107.8202    0.7500    0.0000 C   0  0  0  0  0  0  0  0  0  0  0  0
  109.1192   -0.0000    0.0000 C   0  0  0  0  0  0  0  0  0  0  0  0
  110.4182    0.7500    0.0000 C   0  0  0  0  0  0  0  0  0  0  0  0
  111.7173   -0.0000    0.0000 C   0  0  0  0  0  0  0  0  0  0  0  0
  113.0163    0.7500    0.0000 C   0  0  0  0  0  0  0  0  0  0  0  0
  114.3154   -0.0000    0.0000 C   0  0  0  0  0  0  0  0  0  0  0  0
  115.6144    0.7500    0.0000 C   0  0  0  0  0  0  0  0  0  0  0  0
  116.9134   -0.0000    0.0000 C   0  0  0  0  0  0  0  0  0  0  0  0
  118.2125    0.7500    0.0000 C   0  0  0  0  0  0  0  0  0  0  0  0
  119.5115   -0.0000    0.0000 C   0  0  0  0  0  0  0  0  0  0  0  0
  120.8105    0.7500    0.0000 C   0  0  0  0  0  0  0  0  0  0  0  0
  122.1096   -0.0000    0.0000 C   0  0  0  0  0  0  0  0  0  0  0  0
  123.4086    0.7500    0.0000 C   0  0  0  0  0  0  0  0  0  0  0  0
  124.7077   -0.0000    0.0000 C   0  0  0  0  0  0  0  0  0  0  0  0
  126.0067    0.7500    0.0000 C   0  0  0  0  0  0  0  0  0  0  0  0
  127.3057   -0.0000    0.0000 C   0  0  0  0  0  0  0  0  0  0  0  0
  128.6048    0.7500    0.0000 C   0  0  0  0  0  0  0  0  0  0  0  0
  129.9038   -0.0000    0.0000 C   0  0  0  0  0  0  0  0  0  0  0  0
  131.2028    0.7500    0.0000 C   0  0  0  0  0  0  0  0  0  0  0  0
  132.5019   -0.0000    0.0000 C   0  0  0  0  0  0  0  0  0  0  0  0
  133.8009    0.7500    0.0000 C   0  0  0  0  0  0  0  0  0  0  0  0
  135.1000   -0.0000    0.0000 C   0  0  0  0  0  0  0  0  0  0  0  0
  136.3990    0.7500    0.0000 C   0  0  0  0  0  0  0  0  0  0  0  0
  137.6980   -0.0000    0.0000 C   0  0  0  0  0  0  0  0  0  0  0  0
  138.9971    0.7500    0.0000 C   0  0  0  0  0  0  0  0  0  0  0  0
  140.2961   -0.0000    0.0000 C   0  0  0  0  0  0  0  0  0  0  0  0
  141.5952    0.7500    0.0000 C   0  0  0  0  0  0  0  0  0  0  0  0
  142.8942   -0.0000    0.0000 C   0  0  0  0  0  0  0  0  0  0  0  0
  144.1932    0.7500    0.0000 C   0  0  0  0  0  0  0  0  0  0  0  0
  145.4923   -0.0000    0.0000 C   0  0  0  0  0  0  0  0  0  0  0  0
  146.7913    0.7500    0.0000 C   0  0  0  0  0  0  0  0  0  0  0  0
  148.0903   -0.0000    0.0000 C   0  0  0  0  0  0  0  0  0  0  0  0
  149.3894    0.7500    0.0000 C   0  0  0  0  0  0  0  0  0  0  0  0
  150.6884   -0.0000    0.0000 O   0  0  0  0  0  0  0  0  0  0  0  0
  151.9875    0.7500    0.0000 C   0  0  0  0  0  0  0  0  0  0  0  0
  152.7375   -0.5490    0.0000 C   0  0  0  0  0  0  0  0  0  0  0  0
  151.2375    2.0490    0.0000 C   0  0  0  0  0  0  0  0  0  0  0  0
  153.2865    1.5000    0.0000 C   0  0  0  0  0  0  0  0  0  0  0  0
  1  2  1  0
  2  3  1  0
  3  4  1  0
  4  5  1  0
  5  6  1  0
  6  7  1  0
  7  8  1  0
  8  9  1  0
  9 10  1  0
 10 11  1  0
 11 12  1  0
 12 13  1  0
 13 14  1  0
 14 15  1  0
 15 16  1  0
 16 17  1  0
 17 18  1  0
 18 19  1  0
 19 20  1  0
 20 21  1  0
 21 22  1  0
 22 23  1  0
 23 24  1  0
 24 25  2  3
 25 26  1  0
 26 27  2  3
 27 28  1  0
 28 29  2  3
 29 30  1  0
 30 31  1  0
 31 32  1  0
 32 33  1  0
 33 34  1  0
 34 35  1  0
 35 36  1  0
 36 37  1  0
 37 38  1  0
 38 39  1  0
 39 40  1  0
 40 41  1  0
 41 42  1  0
 42 43  1  0
 43 44  1  0
 44 45  1  0
 45 46  1  0
 46 47  1  0
 47 48  1  0
 48 49  1  0
 49 50  1  0
 50 51  1  0
 51 52  1  0
 52 53  1  0
 53 54  1  0
 54 55  1  0
 55 56  1  0
 56 57  1  0
 57 58  1  0
 58 59  1  0
 59 60  1  0
 60 61  1  0
 61 62  1  0
 62 63  1  0
 63 64  1  0
 64 65  1  0
 65 66  1  0
 66 67  1  0
 67 68  1  0
 68 69  1  0
 69 70  1  0
 70 71  1  0
 71 72  1  0
 72 73  1  0
 73 74  1  0
 74 75  1  0
 75 76  1  0
 76 77  1  0
 77 78  1  0
 78 79  1  0
 79 80  1  0
 80 81  1  0
 81 82  1  0
 82 83  1  0
 83 84  1  0
 84 85  1  0
 85 86  1  0
 86 87  1  0
 87 88  1  0
 88 89  1  0
 89 90  1  0
 90 91  1  0
 91 92  1  0
 92 93  1  0
 93 94  1  0
 94 95  1  0
 95 96  1  0
 96 97  1  0
 97 98  1  0
 98 99  1  0
 99100  1  0
100101  1  0
101102  1  0
102103  1  0
103104  1  0
104105  1  0
105106  1  0
106107  1  0
107108  1  0
108109  1  0
109110  1  0
110111  1  0
111112  1  0
112113  1  0
113114  1  0
114115  1  0
115116  1  0
116117  1  0
117118  1  0
118119  1  0
118120  1  0
118121  1  0
M  END
>  <Title>  (102) 
idAABZgen9

$$$$

     RDKit          2D

 15 16  0  0  0  0  0  0  0  0999 V2000
    4.6740   -7.4303    0.0000 C   0  0  0  0  0  0  0  0  0  0  0  0
    3.3037   -6.8202    0.0000 C   0  0  0  0  0  0  0  0  0  0  0  0
    2.9918   -5.3529    0.0000 C   0  0  0  0  0  0  0  0  0  0  0  0
    1.5000   -5.1962    0.0000 C   0  0  0  0  0  0  0  0  0  0  0  0
    0.7500   -3.8971    0.0000 C   0  0  0  0  0  0  0  0  0  0  0  0
   -0.7500   -3.8971    0.0000 O   0  0  0  0  0  0  0  0  0  0  0  0
    1.5000   -2.5981    0.0000 N   0  0  0  0  0  0  0  0  0  0  0  0
    0.7500   -1.2990    0.0000 C   0  0  0  0  0  0  0  0  0  0  0  0
    1.5000    0.0000    0.0000 N   0  0  0  0  0  0  0  0  0  0  0  0
    0.7500    1.2990    0.0000 N   0  0  0  0  0  0  0  0  0  0  0  0
   -0.7500    1.2990    0.0000 N   0  0  0  0  0  0  0  0  0  0  0  0
   -1.5000    0.0000    0.0000 N   0  0  0  0  0  0  0  0  0  0  0  0
   -0.7500   -1.2990    0.0000 N   0  0  0  0  0  0  0  0  0  0  0  0
    0.8899   -6.5665    0.0000 C   0  0  0  0  0  0  0  0  0  0  0  0
    2.0046   -7.5702    0.0000 C   0  0  0  0  0  0  0  0  0  0  0  0
  1  2  1  0
  2  3  2  0
  3  4  1  0
  4  5  1  0
  5  6  2  0
  5  7  1  0
  7  8  1  0
  8  9  2  0
  9 10  1  0
 10 11  2  0
 11 12  1  0
 12 13  2  0
  4 14  1  0
 14 15  2  0
 15  2  1  0
 13  8  1  0
M  END
>  <Title>  (103) 
idAACAgen9

$$$$

     RDKit          2D

  7  7  0  0  0  0  0  0  0  0999 V2000
    1.7286    0.0000    0.0000 C   0  0  0  0  0  0  0  0  0  0  0  0
    1.0777    1.3515    0.0000 C   0  0  0  0  0  0  0  0  0  0  0  0
   -0.3846    1.6852    0.0000 C   0  0  0  0  0  0  0  0  0  0  0  0
   -1.5574    0.7500    0.0000 C   0  0  0  0  0  0  0  0  0  0  0  0
   -1.5574   -0.7500    0.0000 C   0  0  0  0  0  0  0  0  0  0  0  0
   -0.3846   -1.6852    0.0000 C   0  0  0  0  0  0  0  0  0  0  0  0
    1.0777   -1.3515    0.0000 C   0  0  0  0  0  0  0  0  0  0  0  0
  1  2  2  0
  2  3  1  0
  3  4  1  0
  4  5  1  0
  5  6  1  0
  6  7  1  0
  7  1  1  0
M  END
>  <Title>  (104) 
idAACBgen9

$$$$

     RDKit          2D

 49 56  0  0  0  0  0  0  0  0999 V2000
    1.9254  -12.5169    0.0000 C   0  0  0  0  0  0  0  0  0  0  0  0
    1.4832  -11.0835    0.0000 C   0  0  0  0  0  0  0  0  0  0  0  0
    2.8347  -10.4327    0.0000 C   0  0  0  0  0  0  0  0  0  0  0  0
    3.9343   -9.4124    0.0000 C   0  0  0  0  0  0  0  0  0  0  0  0
    4.6843   -8.1134    0.0000 C   0  0  0  0  0  0  0  0  0  0  0  0
    5.0181   -6.6510    0.0000 C   0  0  0  0  0  0  0  0  0  0  0  0
    4.9060   -5.1552    0.0000 C   0  0  0  0  0  0  0  0  0  0  0  0
    4.3580   -3.7589    0.0000 C   0  0  0  0  0  0  0  0  0  0  0  0
    3.4227   -2.5862    0.0000 C   0  0  0  0  0  0  0  0  0  0  0  0
    4.6093   -1.6686    0.0000 C   0  0  0  0  0  0  0  0  0  0  0  0
    4.1033   -0.2565    0.0000 C   0  0  0  0  0  0  0  0  0  0  0  0
    2.6040   -0.3014    0.0000 C   0  0  0  0  0  0  0  0  0  0  0  0
    2.1834   -1.7412    0.0000 C   0  0  0  0  0  0  0  0  0  0  0  0
    0.7500   -1.2990    0.0000 C   0  0  0  0  0  0  0  0  0  0  0  0
    1.5000    0.0000    0.0000 C   0  0  0  0  0  0  0  0  0  0  0  0
    0.7500    1.2990    0.0000 C   0  0  0  0  0  0  0  0  0  0  0  0
   -0.7500    1.2990    0.0000 C   0  0  0  0  0  0  0  0  0  0  0  0
   -1.5000    0.0000    0.0000 C   0  0  0  0  0  0  0  0  0  0  0  0
   -0.7500   -1.2990    0.0000 C   0  0  0  0  0  0  0  0  0  0  0  0
   -2.1834   -1.7412    0.0000 C   0  0  0  0  0  0  0  0  0  0  0  0
   -2.2955   -0.2454    0.0000 C   0  0  0  0  0  0  0  0  0  0  0  0
   -3.6469    0.4055    0.0000 C   0  0  0  0  0  0  0  0  0  0  0  0
   -4.8863   -0.4395    0.0000 C   0  0  0  0  0  0  0  0  0  0  0  0
   -4.7742   -1.9353    0.0000 C   0  0  0  0  0  0  0  0  0  0  0  0
   -3.4227   -2.5862    0.0000 C   0  0  0  0  0  0  0  0  0  0  0  0
   -4.3580   -3.7589    0.0000 C   0  0  0  0  0  0  0  0  0  0  0  0
   -5.2932   -2.5862    0.0000 C   0  0  0  0  0  0  0  0  0  0  0  0
   -6.7764   -2.8097    0.0000 C   0  0  0  0  0  0  0  0  0  0  0  0
   -7.3244   -4.2060    0.0000 C   0  0  0  0  0  0  0  0  0  0  0  0
   -6.3892   -5.3788    0.0000 C   0  0  0  0  0  0  0  0  0  0  0  0
   -4.9060   -5.1552    0.0000 C   0  0  0  0  0  0  0  0  0  0  0  0
   -5.0181   -6.6510    0.0000 C   0  0  0  0  0  0  0  0  0  0  0  0
   -6.4514   -6.2089    0.0000 C   0  0  0  0  0  0  0  0  0  0  0  0
   -7.5510   -7.2291    0.0000 C   0  0  0  0  0  0  0  0  0  0  0  0
   -7.2172   -8.6915    0.0000 C   0  0  0  0  0  0  0  0  0  0  0  0
   -5.7839   -9.1337    0.0000 C   0  0  0  0  0  0  0  0  0  0  0  0
   -4.6843   -8.1134    0.0000 C   0  0  0  0  0  0  0  0  0  0  0  0
   -3.9343   -9.4124    0.0000 C   0  0  0  0  0  0  0  0  0  0  0  0
   -5.3676   -9.8546    0.0000 C   0  0  0  0  0  0  0  0  0  0  0  0
   -5.7014  -11.3170    0.0000 C   0  0  0  0  0  0  0  0  0  0  0  0
   -4.6018  -12.3372    0.0000 C   0  0  0  0  0  0  0  0  0  0  0  0
   -3.1685  -11.8951    0.0000 C   0  0  0  0  0  0  0  0  0  0  0  0
   -2.8347  -10.4327    0.0000 C   0  0  0  0  0  0  0  0  0  0  0  0
   -1.4832  -11.0835    0.0000 C   0  0  0  0  0  0  0  0  0  0  0  0
   -2.4185  -12.2563    0.0000 C   0  0  0  0  0  0  0  0  0  0  0  0
   -1.8705  -13.6526    0.0000 C   0  0  0  0  0  0  0  0  0  0  0  0
   -0.3872  -13.8762    0.0000 C   0  0  0  0  0  0  0  0  0  0  0  0
    0.5480  -12.7034    0.0000 C   0  0  0  0  0  0  0  0  0  0  0  0
   -0.0000  -11.3071    0.0000 C   0  0  0  0  0  0  0  0  0  0  0  0
  1  2  1  0
  2  3  2  0
  3  4  1  0
  4  5  2  0
  5  6  1  0
  6  7  2  0
  7  8  1  0
  8  9  2  0
  9 10  1  0
 10 11  2  0
 11 12  1  0
 12 13  2  0
 13 14  1  0
 14 15  2  0
 15 16  1  0
 16 17  2  0
 17 18  1  0
 18 19  2  0
 19 20  1  0
 20 21  2  0
 21 22  1  0
 22 23  2  0
 23 24  1  0
 24 25  2  0
 25 26  1  0
 26 27  2  0
 27 28  1  0
 28 29  2  0
 29 30  1  0
 30 31  2  0
 31 32  1  0
 32 33  2  0
 33 34  1  0
 34 35  2  0
 35 36  1  0
 36 37  2  0
 37 38  1  0
 38 39  2  0
 39 40  1  0
 40 41  2  0
 41 42  1  0
 42 43  2  0
 43 44  1  0
 44 45  2  0
 45 46  1  0
 46 47  2  0
 47 48  1  0
 48 49  2  0
 49  2  1  0
 13  9  1  0
 19 14  1  0
 25 20  1  0
 31 26  1  0
 37 32  1  0
 43 38  1  0
 49 44  1  0
M  END
>  <Title>  (105) 
idAACCgen9

$$$$

     RDKit          2D

 13 13  0  0  0  0  0  0  0  0999 V2000
   13.2760   -0.0000    0.0000 C   0  0  0  0  0  0  0  0  0  0  0  0
   11.7760   -0.0000    0.0000 C   0  0  0  0  0  0  0  0  0  0  0  0
   10.2760   -0.0000    0.0000 C   0  0  0  0  0  0  0  0  0  0  0  0
    8.7760   -0.0000    0.0000 C   0  0  0  0  0  0  0  0  0  0  0  0
    7.2760   -0.0000    0.0000 C   0  0  0  0  0  0  0  0  0  0  0  0
    5.7760   -0.0000    0.0000 C   0  0  0  0  0  0  0  0  0  0  0  0
    4.2760   -0.0000    0.0000 C   0  0  0  0  0  0  0  0  0  0  0  0
    2.7760    0.0000    0.0000 C   0  0  0  0  0  0  0  0  0  0  0  0
    1.2760    0.0000    0.0000 C   0  0  0  0  0  0  0  0  0  0  0  0
    0.3943    1.2135    0.0000 C   0  0  0  0  0  0  0  0  0  0  0  0
   -1.0323    0.7500    0.0000 C   0  0  0  0  0  0  0  0  0  0  0  0
   -1.0323   -0.7500    0.0000 C   0  0  0  0  0  0  0  0  0  0  0  0
    0.3943   -1.2135    0.0000 C   0  0  0  0  0  0  0  0  0  0  0  0
  1  2  3  0
  2  3  1  0
  3  4  3  0
  4  5  1  0
  5  6  3  0
  6  7  1  0
  7  8  3  0
  8  9  1  0
  9 10  2  0
 10 11  1  0
 11 12  2  0
 12 13  1  0
 13  9  1  0
M  END
>  <Title>  (106) 
idAACDgen9

$$$$

     RDKit          2D

 15 16  0  0  0  0  0  0  0  0999 V2000
    1.8478   -9.0619    0.0000 C   0  0  0  0  0  0  0  0  0  0  0  0
    2.0046   -7.5702    0.0000 C   0  0  0  0  0  0  0  0  0  0  0  0
    3.3037   -6.8202    0.0000 C   0  0  0  0  0  0  0  0  0  0  0  0
    2.9918   -5.3529    0.0000 C   0  0  0  0  0  0  0  0  0  0  0  0
    1.5000   -5.1962    0.0000 C   0  0  0  0  0  0  0  0  0  0  0  0
    0.7500   -3.8971    0.0000 C   0  0  0  0  0  0  0  0  0  0  0  0
   -0.7500   -3.8971    0.0000 O   0  0  0  0  0  0  0  0  0  0  0  0
    1.5000   -2.5981    0.0000 N   0  0  0  0  0  0  0  0  0  0  0  0
    0.7500   -1.2990    0.0000 C   0  0  0  0  0  0  0  0  0  0  0  0
    1.5000    0.0000    0.0000 N   0  0  0  0  0  0  0  0  0  0  0  0
    0.7500    1.2990    0.0000 N   0  0  0  0  0  0  0  0  0  0  0  0
   -0.7500    1.2990    0.0000 N   0  0  0  0  0  0  0  0  0  0  0  0
   -1.5000    0.0000    0.0000 N   0  0  0  0  0  0  0  0  0  0  0  0
   -0.7500   -1.2990    0.0000 N   0  0  0  0  0  0  0  0  0  0  0  0
    0.8899   -6.5665    0.0000 C   0  0  0  0  0  0  0  0  0  0  0  0
  1  2  1  0
  2  3  2  0
  3  4  1  0
  4  5  2  0
  5  6  1  0
  6  7  2  0
  6  8  1  0
  8  9  1  0
  9 10  2  0
 10 11  1  0
 11 12  2  0
 12 13  1  0
 13 14  2  0
  5 15  1  0
 15  2  1  0
 14  9  1  0
M  END
>  <Title>  (107) 
idAACEgen9

$$$$

     RDKit          2D

 14 15  0  0  0  0  0  0  0  0999 V2000
    2.7760    0.0000    0.0000 C   0  0  0  0  0  0  0  0  0  0  0  0
    1.2760    0.0000    0.0000 C   0  0  0  0  0  0  0  0  0  0  0  0
    0.3943    1.2135    0.0000 C   0  0  0  0  0  0  0  0  0  0  0  0
   -1.0323    0.7500    0.0000 C   0  0  0  0  0  0  0  0  0  0  0  0
   -1.0323   -0.7500    0.0000 C   0  0  0  0  0  0  0  0  0  0  0  0
   -2.2458   -1.6317    0.0000 C   0  0  0  0  0  0  0  0  0  0  0  0
   -2.0890   -3.1235    0.0000 O   0  0  0  0  0  0  0  0  0  0  0  0
   -3.6161   -1.0216    0.0000 N   0  0  0  0  0  0  0  0  0  0  0  0
   -4.8297   -1.9033    0.0000 C   0  0  0  0  0  0  0  0  0  0  0  0
   -4.8297   -3.4033    0.0000 N   0  0  0  0  0  0  0  0  0  0  0  0
   -6.2562   -3.8668    0.0000 N   0  0  0  0  0  0  0  0  0  0  0  0
   -7.1379   -2.6533    0.0000 N   0  0  0  0  0  0  0  0  0  0  0  0
   -6.2562   -1.4397    0.0000 N   0  0  0  0  0  0  0  0  0  0  0  0
    0.3943   -1.2135    0.0000 C   0  0  0  0  0  0  0  0  0  0  0  0
  1  2  1  0
  2  3  1  0
  3  4  1  0
  4  5  1  0
  5  6  1  0
  6  7  2  0
  6  8  1  0
  8  9  1  0
  9 10  2  0
 10 11  1  0
 11 12  2  0
 12 13  1  0
  5 14  1  0
 14  2  1  0
 13  9  1  0
M  END
>  <Title>  (108) 
idAACFgen9

$$$$

     RDKit          2D

 21 23  0  0  0  0  0  0  0  0999 V2000
   -3.0000   -2.5981    0.0000 C   0  0  0  0  0  0  0  0  0  0  0  0
   -1.5000   -2.5981    0.0000 C   0  0  0  0  0  0  0  0  0  0  0  0
   -0.7500   -3.8971    0.0000 C   0  0  0  0  0  0  0  0  0  0  0  0
    0.7500   -3.8971    0.0000 C   0  0  0  0  0  0  0  0  0  0  0  0
    1.5000   -5.1962    0.0000 C   0  0  0  0  0  0  0  0  0  0  0  0
    1.5000   -2.5981    0.0000 C   0  0  0  0  0  0  0  0  0  0  0  0
    3.0000   -2.5981    0.0000 C   0  0  0  0  0  0  0  0  0  0  0  0
    3.7500   -1.2990    0.0000 O   0  0  0  0  0  0  0  0  0  0  0  0
    3.7500   -3.8971    0.0000 N   0  0  0  0  0  0  0  0  0  0  0  0
    5.2500   -3.8971    0.0000 C   0  0  0  0  0  0  0  0  0  0  0  0
    6.0000   -5.1962    0.0000 N   0  0  0  0  0  0  0  0  0  0  0  0
    7.5000   -5.1962    0.0000 N   0  0  0  0  0  0  0  0  0  0  0  0
    8.2500   -3.8971    0.0000 N   0  0  0  0  0  0  0  0  0  0  0  0
    7.5000   -2.5981    0.0000 N   0  0  0  0  0  0  0  0  0  0  0  0
    6.0000   -2.5981    0.0000 N   0  0  0  0  0  0  0  0  0  0  0  0
    0.7500   -1.2990    0.0000 C   0  0  0  0  0  0  0  0  0  0  0  0
    1.5000    0.0000    0.0000 C   0  0  0  0  0  0  0  0  0  0  0  0
    0.7500    1.2990    0.0000 C   0  0  0  0  0  0  0  0  0  0  0  0
   -0.7500    1.2990    0.0000 C   0  0  0  0  0  0  0  0  0  0  0  0
   -1.5000    0.0000    0.0000 C   0  0  0  0  0  0  0  0  0  0  0  0
   -0.7500   -1.2990    0.0000 C   0  0  0  0  0  0  0  0  0  0  0  0
  1  2  1  0
  2  3  2  0
  3  4  1  0
  4  5  1  0
  4  6  1  0
  6  7  1  0
  7  8  2  0
  7  9  1  0
  9 10  1  0
 10 11  2  0
 11 12  1  0
 12 13  2  0
 13 14  1  0
 14 15  2  0
  6 16  1  0
 16 17  2  0
 17 18  1  0
 18 19  2  0
 19 20  1  0
 20 21  2  0
 21  2  1  0
 15 10  1  0
 21 16  1  0
M  END
>  <Title>  (109) 
idAACGgen9

$$$$

     RDKit          2D

 88 89  0  0  0  0  0  0  0  0999 V2000
   -2.1886   -1.0751    0.0000 C   0  0  0  0  0  0  0  0  0  0  0  0
   -2.4895    0.3944    0.0000 C   0  0  0  0  0  0  0  0  0  0  0  0
   -3.9693    0.1487    0.0000 C   0  0  0  0  0  0  0  0  0  0  0  0
   -5.4632    0.0142    0.0000 C   0  0  0  0  0  0  0  0  0  0  0  0
   -6.9631   -0.0082    0.0000 C   0  0  0  0  0  0  0  0  0  0  0  0
   -8.4604    0.0815    0.0000 C   0  0  0  0  0  0  0  0  0  0  0  0
   -9.9468    0.2828    0.0000 C   0  0  0  0  0  0  0  0  0  0  0  0
  -11.4140    0.5947    0.0000 C   0  0  0  0  0  0  0  0  0  0  0  0
  -12.8538    1.0153    0.0000 C   0  0  0  0  0  0  0  0  0  0  0  0
  -14.2582    1.5424    0.0000 C   0  0  0  0  0  0  0  0  0  0  0  0
  -15.6192    2.1729    0.0000 C   0  0  0  0  0  0  0  0  0  0  0  0
  -16.9293    2.9034    0.0000 C   0  0  0  0  0  0  0  0  0  0  0  0
  -18.1812    3.7297    0.0000 C   0  0  0  0  0  0  0  0  0  0  0  0
  -19.3678    4.6473    0.0000 C   0  0  0  0  0  0  0  0  0  0  0  0
  -20.4825    5.6510    0.0000 C   0  0  0  0  0  0  0  0  0  0  0  0
  -21.5191    6.7352    0.0000 C   0  0  0  0  0  0  0  0  0  0  0  0
  -22.4718    7.8938    0.0000 C   0  0  0  0  0  0  0  0  0  0  0  0
  -23.3352    9.1204    0.0000 C   0  0  0  0  0  0  0  0  0  0  0  0
  -24.1046   10.4081    0.0000 C   0  0  0  0  0  0  0  0  0  0  0  0
  -24.7755   11.7497    0.0000 C   0  0  0  0  0  0  0  0  0  0  0  0
  -25.3444   13.1376    0.0000 C   0  0  0  0  0  0  0  0  0  0  0  0
  -25.8079   14.5642    0.0000 C   0  0  0  0  0  0  0  0  0  0  0  0
  -26.1635   16.0214    0.0000 C   0  0  0  0  0  0  0  0  0  0  0  0
  -26.4092   17.5012    0.0000 C   0  0  0  0  0  0  0  0  0  0  0  0
  -26.5437   18.9951    0.0000 C   0  0  0  0  0  0  0  0  0  0  0  0
  -26.5661   20.4950    0.0000 C   0  0  0  0  0  0  0  0  0  0  0  0
  -26.4764   21.9923    0.0000 C   0  0  0  0  0  0  0  0  0  0  0  0
  -26.2751   23.4787    0.0000 C   0  0  0  0  0  0  0  0  0  0  0  0
  -25.9632   24.9459    0.0000 C   0  0  0  0  0  0  0  0  0  0  0  0
  -25.5426   26.3857    0.0000 C   0  0  0  0  0  0  0  0  0  0  0  0
  -25.0155   27.7901    0.0000 C   0  0  0  0  0  0  0  0  0  0  0  0
  -24.3850   29.1511    0.0000 C   0  0  0  0  0  0  0  0  0  0  0  0
  -23.6545   30.4612    0.0000 C   0  0  0  0  0  0  0  0  0  0  0  0
  -22.8281   31.7131    0.0000 C   0  0  0  0  0  0  0  0  0  0  0  0
  -21.9106   32.8997    0.0000 C   0  0  0  0  0  0  0  0  0  0  0  0
  -20.9069   34.0144    0.0000 C   0  0  0  0  0  0  0  0  0  0  0  0
  -19.8227   35.0510    0.0000 C   0  0  0  0  0  0  0  0  0  0  0  0
  -18.6640   36.0037    0.0000 C   0  0  0  0  0  0  0  0  0  0  0  0
  -17.4375   36.8671    0.0000 C   0  0  0  0  0  0  0  0  0  0  0  0
  -16.1498   37.6365    0.0000 C   0  0  0  0  0  0  0  0  0  0  0  0
  -14.8082   38.3074    0.0000 C   0  0  0  0  0  0  0  0  0  0  0  0
  -13.4203   38.8763    0.0000 C   0  0  0  0  0  0  0  0  0  0  0  0
  -11.9937   39.3398    0.0000 C   0  0  0  0  0  0  0  0  0  0  0  0
  -10.5364   39.6954    0.0000 C   0  0  0  0  0  0  0  0  0  0  0  0
   -9.0567   39.9412    0.0000 C   0  0  0  0  0  0  0  0  0  0  0  0
   -7.5627   40.0756    0.0000 C   0  0  0  0  0  0  0  0  0  0  0  0
   -6.0629   40.0981    0.0000 C   0  0  0  0  0  0  0  0  0  0  0  0
   -4.5656   40.0083    0.0000 C   0  0  0  0  0  0  0  0  0  0  0  0
   -3.0792   39.8070    0.0000 C   0  0  0  0  0  0  0  0  0  0  0  0
   -1.6120   39.4951    0.0000 C   0  0  0  0  0  0  0  0  0  0  0  0
   -0.1721   39.0745    0.0000 C   0  0  0  0  0  0  0  0  0  0  0  0
    1.2322   38.5474    0.0000 C   0  0  0  0  0  0  0  0  0  0  0  0
    2.5932   37.9169    0.0000 C   0  0  0  0  0  0  0  0  0  0  0  0
    3.9034   37.1864    0.0000 C   0  0  0  0  0  0  0  0  0  0  0  0
    5.1552   36.3601    0.0000 C   0  0  0  0  0  0  0  0  0  0  0  0
    6.3418   35.4425    0.0000 C   0  0  0  0  0  0  0  0  0  0  0  0
    7.4565   34.4388    0.0000 C   0  0  0  0  0  0  0  0  0  0  0  0
    8.4931   33.3546    0.0000 C   0  0  0  0  0  0  0  0  0  0  0  0
    9.4458   32.1960    0.0000 C   0  0  0  0  0  0  0  0  0  0  0  0
   10.3092   30.9694    0.0000 C   0  0  0  0  0  0  0  0  0  0  0  0
   11.0786   29.6817    0.0000 C   0  0  0  0  0  0  0  0  0  0  0  0
   11.7496   28.3401    0.0000 C   0  0  0  0  0  0  0  0  0  0  0  0
   12.3184   26.9522    0.0000 C   0  0  0  0  0  0  0  0  0  0  0  0
   12.7819   25.5256    0.0000 C   0  0  0  0  0  0  0  0  0  0  0  0
   13.1375   24.0684    0.0000 C   0  0  0  0  0  0  0  0  0  0  0  0
   13.3833   22.5886    0.0000 C   0  0  0  0  0  0  0  0  0  0  0  0
   13.5177   21.0947    0.0000 C   0  0  0  0  0  0  0  0  0  0  0  0
   13.5402   19.5948    0.0000 C   0  0  0  0  0  0  0  0  0  0  0  0
   13.4505   18.0975    0.0000 C   0  0  0  0  0  0  0  0  0  0  0  0
   13.2491   16.6111    0.0000 C   0  0  0  0  0  0  0  0  0  0  0  0
   12.9372   15.1439    0.0000 C   0  0  0  0  0  0  0  0  0  0  0  0
   12.5166   13.7041    0.0000 C   0  0  0  0  0  0  0  0  0  0  0  0
   11.9895   12.2997    0.0000 C   0  0  0  0  0  0  0  0  0  0  0  0
   11.3590   10.9387    0.0000 C   0  0  0  0  0  0  0  0  0  0  0  0
   10.6285    9.6286    0.0000 C   0  0  0  0  0  0  0  0  0  0  0  0
    9.8022    8.3767    0.0000 C   0  0  0  0  0  0  0  0  0  0  0  0
    8.8846    7.1901    0.0000 C   0  0  0  0  0  0  0  0  0  0  0  0
    7.8809    6.0754    0.0000 C   0  0  0  0  0  0  0  0  0  0  0  0
    6.7967    5.0388    0.0000 C   0  0  0  0  0  0  0  0  0  0  0  0
    5.6381    4.0861    0.0000 C   0  0  0  0  0  0  0  0  0  0  0  0
    4.4115    3.2227    0.0000 C   0  0  0  0  0  0  0  0  0  0  0  0
    3.1238    2.4533    0.0000 C   0  0  0  0  0  0  0  0  0  0  0  0
    1.7823    1.7824    0.0000 C   0  0  0  0  0  0  0  0  0  0  0  0
    0.3943    1.2135    0.0000 C   0  0  0  0  0  0  0  0  0  0  0  0
    1.2760    0.0000    0.0000 C   0  0  0  0  0  0  0  0  0  0  0  0
    0.3943   -1.2135    0.0000 C   0  0  0  0  0  0  0  0  0  0  0  0
   -1.0323   -0.7500    0.0000 C   0  0  0  0  0  0  0  0  0  0  0  0
   -1.0323    0.7500    0.0000 C   0  0  0  0  0  0  0  0  0  0  0  0
  1  2  1  0
  2  3  1  0
  3  4  1  0
  4  5  1  0
  5  6  1  0
  6  7  1  0
  7  8  1  0
  8  9  1  0
  9 10  1  0
 10 11  1  0
 11 12  1  0
 12 13  1  0
 13 14  1  0
 14 15  1  0
 15 16  1  0
 16 17  1  0
 17 18  1  0
 18 19  1  0
 19 20  1  0
 20 21  1  0
 21 22  1  0
 22 23  1  0
 23 24  1  0
 24 25  1  0
 25 26  1  0
 26 27  1  0
 27 28  1  0
 28 29  1  0
 29 30  1  0
 30 31  1  0
 31 32  1  0
 32 33  1  0
 33 34  1  0
 34 35  1  0
 35 36  1  0
 36 37  1  0
 37 38  1  0
 38 39  1  0
 39 40  1  0
 40 41  1  0
 41 42  1  0
 42 43  1  0
 43 44  1  0
 44 45  1  0
 45 46  1  0
 46 47  1  0
 47 48  1  0
 48 49  1  0
 49 50  1  0
 50 51  1  0
 51 52  1  0
 52 53  1  0
 53 54  1  0
 54 55  1  0
 55 56  1  0
 56 57  1  0
 57 58  1  0
 58 59  1  0
 59 60  1  0
 60 61  1  0
 61 62  1  0
 62 63  1  0
 63 64  1  0
 64 65  1  0
 65 66  1  0
 66 67  1  0
 67 68  1  0
 68 69  1  0
 69 70  2  0
 70 71  1  0
 71 72  2  0
 72 73  1  0
 73 74  2  0
 74 75  1  0
 75 76  2  0
 76 77  1  0
 77 78  2  0
 78 79  1  0
 79 80  2  0
 80 81  1  0
 81 82  2  0
 82 83  1  0
 83 84  2  0
 84 85  1  0
 85 86  2  0
 86 87  1  0
 87 88  2  0
 88  2  1  0
 88 84  1  0
M  END
>  <Title>  (110) 
idAACHgen9

$$$$

     RDKit          2D

 93 95  0  0  0  0  0  0  0  0999 V2000
   -5.5797   -0.5196    0.0000 C   0  0  0  0  0  0  0  0  0  0  0  0
   -5.1914   -1.9685    0.0000 C   0  0  0  0  0  0  0  0  0  0  0  0
   -6.6248   -2.4106    0.0000 C   0  0  0  0  0  0  0  0  0  0  0  0
   -8.0211   -2.9586    0.0000 C   0  0  0  0  0  0  0  0  0  0  0  0
   -9.3726   -3.6094    0.0000 C   0  0  0  0  0  0  0  0  0  0  0  0
  -10.6716   -4.3594    0.0000 C   0  0  0  0  0  0  0  0  0  0  0  0
  -11.9110   -5.2044    0.0000 C   0  0  0  0  0  0  0  0  0  0  0  0
  -13.0837   -6.1397    0.0000 C   0  0  0  0  0  0  0  0  0  0  0  0
  -14.1833   -7.1599    0.0000 C   0  0  0  0  0  0  0  0  0  0  0  0
  -15.2035   -8.2595    0.0000 C   0  0  0  0  0  0  0  0  0  0  0  0
  -16.1388   -9.4322    0.0000 C   0  0  0  0  0  0  0  0  0  0  0  0
  -16.9838  -10.6716    0.0000 C   0  0  0  0  0  0  0  0  0  0  0  0
  -17.7338  -11.9706    0.0000 C   0  0  0  0  0  0  0  0  0  0  0  0
  -18.3846  -13.3221    0.0000 C   0  0  0  0  0  0  0  0  0  0  0  0
  -18.9326  -14.7184    0.0000 C   0  0  0  0  0  0  0  0  0  0  0  0
  -19.3747  -16.1518    0.0000 C   0  0  0  0  0  0  0  0  0  0  0  0
  -19.7085  -17.6142    0.0000 C   0  0  0  0  0  0  0  0  0  0  0  0
  -19.9321  -19.0974    0.0000 C   0  0  0  0  0  0  0  0  0  0  0  0
  -20.0442  -20.5932    0.0000 C   0  0  0  0  0  0  0  0  0  0  0  0
  -20.0442  -22.0932    0.0000 C   0  0  0  0  0  0  0  0  0  0  0  0
  -19.9321  -23.5890    0.0000 C   0  0  0  0  0  0  0  0  0  0  0  0
  -19.7085  -25.0723    0.0000 C   0  0  0  0  0  0  0  0  0  0  0  0
  -19.3747  -26.5347    0.0000 C   0  0  0  0  0  0  0  0  0  0  0  0
  -18.9326  -27.9680    0.0000 C   0  0  0  0  0  0  0  0  0  0  0  0
  -18.3846  -29.3643    0.0000 C   0  0  0  0  0  0  0  0  0  0  0  0
  -17.7338  -30.7158    0.0000 C   0  0  0  0  0  0  0  0  0  0  0  0
  -16.9838  -32.0148    0.0000 C   0  0  0  0  0  0  0  0  0  0  0  0
  -16.1388  -33.2542    0.0000 C   0  0  0  0  0  0  0  0  0  0  0  0
  -15.2035  -34.4269    0.0000 C   0  0  0  0  0  0  0  0  0  0  0  0
  -14.1833  -35.5265    0.0000 C   0  0  0  0  0  0  0  0  0  0  0  0
  -13.0837  -36.5468    0.0000 C   0  0  0  0  0  0  0  0  0  0  0  0
  -11.9110  -37.4820    0.0000 C   0  0  0  0  0  0  0  0  0  0  0  0
  -10.6716  -38.3270    0.0000 C   0  0  0  0  0  0  0  0  0  0  0  0
   -9.3726  -39.0770    0.0000 C   0  0  0  0  0  0  0  0  0  0  0  0
   -8.0211  -39.7278    0.0000 C   0  0  0  0  0  0  0  0  0  0  0  0
   -6.6248  -40.2758    0.0000 C   0  0  0  0  0  0  0  0  0  0  0  0
   -5.1914  -40.7179    0.0000 C   0  0  0  0  0  0  0  0  0  0  0  0
   -3.7291  -41.0517    0.0000 C   0  0  0  0  0  0  0  0  0  0  0  0
   -2.2458  -41.2753    0.0000 C   0  0  0  0  0  0  0  0  0  0  0  0
   -0.7500  -41.3874    0.0000 C   0  0  0  0  0  0  0  0  0  0  0  0
    0.7500  -41.3874    0.0000 C   0  0  0  0  0  0  0  0  0  0  0  0
    2.2458  -41.2753    0.0000 C   0  0  0  0  0  0  0  0  0  0  0  0
    3.7291  -41.0517    0.0000 C   0  0  0  0  0  0  0  0  0  0  0  0
    5.1914  -40.7179    0.0000 C   0  0  0  0  0  0  0  0  0  0  0  0
    6.6248  -40.2758    0.0000 C   0  0  0  0  0  0  0  0  0  0  0  0
    8.0211  -39.7278    0.0000 C   0  0  0  0  0  0  0  0  0  0  0  0
    9.3726  -39.0770    0.0000 C   0  0  0  0  0  0  0  0  0  0  0  0
   10.6716  -38.3270    0.0000 C   0  0  0  0  0  0  0  0  0  0  0  0
   11.9110  -37.4820    0.0000 C   0  0  0  0  0  0  0  0  0  0  0  0
   13.0837  -36.5468    0.0000 C   0  0  0  0  0  0  0  0  0  0  0  0
   14.1833  -35.5265    0.0000 C   0  0  0  0  0  0  0  0  0  0  0  0
   15.2035  -34.4269    0.0000 C   0  0  0  0  0  0  0  0  0  0  0  0
   16.1388  -33.2542    0.0000 C   0  0  0  0  0  0  0  0  0  0  0  0
   16.9838  -32.0148    0.0000 C   0  0  0  0  0  0  0  0  0  0  0  0
   17.7338  -30.7158    0.0000 C   0  0  0  0  0  0  0  0  0  0  0  0
   18.3846  -29.3643    0.0000 C   0  0  0  0  0  0  0  0  0  0  0  0
   18.9326  -27.9680    0.0000 C   0  0  0  0  0  0  0  0  0  0  0  0
   19.3747  -26.5347    0.0000 C   0  0  0  0  0  0  0  0  0  0  0  0
   19.7085  -25.0723    0.0000 C   0  0  0  0  0  0  0  0  0  0  0  0
   19.9321  -23.5890    0.0000 C   0  0  0  0  0  0  0  0  0  0  0  0
   20.0442  -22.0932    0.0000 C   0  0  0  0  0  0  0  0  0  0  0  0
   20.0442  -20.5932    0.0000 C   0  0  0  0  0  0  0  0  0  0  0  0
   19.9321  -19.0974    0.0000 C   0  0  0  0  0  0  0  0  0  0  0  0
   19.7085  -17.6142    0.0000 C   0  0  0  0  0  0  0  0  0  0  0  0
   19.3747  -16.1518    0.0000 C   0  0  0  0  0  0  0  0  0  0  0  0
   18.9326  -14.7184    0.0000 C   0  0  0  0  0  0  0  0  0  0  0  0
   18.3846  -13.3221    0.0000 C   0  0  0  0  0  0  0  0  0  0  0  0
   17.7338  -11.9706    0.0000 C   0  0  0  0  0  0  0  0  0  0  0  0
   16.9838  -10.6716    0.0000 C   0  0  0  0  0  0  0  0  0  0  0  0
   16.1388   -9.4322    0.0000 C   0  0  0  0  0  0  0  0  0  0  0  0
   15.2035   -8.2595    0.0000 C   0  0  0  0  0  0  0  0  0  0  0  0
   14.1833   -7.1599    0.0000 C   0  0  0  0  0  0  0  0  0  0  0  0
   13.0837   -6.1397    0.0000 C   0  0  0  0  0  0  0  0  0  0  0  0
   11.9110   -5.2044    0.0000 C   0  0  0  0  0  0  0  0  0  0  0  0
   10.6716   -4.3594    0.0000 C   0  0  0  0  0  0  0  0  0  0  0  0
    9.3726   -3.6094    0.0000 C   0  0  0  0  0  0  0  0  0  0  0  0
    8.0211   -2.9586    0.0000 C   0  0  0  0  0  0  0  0  0  0  0  0
    6.6248   -2.4106    0.0000 C   0  0  0  0  0  0  0  0  0  0  0  0
    5.1914   -1.9685    0.0000 C   0  0  0  0  0  0  0  0  0  0  0  0
    3.7291   -1.6347    0.0000 C   0  0  0  0  0  0  0  0  0  0  0  0
    2.2458   -1.4111    0.0000 C   0  0  0  0  0  0  0  0  0  0  0  0
    0.7500   -1.2990    0.0000 C   0  0  0  0  0  0  0  0  0  0  0  0
    1.5000    0.0000    0.0000 C   0  0  0  0  0  0  0  0  0  0  0  0
    0.7500    1.2990    0.0000 C   0  0  0  0  0  0  0  0  0  0  0  0
   -0.7500    1.2990    0.0000 C   0  0  0  0  0  0  0  0  0  0  0  0
   -1.5000    0.0000    0.0000 C   0  0  0  0  0  0  0  0  0  0  0  0
   -0.7500   -1.2990    0.0000 C   0  0  0  0  0  0  0  0  0  0  0  0
   -2.2458   -1.4111    0.0000 C   0  0  0  0  0  0  0  0  0  0  0  0
   -1.3106   -2.5839    0.0000 C   0  0  0  0  0  0  0  0  0  0  0  0
   -1.8586   -3.9802    0.0000 C   0  0  0  0  0  0  0  0  0  0  0  0
   -3.3418   -4.2038    0.0000 C   0  0  0  0  0  0  0  0  0  0  0  0
   -4.2771   -3.0310    0.0000 C   0  0  0  0  0  0  0  0  0  0  0  0
   -3.7291   -1.6347    0.0000 C   0  0  0  0  0  0  0  0  0  0  0  0
  1  2  1  0
  2  3  1  0
  3  4  1  0
  4  5  1  0
  5  6  1  0
  6  7  1  0
  7  8  1  0
  8  9  1  0
  9 10  1  0
 10 11  1  0
 11 12  1  0
 12 13  1  0
 13 14  1  0
 14 15  1  0
 15 16  1  0
 16 17  1  0
 17 18  1  0
 18 19  1  0
 19 20  1  0
 20 21  1  0
 21 22  1  0
 22 23  1  0
 23 24  1  0
 24 25  1  0
 25 26  1  0
 26 27  1  0
 27 28  1  0
 28 29  1  0
 29 30  1  0
 30 31  1  0
 31 32  1  0
 32 33  1  0
 33 34  1  0
 34 35  1  0
 35 36  1  0
 36 37  1  0
 37 38  1  0
 38 39  1  0
 39 40  1  0
 40 41  1  0
 41 42  1  0
 42 43  1  0
 43 44  1  0
 44 45  1  0
 45 46  1  0
 46 47  1  0
 47 48  1  0
 48 49  1  0
 49 50  1  0
 50 51  1  0
 51 52  1  0
 52 53  1  0
 53 54  1  0
 54 55  1  0
 55 56  1  0
 56 57  1  0
 57 58  1  0
 58 59  1  0
 59 60  1  0
 60 61  1  0
 61 62  1  0
 62 63  1  0
 63 64  1  0
 64 65  1  0
 65 66  1  0
 66 67  1  0
 67 68  1  0
 68 69  1  0
 69 70  1  0
 70 71  1  0
 71 72  1  0
 72 73  1  0
 73 74  1  0
 74 75  1  0
 75 76  1  0
 76 77  1  0
 77 78  1  0
 78 79  1  0
 79 80  1  0
 80 81  1  0
 81 82  1  0
 82 83  2  0
 83 84  1  0
 84 85  2  0
 85 86  1  0
 86 87  2  0
 87 88  1  0
 88 89  2  0
 89 90  1  0
 90 91  2  0
 91 92  1  0
 92 93  2  0
 93  2  1  0
 87 82  1  0
 93 88  1  0
M  END
>  <Title>  (111) 
idAACIgen9

$$$$

     RDKit          2D

 21 23  0  0  0  0  0  0  0  0999 V2000
    7.6104    2.8717    0.0000 C   0  0  0  0  0  0  0  0  0  0  0  0
    7.4536    1.3799    0.0000 C   0  0  0  0  0  0  0  0  0  0  0  0
    6.1545    0.6299    0.0000 C   0  0  0  0  0  0  0  0  0  0  0  0
    6.4664   -0.8373    0.0000 C   0  0  0  0  0  0  0  0  0  0  0  0
    5.4627   -1.9520    0.0000 C   0  0  0  0  0  0  0  0  0  0  0  0
    5.9262   -3.3786    0.0000 O   0  0  0  0  0  0  0  0  0  0  0  0
    3.9955   -1.6402    0.0000 N   0  0  0  0  0  0  0  0  0  0  0  0
    2.9918   -2.7549    0.0000 C   0  0  0  0  0  0  0  0  0  0  0  0
    3.3037   -4.2221    0.0000 N   0  0  0  0  0  0  0  0  0  0  0  0
    2.0046   -4.9721    0.0000 N   0  0  0  0  0  0  0  0  0  0  0  0
    0.8899   -3.9684    0.0000 N   0  0  0  0  0  0  0  0  0  0  0  0
    1.5000   -2.5981    0.0000 N   0  0  0  0  0  0  0  0  0  0  0  0
    0.7500   -1.2990    0.0000 C   0  0  0  0  0  0  0  0  0  0  0  0
    1.5000    0.0000    0.0000 C   0  0  0  0  0  0  0  0  0  0  0  0
    0.7500    1.2990    0.0000 C   0  0  0  0  0  0  0  0  0  0  0  0
   -0.7500    1.2990    0.0000 C   0  0  0  0  0  0  0  0  0  0  0  0
   -1.5000    0.0000    0.0000 C   0  0  0  0  0  0  0  0  0  0  0  0
   -0.7500   -1.2990    0.0000 C   0  0  0  0  0  0  0  0  0  0  0  0
    7.9582   -0.9941    0.0000 C   0  0  0  0  0  0  0  0  0  0  0  0
    8.5683    0.3762    0.0000 C   0  0  0  0  0  0  0  0  0  0  0  0
   10.0355    0.6881    0.0000 O   0  0  0  0  0  0  0  0  0  0  0  0
  1  2  1  0
  2  3  2  0
  3  4  1  0
  4  5  1  0
  5  6  2  0
  5  7  1  0
  7  8  1  0
  8  9  2  0
  9 10  1  0
 10 11  2  0
 11 12  1  0
 12 13  1  0
 13 14  2  0
 14 15  1  0
 15 16  2  0
 16 17  1  0
 17 18  2  0
  4 19  1  0
 19 20  2  0
 20 21  1  0
 20  2  1  0
 12  8  1  0
 18 13  1  0
M  END
>  <Title>  (112) 
idAACJgen9

$$$$

     RDKit          2D

113113  0  0  0  0  0  0  0  0999 V2000
   28.2415    0.0000    0.0000 C   0  0  0  0  0  0  0  0  0  0  0  0
   26.7415    0.0000    0.0000 C   0  0  0  0  0  0  0  0  0  0  0  0
   26.6995   -1.4994    0.0000 C   0  0  0  0  0  0  0  0  0  0  0  0
   26.5734   -2.9941    0.0000 C   0  0  0  0  0  0  0  0  0  0  0  0
   26.3637   -4.4794    0.0000 C   0  0  0  0  0  0  0  0  0  0  0  0
   26.0711   -5.9506    0.0000 C   0  0  0  0  0  0  0  0  0  0  0  0
   25.6964   -7.4030    0.0000 C   0  0  0  0  0  0  0  0  0  0  0  0
   25.2409   -8.8322    0.0000 C   0  0  0  0  0  0  0  0  0  0  0  0
   24.7060  -10.2335    0.0000 C   0  0  0  0  0  0  0  0  0  0  0  0
   24.0933  -11.6027    0.0000 C   0  0  0  0  0  0  0  0  0  0  0  0
   23.4048  -12.9354    0.0000 C   0  0  0  0  0  0  0  0  0  0  0  0
   22.6427  -14.2274    0.0000 C   0  0  0  0  0  0  0  0  0  0  0  0
   21.8094  -15.4746    0.0000 C   0  0  0  0  0  0  0  0  0  0  0  0
   20.9074  -16.6731    0.0000 C   0  0  0  0  0  0  0  0  0  0  0  0
   19.9396  -17.8191    0.0000 C   0  0  0  0  0  0  0  0  0  0  0  0
   18.9091  -18.9091    0.0000 C   0  0  0  0  0  0  0  0  0  0  0  0
   17.8191  -19.9396    0.0000 C   0  0  0  0  0  0  0  0  0  0  0  0
   16.6731  -20.9074    0.0000 C   0  0  0  0  0  0  0  0  0  0  0  0
   15.4746  -21.8094    0.0000 C   0  0  0  0  0  0  0  0  0  0  0  0
   14.2274  -22.6427    0.0000 C   0  0  0  0  0  0  0  0  0  0  0  0
   12.9354  -23.4048    0.0000 C   0  0  0  0  0  0  0  0  0  0  0  0
   11.6027  -24.0933    0.0000 C   0  0  0  0  0  0  0  0  0  0  0  0
   10.2335  -24.7060    0.0000 C   0  0  0  0  0  0  0  0  0  0  0  0
    8.8322  -25.2409    0.0000 C   0  0  0  0  0  0  0  0  0  0  0  0
    7.4030  -25.6964    0.0000 C   0  0  0  0  0  0  0  0  0  0  0  0
    5.9506  -26.0711    0.0000 C   0  0  0  0  0  0  0  0  0  0  0  0
    4.4794  -26.3637    0.0000 C   0  0  0  0  0  0  0  0  0  0  0  0
    2.9941  -26.5734    0.0000 C   0  0  0  0  0  0  0  0  0  0  0  0
    1.4994  -26.6995    0.0000 C   0  0  0  0  0  0  0  0  0  0  0  0
   -0.0000  -26.7415    0.0000 C   0  0  0  0  0  0  0  0  0  0  0  0
   -1.4994  -26.6995    0.0000 C   0  0  0  0  0  0  0  0  0  0  0  0
   -2.9941  -26.5734    0.0000 C   0  0  0  0  0  0  0  0  0  0  0  0
   -4.4794  -26.3637    0.0000 C   0  0  0  0  0  0  0  0  0  0  0  0
   -5.9506  -26.0711    0.0000 C   0  0  0  0  0  0  0  0  0  0  0  0
   -7.4030  -25.6964    0.0000 C   0  0  0  0  0  0  0  0  0  0  0  0
   -8.8322  -25.2409    0.0000 C   0  0  0  0  0  0  0  0  0  0  0  0
  -10.2335  -24.7060    0.0000 C   0  0  0  0  0  0  0  0  0  0  0  0
  -11.6027  -24.0933    0.0000 C   0  0  0  0  0  0  0  0  0  0  0  0
  -12.9354  -23.4048    0.0000 C   0  0  0  0  0  0  0  0  0  0  0  0
  -14.2274  -22.6427    0.0000 C   0  0  0  0  0  0  0  0  0  0  0  0
  -15.4746  -21.8094    0.0000 C   0  0  0  0  0  0  0  0  0  0  0  0
  -16.6731  -20.9074    0.0000 C   0  0  0  0  0  0  0  0  0  0  0  0
  -17.8191  -19.9396    0.0000 C   0  0  0  0  0  0  0  0  0  0  0  0
  -18.9091  -18.9091    0.0000 C   0  0  0  0  0  0  0  0  0  0  0  0
  -19.9396  -17.8191    0.0000 C   0  0  0  0  0  0  0  0  0  0  0  0
  -20.9074  -16.6731    0.0000 C   0  0  0  0  0  0  0  0  0  0  0  0
  -21.8094  -15.4746    0.0000 C   0  0  0  0  0  0  0  0  0  0  0  0
  -22.6427  -14.2274    0.0000 C   0  0  0  0  0  0  0  0  0  0  0  0
  -23.4048  -12.9354    0.0000 C   0  0  0  0  0  0  0  0  0  0  0  0
  -24.0933  -11.6027    0.0000 C   0  0  0  0  0  0  0  0  0  0  0  0
  -24.7060  -10.2335    0.0000 C   0  0  0  0  0  0  0  0  0  0  0  0
  -25.2409   -8.8322    0.0000 C   0  0  0  0  0  0  0  0  0  0  0  0
  -25.6964   -7.4030    0.0000 C   0  0  0  0  0  0  0  0  0  0  0  0
  -26.0711   -5.9506    0.0000 C   0  0  0  0  0  0  0  0  0  0  0  0
  -26.3637   -4.4794    0.0000 C   0  0  0  0  0  0  0  0  0  0  0  0
  -26.5734   -2.9941    0.0000 C   0  0  0  0  0  0  0  0  0  0  0  0
  -26.6995   -1.4994    0.0000 C   0  0  0  0  0  0  0  0  0  0  0  0
  -26.7415    0.0000    0.0000 C   0  0  0  0  0  0  0  0  0  0  0  0
  -26.6995    1.4994    0.0000 C   0  0  0  0  0  0  0  0  0  0  0  0
  -26.5734    2.9941    0.0000 C   0  0  0  0  0  0  0  0  0  0  0  0
  -26.3637    4.4794    0.0000 C   0  0  0  0  0  0  0  0  0  0  0  0
  -26.0711    5.9506    0.0000 C   0  0  0  0  0  0  0  0  0  0  0  0
  -25.6964    7.4030    0.0000 C   0  0  0  0  0  0  0  0  0  0  0  0
  -25.2409    8.8322    0.0000 C   0  0  0  0  0  0  0  0  0  0  0  0
  -24.7060   10.2335    0.0000 C   0  0  0  0  0  0  0  0  0  0  0  0
  -24.0933   11.6027    0.0000 C   0  0  0  0  0  0  0  0  0  0  0  0
  -23.4048   12.9354    0.0000 C   0  0  0  0  0  0  0  0  0  0  0  0
  -22.6427   14.2274    0.0000 C   0  0  0  0  0  0  0  0  0  0  0  0
  -21.8094   15.4746    0.0000 C   0  0  0  0  0  0  0  0  0  0  0  0
  -20.9074   16.6731    0.0000 C   0  0  0  0  0  0  0  0  0  0  0  0
  -19.9396   17.8191    0.0000 C   0  0  0  0  0  0  0  0  0  0  0  0
  -18.9091   18.9091    0.0000 C   0  0  0  0  0  0  0  0  0  0  0  0
  -17.8191   19.9396    0.0000 C   0  0  0  0  0  0  0  0  0  0  0  0
  -16.6731   20.9074    0.0000 C   0  0  0  0  0  0  0  0  0  0  0  0
  -15.4746   21.8094    0.0000 C   0  0  0  0  0  0  0  0  0  0  0  0
  -14.2274   22.6427    0.0000 C   0  0  0  0  0  0  0  0  0  0  0  0
  -12.9354   23.4048    0.0000 C   0  0  0  0  0  0  0  0  0  0  0  0
  -11.6027   24.0933    0.0000 C   0  0  0  0  0  0  0  0  0  0  0  0
  -10.2335   24.7060    0.0000 C   0  0  0  0  0  0  0  0  0  0  0  0
   -8.8322   25.2409    0.0000 C   0  0  0  0  0  0  0  0  0  0  0  0
   -7.4030   25.6964    0.0000 C   0  0  0  0  0  0  0  0  0  0  0  0
   -5.9506   26.0711    0.0000 C   0  0  0  0  0  0  0  0  0  0  0  0
   -4.4794   26.3637    0.0000 C   0  0  0  0  0  0  0  0  0  0  0  0
   -2.9941   26.5734    0.0000 C   0  0  0  0  0  0  0  0  0  0  0  0
   -1.4994   26.6995    0.0000 C   0  0  0  0  0  0  0  0  0  0  0  0
    0.0000   26.7415    0.0000 C   0  0  0  0  0  0  0  0  0  0  0  0
    1.4994   26.6995    0.0000 C   0  0  0  0  0  0  0  0  0  0  0  0
    2.9941   26.5734    0.0000 C   0  0  0  0  0  0  0  0  0  0  0  0
    4.4794   26.3637    0.0000 C   0  0  0  0  0  0  0  0  0  0  0  0
    5.9506   26.0711    0.0000 C   0  0  0  0  0  0  0  0  0  0  0  0
    7.4030   25.6964    0.0000 C   0  0  0  0  0  0  0  0  0  0  0  0
    8.8322   25.2409    0.0000 C   0  0  0  0  0  0  0  0  0  0  0  0
   10.2335   24.7060    0.0000 C   0  0  0  0  0  0  0  0  0  0  0  0
   11.6027   24.0933    0.0000 C   0  0  0  0  0  0  0  0  0  0  0  0
   12.9354   23.4048    0.0000 C   0  0  0  0  0  0  0  0  0  0  0  0
   14.2274   22.6427    0.0000 C   0  0  0  0  0  0  0  0  0  0  0  0
   15.4746   21.8094    0.0000 C   0  0  0  0  0  0  0  0  0  0  0  0
   16.6731   20.9074    0.0000 C   0  0  0  0  0  0  0  0  0  0  0  0
   17.8191   19.9396    0.0000 C   0  0  0  0  0  0  0  0  0  0  0  0
   18.9091   18.9091    0.0000 C   0  0  0  0  0  0  0  0  0  0  0  0
   19.9396   17.8191    0.0000 C   0  0  0  0  0  0  0  0  0  0  0  0
   20.9074   16.6731    0.0000 C   0  0  0  0  0  0  0  0  0  0  0  0
   21.8094   15.4746    0.0000 C   0  0  0  0  0  0  0  0  0  0  0  0
   22.6427   14.2274    0.0000 C   0  0  0  0  0  0  0  0  0  0  0  0
   23.4048   12.9354    0.0000 C   0  0  0  0  0  0  0  0  0  0  0  0
   24.0933   11.6027    0.0000 C   0  0  0  0  0  0  0  0  0  0  0  0
   24.7060   10.2335    0.0000 C   0  0  0  0  0  0  0  0  0  0  0  0
   25.2409    8.8322    0.0000 C   0  0  0  0  0  0  0  0  0  0  0  0
   25.6964    7.4030    0.0000 C   0  0  0  0  0  0  0  0  0  0  0  0
   26.0711    5.9506    0.0000 C   0  0  0  0  0  0  0  0  0  0  0  0
   26.3637    4.4794    0.0000 C   0  0  0  0  0  0  0  0  0  0  0  0
   26.5734    2.9941    0.0000 C   0  0  0  0  0  0  0  0  0  0  0  0
   26.6995    1.4994    0.0000 C   0  0  0  0  0  0  0  0  0  0  0  0
  1  2  1  0
  2  3  1  0
  3  4  1  0
  4  5  1  0
  5  6  1  0
  6  7  1  0
  7  8  1  0
  8  9  1  0
  9 10  1  0
 10 11  1  0
 11 12  1  0
 12 13  1  0
 13 14  1  0
 14 15  1  0
 15 16  1  0
 16 17  1  0
 17 18  1  0
 18 19  1  0
 19 20  1  0
 20 21  1  0
 21 22  1  0
 22 23  1  0
 23 24  1  0
 24 25  1  0
 25 26  1  0
 26 27  1  0
 27 28  1  0
 28 29  1  0
 29 30  1  0
 30 31  1  0
 31 32  1  0
 32 33  1  0
 33 34  1  0
 34 35  1  0
 35 36  1  0
 36 37  1  0
 37 38  1  0
 38 39  1  0
 39 40  1  0
 40 41  1  0
 41 42  1  0
 42 43  1  0
 43 44  1  0
 44 45  1  0
 45 46  1  0
 46 47  1  0
 47 48  1  0
 48 49  1  0
 49 50  1  0
 50 51  1  0
 51 52  1  0
 52 53  1  0
 53 54  1  0
 54 55  1  0
 55 56  1  0
 56 57  1  0
 57 58  1  0
 58 59  1  0
 59 60  1  0
 60 61  1  0
 61 62  1  0
 62 63  1  0
 63 64  1  0
 64 65  1  0
 65 66  1  0
 66 67  1  0
 67 68  1  0
 68 69  1  0
 69 70  1  0
 70 71  1  0
 71 72  1  0
 72 73  1  0
 73 74  1  0
 74 75  1  0
 75 76  1  0
 76 77  1  0
 77 78  1  0
 78 79  1  0
 79 80  1  0
 80 81  1  0
 81 82  1  0
 82 83  1  0
 83 84  1  0
 84 85  1  0
 85 86  1  0
 86 87  1  0
 87 88  1  0
 88 89  1  0
 89 90  1  0
 90 91  1  0
 91 92  1  0
 92 93  1  0
 93 94  1  0
 94 95  1  0
 95 96  1  0
 96 97  1  0
 97 98  1  0
 98 99  1  0
 99100  1  0
100101  1  0
101102  1  0
102103  1  0
103104  1  0
104105  1  0
105106  1  0
106107  1  0
107108  1  0
108109  1  0
109110  1  0
110111  1  0
111112  1  0
112113  1  0
113  2  1  0
M  END
>  <Title>  (113) 
idAACKgen9

$$$$

     RDKit          2D

 24 26  0  0  0  0  0  0  0  0999 V2000
   -9.7730   -5.5068    0.0000 C   0  0  0  0  0  0  0  0  0  0  0  0
   -8.3464   -5.0433    0.0000 C   0  0  0  0  0  0  0  0  0  0  0  0
   -6.9199   -4.5797    0.0000 C   0  0  0  0  0  0  0  0  0  0  0  0
   -5.4933   -4.1162    0.0000 C   0  0  0  0  0  0  0  0  0  0  0  0
   -4.0667   -3.6527    0.0000 C   0  0  0  0  0  0  0  0  0  0  0  0
   -2.6401   -3.1891    0.0000 C   0  0  0  0  0  0  0  0  0  0  0  0
   -1.2135   -2.7256    0.0000 C   0  0  0  0  0  0  0  0  0  0  0  0
   -0.0000   -3.6073    0.0000 C   0  0  0  0  0  0  0  0  0  0  0  0
    1.2135   -2.7256    0.0000 C   0  0  0  0  0  0  0  0  0  0  0  0
    2.6401   -3.1891    0.0000 C   0  0  0  0  0  0  0  0  0  0  0  0
    3.7548   -2.1855    0.0000 O   0  0  0  0  0  0  0  0  0  0  0  0
    2.9520   -4.6564    0.0000 N   0  0  0  0  0  0  0  0  0  0  0  0
    4.3786   -5.1199    0.0000 C   0  0  0  0  0  0  0  0  0  0  0  0
    4.6904   -6.5871    0.0000 N   0  0  0  0  0  0  0  0  0  0  0  0
    6.1170   -7.0506    0.0000 N   0  0  0  0  0  0  0  0  0  0  0  0
    7.2317   -6.0469    0.0000 N   0  0  0  0  0  0  0  0  0  0  0  0
    6.9199   -4.5797    0.0000 N   0  0  0  0  0  0  0  0  0  0  0  0
    5.4933   -4.1162    0.0000 N   0  0  0  0  0  0  0  0  0  0  0  0
    0.7500   -1.2990    0.0000 C   0  0  0  0  0  0  0  0  0  0  0  0
    1.5000    0.0000    0.0000 C   0  0  0  0  0  0  0  0  0  0  0  0
    0.7500    1.2990    0.0000 C   0  0  0  0  0  0  0  0  0  0  0  0
   -0.7500    1.2990    0.0000 C   0  0  0  0  0  0  0  0  0  0  0  0
   -1.5000    0.0000    0.0000 C   0  0  0  0  0  0  0  0  0  0  0  0
   -0.7500   -1.2990    0.0000 C   0  0  0  0  0  0  0  0  0  0  0  0
  1  2  3  0
  2  3  1  0
  3  4  3  0
  4  5  1  0
  5  6  3  0
  6  7  1  0
  7  8  2  0
  8  9  1  0
  9 10  1  0
 10 11  2  0
 10 12  1  0
 12 13  1  0
 13 14  2  0
 14 15  1  0
 15 16  2  0
 16 17  1  0
 17 18  2  0
  9 19  1  0
 19 20  2  0
 20 21  1  0
 21 22  2  0
 22 23  1  0
 23 24  2  0
 24  7  1  0
 18 13  1  0
 24 19  1  0
M  END
>  <Title>  (114) 
idAACLgen9

$$$$

     RDKit          2D

  7  7  0  0  0  0  0  0  0  0999 V2000
    3.0000    0.0000    0.0000 C   0  0  0  0  0  0  0  0  0  0  0  0
    1.5000    0.0000    0.0000 C   0  0  0  0  0  0  0  0  0  0  0  0
    0.7500   -1.2990    0.0000 C   0  0  0  0  0  0  0  0  0  0  0  0
   -0.7500   -1.2990    0.0000 C   0  0  0  0  0  0  0  0  0  0  0  0
   -1.5000    0.0000    0.0000 C   0  0  0  0  0  0  0  0  0  0  0  0
   -0.7500    1.2990    0.0000 C   0  0  0  0  0  0  0  0  0  0  0  0
    0.7500    1.2990    0.0000 C   0  0  0  0  0  0  0  0  0  0  0  0
  1  2  1  0
  2  3  1  0
  3  4  1  0
  4  5  1  0
  5  6  1  0
  6  7  1  0
  7  2  1  0
M  END
>  <Title>  (115) 
idAACMgen9

$$$$

     RDKit          2D

 25 26  0  0  0  0  0  0  0  0999 V2000
    5.2500  -11.6913    0.0000 C   0  0  0  0  0  0  0  0  0  0  0  0
    4.5000  -10.3923    0.0000 C   0  0  0  0  0  0  0  0  0  0  0  0
    3.7500   -9.0933    0.0000 C   0  0  0  0  0  0  0  0  0  0  0  0
    3.0000   -7.7942    0.0000 C   0  0  0  0  0  0  0  0  0  0  0  0
    2.2500   -6.4952    0.0000 C   0  0  0  0  0  0  0  0  0  0  0  0
    1.5000   -5.1962    0.0000 C   0  0  0  0  0  0  0  0  0  0  0  0
    0.7500   -3.8971    0.0000 C   0  0  0  0  0  0  0  0  0  0  0  0
    1.5000   -2.5981    0.0000 C   0  0  0  0  0  0  0  0  0  0  0  0
    0.7500   -1.2990    0.0000 C   0  0  0  0  0  0  0  0  0  0  0  0
    1.5000    0.0000    0.0000 C   0  0  0  0  0  0  0  0  0  0  0  0
    0.7500    1.2990    0.0000 C   0  0  0  0  0  0  0  0  0  0  0  0
   -0.7500    1.2990    0.0000 C   0  0  0  0  0  0  0  0  0  0  0  0
   -1.5000    2.5981    0.0000 C   0  0  0  0  0  0  0  0  0  0  0  0
   -2.2500    3.8971    0.0000 N   0  0  0  0  0  0  0  0  0  0  0  0
   -1.5000    0.0000    0.0000 C   0  0  0  0  0  0  0  0  0  0  0  0
   -0.7500   -1.2990    0.0000 C   0  0  0  0  0  0  0  0  0  0  0  0
   -0.7500   -3.8971    0.0000 C   0  0  0  0  0  0  0  0  0  0  0  0
   -1.5000   -2.5981    0.0000 C   0  0  0  0  0  0  0  0  0  0  0  0
   -3.0000   -2.5981    0.0000 C   0  0  0  0  0  0  0  0  0  0  0  0
   -3.7500   -3.8971    0.0000 C   0  0  0  0  0  0  0  0  0  0  0  0
   -5.2500   -3.8971    0.0000 C   0  0  0  0  0  0  0  0  0  0  0  0
   -6.7500   -3.8971    0.0000 N   0  0  0  0  0  0  0  0  0  0  0  0
   -3.0000   -5.1962    0.0000 C   0  0  0  0  0  0  0  0  0  0  0  0
   -1.5000   -5.1962    0.0000 C   0  0  0  0  0  0  0  0  0  0  0  0
   -0.7500   -6.4952    0.0000 O   0  0  0  0  0  0  0  0  0  0  0  0
  1  2  3  0
  2  3  1  0
  3  4  3  0
  4  5  1  0
  5  6  3  0
  6  7  1  0
  7  8  1  0
  8  9  1  0
  9 10  2  0
 10 11  1  0
 11 12  2  0
 12 13  1  0
 13 14  3  0
 12 15  1  0
 15 16  2  0
  7 17  1  0
 17 18  2  0
 18 19  1  0
 19 20  2  0
 20 21  1  0
 21 22  3  0
 20 23  1  0
 23 24  2  0
 24 25  1  0
 16  9  1  0
 24 17  1  0
M  END
>  <Title>  (116) 
idAACNgen9

$$$$

     RDKit          2D

 23 23  0  0  0  0  0  0  0  0999 V2000
   28.2760   -0.0000    0.0000 C   0  0  0  0  0  0  0  0  0  0  0  0
   26.7760   -0.0000    0.0000 C   0  0  0  0  0  0  0  0  0  0  0  0
   25.2760   -0.0000    0.0000 C   0  0  0  0  0  0  0  0  0  0  0  0
   23.7760   -0.0000    0.0000 C   0  0  0  0  0  0  0  0  0  0  0  0
   22.2760   -0.0000    0.0000 C   0  0  0  0  0  0  0  0  0  0  0  0
   20.7760   -0.0000    0.0000 C   0  0  0  0  0  0  0  0  0  0  0  0
   19.2760   -0.0000    0.0000 C   0  0  0  0  0  0  0  0  0  0  0  0
   17.7760   -0.0000    0.0000 C   0  0  0  0  0  0  0  0  0  0  0  0
   16.2760   -0.0000    0.0000 C   0  0  0  0  0  0  0  0  0  0  0  0
   14.7760   -0.0000    0.0000 C   0  0  0  0  0  0  0  0  0  0  0  0
   13.2760   -0.0000    0.0000 C   0  0  0  0  0  0  0  0  0  0  0  0
   11.7760   -0.0000    0.0000 C   0  0  0  0  0  0  0  0  0  0  0  0
   10.2760   -0.0000    0.0000 C   0  0  0  0  0  0  0  0  0  0  0  0
    8.7760   -0.0000    0.0000 C   0  0  0  0  0  0  0  0  0  0  0  0
    7.2760   -0.0000    0.0000 C   0  0  0  0  0  0  0  0  0  0  0  0
    5.7760   -0.0000    0.0000 C   0  0  0  0  0  0  0  0  0  0  0  0
    4.2760   -0.0000    0.0000 C   0  0  0  0  0  0  0  0  0  0  0  0
    2.7760    0.0000    0.0000 C   0  0  0  0  0  0  0  0  0  0  0  0
    1.2760    0.0000    0.0000 C   0  0  0  0  0  0  0  0  0  0  0  0
    0.3943    1.2135    0.0000 C   0  0  0  0  0  0  0  0  0  0  0  0
   -1.0323    0.7500    0.0000 C   0  0  0  0  0  0  0  0  0  0  0  0
   -1.0323   -0.7500    0.0000 C   0  0  0  0  0  0  0  0  0  0  0  0
    0.3943   -1.2135    0.0000 C   0  0  0  0  0  0  0  0  0  0  0  0
  1  2  3  0
  2  3  1  0
  3  4  3  0
  4  5  1  0
  5  6  3  0
  6  7  1  0
  7  8  3  0
  8  9  1  0
  9 10  3  0
 10 11  1  0
 11 12  3  0
 12 13  1  0
 13 14  3  0
 14 15  1  0
 15 16  3  0
 16 17  1  0
 17 18  3  0
 18 19  1  0
 19 20  2  0
 20 21  1  0
 21 22  2  0
 22 23  1  0
 23 19  1  0
M  END
>  <Title>  (117) 
idAACOgen9

$$$$

     RDKit          2D

 26 29  0  0  0  0  0  0  0  0999 V2000
   -1.3240   -6.3062    0.0000 C   0  0  0  0  0  0  0  0  0  0  0  0
   -0.7500   -4.9204    0.0000 C   0  0  0  0  0  0  0  0  0  0  0  0
    0.7500   -4.9204    0.0000 C   0  0  0  0  0  0  0  0  0  0  0  0
    1.8107   -3.8597    0.0000 C   0  0  0  0  0  0  0  0  0  0  0  0
    1.8107   -2.3597    0.0000 C   0  0  0  0  0  0  0  0  0  0  0  0
    3.1965   -1.7857    0.0000 C   0  0  0  0  0  0  0  0  0  0  0  0
    3.3923   -0.2985    0.0000 O   0  0  0  0  0  0  0  0  0  0  0  0
    4.3865   -2.6988    0.0000 N   0  0  0  0  0  0  0  0  0  0  0  0
    5.7723   -2.1248    0.0000 C   0  0  0  0  0  0  0  0  0  0  0  0
    6.9624   -3.0379    0.0000 N   0  0  0  0  0  0  0  0  0  0  0  0
    8.3482   -2.4639    0.0000 N   0  0  0  0  0  0  0  0  0  0  0  0
    8.5440   -0.9767    0.0000 N   0  0  0  0  0  0  0  0  0  0  0  0
    7.3539   -0.0636    0.0000 N   0  0  0  0  0  0  0  0  0  0  0  0
    5.9681   -0.6376    0.0000 N   0  0  0  0  0  0  0  0  0  0  0  0
    0.7500   -1.2990    0.0000 C   0  0  0  0  0  0  0  0  0  0  0  0
    1.5000    0.0000    0.0000 C   0  0  0  0  0  0  0  0  0  0  0  0
    0.7500    1.2990    0.0000 C   0  0  0  0  0  0  0  0  0  0  0  0
   -0.7500    1.2990    0.0000 C   0  0  0  0  0  0  0  0  0  0  0  0
   -1.5000    0.0000    0.0000 C   0  0  0  0  0  0  0  0  0  0  0  0
   -0.7500   -1.2990    0.0000 C   0  0  0  0  0  0  0  0  0  0  0  0
   -1.8107   -2.3597    0.0000 C   0  0  0  0  0  0  0  0  0  0  0  0
   -3.1097   -1.6097    0.0000 C   0  0  0  0  0  0  0  0  0  0  0  0
   -4.4087   -2.3597    0.0000 C   0  0  0  0  0  0  0  0  0  0  0  0
   -4.4087   -3.8597    0.0000 C   0  0  0  0  0  0  0  0  0  0  0  0
   -3.1097   -4.6097    0.0000 C   0  0  0  0  0  0  0  0  0  0  0  0
   -1.8107   -3.8597    0.0000 C   0  0  0  0  0  0  0  0  0  0  0  0
  1  2  1  0
  2  3  2  0
  3  4  1  0
  4  5  2  0
  5  6  1  0
  6  7  2  0
  6  8  1  0
  8  9  1  0
  9 10  2  0
 10 11  1  0
 11 12  2  0
 12 13  1  0
 13 14  2  0
  5 15  1  0
 15 16  2  0
 16 17  1  0
 17 18  2  0
 18 19  1  0
 19 20  2  0
 20 21  1  0
 21 22  2  0
 22 23  1  0
 23 24  2  0
 24 25  1  0
 25 26  2  0
 26  2  1  0
 14  9  1  0
 20 15  1  0
 26 21  1  0
M  END
>  <Title>  (118) 
idAACPgen9

$$$$

     RDKit          2D

 11 11  0  0  0  0  0  0  0  0999 V2000
   10.2760   -0.0000    0.0000 N   0  0  0  0  0  0  0  0  0  0  0  0
    8.7760   -0.0000    0.0000 C   0  0  0  0  0  0  0  0  0  0  0  0
    7.2760   -0.0000    0.0000 C   0  0  0  0  0  0  0  0  0  0  0  0
    5.7760   -0.0000    0.0000 C   0  0  0  0  0  0  0  0  0  0  0  0
    4.2760   -0.0000    0.0000 C   0  0  0  0  0  0  0  0  0  0  0  0
    2.7760    0.0000    0.0000 C   0  0  0  0  0  0  0  0  0  0  0  0
    1.2760    0.0000    0.0000 C   0  0  0  0  0  0  0  0  0  0  0  0
    0.3943    1.2135    0.0000 C   0  0  0  0  0  0  0  0  0  0  0  0
   -1.0323    0.7500    0.0000 C   0  0  0  0  0  0  0  0  0  0  0  0
   -1.0323   -0.7500    0.0000 C   0  0  0  0  0  0  0  0  0  0  0  0
    0.3943   -1.2135    0.0000 C   0  0  0  0  0  0  0  0  0  0  0  0
  1  2  3  0
  2  3  1  0
  3  4  3  0
  4  5  1  0
  5  6  3  0
  6  7  1  0
  7  8  2  0
  8  9  1  0
  9 10  2  0
 10 11  1  0
 11  7  1  0
M  END
>  <Title>  (119) 
idAACQgen9

$$$$

     RDKit          2D

 51 58  0  0  0  0  0  0  0  0999 V2000
    1.3355   10.5366    0.0000 C   0  0  0  0  0  0  0  0  0  0  0  0
    1.2934    9.0372    0.0000 C   0  0  0  0  0  0  0  0  0  0  0  0
    2.7558    8.7034    0.0000 C   0  0  0  0  0  0  0  0  0  0  0  0
    3.9791    7.8354    0.0000 C   0  0  0  0  0  0  0  0  0  0  0  0
    4.7772    6.5653    0.0000 C   0  0  0  0  0  0  0  0  0  0  0  0
    6.1785    7.1002    0.0000 C   0  0  0  0  0  0  0  0  0  0  0  0
    7.3425    6.1541    0.0000 O   0  0  0  0  0  0  0  0  0  0  0  0
    6.4160    8.5813    0.0000 N   0  0  0  0  0  0  0  0  0  0  0  0
    7.8173    9.1163    0.0000 C   0  0  0  0  0  0  0  0  0  0  0  0
    8.9813    8.1701    0.0000 N   0  0  0  0  0  0  0  0  0  0  0  0
   10.3827    8.7050    0.0000 N   0  0  0  0  0  0  0  0  0  0  0  0
   10.6201   10.1861    0.0000 N   0  0  0  0  0  0  0  0  0  0  0  0
    9.4561   11.1323    0.0000 N   0  0  0  0  0  0  0  0  0  0  0  0
    8.0548   10.5973    0.0000 N   0  0  0  0  0  0  0  0  0  0  0  0
    5.0284    5.0865    0.0000 C   0  0  0  0  0  0  0  0  0  0  0  0
    6.4618    5.5286    0.0000 C   0  0  0  0  0  0  0  0  0  0  0  0
    7.5614    4.5084    0.0000 C   0  0  0  0  0  0  0  0  0  0  0  0
    7.2276    3.0460    0.0000 C   0  0  0  0  0  0  0  0  0  0  0  0
    5.7942    2.6038    0.0000 C   0  0  0  0  0  0  0  0  0  0  0  0
    4.6946    3.6241    0.0000 C   0  0  0  0  0  0  0  0  0  0  0  0
    3.8266    2.4008    0.0000 C   0  0  0  0  0  0  0  0  0  0  0  0
    5.1528    1.6999    0.0000 C   0  0  0  0  0  0  0  0  0  0  0  0
    5.2089    0.2009    0.0000 C   0  0  0  0  0  0  0  0  0  0  0  0
    3.9388   -0.5971    0.0000 C   0  0  0  0  0  0  0  0  0  0  0  0
    2.6126    0.1038    0.0000 C   0  0  0  0  0  0  0  0  0  0  0  0
    2.5566    1.6027    0.0000 C   0  0  0  0  0  0  0  0  0  0  0  0
    1.0777    1.3515    0.0000 C   0  0  0  0  0  0  0  0  0  0  0  0
    1.7286    0.0000    0.0000 C   0  0  0  0  0  0  0  0  0  0  0  0
    1.0777   -1.3515    0.0000 C   0  0  0  0  0  0  0  0  0  0  0  0
   -0.3846   -1.6852    0.0000 C   0  0  0  0  0  0  0  0  0  0  0  0
   -1.5574   -0.7500    0.0000 C   0  0  0  0  0  0  0  0  0  0  0  0
   -1.5574    0.7500    0.0000 C   0  0  0  0  0  0  0  0  0  0  0  0
   -0.3846    1.6852    0.0000 C   0  0  0  0  0  0  0  0  0  0  0  0
   -1.6080    2.5532    0.0000 C   0  0  0  0  0  0  0  0  0  0  0  0
   -2.3089    1.2271    0.0000 C   0  0  0  0  0  0  0  0  0  0  0  0
   -3.8078    1.1710    0.0000 C   0  0  0  0  0  0  0  0  0  0  0  0
   -4.6059    2.4411    0.0000 C   0  0  0  0  0  0  0  0  0  0  0  0
   -3.9050    3.7672    0.0000 C   0  0  0  0  0  0  0  0  0  0  0  0
   -2.4060    3.8233    0.0000 C   0  0  0  0  0  0  0  0  0  0  0  0
   -2.6573    5.3021    0.0000 C   0  0  0  0  0  0  0  0  0  0  0  0
   -4.0907    4.8600    0.0000 C   0  0  0  0  0  0  0  0  0  0  0  0
   -5.1902    5.8803    0.0000 C   0  0  0  0  0  0  0  0  0  0  0  0
   -4.8564    7.3427    0.0000 C   0  0  0  0  0  0  0  0  0  0  0  0
   -3.4231    7.7848    0.0000 C   0  0  0  0  0  0  0  0  0  0  0  0
   -2.3235    6.7645    0.0000 C   0  0  0  0  0  0  0  0  0  0  0  0
   -1.4555    7.9879    0.0000 C   0  0  0  0  0  0  0  0  0  0  0  0
   -2.7817    8.6888    0.0000 C   0  0  0  0  0  0  0  0  0  0  0  0
   -2.8378   10.1877    0.0000 C   0  0  0  0  0  0  0  0  0  0  0  0
   -1.5677   10.9858    0.0000 C   0  0  0  0  0  0  0  0  0  0  0  0
   -0.2415   10.2849    0.0000 C   0  0  0  0  0  0  0  0  0  0  0  0
   -0.1854    8.7859    0.0000 C   0  0  0  0  0  0  0  0  0  0  0  0
  1  2  1  0
  2  3  1  0
  3  4  1  0
  4  5  1  0
  5  6  1  0
  6  7  2  0
  6  8  1  0
  8  9  1  0
  9 10  2  0
 10 11  1  0
 11 12  2  0
 12 13  1  0
 13 14  2  0
  5 15  1  0
 15 16  2  0
 16 17  1  0
 17 18  2  0
 18 19  1  0
 19 20  2  0
 20 21  1  0
 21 22  2  0
 22 23  1  0
 23 24  2  0
 24 25  1  0
 25 26  2  0
 26 27  1  0
 27 28  2  0
 28 29  1  0
 29 30  1  0
 30 31  1  0
 31 32  1  0
 32 33  2  0
 33 34  1  0
 34 35  2  0
 35 36  1  0
 36 37  2  0
 37 38  1  0
 38 39  2  0
 39 40  1  0
 40 41  2  0
 41 42  1  0
 42 43  2  0
 43 44  1  0
 44 45  2  0
 45 46  1  0
 46 47  2  0
 47 48  1  0
 48 49  2  0
 49 50  1  0
 50 51  2  0
 51  2  1  0
 14  9  1  0
 20 15  1  0
 26 21  1  0
 33 27  1  0
 39 34  1  0
 45 40  1  0
 51 46  1  0
M  END
>  <Title>  (120) 
idAACRgen9

$$$$

     RDKit          2D

 15 16  0  0  0  0  0  0  0  0999 V2000
    1.8478   -9.0619    0.0000 C   0  0  0  0  0  0  0  0  0  0  0  0
    2.0046   -7.5702    0.0000 C   0  0  0  0  0  0  0  0  0  0  0  0
    3.3037   -6.8202    0.0000 C   0  0  0  0  0  0  0  0  0  0  0  0
    2.9918   -5.3529    0.0000 C   0  0  0  0  0  0  0  0  0  0  0  0
    1.5000   -5.1962    0.0000 C   0  0  0  0  0  0  0  0  0  0  0  0
    0.7500   -3.8971    0.0000 C   0  0  0  0  0  0  0  0  0  0  0  0
   -0.7500   -3.8971    0.0000 O   0  0  0  0  0  0  0  0  0  0  0  0
    1.5000   -2.5981    0.0000 N   0  0  0  0  0  0  0  0  0  0  0  0
    0.7500   -1.2990    0.0000 C   0  0  0  0  0  0  0  0  0  0  0  0
    1.5000    0.0000    0.0000 N   0  0  0  0  0  0  0  0  0  0  0  0
    0.7500    1.2990    0.0000 N   0  0  0  0  0  0  0  0  0  0  0  0
   -0.7500    1.2990    0.0000 N   0  0  0  0  0  0  0  0  0  0  0  0
   -1.5000    0.0000    0.0000 N   0  0  0  0  0  0  0  0  0  0  0  0
   -0.7500   -1.2990    0.0000 N   0  0  0  0  0  0  0  0  0  0  0  0
    0.8899   -6.5665    0.0000 C   0  0  0  0  0  0  0  0  0  0  0  0
  1  2  1  0
  2  3  1  0
  3  4  1  0
  4  5  1  0
  5  6  1  0
  6  7  2  0
  6  8  1  0
  8  9  1  0
  9 10  2  0
 10 11  1  0
 11 12  2  0
 12 13  1  0
 13 14  2  0
  5 15  1  0
 15  2  1  0
 14  9  1  0
M  END
>  <Title>  (121) 
idAACSgen9

$$$$

     RDKit          2D

  7  7  0  0  0  0  0  0  0  0999 V2000
    2.7760    0.0000    0.0000 C   0  0  0  0  0  0  0  0  0  0  0  0
    1.2760    0.0000    0.0000 C   0  0  0  0  0  0  0  0  0  0  0  0
    0.3943    1.2135    0.0000 C   0  0  0  0  0  0  0  0  0  0  0  0
   -1.0323    0.7500    0.0000 C   0  0  0  0  0  0  0  0  0  0  0  0
   -1.0323   -0.7500    0.0000 C   0  0  0  0  0  0  0  0  0  0  0  0
    0.3943   -1.2135    0.0000 C   0  0  0  0  0  0  0  0  0  0  0  0
    0.8578   -2.6401    0.0000 F   0  0  0  0  0  0  0  0  0  0  0  0
  1  2  1  0
  2  3  2  0
  3  4  1  0
  4  5  2  0
  5  6  1  0
  6  7  1  0
  6  2  1  0
M  END
>  <Title>  (122) 
idAACTgen9

$$$$

     RDKit          2D

  6  5  0  0  0  0  0  0  0  0999 V2000
    0.0000    0.0000    0.0000 C   0  0  0  0  0  0  0  0  0  0  0  0
    1.2990    0.7500    0.0000 C   0  0  0  0  0  0  0  0  0  0  0  0
    2.5981   -0.0000    0.0000 C   0  0  0  0  0  0  0  0  0  0  0  0
    3.8971    0.7500    0.0000 C   0  0  0  0  0  0  0  0  0  0  0  0
    5.1962   -0.0000    0.0000 C   0  0  0  0  0  0  0  0  0  0  0  0
    6.4952    0.7500    0.0000 C   0  0  0  0  0  0  0  0  0  0  0  0
  1  2  1  0
  2  3  2  3
  3  4  1  0
  4  5  1  0
  5  6  1  0
M  END
>  <Title>  (123) 
idAACUgen9

$$$$

     RDKit          2D

 87 88  0  0  0  0  0  0  0  0999 V2000
   -2.4176    0.0762    0.0000 C   0  0  0  0  0  0  0  0  0  0  0  0
   -2.2456   -1.4139    0.0000 C   0  0  0  0  0  0  0  0  0  0  0  0
   -3.7280   -1.6428    0.0000 C   0  0  0  0  0  0  0  0  0  0  0  0
   -5.1886   -1.9846    0.0000 C   0  0  0  0  0  0  0  0  0  0  0  0
   -6.6187   -2.4372    0.0000 C   0  0  0  0  0  0  0  0  0  0  0  0
   -8.0099   -2.9979    0.0000 C   0  0  0  0  0  0  0  0  0  0  0  0
   -9.3542   -3.6635    0.0000 C   0  0  0  0  0  0  0  0  0  0  0  0
  -10.6435   -4.4300    0.0000 C   0  0  0  0  0  0  0  0  0  0  0  0
  -11.8704   -5.2930    0.0000 C   0  0  0  0  0  0  0  0  0  0  0  0
  -13.0276   -6.2474    0.0000 C   0  0  0  0  0  0  0  0  0  0  0  0
  -14.1084   -7.2875    0.0000 C   0  0  0  0  0  0  0  0  0  0  0  0
  -15.1064   -8.4074    0.0000 C   0  0  0  0  0  0  0  0  0  0  0  0
  -16.0158   -9.6003    0.0000 C   0  0  0  0  0  0  0  0  0  0  0  0
  -16.8311  -10.8593    0.0000 C   0  0  0  0  0  0  0  0  0  0  0  0
  -17.5477  -12.1771    0.0000 C   0  0  0  0  0  0  0  0  0  0  0  0
  -18.1613  -13.5459    0.0000 C   0  0  0  0  0  0  0  0  0  0  0  0
  -18.6683  -14.9576    0.0000 C   0  0  0  0  0  0  0  0  0  0  0  0
  -19.0658  -16.4040    0.0000 C   0  0  0  0  0  0  0  0  0  0  0  0
  -19.3514  -17.8765    0.0000 C   0  0  0  0  0  0  0  0  0  0  0  0
  -19.5234  -19.3666    0.0000 C   0  0  0  0  0  0  0  0  0  0  0  0
  -19.5808  -20.8655    0.0000 C   0  0  0  0  0  0  0  0  0  0  0  0
  -19.5234  -22.3644    0.0000 C   0  0  0  0  0  0  0  0  0  0  0  0
  -19.3514  -23.8545    0.0000 C   0  0  0  0  0  0  0  0  0  0  0  0
  -19.0658  -25.3271    0.0000 C   0  0  0  0  0  0  0  0  0  0  0  0
  -18.6683  -26.7735    0.0000 C   0  0  0  0  0  0  0  0  0  0  0  0
  -18.1613  -28.1852    0.0000 C   0  0  0  0  0  0  0  0  0  0  0  0
  -17.5477  -29.5539    0.0000 C   0  0  0  0  0  0  0  0  0  0  0  0
  -16.8311  -30.8717    0.0000 C   0  0  0  0  0  0  0  0  0  0  0  0
  -16.0158  -32.1307    0.0000 C   0  0  0  0  0  0  0  0  0  0  0  0
  -15.1064  -33.3237    0.0000 C   0  0  0  0  0  0  0  0  0  0  0  0
  -14.1084  -34.4435    0.0000 C   0  0  0  0  0  0  0  0  0  0  0  0
  -13.0276  -35.4837    0.0000 C   0  0  0  0  0  0  0  0  0  0  0  0
  -11.8704  -36.4380    0.0000 C   0  0  0  0  0  0  0  0  0  0  0  0
  -10.6435  -37.3010    0.0000 C   0  0  0  0  0  0  0  0  0  0  0  0
   -9.3542  -38.0675    0.0000 C   0  0  0  0  0  0  0  0  0  0  0  0
   -8.0099  -38.7331    0.0000 C   0  0  0  0  0  0  0  0  0  0  0  0
   -6.6187  -39.2938    0.0000 C   0  0  0  0  0  0  0  0  0  0  0  0
   -5.1886  -39.7464    0.0000 C   0  0  0  0  0  0  0  0  0  0  0  0
   -3.7280  -40.0882    0.0000 C   0  0  0  0  0  0  0  0  0  0  0  0
   -2.2456  -40.3172    0.0000 C   0  0  0  0  0  0  0  0  0  0  0  0
   -0.7500  -40.4320    0.0000 C   0  0  0  0  0  0  0  0  0  0  0  0
    0.7500  -40.4320    0.0000 C   0  0  0  0  0  0  0  0  0  0  0  0
    2.2456  -40.3172    0.0000 C   0  0  0  0  0  0  0  0  0  0  0  0
    3.7280  -40.0882    0.0000 C   0  0  0  0  0  0  0  0  0  0  0  0
    5.1886  -39.7464    0.0000 C   0  0  0  0  0  0  0  0  0  0  0  0
    6.6187  -39.2938    0.0000 C   0  0  0  0  0  0  0  0  0  0  0  0
    8.0099  -38.7331    0.0000 C   0  0  0  0  0  0  0  0  0  0  0  0
    9.3542  -38.0675    0.0000 C   0  0  0  0  0  0  0  0  0  0  0  0
   10.6435  -37.3010    0.0000 C   0  0  0  0  0  0  0  0  0  0  0  0
   11.8704  -36.4380    0.0000 C   0  0  0  0  0  0  0  0  0  0  0  0
   13.0276  -35.4837    0.0000 C   0  0  0  0  0  0  0  0  0  0  0  0
   14.1084  -34.4435    0.0000 C   0  0  0  0  0  0  0  0  0  0  0  0
   15.1064  -33.3237    0.0000 C   0  0  0  0  0  0  0  0  0  0  0  0
   16.0158  -32.1307    0.0000 C   0  0  0  0  0  0  0  0  0  0  0  0
   16.8311  -30.8717    0.0000 C   0  0  0  0  0  0  0  0  0  0  0  0
   17.5477  -29.5539    0.0000 C   0  0  0  0  0  0  0  0  0  0  0  0
   18.1613  -28.1852    0.0000 C   0  0  0  0  0  0  0  0  0  0  0  0
   18.6683  -26.7735    0.0000 C   0  0  0  0  0  0  0  0  0  0  0  0
   19.0658  -25.3271    0.0000 C   0  0  0  0  0  0  0  0  0  0  0  0
   19.3514  -23.8545    0.0000 C   0  0  0  0  0  0  0  0  0  0  0  0
   19.5234  -22.3644    0.0000 C   0  0  0  0  0  0  0  0  0  0  0  0
   19.5808  -20.8655    0.0000 C   0  0  0  0  0  0  0  0  0  0  0  0
   19.5234  -19.3666    0.0000 C   0  0  0  0  0  0  0  0  0  0  0  0
   19.3514  -17.8765    0.0000 C   0  0  0  0  0  0  0  0  0  0  0  0
   19.0658  -16.4040    0.0000 C   0  0  0  0  0  0  0  0  0  0  0  0
   18.6683  -14.9576    0.0000 C   0  0  0  0  0  0  0  0  0  0  0  0
   18.1613  -13.5459    0.0000 C   0  0  0  0  0  0  0  0  0  0  0  0
   17.5477  -12.1771    0.0000 C   0  0  0  0  0  0  0  0  0  0  0  0
   16.8311  -10.8593    0.0000 C   0  0  0  0  0  0  0  0  0  0  0  0
   16.0158   -9.6003    0.0000 C   0  0  0  0  0  0  0  0  0  0  0  0
   15.1064   -8.4074    0.0000 C   0  0  0  0  0  0  0  0  0  0  0  0
   14.1084   -7.2875    0.0000 C   0  0  0  0  0  0  0  0  0  0  0  0
   13.0276   -6.2474    0.0000 C   0  0  0  0  0  0  0  0  0  0  0  0
   11.8704   -5.2930    0.0000 C   0  0  0  0  0  0  0  0  0  0  0  0
   10.6435   -4.4300    0.0000 C   0  0  0  0  0  0  0  0  0  0  0  0
    9.3542   -3.6635    0.0000 C   0  0  0  0  0  0  0  0  0  0  0  0
    8.0099   -2.9979    0.0000 C   0  0  0  0  0  0  0  0  0  0  0  0
    6.6187   -2.4372    0.0000 C   0  0  0  0  0  0  0  0  0  0  0  0
    5.1886   -1.9846    0.0000 C   0  0  0  0  0  0  0  0  0  0  0  0
    3.7280   -1.6428    0.0000 C   0  0  0  0  0  0  0  0  0  0  0  0
    2.2456   -1.4139    0.0000 C   0  0  0  0  0  0  0  0  0  0  0  0
    0.7500   -1.2990    0.0000 C   0  0  0  0  0  0  0  0  0  0  0  0
    1.5000    0.0000    0.0000 C   0  0  0  0  0  0  0  0  0  0  0  0
    0.7500    1.2990    0.0000 C   0  0  0  0  0  0  0  0  0  0  0  0
   -0.7500    1.2990    0.0000 C   0  0  0  0  0  0  0  0  0  0  0  0
   -1.5000    0.0000    0.0000 C   0  0  0  0  0  0  0  0  0  0  0  0
   -0.7500   -1.2990    0.0000 C   0  0  0  0  0  0  0  0  0  0  0  0
  1  2  1  0
  2  3  1  0
  3  4  1  0
  4  5  1  0
  5  6  1  0
  6  7  1  0
  7  8  1  0
  8  9  1  0
  9 10  1  0
 10 11  1  0
 11 12  1  0
 12 13  1  0
 13 14  1  0
 14 15  1  0
 15 16  1  0
 16 17  1  0
 17 18  1  0
 18 19  1  0
 19 20  1  0
 20 21  1  0
 21 22  1  0
 22 23  1  0
 23 24  1  0
 24 25  1  0
 25 26  1  0
 26 27  1  0
 27 28  1  0
 28 29  1  0
 29 30  1  0
 30 31  1  0
 31 32  1  0
 32 33  1  0
 33 34  1  0
 34 35  1  0
 35 36  1  0
 36 37  1  0
 37 38  1  0
 38 39  1  0
 39 40  1  0
 40 41  1  0
 41 42  1  0
 42 43  1  0
 43 44  1  0
 44 45  1  0
 45 46  1  0
 46 47  1  0
 47 48  1  0
 48 49  1  0
 49 50  1  0
 50 51  1  0
 51 52  1  0
 52 53  1  0
 53 54  1  0
 54 55  1  0
 55 56  1  0
 56 57  1  0
 57 58  1  0
 58 59  1  0
 59 60  1  0
 60 61  1  0
 61 62  1  0
 62 63  1  0
 63 64  1  0
 64 65  1  0
 65 66  1  0
 66 67  1  0
 67 68  1  0
 68 69  1  0
 69 70  1  0
 70 71  1  0
 71 72  1  0
 72 73  1  0
 73 74  1  0
 74 75  1  0
 75 76  1  0
 76 77  1  0
 77 78  1  0
 78 79  1  0
 79 80  1  0
 80 81  1  0
 81 82  1  0
 82 83  2  0
 83 84  1  0
 84 85  2  0
 85 86  1  0
 86 87  2  0
 87  2  1  0
 87 82  1  0
M  END
>  <Title>  (124) 
idAACVgen9

$$$$

     RDKit          2D

  9  9  0  0  0  0  0  0  0  0999 V2000
    3.2286   -0.0000    0.0000 C   0  0  0  0  0  0  0  0  0  0  0  0
    1.7286    0.0000    0.0000 C   0  0  0  0  0  0  0  0  0  0  0  0
    1.0777    1.3515    0.0000 C   0  0  0  0  0  0  0  0  0  0  0  0
   -0.3846    1.6852    0.0000 C   0  0  0  0  0  0  0  0  0  0  0  0
   -1.5574    0.7500    0.0000 C   0  0  0  0  0  0  0  0  0  0  0  0
   -1.5574   -0.7500    0.0000 C   0  0  0  0  0  0  0  0  0  0  0  0
   -0.3846   -1.6852    0.0000 C   0  0  0  0  0  0  0  0  0  0  0  0
    1.0777   -1.3515    0.0000 C   0  0  0  0  0  0  0  0  0  0  0  0
    2.0130   -2.5242    0.0000 O   0  0  0  0  0  0  0  0  0  0  0  0
  1  2  1  0
  2  3  2  0
  3  4  1  0
  4  5  2  0
  5  6  1  0
  6  7  2  0
  7  8  1  0
  8  9  2  0
  8  2  1  0
M  END
>  <Title>  (125) 
idAACWgen9

$$$$

     RDKit          2D

  7  7  0  0  0  0  0  0  0  0999 V2000
    3.5260   -1.2990    0.0000 C   0  0  0  0  0  0  0  0  0  0  0  0
    2.7760    0.0000    0.0000 N   0  0  0  0  0  0  0  0  0  0  0  0
    1.2760    0.0000    0.0000 C   0  0  0  0  0  0  0  0  0  0  0  0
    0.3943    1.2135    0.0000 C   0  0  0  0  0  0  0  0  0  0  0  0
   -1.0323    0.7500    0.0000 C   0  0  0  0  0  0  0  0  0  0  0  0
   -1.0323   -0.7500    0.0000 C   0  0  0  0  0  0  0  0  0  0  0  0
    0.3943   -1.2135    0.0000 C   0  0  0  0  0  0  0  0  0  0  0  0
  1  2  1  0
  2  3  1  0
  3  4  2  0
  4  5  1  0
  5  6  2  0
  6  7  1  0
  7  3  1  0
M  END
>  <Title>  (126) 
idAACXgen9

$$$$

     RDKit          2D

 67 69  0  0  0  0  0  0  0  0999 V2000
   15.2584   -0.9067    0.0000 O   0  0  0  0  0  0  0  0  0  0  0  0
   15.5563    0.5634    0.0000 C   0  0  0  0  0  0  0  0  0  0  0  0
   16.9207    1.1866    0.0000 C   0  0  0  0  0  0  0  0  0  0  0  0
   16.7497    2.6768    0.0000 C   0  0  0  0  0  0  0  0  0  0  0  0
   17.8548    3.6910    0.0000 C   0  0  0  0  0  0  0  0  0  0  0  0
   19.2858    3.2411    0.0000 C   0  0  0  0  0  0  0  0  0  0  0  0
   20.3909    4.2554    0.0000 C   0  0  0  0  0  0  0  0  0  0  0  0
   20.0651    5.7196    0.0000 C   0  0  0  0  0  0  0  0  0  0  0  0
   18.6341    6.1695    0.0000 C   0  0  0  0  0  0  0  0  0  0  0  0
   17.5290    5.1552    0.0000 C   0  0  0  0  0  0  0  0  0  0  0  0
   15.2796    2.9747    0.0000 C   0  0  0  0  0  0  0  0  0  0  0  0
   14.5420    1.6685    0.0000 C   0  0  0  0  0  0  0  0  0  0  0  0
   13.0518    1.4976    0.0000 C   0  0  0  0  0  0  0  0  0  0  0  0
   13.1374    0.0000    0.0000 C   0  0  0  0  0  0  0  0  0  0  0  0
   13.0518   -1.4976    0.0000 C   0  0  0  0  0  0  0  0  0  0  0  0
   12.7960   -2.9756    0.0000 C   0  0  0  0  0  0  0  0  0  0  0  0
   12.3734   -4.4148    0.0000 C   0  0  0  0  0  0  0  0  0  0  0  0
   11.7895   -5.7965    0.0000 C   0  0  0  0  0  0  0  0  0  0  0  0
   11.0519   -7.1026    0.0000 C   0  0  0  0  0  0  0  0  0  0  0  0
   10.1702   -8.3162    0.0000 C   0  0  0  0  0  0  0  0  0  0  0  0
    9.1560   -9.4213    0.0000 C   0  0  0  0  0  0  0  0  0  0  0  0
    8.0223  -10.4036    0.0000 C   0  0  0  0  0  0  0  0  0  0  0  0
    6.7841  -11.2502    0.0000 C   0  0  0  0  0  0  0  0  0  0  0  0
    5.4575  -11.9502    0.0000 C   0  0  0  0  0  0  0  0  0  0  0  0
    4.0597  -12.4944    0.0000 C   0  0  0  0  0  0  0  0  0  0  0  0
    2.6090  -12.8758    0.0000 C   0  0  0  0  0  0  0  0  0  0  0  0
    1.1242  -13.0892    0.0000 C   0  0  0  0  0  0  0  0  0  0  0  0
   -0.3752  -13.1321    0.0000 C   0  0  0  0  0  0  0  0  0  0  0  0
   -1.8697  -13.0037    0.0000 C   0  0  0  0  0  0  0  0  0  0  0  0
   -3.3398  -12.7058    0.0000 C   0  0  0  0  0  0  0  0  0  0  0  0
   -4.7664  -12.2423    0.0000 C   0  0  0  0  0  0  0  0  0  0  0  0
   -6.1308  -11.6192    0.0000 C   0  0  0  0  0  0  0  0  0  0  0  0
   -7.4153  -10.8446    0.0000 C   0  0  0  0  0  0  0  0  0  0  0  0
   -8.6032   -9.9286    0.0000 C   0  0  0  0  0  0  0  0  0  0  0  0
   -9.6789   -8.8832    0.0000 C   0  0  0  0  0  0  0  0  0  0  0  0
  -10.6284   -7.7220    0.0000 C   0  0  0  0  0  0  0  0  0  0  0  0
  -11.4394   -6.4601    0.0000 C   0  0  0  0  0  0  0  0  0  0  0  0
  -12.1012   -5.1140    0.0000 C   0  0  0  0  0  0  0  0  0  0  0  0
  -12.6053   -3.7012    0.0000 C   0  0  0  0  0  0  0  0  0  0  0  0
  -12.9450   -2.2402    0.0000 C   0  0  0  0  0  0  0  0  0  0  0  0
  -13.1160   -0.7500    0.0000 C   0  0  0  0  0  0  0  0  0  0  0  0
  -13.1160    0.7500    0.0000 C   0  0  0  0  0  0  0  0  0  0  0  0
  -12.9450    2.2402    0.0000 C   0  0  0  0  0  0  0  0  0  0  0  0
  -12.6053    3.7012    0.0000 C   0  0  0  0  0  0  0  0  0  0  0  0
  -12.1012    5.1140    0.0000 C   0  0  0  0  0  0  0  0  0  0  0  0
  -11.4394    6.4601    0.0000 C   0  0  0  0  0  0  0  0  0  0  0  0
  -10.6284    7.7220    0.0000 C   0  0  0  0  0  0  0  0  0  0  0  0
   -9.6789    8.8832    0.0000 C   0  0  0  0  0  0  0  0  0  0  0  0
   -8.6032    9.9286    0.0000 C   0  0  0  0  0  0  0  0  0  0  0  0
   -7.4153   10.8446    0.0000 C   0  0  0  0  0  0  0  0  0  0  0  0
   -6.1308   11.6192    0.0000 C   0  0  0  0  0  0  0  0  0  0  0  0
   -4.7664   12.2423    0.0000 C   0  0  0  0  0  0  0  0  0  0  0  0
   -3.3398   12.7058    0.0000 C   0  0  0  0  0  0  0  0  0  0  0  0
   -1.8697   13.0037    0.0000 C   0  0  0  0  0  0  0  0  0  0  0  0
   -0.3752   13.1321    0.0000 C   0  0  0  0  0  0  0  0  0  0  0  0
    1.1242   13.0892    0.0000 C   0  0  0  0  0  0  0  0  0  0  0  0
    2.6090   12.8758    0.0000 C   0  0  0  0  0  0  0  0  0  0  0  0
    4.0597   12.4944    0.0000 C   0  0  0  0  0  0  0  0  0  0  0  0
    5.4575   11.9502    0.0000 C   0  0  0  0  0  0  0  0  0  0  0  0
    6.7841   11.2502    0.0000 C   0  0  0  0  0  0  0  0  0  0  0  0
    8.0223   10.4036    0.0000 C   0  0  0  0  0  0  0  0  0  0  0  0
    9.1560    9.4213    0.0000 C   0  0  0  0  0  0  0  0  0  0  0  0
   10.1702    8.3162    0.0000 C   0  0  0  0  0  0  0  0  0  0  0  0
   11.0519    7.1026    0.0000 C   0  0  0  0  0  0  0  0  0  0  0  0
   11.7895    5.7965    0.0000 C   0  0  0  0  0  0  0  0  0  0  0  0
   12.3734    4.4148    0.0000 C   0  0  0  0  0  0  0  0  0  0  0  0
   12.7960    2.9756    0.0000 C   0  0  0  0  0  0  0  0  0  0  0  0
  1  2  1  0
  2  3  2  0
  3  4  1  0
  4  5  1  0
  5  6  2  0
  6  7  1  0
  7  8  2  0
  8  9  1  0
  9 10  2  0
  4 11  1  0
 11 12  2  0
 12 13  1  0
 13 14  1  0
 14 15  1  0
 15 16  1  0
 16 17  1  0
 17 18  1  0
 18 19  1  0
 19 20  1  0
 20 21  1  0
 21 22  1  0
 22 23  1  0
 23 24  1  0
 24 25  1  0
 25 26  1  0
 26 27  1  0
 27 28  1  0
 28 29  1  0
 29 30  1  0
 30 31  1  0
 31 32  1  0
 32 33  1  0
 33 34  1  0
 34 35  1  0
 35 36  1  0
 36 37  1  0
 37 38  1  0
 38 39  1  0
 39 40  1  0
 40 41  1  0
 41 42  1  0
 42 43  1  0
 43 44  1  0
 44 45  1  0
 45 46  1  0
 46 47  1  0
 47 48  1  0
 48 49  1  0
 49 50  1  0
 50 51  1  0
 51 52  1  0
 52 53  1  0
 53 54  1  0
 54 55  1  0
 55 56  1  0
 56 57  1  0
 57 58  1  0
 58 59  1  0
 59 60  1  0
 60 61  1  0
 61 62  1  0
 62 63  1  0
 63 64  1  0
 64 65  1  0
 65 66  1  0
 66 67  1  0
 12  2  1  0
 67 13  1  0
 10  5  1  0
M  END
>  <Title>  (127) 
idAACYgen9

$$$$

     RDKit          2D

 68 78  0  0  0  0  0  0  0  0999 V2000
    6.4958   -4.6081    0.0000 C   0  0  0  0  0  0  0  0  0  0  0  0
    5.0565   -5.0307    0.0000 C   0  0  0  0  0  0  0  0  0  0  0  0
    4.4334   -3.6662    0.0000 C   0  0  0  0  0  0  0  0  0  0  0  0
    3.4511   -2.5326    0.0000 C   0  0  0  0  0  0  0  0  0  0  0  0
    2.1892   -1.7216    0.0000 C   0  0  0  0  0  0  0  0  0  0  0  0
    2.8124   -0.3572    0.0000 C   0  0  0  0  0  0  0  0  0  0  0  0
    1.9423    0.8647    0.0000 O   0  0  0  0  0  0  0  0  0  0  0  0
    4.3056   -0.2146    0.0000 N   0  0  0  0  0  0  0  0  0  0  0  0
    4.9287    1.1498    0.0000 C   0  0  0  0  0  0  0  0  0  0  0  0
    6.4219    1.2924    0.0000 N   0  0  0  0  0  0  0  0  0  0  0  0
    7.0450    2.6569    0.0000 N   0  0  0  0  0  0  0  0  0  0  0  0
    6.1749    3.8787    0.0000 N   0  0  0  0  0  0  0  0  0  0  0  0
    4.6817    3.7362    0.0000 N   0  0  0  0  0  0  0  0  0  0  0  0
    4.0586    2.3717    0.0000 N   0  0  0  0  0  0  0  0  0  0  0  0
    0.7500   -1.2990    0.0000 C   0  0  0  0  0  0  0  0  0  0  0  0
    1.5000    0.0000    0.0000 C   0  0  0  0  0  0  0  0  0  0  0  0
    0.7500    1.2990    0.0000 C   0  0  0  0  0  0  0  0  0  0  0  0
   -0.7500    1.2990    0.0000 C   0  0  0  0  0  0  0  0  0  0  0  0
   -1.5000    0.0000    0.0000 C   0  0  0  0  0  0  0  0  0  0  0  0
   -0.7500   -1.2990    0.0000 C   0  0  0  0  0  0  0  0  0  0  0  0
   -2.1892   -1.7216    0.0000 C   0  0  0  0  0  0  0  0  0  0  0  0
   -2.2606   -0.2233    0.0000 C   0  0  0  0  0  0  0  0  0  0  0  0
   -3.5939    0.4640    0.0000 C   0  0  0  0  0  0  0  0  0  0  0  0
   -4.8557   -0.3470    0.0000 C   0  0  0  0  0  0  0  0  0  0  0  0
   -4.7844   -1.8453    0.0000 C   0  0  0  0  0  0  0  0  0  0  0  0
   -3.4511   -2.5326    0.0000 C   0  0  0  0  0  0  0  0  0  0  0  0
   -4.4334   -3.6662    0.0000 C   0  0  0  0  0  0  0  0  0  0  0  0
   -5.3035   -2.4444    0.0000 C   0  0  0  0  0  0  0  0  0  0  0  0
   -6.7967   -2.5869    0.0000 C   0  0  0  0  0  0  0  0  0  0  0  0
   -7.4198   -3.9514    0.0000 C   0  0  0  0  0  0  0  0  0  0  0  0
   -6.5497   -5.1733    0.0000 C   0  0  0  0  0  0  0  0  0  0  0  0
   -5.0565   -5.0307    0.0000 C   0  0  0  0  0  0  0  0  0  0  0  0
   -5.2700   -6.5154    0.0000 C   0  0  0  0  0  0  0  0  0  0  0  0
   -6.6626   -5.9579    0.0000 C   0  0  0  0  0  0  0  0  0  0  0  0
   -7.8416   -6.8851    0.0000 C   0  0  0  0  0  0  0  0  0  0  0  0
   -7.6282   -8.3699    0.0000 C   0  0  0  0  0  0  0  0  0  0  0  0
   -6.2356   -8.9274    0.0000 C   0  0  0  0  0  0  0  0  0  0  0  0
   -5.0565   -8.0001    0.0000 C   0  0  0  0  0  0  0  0  0  0  0  0
   -4.4334   -9.3646    0.0000 C   0  0  0  0  0  0  0  0  0  0  0  0
   -5.9063   -9.6485    0.0000 C   0  0  0  0  0  0  0  0  0  0  0  0
   -6.3969  -11.0660    0.0000 C   0  0  0  0  0  0  0  0  0  0  0  0
   -5.4146  -12.1996    0.0000 C   0  0  0  0  0  0  0  0  0  0  0  0
   -3.9417  -11.9157    0.0000 C   0  0  0  0  0  0  0  0  0  0  0  0
   -3.4511  -10.4982    0.0000 C   0  0  0  0  0  0  0  0  0  0  0  0
   -2.1892  -11.3092    0.0000 C   0  0  0  0  0  0  0  0  0  0  0  0
   -3.2748  -12.3443    0.0000 C   0  0  0  0  0  0  0  0  0  0  0  0
   -2.9212  -13.8020    0.0000 C   0  0  0  0  0  0  0  0  0  0  0  0
   -1.4820  -14.2246    0.0000 C   0  0  0  0  0  0  0  0  0  0  0  0
   -0.3964  -13.1895    0.0000 C   0  0  0  0  0  0  0  0  0  0  0  0
   -0.7500  -11.7318    0.0000 C   0  0  0  0  0  0  0  0  0  0  0  0
    0.7500  -11.7318    0.0000 C   0  0  0  0  0  0  0  0  0  0  0  0
    0.3964  -13.1895    0.0000 C   0  0  0  0  0  0  0  0  0  0  0  0
    1.4820  -14.2246    0.0000 C   0  0  0  0  0  0  0  0  0  0  0  0
    2.9212  -13.8020    0.0000 C   0  0  0  0  0  0  0  0  0  0  0  0
    3.2748  -12.3443    0.0000 C   0  0  0  0  0  0  0  0  0  0  0  0
    2.1892  -11.3092    0.0000 C   0  0  0  0  0  0  0  0  0  0  0  0
    3.4511  -10.4982    0.0000 C   0  0  0  0  0  0  0  0  0  0  0  0
    3.9417  -11.9157    0.0000 C   0  0  0  0  0  0  0  0  0  0  0  0
    5.4146  -12.1996    0.0000 C   0  0  0  0  0  0  0  0  0  0  0  0
    6.3969  -11.0660    0.0000 C   0  0  0  0  0  0  0  0  0  0  0  0
    5.9063   -9.6485    0.0000 C   0  0  0  0  0  0  0  0  0  0  0  0
    4.4334   -9.3646    0.0000 C   0  0  0  0  0  0  0  0  0  0  0  0
    5.0565   -8.0001    0.0000 C   0  0  0  0  0  0  0  0  0  0  0  0
    6.2356   -8.9274    0.0000 C   0  0  0  0  0  0  0  0  0  0  0  0
    7.6282   -8.3699    0.0000 C   0  0  0  0  0  0  0  0  0  0  0  0
    7.8416   -6.8851    0.0000 C   0  0  0  0  0  0  0  0  0  0  0  0
    6.6626   -5.9579    0.0000 C   0  0  0  0  0  0  0  0  0  0  0  0
    5.2700   -6.5154    0.0000 C   0  0  0  0  0  0  0  0  0  0  0  0
  1  2  1  0
  2  3  2  0
  3  4  1  0
  4  5  1  0
  5  6  1  0
  6  7  2  0
  6  8  1  0
  8  9  1  0
  9 10  2  0
 10 11  1  0
 11 12  2  0
 12 13  1  0
 13 14  2  0
  5 15  1  0
 15 16  2  0
 16 17  1  0
 17 18  2  0
 18 19  1  0
 19 20  2  0
 20 21  1  0
 21 22  2  0
 22 23  1  0
 23 24  2  0
 24 25  1  0
 25 26  2  0
 26 27  1  0
 27 28  2  0
 28 29  1  0
 29 30  2  0
 30 31  1  0
 31 32  2  0
 32 33  1  0
 33 34  2  0
 34 35  1  0
 35 36  2  0
 36 37  1  0
 37 38  2  0
 38 39  1  0
 39 40  2  0
 40 41  1  0
 41 42  2  0
 42 43  1  0
 43 44  2  0
 44 45  1  0
 45 46  2  0
 46 47  1  0
 47 48  2  0
 48 49  1  0
 49 50  2  0
 50 51  1  0
 51 52  2  0
 52 53  1  0
 53 54  2  0
 54 55  1  0
 55 56  2  0
 56 57  1  0
 57 58  2  0
 58 59  1  0
 59 60  2  0
 60 61  1  0
 61 62  2  0
 62 63  1  0
 63 64  2  0
 64 65  1  0
 65 66  2  0
 66 67  1  0
 67 68  2  0
 68  2  1  0
 14  9  1  0
 20 15  1  0
 26 21  1  0
 32 27  1  0
 38 33  1  0
 44 39  1  0
 50 45  1  0
 56 51  1  0
 62 57  1  0
 68 63  1  0
M  END
>  <Title>  (128) 
idAACZgen9

$$$$

     RDKit          2D

  4  3  0  0  0  0  0  0  0  0999 V2000
    0.0000    0.0000    0.0000 C   0  0  0  0  0  0  0  0  0  0  0  0
   -0.0000   -1.5000    0.0000 C   0  0  0  0  0  0  0  0  0  0  0  0
   -0.0000   -3.0000    0.0000 C   0  0  0  0  0  0  0  0  0  0  0  0
    1.2990   -3.7500    0.0000 C   0  0  0  0  0  0  0  0  0  0  0  0
  1  2  3  0
  2  3  1  0
  3  4  1  0
M  END
>  <Title>  (129) 
idAADAgen9

$$$$

     RDKit          2D

 21 23  0  0  0  0  0  0  0  0999 V2000
    3.0000    0.0000    0.0000 C   0  0  0  0  0  0  0  0  0  0  0  0
    1.5000    0.0000    0.0000 C   0  0  0  0  0  0  0  0  0  0  0  0
    0.7500   -1.2990    0.0000 C   0  0  0  0  0  0  0  0  0  0  0  0
   -0.7500   -1.2990    0.0000 C   0  0  0  0  0  0  0  0  0  0  0  0
   -1.5000    0.0000    0.0000 C   0  0  0  0  0  0  0  0  0  0  0  0
   -3.0000    0.0000    0.0000 C   0  0  0  0  0  0  0  0  0  0  0  0
   -3.7500   -1.2990    0.0000 O   0  0  0  0  0  0  0  0  0  0  0  0
   -3.7500    1.2990    0.0000 N   0  0  0  0  0  0  0  0  0  0  0  0
   -5.2500    1.2990    0.0000 C   0  0  0  0  0  0  0  0  0  0  0  0
   -6.1317    0.0855    0.0000 N   0  0  0  0  0  0  0  0  0  0  0  0
   -7.5583    0.5490    0.0000 N   0  0  0  0  0  0  0  0  0  0  0  0
   -7.5583    2.0490    0.0000 N   0  0  0  0  0  0  0  0  0  0  0  0
   -6.1317    2.5126    0.0000 N   0  0  0  0  0  0  0  0  0  0  0  0
   -5.6682    3.9391    0.0000 C   0  0  0  0  0  0  0  0  0  0  0  0
   -4.2009    4.2510    0.0000 C   0  0  0  0  0  0  0  0  0  0  0  0
   -3.7374    5.6776    0.0000 C   0  0  0  0  0  0  0  0  0  0  0  0
   -4.7411    6.7923    0.0000 C   0  0  0  0  0  0  0  0  0  0  0  0
   -6.2083    6.4805    0.0000 C   0  0  0  0  0  0  0  0  0  0  0  0
   -6.6718    5.0539    0.0000 C   0  0  0  0  0  0  0  0  0  0  0  0
   -0.7500    1.2990    0.0000 C   0  0  0  0  0  0  0  0  0  0  0  0
    0.7500    1.2990    0.0000 C   0  0  0  0  0  0  0  0  0  0  0  0
  1  2  1  0
  2  3  2  0
  3  4  1  0
  4  5  1  0
  5  6  1  0
  6  7  2  0
  6  8  1  0
  8  9  1  0
  9 10  2  0
 10 11  1  0
 11 12  2  0
 12 13  1  0
 13 14  1  0
 14 15  2  0
 15 16  1  0
 16 17  2  0
 17 18  1  0
 18 19  2  0
  5 20  1  0
 20 21  1  0
 21  2  1  0
 13  9  1  0
 19 14  1  0
M  END
>  <Title>  (130) 
idAADBgen9

$$$$

     RDKit          2D

 20 22  0  0  0  0  0  0  0  0999 V2000
   -3.0000   -2.5981    0.0000 C   0  0  0  0  0  0  0  0  0  0  0  0
   -1.5000   -2.5981    0.0000 C   0  0  0  0  0  0  0  0  0  0  0  0
   -0.7500   -3.8971    0.0000 C   0  0  0  0  0  0  0  0  0  0  0  0
    0.7500   -3.8971    0.0000 C   0  0  0  0  0  0  0  0  0  0  0  0
    1.5000   -2.5981    0.0000 C   0  0  0  0  0  0  0  0  0  0  0  0
    3.0000   -2.5981    0.0000 C   0  0  0  0  0  0  0  0  0  0  0  0
    3.7500   -1.2990    0.0000 O   0  0  0  0  0  0  0  0  0  0  0  0
    3.7500   -3.8971    0.0000 O   0  0  0  0  0  0  0  0  0  0  0  0
    5.2500   -3.8971    0.0000 C   0  0  0  0  0  0  0  0  0  0  0  0
    6.0000   -5.1962    0.0000 N   0  0  0  0  0  0  0  0  0  0  0  0
    7.5000   -5.1962    0.0000 N   0  0  0  0  0  0  0  0  0  0  0  0
    8.2500   -3.8971    0.0000 N   0  0  0  0  0  0  0  0  0  0  0  0
    7.5000   -2.5981    0.0000 N   0  0  0  0  0  0  0  0  0  0  0  0
    6.0000   -2.5981    0.0000 N   0  0  0  0  0  0  0  0  0  0  0  0
    0.7500   -1.2990    0.0000 C   0  0  0  0  0  0  0  0  0  0  0  0
    1.5000    0.0000    0.0000 C   0  0  0  0  0  0  0  0  0  0  0  0
    0.7500    1.2990    0.0000 C   0  0  0  0  0  0  0  0  0  0  0  0
   -0.7500    1.2990    0.0000 C   0  0  0  0  0  0  0  0  0  0  0  0
   -1.5000    0.0000    0.0000 C   0  0  0  0  0  0  0  0  0  0  0  0
   -0.7500   -1.2990    0.0000 C   0  0  0  0  0  0  0  0  0  0  0  0
  1  2  1  0
  2  3  2  0
  3  4  1  0
  4  5  2  0
  5  6  1  0
  6  7  2  0
  6  8  1  0
  8  9  1  0
  9 10  2  0
 10 11  1  0
 11 12  2  0
 12 13  1  0
 13 14  2  0
  5 15  1  0
 15 16  2  0
 16 17  1  0
 17 18  2  0
 18 19  1  0
 19 20  2  0
 20  2  1  0
 14  9  1  0
 20 15  1  0
M  END
>  <Title>  (131) 
idAADCgen9

$$$$

     RDKit          2D

 14 14  0  0  0  0  0  0  0  0999 V2000
   10.2760   -0.0000    0.0000 C   0  0  0  0  0  0  0  0  0  0  0  0
    8.7760   -0.0000    0.0000 C   0  0  0  0  0  0  0  0  0  0  0  0
    7.2760   -0.0000    0.0000 C   0  0  0  0  0  0  0  0  0  0  0  0
    5.7760   -0.0000    0.0000 C   0  0  0  0  0  0  0  0  0  0  0  0
    4.2760   -0.0000    0.0000 C   0  0  0  0  0  0  0  0  0  0  0  0
    2.7760    0.0000    0.0000 C   0  0  0  0  0  0  0  0  0  0  0  0
    1.2760    0.0000    0.0000 C   0  0  0  0  0  0  0  0  0  0  0  0
    0.3943    1.2135    0.0000 C   0  0  0  0  0  0  0  0  0  0  0  0
   -1.0323    0.7500    0.0000 C   0  0  0  0  0  0  0  0  0  0  0  0
   -2.2458    1.6317    0.0000 C   0  0  0  0  0  0  0  0  0  0  0  0
   -3.6161    1.0216    0.0000 O   0  0  0  0  0  0  0  0  0  0  0  0
   -2.0890    3.1235    0.0000 O   0  0  0  0  0  0  0  0  0  0  0  0
   -1.0323   -0.7500    0.0000 C   0  0  0  0  0  0  0  0  0  0  0  0
    0.3943   -1.2135    0.0000 C   0  0  0  0  0  0  0  0  0  0  0  0
  1  2  3  0
  2  3  1  0
  3  4  3  0
  4  5  1  0
  5  6  3  0
  6  7  1  0
  7  8  2  0
  8  9  1  0
  9 10  1  0
 10 11  2  0
 10 12  1  0
  9 13  1  0
 13 14  2  0
 14  7  1  0
M  END
>  <Title>  (132) 
idAADDgen9

$$$$

     RDKit          2D

 52 59  0  0  0  0  0  0  0  0999 V2000
    5.2417   -6.1122    0.0000 C   0  0  0  0  0  0  0  0  0  0  0  0
    3.7705   -5.8195    0.0000 C   0  0  0  0  0  0  0  0  0  0  0  0
    3.7705   -4.3195    0.0000 C   0  0  0  0  0  0  0  0  0  0  0  0
    3.1965   -2.9337    0.0000 C   0  0  0  0  0  0  0  0  0  0  0  0
    2.1358   -1.8731    0.0000 C   0  0  0  0  0  0  0  0  0  0  0  0
    2.9692   -0.6259    0.0000 C   0  0  0  0  0  0  0  0  0  0  0  0
    2.3057    0.7195    0.0000 O   0  0  0  0  0  0  0  0  0  0  0  0
    4.4660   -0.7240    0.0000 N   0  0  0  0  0  0  0  0  0  0  0  0
    5.2993    0.5232    0.0000 C   0  0  0  0  0  0  0  0  0  0  0  0
    6.7961    0.4251    0.0000 N   0  0  0  0  0  0  0  0  0  0  0  0
    7.6295    1.6723    0.0000 N   0  0  0  0  0  0  0  0  0  0  0  0
    6.9660    3.0176    0.0000 N   0  0  0  0  0  0  0  0  0  0  0  0
    5.4692    3.1158    0.0000 N   0  0  0  0  0  0  0  0  0  0  0  0
    4.6359    1.8686    0.0000 N   0  0  0  0  0  0  0  0  0  0  0  0
    0.7500   -1.2990    0.0000 C   0  0  0  0  0  0  0  0  0  0  0  0
    1.5000    0.0000    0.0000 C   0  0  0  0  0  0  0  0  0  0  0  0
    0.7500    1.2990    0.0000 C   0  0  0  0  0  0  0  0  0  0  0  0
   -0.7500    1.2990    0.0000 C   0  0  0  0  0  0  0  0  0  0  0  0
   -1.5000    0.0000    0.0000 C   0  0  0  0  0  0  0  0  0  0  0  0
   -0.7500   -1.2990    0.0000 C   0  0  0  0  0  0  0  0  0  0  0  0
   -2.1358   -1.8731    0.0000 C   0  0  0  0  0  0  0  0  0  0  0  0
   -2.5240   -0.4242    0.0000 C   0  0  0  0  0  0  0  0  0  0  0  0
   -3.9729   -0.0359    0.0000 C   0  0  0  0  0  0  0  0  0  0  0  0
   -5.0336   -1.0966    0.0000 C   0  0  0  0  0  0  0  0  0  0  0  0
   -4.6454   -2.5455    0.0000 C   0  0  0  0  0  0  0  0  0  0  0  0
   -3.1965   -2.9337    0.0000 C   0  0  0  0  0  0  0  0  0  0  0  0
   -3.7705   -4.3195    0.0000 C   0  0  0  0  0  0  0  0  0  0  0  0
   -5.0695   -3.5695    0.0000 C   0  0  0  0  0  0  0  0  0  0  0  0
   -6.3686   -4.3195    0.0000 C   0  0  0  0  0  0  0  0  0  0  0  0
   -6.3686   -5.8195    0.0000 C   0  0  0  0  0  0  0  0  0  0  0  0
   -7.6676   -6.5695    0.0000 C   0  0  0  0  0  0  0  0  0  0  0  0
   -8.9667   -7.3195    0.0000 N   0  0  0  0  0  0  0  0  0  0  0  0
   -5.0695   -6.5695    0.0000 C   0  0  0  0  0  0  0  0  0  0  0  0
   -3.7705   -5.8195    0.0000 C   0  0  0  0  0  0  0  0  0  0  0  0
   -3.1965   -7.2054    0.0000 C   0  0  0  0  0  0  0  0  0  0  0  0
   -4.6454   -7.5936    0.0000 C   0  0  0  0  0  0  0  0  0  0  0  0
   -5.0336   -9.0425    0.0000 C   0  0  0  0  0  0  0  0  0  0  0  0
   -3.9729  -10.1031    0.0000 C   0  0  0  0  0  0  0  0  0  0  0  0
   -2.5240   -9.7149    0.0000 C   0  0  0  0  0  0  0  0  0  0  0  0
   -2.1358   -8.2660    0.0000 C   0  0  0  0  0  0  0  0  0  0  0  0
   -0.7500   -8.8400    0.0000 C   0  0  0  0  0  0  0  0  0  0  0  0
   -1.5000  -10.1391    0.0000 C   0  0  0  0  0  0  0  0  0  0  0  0
   -0.7500  -11.4381    0.0000 C   0  0  0  0  0  0  0  0  0  0  0  0
    0.7500  -11.4381    0.0000 C   0  0  0  0  0  0  0  0  0  0  0  0
    1.5000  -10.1391    0.0000 C   0  0  0  0  0  0  0  0  0  0  0  0
    0.7500   -8.8400    0.0000 C   0  0  0  0  0  0  0  0  0  0  0  0
    2.1358   -8.2660    0.0000 C   0  0  0  0  0  0  0  0  0  0  0  0
    2.5240   -9.7149    0.0000 C   0  0  0  0  0  0  0  0  0  0  0  0
    3.9729  -10.1031    0.0000 C   0  0  0  0  0  0  0  0  0  0  0  0
    5.0336   -9.0425    0.0000 C   0  0  0  0  0  0  0  0  0  0  0  0
    4.6454   -7.5936    0.0000 C   0  0  0  0  0  0  0  0  0  0  0  0
    3.1965   -7.2054    0.0000 C   0  0  0  0  0  0  0  0  0  0  0  0
  1  2  1  0
  2  3  1  0
  3  4  1  0
  4  5  1  0
  5  6  1  0
  6  7  2  0
  6  8  1  0
  8  9  1  0
  9 10  2  0
 10 11  1  0
 11 12  2  0
 12 13  1  0
 13 14  2  0
  5 15  1  0
 15 16  2  0
 16 17  1  0
 17 18  2  0
 18 19  1  0
 19 20  2  0
 20 21  1  0
 21 22  2  0
 22 23  1  0
 23 24  2  0
 24 25  1  0
 25 26  2  0
 26 27  1  0
 27 28  2  0
 28 29  1  0
 29 30  2  0
 30 31  1  0
 31 32  3  0
 30 33  1  0
 33 34  2  0
 34 35  1  0
 35 36  2  0
 36 37  1  0
 37 38  2  0
 38 39  1  0
 39 40  2  0
 40 41  1  0
 41 42  2  0
 42 43  1  0
 43 44  2  0
 44 45  1  0
 45 46  2  0
 46 47  1  0
 47 48  2  0
 48 49  1  0
 49 50  2  0
 50 51  1  0
 51 52  2  0
 52  2  1  0
 14  9  1  0
 20 15  1  0
 26 21  1  0
 34 27  1  0
 40 35  1  0
 46 41  1  0
 52 47  1  0
M  END
>  <Title>  (133) 
idAADEgen9

$$$$

     RDKit          2D

 22 24  0  0  0  0  0  0  0  0999 V2000
    2.7760    0.0000    0.0000 C   0  0  0  0  0  0  0  0  0  0  0  0
    1.2760    0.0000    0.0000 C   0  0  0  0  0  0  0  0  0  0  0  0
    0.3943    1.2135    0.0000 C   0  0  0  0  0  0  0  0  0  0  0  0
   -1.0323    0.7500    0.0000 C   0  0  0  0  0  0  0  0  0  0  0  0
   -1.0323   -0.7500    0.0000 C   0  0  0  0  0  0  0  0  0  0  0  0
   -2.2458   -1.6317    0.0000 C   0  0  0  0  0  0  0  0  0  0  0  0
   -2.0890   -3.1235    0.0000 O   0  0  0  0  0  0  0  0  0  0  0  0
   -3.6161   -1.0216    0.0000 N   0  0  0  0  0  0  0  0  0  0  0  0
   -4.8297   -1.9033    0.0000 C   0  0  0  0  0  0  0  0  0  0  0  0
   -4.8297   -3.4033    0.0000 N   0  0  0  0  0  0  0  0  0  0  0  0
   -6.2562   -3.8668    0.0000 N   0  0  0  0  0  0  0  0  0  0  0  0
   -7.1379   -2.6533    0.0000 N   0  0  0  0  0  0  0  0  0  0  0  0
   -6.2562   -1.4397    0.0000 N   0  0  0  0  0  0  0  0  0  0  0  0
   -6.7198   -0.0131    0.0000 C   0  0  0  0  0  0  0  0  0  0  0  0
   -6.0388    1.3234    0.0000 C   0  0  0  0  0  0  0  0  0  0  0  0
   -7.3753    2.0044    0.0000 C   0  0  0  0  0  0  0  0  0  0  0  0
   -7.8388    3.4309    0.0000 C   0  0  0  0  0  0  0  0  0  0  0  0
   -9.3060    3.7428    0.0000 O   0  0  0  0  0  0  0  0  0  0  0  0
   -6.8351    4.5457    0.0000 O   0  0  0  0  0  0  0  0  0  0  0  0
   -8.0563    0.6678    0.0000 C   0  0  0  0  0  0  0  0  0  0  0  0
   -9.4829    0.2043    0.0000 O   0  0  0  0  0  0  0  0  0  0  0  0
    0.3943   -1.2135    0.0000 C   0  0  0  0  0  0  0  0  0  0  0  0
  1  2  1  0
  2  3  1  0
  3  4  1  0
  4  5  1  0
  5  6  1  0
  6  7  2  0
  6  8  1  0
  8  9  1  0
  9 10  2  0
 10 11  1  0
 11 12  2  0
 12 13  1  0
 13 14  1  0
 14 15  1  0
 15 16  1  0
 16 17  1  0
 17 18  2  0
 17 19  1  0
 16 20  1  0
 20 21  2  0
  5 22  1  0
 22  2  1  0
 13  9  1  0
 20 14  1  0
M  END
>  <Title>  (134) 
idAADFgen9

$$$$

     RDKit          2D

102105  0  0  0  0  0  0  0  0999 V2000
   13.4007  -13.6048    0.0000 C   0  0  0  0  0  0  0  0  0  0  0  0
   14.4390  -12.5222    0.0000 C   0  0  0  0  0  0  0  0  0  0  0  0
   15.5885  -13.4858    0.0000 C   0  0  0  0  0  0  0  0  0  0  0  0
   16.8562  -14.2877    0.0000 C   0  0  0  0  0  0  0  0  0  0  0  0
   18.2194  -14.9134    0.0000 C   0  0  0  0  0  0  0  0  0  0  0  0
   19.6539  -15.3518    0.0000 C   0  0  0  0  0  0  0  0  0  0  0  0
   21.1341  -15.5951    0.0000 C   0  0  0  0  0  0  0  0  0  0  0  0
   22.6334  -15.6390    0.0000 C   0  0  0  0  0  0  0  0  0  0  0  0
   24.1253  -15.4826    0.0000 C   0  0  0  0  0  0  0  0  0  0  0  0
   25.5829  -15.1288    0.0000 C   0  0  0  0  0  0  0  0  0  0  0  0
   26.9804  -14.5838    0.0000 C   0  0  0  0  0  0  0  0  0  0  0  0
   28.2928  -13.8574    0.0000 C   0  0  0  0  0  0  0  0  0  0  0  0
   29.4967  -12.9626    0.0000 C   0  0  0  0  0  0  0  0  0  0  0  0
   30.5706  -11.9154    0.0000 C   0  0  0  0  0  0  0  0  0  0  0  0
   31.4953  -10.7343    0.0000 C   0  0  0  0  0  0  0  0  0  0  0  0
   32.2543   -9.4405    0.0000 C   0  0  0  0  0  0  0  0  0  0  0  0
   32.8341   -8.0571    0.0000 C   0  0  0  0  0  0  0  0  0  0  0  0
   33.2244   -6.6087    0.0000 C   0  0  0  0  0  0  0  0  0  0  0  0
   33.4181   -5.1213    0.0000 C   0  0  0  0  0  0  0  0  0  0  0  0
   33.4118   -3.6213    0.0000 C   0  0  0  0  0  0  0  0  0  0  0  0
   33.2057   -2.1355    0.0000 C   0  0  0  0  0  0  0  0  0  0  0  0
   32.8034   -0.6905    0.0000 C   0  0  0  0  0  0  0  0  0  0  0  0
   32.2120    0.6880    0.0000 C   0  0  0  0  0  0  0  0  0  0  0  0
   31.4422    1.9754    0.0000 C   0  0  0  0  0  0  0  0  0  0  0  0
   30.5077    3.1487    0.0000 C   0  0  0  0  0  0  0  0  0  0  0  0
   29.4251    4.1870    0.0000 C   0  0  0  0  0  0  0  0  0  0  0  0
   28.2138    5.0717    0.0000 C   0  0  0  0  0  0  0  0  0  0  0  0
   26.8953    5.7871    0.0000 C   0  0  0  0  0  0  0  0  0  0  0  0
   25.4933    6.3203    0.0000 C   0  0  0  0  0  0  0  0  0  0  0  0
   24.0328    6.6620    0.0000 C   0  0  0  0  0  0  0  0  0  0  0  0
   22.5397    6.8059    0.0000 C   0  0  0  0  0  0  0  0  0  0  0  0
   21.0407    6.7495    0.0000 C   0  0  0  0  0  0  0  0  0  0  0  0
   19.5627    6.4938    0.0000 C   0  0  0  0  0  0  0  0  0  0  0  0
   18.1319    6.0434    0.0000 C   0  0  0  0  0  0  0  0  0  0  0  0
   16.7739    5.4063    0.0000 C   0  0  0  0  0  0  0  0  0  0  0  0
   15.5130    4.5939    0.0000 C   0  0  0  0  0  0  0  0  0  0  0  0
   14.3715    3.6207    0.0000 C   0  0  0  0  0  0  0  0  0  0  0  0
   13.3700    2.5040    0.0000 C   0  0  0  0  0  0  0  0  0  0  0  0
   12.5263    1.2639    0.0000 C   0  0  0  0  0  0  0  0  0  0  0  0
   11.8553   -0.0777    0.0000 C   0  0  0  0  0  0  0  0  0  0  0  0
   11.3692   -1.4968    0.0000 C   0  0  0  0  0  0  0  0  0  0  0  0
   10.7673   -0.0000    0.0000 C   0  0  0  0  0  0  0  0  0  0  0  0
   10.6752    1.4054    0.0000 C   0  0  0  0  0  0  0  0  0  0  0  0
   10.4005    2.7868    0.0000 C   0  0  0  0  0  0  0  0  0  0  0  0
    9.9477    4.1205    0.0000 C   0  0  0  0  0  0  0  0  0  0  0  0
    9.3248    5.3837    0.0000 C   0  0  0  0  0  0  0  0  0  0  0  0
    8.5423    6.5547    0.0000 C   0  0  0  0  0  0  0  0  0  0  0  0
    7.6137    7.6137    0.0000 C   0  0  0  0  0  0  0  0  0  0  0  0
    6.5547    8.5423    0.0000 C   0  0  0  0  0  0  0  0  0  0  0  0
    5.3837    9.3248    0.0000 C   0  0  0  0  0  0  0  0  0  0  0  0
    4.1205    9.9477    0.0000 C   0  0  0  0  0  0  0  0  0  0  0  0
    2.7868   10.4005    0.0000 C   0  0  0  0  0  0  0  0  0  0  0  0
    1.4054   10.6752    0.0000 C   0  0  0  0  0  0  0  0  0  0  0  0
    0.0000   10.7673    0.0000 C   0  0  0  0  0  0  0  0  0  0  0  0
   -1.4054   10.6752    0.0000 C   0  0  0  0  0  0  0  0  0  0  0  0
   -2.7868   10.4005    0.0000 C   0  0  0  0  0  0  0  0  0  0  0  0
   -4.1205    9.9477    0.0000 C   0  0  0  0  0  0  0  0  0  0  0  0
   -5.3837    9.3248    0.0000 C   0  0  0  0  0  0  0  0  0  0  0  0
   -6.5547    8.5423    0.0000 C   0  0  0  0  0  0  0  0  0  0  0  0
   -7.6137    7.6137    0.0000 C   0  0  0  0  0  0  0  0  0  0  0  0
   -8.5423    6.5547    0.0000 C   0  0  0  0  0  0  0  0  0  0  0  0
   -9.3248    5.3837    0.0000 C   0  0  0  0  0  0  0  0  0  0  0  0
   -9.9477    4.1205    0.0000 C   0  0  0  0  0  0  0  0  0  0  0  0
  -10.4005    2.7868    0.0000 C   0  0  0  0  0  0  0  0  0  0  0  0
  -10.6752    1.4054    0.0000 C   0  0  0  0  0  0  0  0  0  0  0  0
  -10.7673    0.0000    0.0000 C   0  0  0  0  0  0  0  0  0  0  0  0
  -10.6752   -1.4054    0.0000 C   0  0  0  0  0  0  0  0  0  0  0  0
  -10.4005   -2.7868    0.0000 C   0  0  0  0  0  0  0  0  0  0  0  0
   -9.9477   -4.1205    0.0000 C   0  0  0  0  0  0  0  0  0  0  0  0
   -9.3248   -5.3837    0.0000 C   0  0  0  0  0  0  0  0  0  0  0  0
   -8.5423   -6.5547    0.0000 C   0  0  0  0  0  0  0  0  0  0  0  0
   -7.6137   -7.6137    0.0000 C   0  0  0  0  0  0  0  0  0  0  0  0
   -6.5547   -8.5423    0.0000 C   0  0  0  0  0  0  0  0  0  0  0  0
   -5.3837   -9.3248    0.0000 C   0  0  0  0  0  0  0  0  0  0  0  0
   -4.1205   -9.9477    0.0000 C   0  0  0  0  0  0  0  0  0  0  0  0
   -2.7868  -10.4005    0.0000 C   0  0  0  0  0  0  0  0  0  0  0  0
   -1.4054  -10.6752    0.0000 C   0  0  0  0  0  0  0  0  0  0  0  0
   -0.0000  -10.7673    0.0000 C   0  0  0  0  0  0  0  0  0  0  0  0
    1.4054  -10.6752    0.0000 C   0  0  0  0  0  0  0  0  0  0  0  0
    2.7868  -10.4005    0.0000 C   0  0  0  0  0  0  0  0  0  0  0  0
    4.1205   -9.9477    0.0000 C   0  0  0  0  0  0  0  0  0  0  0  0
    5.3837   -9.3248    0.0000 C   0  0  0  0  0  0  0  0  0  0  0  0
    6.5547   -8.5423    0.0000 C   0  0  0  0  0  0  0  0  0  0  0  0
    7.6137   -7.6137    0.0000 C   0  0  0  0  0  0  0  0  0  0  0  0
    8.5423   -6.5547    0.0000 C   0  0  0  0  0  0  0  0  0  0  0  0
    9.3248   -5.3837    0.0000 C   0  0  0  0  0  0  0  0  0  0  0  0
    9.9477   -4.1205    0.0000 C   0  0  0  0  0  0  0  0  0  0  0  0
   11.0766   -2.9680    0.0000 C   0  0  0  0  0  0  0  0  0  0  0  0
   10.9827   -4.4650    0.0000 C   0  0  0  0  0  0  0  0  0  0  0  0
   11.0891   -5.9612    0.0000 C   0  0  0  0  0  0  0  0  0  0  0  0
   11.3940   -7.4299    0.0000 C   0  0  0  0  0  0  0  0  0  0  0  0
   12.3704   -6.2912    0.0000 C   0  0  0  0  0  0  0  0  0  0  0  0
   13.8448   -6.5674    0.0000 C   0  0  0  0  0  0  0  0  0  0  0  0
   14.3427   -7.9824    0.0000 C   0  0  0  0  0  0  0  0  0  0  0  0
   13.3663   -9.1211    0.0000 C   0  0  0  0  0  0  0  0  0  0  0  0
   11.8920   -8.8449    0.0000 C   0  0  0  0  0  0  0  0  0  0  0  0
   12.5741  -10.1808    0.0000 C   0  0  0  0  0  0  0  0  0  0  0  0
   11.0791  -10.3039    0.0000 C   0  0  0  0  0  0  0  0  0  0  0  0
   10.4383  -11.6601    0.0000 C   0  0  0  0  0  0  0  0  0  0  0  0
   11.2924  -12.8932    0.0000 C   0  0  0  0  0  0  0  0  0  0  0  0
   12.7873  -12.7701    0.0000 C   0  0  0  0  0  0  0  0  0  0  0  0
   13.4282  -11.4139    0.0000 C   0  0  0  0  0  0  0  0  0  0  0  0
  1  2  1  0
  2  3  1  0
  3  4  1  0
  4  5  1  0
  5  6  1  0
  6  7  1  0
  7  8  1  0
  8  9  1  0
  9 10  1  0
 10 11  1  0
 11 12  1  0
 12 13  1  0
 13 14  1  0
 14 15  1  0
 15 16  1  0
 16 17  1  0
 17 18  1  0
 18 19  1  0
 19 20  1  0
 20 21  1  0
 21 22  1  0
 22 23  1  0
 23 24  1  0
 24 25  1  0
 25 26  1  0
 26 27  1  0
 27 28  1  0
 28 29  1  0
 29 30  1  0
 30 31  1  0
 31 32  1  0
 32 33  1  0
 33 34  1  0
 34 35  1  0
 35 36  1  0
 36 37  1  0
 37 38  1  0
 38 39  1  0
 39 40  1  0
 40 41  1  0
 41 42  1  0
 42 43  1  0
 43 44  1  0
 44 45  1  0
 45 46  1  0
 46 47  1  0
 47 48  1  0
 48 49  1  0
 49 50  1  0
 50 51  1  0
 51 52  1  0
 52 53  1  0
 53 54  1  0
 54 55  1  0
 55 56  1  0
 56 57  1  0
 57 58  1  0
 58 59  1  0
 59 60  1  0
 60 61  1  0
 61 62  1  0
 62 63  1  0
 63 64  1  0
 64 65  1  0
 65 66  1  0
 66 67  1  0
 67 68  1  0
 68 69  1  0
 69 70  1  0
 70 71  1  0
 71 72  1  0
 72 73  1  0
 73 74  1  0
 74 75  1  0
 75 76  1  0
 76 77  1  0
 77 78  1  0
 78 79  1  0
 79 80  1  0
 80 81  1  0
 81 82  1  0
 82 83  1  0
 83 84  1  0
 84 85  1  0
 85 86  1  0
 86 87  1  0
 87 88  1  0
 88 89  1  0
 89 90  1  0
 90 91  1  0
 91 92  2  0
 92 93  1  0
 93 94  2  0
 94 95  1  0
 95 96  2  0
 96 97  1  0
 97 98  2  0
 98 99  1  0
 99100  2  0
100101  1  0
101102  2  0
102  2  1  0
 88 41  1  0
 96 91  1  0
102 97  1  0
M  END
>  <Title>  (135) 
idAADGgen9

$$$$

     RDKit          2D

 49 56  0  0  0  0  0  0  0  0999 V2000
    4.3881   -6.6982    0.0000 C   0  0  0  0  0  0  0  0  0  0  0  0
    3.0367   -6.0474    0.0000 C   0  0  0  0  0  0  0  0  0  0  0  0
    3.3705   -4.5850    0.0000 C   0  0  0  0  0  0  0  0  0  0  0  0
    3.0367   -3.1226    0.0000 C   0  0  0  0  0  0  0  0  0  0  0  0
    2.1015   -1.9499    0.0000 C   0  0  0  0  0  0  0  0  0  0  0  0
    3.0367   -0.7771    0.0000 C   0  0  0  0  0  0  0  0  0  0  0  0
    2.4887    0.6192    0.0000 O   0  0  0  0  0  0  0  0  0  0  0  0
    4.5199   -1.0007    0.0000 N   0  0  0  0  0  0  0  0  0  0  0  0
    5.4552    0.1721    0.0000 C   0  0  0  0  0  0  0  0  0  0  0  0
    5.0561    1.6180    0.0000 N   0  0  0  0  0  0  0  0  0  0  0  0
    6.3080    2.4444    0.0000 N   0  0  0  0  0  0  0  0  0  0  0  0
    7.4807    1.5091    0.0000 N   0  0  0  0  0  0  0  0  0  0  0  0
    6.9537    0.1048    0.0000 N   0  0  0  0  0  0  0  0  0  0  0  0
    7.7800   -1.1471    0.0000 C   0  0  0  0  0  0  0  0  0  0  0  0
    7.1090   -2.4887    0.0000 C   0  0  0  0  0  0  0  0  0  0  0  0
    7.9354   -3.7405    0.0000 C   0  0  0  0  0  0  0  0  0  0  0  0
    9.4327   -3.6508    0.0000 C   0  0  0  0  0  0  0  0  0  0  0  0
   10.1037   -2.3092    0.0000 C   0  0  0  0  0  0  0  0  0  0  0  0
    9.2773   -1.0574    0.0000 C   0  0  0  0  0  0  0  0  0  0  0  0
    0.7500   -1.2990    0.0000 C   0  0  0  0  0  0  0  0  0  0  0  0
    1.5000    0.0000    0.0000 C   0  0  0  0  0  0  0  0  0  0  0  0
    0.7500    1.2990    0.0000 C   0  0  0  0  0  0  0  0  0  0  0  0
   -0.7500    1.2990    0.0000 C   0  0  0  0  0  0  0  0  0  0  0  0
   -1.5000    0.0000    0.0000 C   0  0  0  0  0  0  0  0  0  0  0  0
   -0.7500   -1.2990    0.0000 C   0  0  0  0  0  0  0  0  0  0  0  0
   -2.1015   -1.9499    0.0000 C   0  0  0  0  0  0  0  0  0  0  0  0
   -2.6495   -0.5536    0.0000 C   0  0  0  0  0  0  0  0  0  0  0  0
   -4.1327   -0.3300    0.0000 C   0  0  0  0  0  0  0  0  0  0  0  0
   -5.0679   -1.5027    0.0000 C   0  0  0  0  0  0  0  0  0  0  0  0
   -4.5199   -2.8990    0.0000 C   0  0  0  0  0  0  0  0  0  0  0  0
   -3.0367   -3.1226    0.0000 C   0  0  0  0  0  0  0  0  0  0  0  0
   -3.3705   -4.5850    0.0000 C   0  0  0  0  0  0  0  0  0  0  0  0
   -4.8038   -4.1429    0.0000 C   0  0  0  0  0  0  0  0  0  0  0  0
   -5.9034   -5.1631    0.0000 C   0  0  0  0  0  0  0  0  0  0  0  0
   -5.5696   -6.6255    0.0000 C   0  0  0  0  0  0  0  0  0  0  0  0
   -4.1363   -7.0677    0.0000 C   0  0  0  0  0  0  0  0  0  0  0  0
   -3.0367   -6.0474    0.0000 C   0  0  0  0  0  0  0  0  0  0  0  0
   -2.1015   -7.2201    0.0000 C   0  0  0  0  0  0  0  0  0  0  0  0
   -3.3408   -8.0651    0.0000 C   0  0  0  0  0  0  0  0  0  0  0  0
   -3.2287   -9.5609    0.0000 C   0  0  0  0  0  0  0  0  0  0  0  0
   -1.8773  -10.2118    0.0000 C   0  0  0  0  0  0  0  0  0  0  0  0
   -0.6379   -9.3668    0.0000 C   0  0  0  0  0  0  0  0  0  0  0  0
   -0.7500   -7.8710    0.0000 C   0  0  0  0  0  0  0  0  0  0  0  0
    0.7500   -7.8710    0.0000 C   0  0  0  0  0  0  0  0  0  0  0  0
    0.6379   -9.3668    0.0000 C   0  0  0  0  0  0  0  0  0  0  0  0
    1.8773  -10.2118    0.0000 C   0  0  0  0  0  0  0  0  0  0  0  0
    3.2287   -9.5609    0.0000 C   0  0  0  0  0  0  0  0  0  0  0  0
    3.3408   -8.0651    0.0000 C   0  0  0  0  0  0  0  0  0  0  0  0
    2.1015   -7.2201    0.0000 C   0  0  0  0  0  0  0  0  0  0  0  0
  1  2  1  0
  2  3  1  0
  3  4  1  0
  4  5  1  0
  5  6  1  0
  6  7  2  0
  6  8  1  0
  8  9  1  0
  9 10  2  0
 10 11  1  0
 11 12  2  0
 12 13  1  0
 13 14  1  0
 14 15  2  0
 15 16  1  0
 16 17  2  0
 17 18  1  0
 18 19  2  0
  5 20  1  0
 20 21  2  0
 21 22  1  0
 22 23  2  0
 23 24  1  0
 24 25  2  0
 25 26  1  0
 26 27  2  0
 27 28  1  0
 28 29  2  0
 29 30  1  0
 30 31  2  0
 31 32  1  0
 32 33  2  0
 33 34  1  0
 34 35  2  0
 35 36  1  0
 36 37  2  0
 37 38  1  0
 38 39  2  0
 39 40  1  0
 40 41  2  0
 41 42  1  0
 42 43  2  0
 43 44  1  0
 44 45  2  0
 45 46  1  0
 46 47  2  0
 47 48  1  0
 48 49  2  0
 49  2  1  0
 13  9  1  0
 19 14  1  0
 25 20  1  0
 31 26  1  0
 37 32  1  0
 43 38  1  0
 49 44  1  0
M  END
>  <Title>  (136) 
idAADHgen9

$$$$

     RDKit          2D

 13 13  0  0  0  0  0  0  0  0999 V2000
    7.5000   -2.5981    0.0000 C   0  0  0  0  0  0  0  0  0  0  0  0
    6.0000   -2.5981    0.0000 C   0  0  0  0  0  0  0  0  0  0  0  0
    5.2500   -1.2990    0.0000 C   0  0  0  0  0  0  0  0  0  0  0  0
    3.7500   -1.2990    0.0000 C   0  0  0  0  0  0  0  0  0  0  0  0
    3.0000    0.0000    0.0000 C   0  0  0  0  0  0  0  0  0  0  0  0
    1.5000    0.0000    0.0000 C   0  0  0  0  0  0  0  0  0  0  0  0
    0.7500   -1.2990    0.0000 C   0  0  0  0  0  0  0  0  0  0  0  0
   -0.7500   -1.2990    0.0000 C   0  0  0  0  0  0  0  0  0  0  0  0
   -1.5000    0.0000    0.0000 C   0  0  0  0  0  0  0  0  0  0  0  0
   -3.0000    0.0000    0.0000 C   0  0  0  0  0  0  0  0  0  0  0  0
   -0.7500    1.2990    0.0000 C   0  0  0  0  0  0  0  0  0  0  0  0
    0.7500    1.2990    0.0000 C   0  0  0  0  0  0  0  0  0  0  0  0
    1.5000    2.5981    0.0000 C   0  0  0  0  0  0  0  0  0  0  0  0
  1  2  1  0
  2  3  2  3
  3  4  1  0
  4  5  2  3
  5  6  1  0
  6  7  2  0
  7  8  1  0
  8  9  2  0
  9 10  1  0
  9 11  1  0
 11 12  2  0
 12 13  1  0
 12  6  1  0
M  END
>  <Title>  (137) 
idAADIgen9

$$$$

     RDKit          2D

  8  8  0  0  0  0  0  0  0  0999 V2000
    4.5000    0.0000    0.0000 C   0  0  0  0  0  0  0  0  0  0  0  0
    3.0000    0.0000    0.0000 C   0  0  0  0  0  0  0  0  0  0  0  0
    1.5000    0.0000    0.0000 C   0  0  0  0  0  0  0  0  0  0  0  0
    0.7500   -1.2990    0.0000 C   0  0  0  0  0  0  0  0  0  0  0  0
   -0.7500   -1.2990    0.0000 C   0  0  0  0  0  0  0  0  0  0  0  0
   -1.5000    0.0000    0.0000 C   0  0  0  0  0  0  0  0  0  0  0  0
   -0.7500    1.2990    0.0000 C   0  0  0  0  0  0  0  0  0  0  0  0
    0.7500    1.2990    0.0000 C   0  0  0  0  0  0  0  0  0  0  0  0
  1  2  3  0
  2  3  1  0
  3  4  1  0
  4  5  2  0
  5  6  1  0
  6  7  1  0
  7  8  2  0
  8  3  1  0
M  END
>  <Title>  (138) 
idAADJgen9

$$$$

     RDKit          2D

  8  8  0  0  0  0  0  0  0  0999 V2000
    2.7760    0.0000    0.0000 C   0  0  0  0  0  0  0  0  0  0  0  0
    1.2760    0.0000    0.0000 C   0  0  0  0  0  0  0  0  0  0  0  0
    0.3943    1.2135    0.0000 C   0  0  0  0  0  0  0  0  0  0  0  0
   -1.0323    0.7500    0.0000 C   0  0  0  0  0  0  0  0  0  0  0  0
   -1.0323   -0.7500    0.0000 C   0  0  0  0  0  0  0  0  0  0  0  0
   -2.2458   -1.6317    0.0000 C   0  0  0  0  0  0  0  0  0  0  0  0
   -3.4593   -2.5134    0.0000 N   0  0  0  0  0  0  0  0  0  0  0  0
    0.3943   -1.2135    0.0000 C   0  0  0  0  0  0  0  0  0  0  0  0
  1  2  1  0
  2  3  2  0
  3  4  1  0
  4  5  1  0
  5  6  1  0
  6  7  3  0
  5  8  2  0
  8  2  1  0
M  END
>  <Title>  (139) 
idAADKgen9

$$$$

     RDKit          2D

114114  0  0  0  0  0  0  0  0999 V2000
   28.4802    0.0000    0.0000 C   0  0  0  0  0  0  0  0  0  0  0  0
   26.9802    0.0000    0.0000 C   0  0  0  0  0  0  0  0  0  0  0  0
   26.9385    1.4994    0.0000 C   0  0  0  0  0  0  0  0  0  0  0  0
   26.8136    2.9942    0.0000 C   0  0  0  0  0  0  0  0  0  0  0  0
   26.6057    4.4797    0.0000 C   0  0  0  0  0  0  0  0  0  0  0  0
   26.3157    5.9514    0.0000 C   0  0  0  0  0  0  0  0  0  0  0  0
   25.9442    7.4047    0.0000 C   0  0  0  0  0  0  0  0  0  0  0  0
   25.4926    8.8351    0.0000 C   0  0  0  0  0  0  0  0  0  0  0  0
   24.9622   10.2382    0.0000 C   0  0  0  0  0  0  0  0  0  0  0  0
   24.3547   11.6096    0.0000 C   0  0  0  0  0  0  0  0  0  0  0  0
   23.6718   12.9452    0.0000 C   0  0  0  0  0  0  0  0  0  0  0  0
   22.9158   14.2408    0.0000 C   0  0  0  0  0  0  0  0  0  0  0  0
   22.0890   15.4923    0.0000 C   0  0  0  0  0  0  0  0  0  0  0  0
   21.1938   16.6959    0.0000 C   0  0  0  0  0  0  0  0  0  0  0  0
   20.2332   17.8480    0.0000 C   0  0  0  0  0  0  0  0  0  0  0  0
   19.2100   18.9449    0.0000 C   0  0  0  0  0  0  0  0  0  0  0  0
   18.1275   19.9832    0.0000 C   0  0  0  0  0  0  0  0  0  0  0  0
   16.9889   20.9597    0.0000 C   0  0  0  0  0  0  0  0  0  0  0  0
   15.7978   21.8715    0.0000 C   0  0  0  0  0  0  0  0  0  0  0  0
   14.5579   22.7156    0.0000 C   0  0  0  0  0  0  0  0  0  0  0  0
   13.2730   23.4896    0.0000 C   0  0  0  0  0  0  0  0  0  0  0  0
   11.9471   24.1909    0.0000 C   0  0  0  0  0  0  0  0  0  0  0  0
   10.5842   24.8175    0.0000 C   0  0  0  0  0  0  0  0  0  0  0  0
    9.1886   25.3674    0.0000 C   0  0  0  0  0  0  0  0  0  0  0  0
    7.7646   25.8388    0.0000 C   0  0  0  0  0  0  0  0  0  0  0  0
    6.3166   26.2304    0.0000 C   0  0  0  0  0  0  0  0  0  0  0  0
    4.8491   26.5409    0.0000 C   0  0  0  0  0  0  0  0  0  0  0  0
    3.3666   26.7694    0.0000 C   0  0  0  0  0  0  0  0  0  0  0  0
    1.8737   26.9151    0.0000 C   0  0  0  0  0  0  0  0  0  0  0  0
    0.3750   26.9776    0.0000 C   0  0  0  0  0  0  0  0  0  0  0  0
   -1.1248   26.9568    0.0000 C   0  0  0  0  0  0  0  0  0  0  0  0
   -2.6212   26.8526    0.0000 C   0  0  0  0  0  0  0  0  0  0  0  0
   -4.1095   26.6654    0.0000 C   0  0  0  0  0  0  0  0  0  0  0  0
   -5.5850   26.3958    0.0000 C   0  0  0  0  0  0  0  0  0  0  0  0
   -7.0434   26.0447    0.0000 C   0  0  0  0  0  0  0  0  0  0  0  0
   -8.4799   25.6130    0.0000 C   0  0  0  0  0  0  0  0  0  0  0  0
   -9.8902   25.1021    0.0000 C   0  0  0  0  0  0  0  0  0  0  0  0
  -11.2700   24.5137    0.0000 C   0  0  0  0  0  0  0  0  0  0  0  0
  -12.6149   23.8495    0.0000 C   0  0  0  0  0  0  0  0  0  0  0  0
  -13.9208   23.1115    0.0000 C   0  0  0  0  0  0  0  0  0  0  0  0
  -15.1837   22.3022    0.0000 C   0  0  0  0  0  0  0  0  0  0  0  0
  -16.3997   21.4239    0.0000 C   0  0  0  0  0  0  0  0  0  0  0  0
  -17.5650   20.4794    0.0000 C   0  0  0  0  0  0  0  0  0  0  0  0
  -18.6760   19.4715    0.0000 C   0  0  0  0  0  0  0  0  0  0  0  0
  -19.7293   18.4035    0.0000 C   0  0  0  0  0  0  0  0  0  0  0  0
  -20.7215   17.2786    0.0000 C   0  0  0  0  0  0  0  0  0  0  0  0
  -21.6498   16.1003    0.0000 C   0  0  0  0  0  0  0  0  0  0  0  0
  -22.5111   14.8723    0.0000 C   0  0  0  0  0  0  0  0  0  0  0  0
  -23.3028   13.5982    0.0000 C   0  0  0  0  0  0  0  0  0  0  0  0
  -24.0225   12.2822    0.0000 C   0  0  0  0  0  0  0  0  0  0  0  0
  -24.6680   10.9281    0.0000 C   0  0  0  0  0  0  0  0  0  0  0  0
  -25.2372    9.5403    0.0000 C   0  0  0  0  0  0  0  0  0  0  0  0
  -25.7284    8.1230    0.0000 C   0  0  0  0  0  0  0  0  0  0  0  0
  -26.1401    6.6806    0.0000 C   0  0  0  0  0  0  0  0  0  0  0  0
  -26.4709    5.2176    0.0000 C   0  0  0  0  0  0  0  0  0  0  0  0
  -26.7200    3.7384    0.0000 C   0  0  0  0  0  0  0  0  0  0  0  0
  -26.8864    2.2477    0.0000 C   0  0  0  0  0  0  0  0  0  0  0  0
  -26.9698    0.7500    0.0000 C   0  0  0  0  0  0  0  0  0  0  0  0
  -26.9698   -0.7500    0.0000 C   0  0  0  0  0  0  0  0  0  0  0  0
  -26.8864   -2.2477    0.0000 C   0  0  0  0  0  0  0  0  0  0  0  0
  -26.7200   -3.7384    0.0000 C   0  0  0  0  0  0  0  0  0  0  0  0
  -26.4709   -5.2176    0.0000 C   0  0  0  0  0  0  0  0  0  0  0  0
  -26.1401   -6.6806    0.0000 C   0  0  0  0  0  0  0  0  0  0  0  0
  -25.7284   -8.1230    0.0000 C   0  0  0  0  0  0  0  0  0  0  0  0
  -25.2372   -9.5403    0.0000 C   0  0  0  0  0  0  0  0  0  0  0  0
  -24.6680  -10.9281    0.0000 C   0  0  0  0  0  0  0  0  0  0  0  0
  -24.0225  -12.2822    0.0000 C   0  0  0  0  0  0  0  0  0  0  0  0
  -23.3028  -13.5982    0.0000 C   0  0  0  0  0  0  0  0  0  0  0  0
  -22.5111  -14.8723    0.0000 C   0  0  0  0  0  0  0  0  0  0  0  0
  -21.6498  -16.1003    0.0000 C   0  0  0  0  0  0  0  0  0  0  0  0
  -20.7215  -17.2786    0.0000 C   0  0  0  0  0  0  0  0  0  0  0  0
  -19.7293  -18.4035    0.0000 C   0  0  0  0  0  0  0  0  0  0  0  0
  -18.6760  -19.4715    0.0000 C   0  0  0  0  0  0  0  0  0  0  0  0
  -17.5650  -20.4794    0.0000 C   0  0  0  0  0  0  0  0  0  0  0  0
  -16.3997  -21.4239    0.0000 C   0  0  0  0  0  0  0  0  0  0  0  0
  -15.1837  -22.3022    0.0000 C   0  0  0  0  0  0  0  0  0  0  0  0
  -13.9208  -23.1115    0.0000 C   0  0  0  0  0  0  0  0  0  0  0  0
  -12.6149  -23.8495    0.0000 C   0  0  0  0  0  0  0  0  0  0  0  0
  -11.2700  -24.5137    0.0000 C   0  0  0  0  0  0  0  0  0  0  0  0
   -9.8902  -25.1021    0.0000 C   0  0  0  0  0  0  0  0  0  0  0  0
   -8.4799  -25.6130    0.0000 C   0  0  0  0  0  0  0  0  0  0  0  0
   -7.0434  -26.0447    0.0000 C   0  0  0  0  0  0  0  0  0  0  0  0
   -5.5850  -26.3958    0.0000 C   0  0  0  0  0  0  0  0  0  0  0  0
   -4.1095  -26.6654    0.0000 C   0  0  0  0  0  0  0  0  0  0  0  0
   -2.6212  -26.8526    0.0000 C   0  0  0  0  0  0  0  0  0  0  0  0
   -1.1248  -26.9568    0.0000 C   0  0  0  0  0  0  0  0  0  0  0  0
    0.3750  -26.9776    0.0000 C   0  0  0  0  0  0  0  0  0  0  0  0
    1.8737  -26.9151    0.0000 C   0  0  0  0  0  0  0  0  0  0  0  0
    3.3666  -26.7694    0.0000 C   0  0  0  0  0  0  0  0  0  0  0  0
    4.8491  -26.5409    0.0000 C   0  0  0  0  0  0  0  0  0  0  0  0
    6.3166  -26.2304    0.0000 C   0  0  0  0  0  0  0  0  0  0  0  0
    7.7646  -25.8388    0.0000 C   0  0  0  0  0  0  0  0  0  0  0  0
    9.1886  -25.3674    0.0000 C   0  0  0  0  0  0  0  0  0  0  0  0
   10.5842  -24.8175    0.0000 C   0  0  0  0  0  0  0  0  0  0  0  0
   11.9471  -24.1909    0.0000 C   0  0  0  0  0  0  0  0  0  0  0  0
   13.2730  -23.4896    0.0000 C   0  0  0  0  0  0  0  0  0  0  0  0
   14.5579  -22.7156    0.0000 C   0  0  0  0  0  0  0  0  0  0  0  0
   15.7978  -21.8715    0.0000 C   0  0  0  0  0  0  0  0  0  0  0  0
   16.9889  -20.9597    0.0000 C   0  0  0  0  0  0  0  0  0  0  0  0
   18.1275  -19.9832    0.0000 C   0  0  0  0  0  0  0  0  0  0  0  0
   19.2100  -18.9449    0.0000 C   0  0  0  0  0  0  0  0  0  0  0  0
   20.2332  -17.8480    0.0000 C   0  0  0  0  0  0  0  0  0  0  0  0
   21.1938  -16.6959    0.0000 C   0  0  0  0  0  0  0  0  0  0  0  0
   22.0890  -15.4923    0.0000 C   0  0  0  0  0  0  0  0  0  0  0  0
   22.9158  -14.2408    0.0000 C   0  0  0  0  0  0  0  0  0  0  0  0
   23.6718  -12.9452    0.0000 C   0  0  0  0  0  0  0  0  0  0  0  0
   24.3547  -11.6096    0.0000 C   0  0  0  0  0  0  0  0  0  0  0  0
   24.9622  -10.2382    0.0000 C   0  0  0  0  0  0  0  0  0  0  0  0
   25.4926   -8.8351    0.0000 C   0  0  0  0  0  0  0  0  0  0  0  0
   25.9442   -7.4047    0.0000 C   0  0  0  0  0  0  0  0  0  0  0  0
   26.3157   -5.9514    0.0000 C   0  0  0  0  0  0  0  0  0  0  0  0
   26.6057   -4.4797    0.0000 C   0  0  0  0  0  0  0  0  0  0  0  0
   26.8136   -2.9942    0.0000 C   0  0  0  0  0  0  0  0  0  0  0  0
   26.9385   -1.4994    0.0000 C   0  0  0  0  0  0  0  0  0  0  0  0
  1  2  1  0
  2  3  1  0
  3  4  1  0
  4  5  1  0
  5  6  1  0
  6  7  1  0
  7  8  1  0
  8  9  1  0
  9 10  1  0
 10 11  1  0
 11 12  1  0
 12 13  1  0
 13 14  1  0
 14 15  1  0
 15 16  1  0
 16 17  1  0
 17 18  1  0
 18 19  1  0
 19 20  1  0
 20 21  1  0
 21 22  1  0
 22 23  1  0
 23 24  1  0
 24 25  1  0
 25 26  1  0
 26 27  1  0
 27 28  1  0
 28 29  1  0
 29 30  1  0
 30 31  1  0
 31 32  1  0
 32 33  1  0
 33 34  1  0
 34 35  1  0
 35 36  1  0
 36 37  1  0
 37 38  1  0
 38 39  1  0
 39 40  1  0
 40 41  1  0
 41 42  1  0
 42 43  1  0
 43 44  1  0
 44 45  1  0
 45 46  1  0
 46 47  1  0
 47 48  1  0
 48 49  1  0
 49 50  1  0
 50 51  1  0
 51 52  1  0
 52 53  1  0
 53 54  1  0
 54 55  1  0
 55 56  1  0
 56 57  1  0
 57 58  1  0
 58 59  1  0
 59 60  1  0
 60 61  1  0
 61 62  1  0
 62 63  1  0
 63 64  1  0
 64 65  1  0
 65 66  1  0
 66 67  1  0
 67 68  1  0
 68 69  1  0
 69 70  1  0
 70 71  1  0
 71 72  1  0
 72 73  1  0
 73 74  1  0
 74 75  1  0
 75 76  1  0
 76 77  1  0
 77 78  1  0
 78 79  1  0
 79 80  1  0
 80 81  1  0
 81 82  1  0
 82 83  1  0
 83 84  1  0
 84 85  1  0
 85 86  1  0
 86 87  1  0
 87 88  1  0
 88 89  1  0
 89 90  1  0
 90 91  1  0
 91 92  1  0
 92 93  1  0
 93 94  1  0
 94 95  1  0
 95 96  1  0
 96 97  1  0
 97 98  1  0
 98 99  1  0
 99100  1  0
100101  1  0
101102  1  0
102103  1  0
103104  1  0
104105  1  0
105106  1  0
106107  1  0
107108  1  0
108109  1  0
109110  1  0
110111  1  0
111112  1  0
112113  1  0
113114  1  0
114  2  1  0
M  END
>  <Title>  (140) 
idAADLgen9

$$$$

     RDKit          2D

 17 18  0  0  0  0  0  0  0  0999 V2000
   -0.7500   -3.8971    0.0000 O   0  0  0  0  0  0  0  0  0  0  0  0
    0.7500   -3.8971    0.0000 C   0  0  0  0  0  0  0  0  0  0  0  0
    1.5000   -2.5981    0.0000 N   0  0  0  0  0  0  0  0  0  0  0  0
    0.7500   -1.2990    0.0000 C   0  0  0  0  0  0  0  0  0  0  0  0
    1.5000    0.0000    0.0000 N   0  0  0  0  0  0  0  0  0  0  0  0
    0.7500    1.2990    0.0000 N   0  0  0  0  0  0  0  0  0  0  0  0
   -0.7500    1.2990    0.0000 N   0  0  0  0  0  0  0  0  0  0  0  0
   -1.5000    0.0000    0.0000 N   0  0  0  0  0  0  0  0  0  0  0  0
   -0.7500   -1.2990    0.0000 N   0  0  0  0  0  0  0  0  0  0  0  0
    1.5000   -5.1962    0.0000 C   0  0  0  0  0  0  0  0  0  0  0  0
    2.9918   -5.3529    0.0000 C   0  0  0  0  0  0  0  0  0  0  0  0
    3.3037   -6.8202    0.0000 C   0  0  0  0  0  0  0  0  0  0  0  0
    2.0046   -7.5702    0.0000 N   0  0  0  0  0  0  0  0  0  0  0  0
    1.8478   -9.0619    0.0000 C   0  0  0  0  0  0  0  0  0  0  0  0
    3.0613   -9.9436    0.0000 O   0  0  0  0  0  0  0  0  0  0  0  0
    0.4775   -9.6721    0.0000 O   0  0  0  0  0  0  0  0  0  0  0  0
    0.8899   -6.5665    0.0000 C   0  0  0  0  0  0  0  0  0  0  0  0
  1  2  2  0
  2  3  1  0
  3  4  1  0
  4  5  2  0
  5  6  1  0
  6  7  2  0
  7  8  1  0
  8  9  2  0
  2 10  1  0
 10 11  1  0
 11 12  1  0
 12 13  1  0
 13 14  1  0
 14 15  2  0
 14 16  1  0
 13 17  1  0
  9  4  1  0
 17 10  1  0
M  END
>  <Title>  (141) 
idAADMgen9

$$$$

     RDKit          2D

 15 16  0  0  0  0  0  0  0  0999 V2000
   -1.0607   -9.6313    0.0000 C   0  0  0  0  0  0  0  0  0  0  0  0
   -0.3107   -8.3323    0.0000 C   0  0  0  0  0  0  0  0  0  0  0  0
   -0.6989   -6.8834    0.0000 C   0  0  0  0  0  0  0  0  0  0  0  0
    0.7500   -6.4952    0.0000 C   0  0  0  0  0  0  0  0  0  0  0  0
    1.5000   -5.1962    0.0000 C   0  0  0  0  0  0  0  0  0  0  0  0
    3.0000   -5.1962    0.0000 O   0  0  0  0  0  0  0  0  0  0  0  0
    0.7500   -3.8971    0.0000 O   0  0  0  0  0  0  0  0  0  0  0  0
    1.5000   -2.5981    0.0000 C   0  0  0  0  0  0  0  0  0  0  0  0
    0.7500   -1.2990    0.0000 C   0  0  0  0  0  0  0  0  0  0  0  0
    1.5000    0.0000    0.0000 C   0  0  0  0  0  0  0  0  0  0  0  0
    0.7500    1.2990    0.0000 C   0  0  0  0  0  0  0  0  0  0  0  0
   -0.7500    1.2990    0.0000 C   0  0  0  0  0  0  0  0  0  0  0  0
   -1.5000    0.0000    0.0000 C   0  0  0  0  0  0  0  0  0  0  0  0
   -0.7500   -1.2990    0.0000 C   0  0  0  0  0  0  0  0  0  0  0  0
    1.1382   -7.9441    0.0000 C   0  0  0  0  0  0  0  0  0  0  0  0
  1  2  1  0
  2  3  2  0
  3  4  1  0
  4  5  1  0
  5  6  2  0
  5  7  1  0
  7  8  1  0
  8  9  1  0
  9 10  2  0
 10 11  1  0
 11 12  2  0
 12 13  1  0
 13 14  2  0
  4 15  2  0
 15  2  1  0
 14  9  1  0
M  END
>  <Title>  (142) 
idAADNgen9

$$$$

     RDKit          2D

 26 28  0  0  0  0  0  0  0  0999 V2000
   -3.1097   -0.9884    0.0000 C   0  0  0  0  0  0  0  0  0  0  0  0
   -2.0490   -2.0490    0.0000 C   0  0  0  0  0  0  0  0  0  0  0  0
   -2.7990   -3.3481    0.0000 C   0  0  0  0  0  0  0  0  0  0  0  0
   -2.7990   -4.8481    0.0000 C   0  0  0  0  0  0  0  0  0  0  0  0
   -2.0490   -6.1471    0.0000 C   0  0  0  0  0  0  0  0  0  0  0  0
   -0.7500   -6.8971    0.0000 C   0  0  0  0  0  0  0  0  0  0  0  0
    0.7500   -6.8971    0.0000 C   0  0  0  0  0  0  0  0  0  0  0  0
    2.0490   -6.1471    0.0000 C   0  0  0  0  0  0  0  0  0  0  0  0
    2.7990   -4.8481    0.0000 C   0  0  0  0  0  0  0  0  0  0  0  0
    2.7990   -3.3481    0.0000 C   0  0  0  0  0  0  0  0  0  0  0  0
    2.0490   -2.0490    0.0000 C   0  0  0  0  0  0  0  0  0  0  0  0
    3.1097   -0.9884    0.0000 C   0  0  0  0  0  0  0  0  0  0  0  0
    2.7215    0.4605    0.0000 O   0  0  0  0  0  0  0  0  0  0  0  0
    4.5586   -1.3766    0.0000 N   0  0  0  0  0  0  0  0  0  0  0  0
    5.6192   -0.3159    0.0000 C   0  0  0  0  0  0  0  0  0  0  0  0
    7.0681   -0.7042    0.0000 N   0  0  0  0  0  0  0  0  0  0  0  0
    8.1288    0.3565    0.0000 N   0  0  0  0  0  0  0  0  0  0  0  0
    7.7406    1.8054    0.0000 N   0  0  0  0  0  0  0  0  0  0  0  0
    6.2917    2.1936    0.0000 N   0  0  0  0  0  0  0  0  0  0  0  0
    5.2310    1.1329    0.0000 N   0  0  0  0  0  0  0  0  0  0  0  0
    0.7500   -1.2990    0.0000 C   0  0  0  0  0  0  0  0  0  0  0  0
    1.5000    0.0000    0.0000 C   0  0  0  0  0  0  0  0  0  0  0  0
    0.7500    1.2990    0.0000 C   0  0  0  0  0  0  0  0  0  0  0  0
   -0.7500    1.2990    0.0000 C   0  0  0  0  0  0  0  0  0  0  0  0
   -1.5000    0.0000    0.0000 C   0  0  0  0  0  0  0  0  0  0  0  0
   -0.7500   -1.2990    0.0000 C   0  0  0  0  0  0  0  0  0  0  0  0
  1  2  1  0
  2  3  1  0
  3  4  2  0
  4  5  1  0
  5  6  2  0
  6  7  1  0
  7  8  2  0
  8  9  1  0
  9 10  2  0
 10 11  1  0
 11 12  1  0
 12 13  2  0
 12 14  1  0
 14 15  1  0
 15 16  2  0
 16 17  1  0
 17 18  2  0
 18 19  1  0
 19 20  2  0
 11 21  1  0
 21 22  2  0
 22 23  1  0
 23 24  2  0
 24 25  1  0
 25 26  2  0
 26  2  1  0
 20 15  1  0
 26 21  1  0
M  END
>  <Title>  (143) 
idAADOgen9

$$$$

     RDKit          2D

 62 71  0  0  0  0  0  0  0  0999 V2000
    4.9965   -7.7991    0.0000 C   0  0  0  0  0  0  0  0  0  0  0  0
    3.6537   -7.1305    0.0000 C   0  0  0  0  0  0  0  0  0  0  0  0
    4.0642   -5.6878    0.0000 C   0  0  0  0  0  0  0  0  0  0  0  0
    3.9258   -4.1942    0.0000 C   0  0  0  0  0  0  0  0  0  0  0  0
    3.2572   -2.8514    0.0000 C   0  0  0  0  0  0  0  0  0  0  0  0
    4.4542   -1.9475    0.0000 C   0  0  0  0  0  0  0  0  0  0  0  0
    4.2699   -0.4589    0.0000 O   0  0  0  0  0  0  0  0  0  0  0  0
    5.8356   -2.5322    0.0000 N   0  0  0  0  0  0  0  0  0  0  0  0
    7.0326   -1.6282    0.0000 C   0  0  0  0  0  0  0  0  0  0  0  0
    7.0049   -0.1285    0.0000 N   0  0  0  0  0  0  0  0  0  0  0  0
    8.4227    0.3613    0.0000 N   0  0  0  0  0  0  0  0  0  0  0  0
    9.3266   -0.8357    0.0000 N   0  0  0  0  0  0  0  0  0  0  0  0
    8.4675   -2.0653    0.0000 N   0  0  0  0  0  0  0  0  0  0  0  0
    8.9573   -3.4831    0.0000 C   0  0  0  0  0  0  0  0  0  0  0  0
    7.9744   -4.6162    0.0000 C   0  0  0  0  0  0  0  0  0  0  0  0
    8.4642   -6.0339    0.0000 C   0  0  0  0  0  0  0  0  0  0  0  0
    9.9370   -6.3186    0.0000 C   0  0  0  0  0  0  0  0  0  0  0  0
   10.9199   -5.1856    0.0000 C   0  0  0  0  0  0  0  0  0  0  0  0
   10.4301   -3.7678    0.0000 C   0  0  0  0  0  0  0  0  0  0  0  0
   11.4130   -2.6347    0.0000 C   0  0  0  0  0  0  0  0  0  0  0  0
   12.8857   -2.9194    0.0000 C   0  0  0  0  0  0  0  0  0  0  0  0
   13.8687   -1.7863    0.0000 C   0  0  0  0  0  0  0  0  0  0  0  0
   13.3789   -0.3686    0.0000 C   0  0  0  0  0  0  0  0  0  0  0  0
   11.9061   -0.0839    0.0000 C   0  0  0  0  0  0  0  0  0  0  0  0
   10.9232   -1.2169    0.0000 C   0  0  0  0  0  0  0  0  0  0  0  0
    2.1487   -1.8409    0.0000 O   0  0  0  0  0  0  0  0  0  0  0  0
    0.7500   -1.2990    0.0000 C   0  0  0  0  0  0  0  0  0  0  0  0
    1.5000    0.0000    0.0000 C   0  0  0  0  0  0  0  0  0  0  0  0
    0.7500    1.2990    0.0000 C   0  0  0  0  0  0  0  0  0  0  0  0
   -0.7500    1.2990    0.0000 C   0  0  0  0  0  0  0  0  0  0  0  0
   -1.5000    0.0000    0.0000 C   0  0  0  0  0  0  0  0  0  0  0  0
   -0.7500   -1.2990    0.0000 C   0  0  0  0  0  0  0  0  0  0  0  0
   -2.1487   -1.8409    0.0000 C   0  0  0  0  0  0  0  0  0  0  0  0
   -2.4696   -0.3756    0.0000 C   0  0  0  0  0  0  0  0  0  0  0  0
   -3.8990    0.0791    0.0000 C   0  0  0  0  0  0  0  0  0  0  0  0
   -5.0075   -0.9314    0.0000 C   0  0  0  0  0  0  0  0  0  0  0  0
   -4.6866   -2.3967    0.0000 C   0  0  0  0  0  0  0  0  0  0  0  0
   -3.2572   -2.8514    0.0000 C   0  0  0  0  0  0  0  0  0  0  0  0
   -3.9258   -4.1942    0.0000 C   0  0  0  0  0  0  0  0  0  0  0  0
   -5.1501   -3.3275    0.0000 C   0  0  0  0  0  0  0  0  0  0  0  0
   -6.5128   -3.9545    0.0000 C   0  0  0  0  0  0  0  0  0  0  0  0
   -6.6512   -5.4481    0.0000 C   0  0  0  0  0  0  0  0  0  0  0  0
   -5.4269   -6.3147    0.0000 C   0  0  0  0  0  0  0  0  0  0  0  0
   -4.0642   -5.6878    0.0000 C   0  0  0  0  0  0  0  0  0  0  0  0
   -3.6537   -7.1305    0.0000 C   0  0  0  0  0  0  0  0  0  0  0  0
   -5.1424   -7.3149    0.0000 C   0  0  0  0  0  0  0  0  0  0  0  0
   -5.7270   -8.6962    0.0000 C   0  0  0  0  0  0  0  0  0  0  0  0
   -4.8231   -9.8932    0.0000 C   0  0  0  0  0  0  0  0  0  0  0  0
   -3.3345   -9.7089    0.0000 C   0  0  0  0  0  0  0  0  0  0  0  0
   -2.7498   -8.3276    0.0000 C   0  0  0  0  0  0  0  0  0  0  0  0
   -1.4745   -9.1172    0.0000 C   0  0  0  0  0  0  0  0  0  0  0  0
   -2.4504  -10.2563    0.0000 C   0  0  0  0  0  0  0  0  0  0  0  0
   -1.9519  -11.6710    0.0000 C   0  0  0  0  0  0  0  0  0  0  0  0
   -0.4774  -11.9467    0.0000 C   0  0  0  0  0  0  0  0  0  0  0  0
    0.4985  -10.8076    0.0000 C   0  0  0  0  0  0  0  0  0  0  0  0
   -0.0000   -9.3928    0.0000 C   0  0  0  0  0  0  0  0  0  0  0  0
    1.4745   -9.1172    0.0000 C   0  0  0  0  0  0  0  0  0  0  0  0
    1.5207  -10.6165    0.0000 C   0  0  0  0  0  0  0  0  0  0  0  0
    2.8422  -11.3261    0.0000 C   0  0  0  0  0  0  0  0  0  0  0  0
    4.1175  -10.5365    0.0000 C   0  0  0  0  0  0  0  0  0  0  0  0
    4.0713   -9.0372    0.0000 C   0  0  0  0  0  0  0  0  0  0  0  0
    2.7498   -8.3276    0.0000 C   0  0  0  0  0  0  0  0  0  0  0  0
  1  2  1  0
  2  3  1  0
  3  4  1  0
  4  5  1  0
  5  6  1  0
  6  7  2  0
  6  8  1  0
  8  9  1  0
  9 10  2  0
 10 11  1  0
 11 12  2  0
 12 13  1  0
 13 14  1  0
 14 15  2  0
 15 16  1  0
 16 17  2  0
 17 18  1  0
 18 19  2  0
 19 20  1  0
 20 21  2  0
 21 22  1  0
 22 23  2  0
 23 24  1  0
 24 25  2  0
  5 26  1  0
 26 27  1  0
 27 28  2  0
 28 29  1  0
 29 30  2  0
 30 31  1  0
 31 32  2  0
 32 33  1  0
 33 34  2  0
 34 35  1  0
 35 36  2  0
 36 37  1  0
 37 38  2  0
 38 39  1  0
 39 40  2  0
 40 41  1  0
 41 42  2  0
 42 43  1  0
 43 44  2  0
 44 45  1  0
 45 46  2  0
 46 47  1  0
 47 48  2  0
 48 49  1  0
 49 50  2  0
 50 51  1  0
 51 52  2  0
 52 53  1  0
 53 54  2  0
 54 55  1  0
 55 56  2  0
 56 57  1  0
 57 58  2  0
 58 59  1  0
 59 60  2  0
 60 61  1  0
 61 62  2  0
 62  2  1  0
 13  9  1  0
 19 14  1  0
 25 20  1  0
 32 27  1  0
 38 33  1  0
 44 39  1  0
 50 45  1  0
 56 51  1  0
 62 57  1  0
M  END
>  <Title>  (144) 
idAADPgen9

$$$$

     RDKit          2D

 10 10  0  0  0  0  0  0  0  0999 V2000
    3.5260    1.2990    0.0000 O   0  0  0  0  0  0  0  0  0  0  0  0
    2.7760    0.0000    0.0000 C   0  0  0  0  0  0  0  0  0  0  0  0
    3.5260   -1.2990    0.0000 O   0  0  0  0  0  0  0  0  0  0  0  0
    1.2760    0.0000    0.0000 C   0  0  0  0  0  0  0  0  0  0  0  0
    0.3943    1.2135    0.0000 N   0  0  0  0  0  0  0  0  0  0  0  0
   -1.0323    0.7500    0.0000 C   0  0  0  0  0  0  0  0  0  0  0  0
   -2.2458    1.6317    0.0000 C   0  0  0  0  0  0  0  0  0  0  0  0
   -2.0890    3.1235    0.0000 O   0  0  0  0  0  0  0  0  0  0  0  0
   -1.0323   -0.7500    0.0000 C   0  0  0  0  0  0  0  0  0  0  0  0
    0.3943   -1.2135    0.0000 O   0  0  0  0  0  0  0  0  0  0  0  0
  1  2  2  0
  2  3  1  0
  2  4  1  0
  4  5  1  0
  5  6  1  0
  6  7  1  0
  7  8  1  0
  6  9  1  0
  9 10  1  0
 10  4  1  0
M  END
>  <Title>  (145) 
idAADQgen9

$$$$

     RDKit          2D

 50 57  0  0  0  0  0  0  0  0999 V2000
   -1.0355    9.1101    0.0000 C   0  0  0  0  0  0  0  0  0  0  0  0
   -0.3846    7.7586    0.0000 C   0  0  0  0  0  0  0  0  0  0  0  0
    1.0777    8.0924    0.0000 C   0  0  0  0  0  0  0  0  0  0  0  0
    2.5401    7.7586    0.0000 C   0  0  0  0  0  0  0  0  0  0  0  0
    3.7129    6.8234    0.0000 C   0  0  0  0  0  0  0  0  0  0  0  0
    4.8856    7.7586    0.0000 C   0  0  0  0  0  0  0  0  0  0  0  0
    6.2819    7.2106    0.0000 O   0  0  0  0  0  0  0  0  0  0  0  0
    4.6621    9.2419    0.0000 N   0  0  0  0  0  0  0  0  0  0  0  0
    5.8348   10.1771    0.0000 C   0  0  0  0  0  0  0  0  0  0  0  0
    7.2808    9.7780    0.0000 N   0  0  0  0  0  0  0  0  0  0  0  0
    8.1071   11.0299    0.0000 N   0  0  0  0  0  0  0  0  0  0  0  0
    7.1719   12.2026    0.0000 N   0  0  0  0  0  0  0  0  0  0  0  0
    5.7675   11.6756    0.0000 N   0  0  0  0  0  0  0  0  0  0  0  0
    4.5157   12.5019    0.0000 C   0  0  0  0  0  0  0  0  0  0  0  0
    3.1741   11.8310    0.0000 C   0  0  0  0  0  0  0  0  0  0  0  0
    1.9222   12.6573    0.0000 C   0  0  0  0  0  0  0  0  0  0  0  0
    2.0119   14.1546    0.0000 C   0  0  0  0  0  0  0  0  0  0  0  0
    3.3535   14.8256    0.0000 C   0  0  0  0  0  0  0  0  0  0  0  0
    4.6054   13.9992    0.0000 C   0  0  0  0  0  0  0  0  0  0  0  0
    4.3637    5.4719    0.0000 C   0  0  0  0  0  0  0  0  0  0  0  0
    5.6628    6.2219    0.0000 C   0  0  0  0  0  0  0  0  0  0  0  0
    6.9618    5.4719    0.0000 C   0  0  0  0  0  0  0  0  0  0  0  0
    6.9618    3.9719    0.0000 C   0  0  0  0  0  0  0  0  0  0  0  0
    5.6628    3.2219    0.0000 C   0  0  0  0  0  0  0  0  0  0  0  0
    4.3637    3.9719    0.0000 C   0  0  0  0  0  0  0  0  0  0  0  0
    3.7129    2.6205    0.0000 C   0  0  0  0  0  0  0  0  0  0  0  0
    5.1092    2.0725    0.0000 C   0  0  0  0  0  0  0  0  0  0  0  0
    5.3328    0.5892    0.0000 C   0  0  0  0  0  0  0  0  0  0  0  0
    4.1600   -0.3460    0.0000 C   0  0  0  0  0  0  0  0  0  0  0  0
    2.7637    0.2020    0.0000 C   0  0  0  0  0  0  0  0  0  0  0  0
    2.5401    1.6852    0.0000 C   0  0  0  0  0  0  0  0  0  0  0  0
    1.0777    1.3515    0.0000 C   0  0  0  0  0  0  0  0  0  0  0  0
    1.7286    0.0000    0.0000 C   0  0  0  0  0  0  0  0  0  0  0  0
    1.0777   -1.3515    0.0000 C   0  0  0  0  0  0  0  0  0  0  0  0
   -0.3846   -1.6852    0.0000 C   0  0  0  0  0  0  0  0  0  0  0  0
   -1.5574   -0.7500    0.0000 C   0  0  0  0  0  0  0  0  0  0  0  0
   -1.5574    0.7500    0.0000 C   0  0  0  0  0  0  0  0  0  0  0  0
   -0.3846    1.6852    0.0000 C   0  0  0  0  0  0  0  0  0  0  0  0
   -1.5574    2.6205    0.0000 C   0  0  0  0  0  0  0  0  0  0  0  0
   -2.4024    1.3811    0.0000 C   0  0  0  0  0  0  0  0  0  0  0  0
   -3.8982    1.4932    0.0000 C   0  0  0  0  0  0  0  0  0  0  0  0
   -4.5490    2.8447    0.0000 C   0  0  0  0  0  0  0  0  0  0  0  0
   -3.7040    4.0840    0.0000 C   0  0  0  0  0  0  0  0  0  0  0  0
   -2.2082    3.9719    0.0000 C   0  0  0  0  0  0  0  0  0  0  0  0
   -2.2082    5.4719    0.0000 C   0  0  0  0  0  0  0  0  0  0  0  0
   -3.7040    5.3598    0.0000 C   0  0  0  0  0  0  0  0  0  0  0  0
   -4.5490    6.5992    0.0000 C   0  0  0  0  0  0  0  0  0  0  0  0
   -3.8982    7.9506    0.0000 C   0  0  0  0  0  0  0  0  0  0  0  0
   -2.4024    8.0627    0.0000 C   0  0  0  0  0  0  0  0  0  0  0  0
   -1.5574    6.8234    0.0000 C   0  0  0  0  0  0  0  0  0  0  0  0
  1  2  1  0
  2  3  2  0
  3  4  1  0
  4  5  2  0
  5  6  1  0
  6  7  2  0
  6  8  1  0
  8  9  1  0
  9 10  2  0
 10 11  1  0
 11 12  2  0
 12 13  1  0
 13 14  1  0
 14 15  2  0
 15 16  1  0
 16 17  2  0
 17 18  1  0
 18 19  2  0
  5 20  1  0
 20 21  2  0
 21 22  1  0
 22 23  2  0
 23 24  1  0
 24 25  2  0
 25 26  1  0
 26 27  2  0
 27 28  1  0
 28 29  2  0
 29 30  1  0
 30 31  2  0
 31 32  1  0
 32 33  2  0
 33 34  1  0
 34 35  1  0
 35 36  1  0
 36 37  1  0
 37 38  2  0
 38 39  1  0
 39 40  2  0
 40 41  1  0
 41 42  2  0
 42 43  1  0
 43 44  2  0
 44 45  1  0
 45 46  2  0
 46 47  1  0
 47 48  2  0
 48 49  1  0
 49 50  2  0
 50  2  1  0
 13  9  1  0
 19 14  1  0
 25 20  1  0
 31 26  1  0
 38 32  1  0
 44 39  1  0
 50 45  1  0
M  END
>  <Title>  (146) 
idAADRgen9

$$$$

     RDKit          2D

 10 10  0  0  0  0  0  0  0  0999 V2000
    3.0000   -2.5981    0.0000 O   0  0  0  0  0  0  0  0  0  0  0  0
    3.7500   -1.2990    0.0000 C   0  0  0  0  0  0  0  0  0  0  0  0
    5.2500   -1.2990    0.0000 O   0  0  0  0  0  0  0  0  0  0  0  0
    3.0000    0.0000    0.0000 O   0  0  0  0  0  0  0  0  0  0  0  0
    1.5000    0.0000    0.0000 C   0  0  0  0  0  0  0  0  0  0  0  0
    0.7500   -1.2990    0.0000 C   0  0  0  0  0  0  0  0  0  0  0  0
   -0.7500   -1.2990    0.0000 C   0  0  0  0  0  0  0  0  0  0  0  0
   -1.5000    0.0000    0.0000 C   0  0  0  0  0  0  0  0  0  0  0  0
   -0.7500    1.2990    0.0000 C   0  0  0  0  0  0  0  0  0  0  0  0
    0.7500    1.2990    0.0000 C   0  0  0  0  0  0  0  0  0  0  0  0
  1  2  2  0
  2  3  1  0
  2  4  1  0
  4  5  1  0
  5  6  1  0
  6  7  2  0
  7  8  1  0
  8  9  1  0
  9 10  1  0
 10  5  1  0
M  END
>  <Title>  (147) 
idAADSgen9

$$$$

     RDKit          2D

 12 11  0  0  0  0  0  0  0  0999 V2000
    0.0000    0.0000    0.0000 C   0  0  0  0  0  0  0  0  0  0  0  0
   -0.0000   -1.5000    0.0000 C   0  0  0  0  0  0  0  0  0  0  0  0
   -0.0000   -3.0000    0.0000 C   0  0  0  0  0  0  0  0  0  0  0  0
   -0.0000   -4.5000    0.0000 C   0  0  0  0  0  0  0  0  0  0  0  0
   -0.0000   -6.0000    0.0000 C   0  0  0  0  0  0  0  0  0  0  0  0
   -0.0000   -7.5000    0.0000 C   0  0  0  0  0  0  0  0  0  0  0  0
   -0.0000   -9.0000    0.0000 C   0  0  0  0  0  0  0  0  0  0  0  0
   -0.0000  -10.5000    0.0000 C   0  0  0  0  0  0  0  0  0  0  0  0
   -0.0000  -12.0000    0.0000 C   0  0  0  0  0  0  0  0  0  0  0  0
   -0.0000  -13.5000    0.0000 C   0  0  0  0  0  0  0  0  0  0  0  0
   -0.0000  -15.0000    0.0000 C   0  0  0  0  0  0  0  0  0  0  0  0
    1.2990  -15.7500    0.0000 C   0  0  0  0  0  0  0  0  0  0  0  0
  1  2  3  0
  2  3  1  0
  3  4  3  0
  4  5  1  0
  5  6  3  0
  6  7  1  0
  7  8  3  0
  8  9  1  0
  9 10  3  0
 10 11  1  0
 11 12  1  0
M  END
>  <Title>  (148) 
idAADTgen9

$$$$

     RDKit          2D

 70 80  0  0  0  0  0  0  0  0999 V2000
    8.2887   -2.7278    0.0000 C   0  0  0  0  0  0  0  0  0  0  0  0
    6.8494   -3.1504    0.0000 C   0  0  0  0  0  0  0  0  0  0  0  0
    6.4958   -4.6081    0.0000 C   0  0  0  0  0  0  0  0  0  0  0  0
    5.0565   -5.0307    0.0000 C   0  0  0  0  0  0  0  0  0  0  0  0
    4.4334   -3.6662    0.0000 C   0  0  0  0  0  0  0  0  0  0  0  0
    3.4511   -2.5326    0.0000 C   0  0  0  0  0  0  0  0  0  0  0  0
    2.1892   -1.7216    0.0000 C   0  0  0  0  0  0  0  0  0  0  0  0
    2.8124   -0.3572    0.0000 C   0  0  0  0  0  0  0  0  0  0  0  0
    1.9423    0.8647    0.0000 O   0  0  0  0  0  0  0  0  0  0  0  0
    4.3056   -0.2146    0.0000 N   0  0  0  0  0  0  0  0  0  0  0  0
    4.9287    1.1498    0.0000 C   0  0  0  0  0  0  0  0  0  0  0  0
    6.4219    1.2924    0.0000 N   0  0  0  0  0  0  0  0  0  0  0  0
    7.0450    2.6569    0.0000 N   0  0  0  0  0  0  0  0  0  0  0  0
    6.1749    3.8787    0.0000 N   0  0  0  0  0  0  0  0  0  0  0  0
    4.6817    3.7362    0.0000 N   0  0  0  0  0  0  0  0  0  0  0  0
    4.0586    2.3717    0.0000 N   0  0  0  0  0  0  0  0  0  0  0  0
    0.7500   -1.2990    0.0000 C   0  0  0  0  0  0  0  0  0  0  0  0
    1.5000    0.0000    0.0000 C   0  0  0  0  0  0  0  0  0  0  0  0
    0.7500    1.2990    0.0000 C   0  0  0  0  0  0  0  0  0  0  0  0
   -0.7500    1.2990    0.0000 C   0  0  0  0  0  0  0  0  0  0  0  0
   -1.5000    0.0000    0.0000 C   0  0  0  0  0  0  0  0  0  0  0  0
   -0.7500   -1.2990    0.0000 C   0  0  0  0  0  0  0  0  0  0  0  0
   -2.1892   -1.7216    0.0000 C   0  0  0  0  0  0  0  0  0  0  0  0
   -2.2606   -0.2233    0.0000 C   0  0  0  0  0  0  0  0  0  0  0  0
   -3.5939    0.4640    0.0000 C   0  0  0  0  0  0  0  0  0  0  0  0
   -4.8557   -0.3470    0.0000 C   0  0  0  0  0  0  0  0  0  0  0  0
   -4.7844   -1.8453    0.0000 C   0  0  0  0  0  0  0  0  0  0  0  0
   -3.4511   -2.5326    0.0000 C   0  0  0  0  0  0  0  0  0  0  0  0
   -4.4334   -3.6662    0.0000 C   0  0  0  0  0  0  0  0  0  0  0  0
   -5.3035   -2.4444    0.0000 C   0  0  0  0  0  0  0  0  0  0  0  0
   -6.7967   -2.5869    0.0000 C   0  0  0  0  0  0  0  0  0  0  0  0
   -7.4198   -3.9514    0.0000 C   0  0  0  0  0  0  0  0  0  0  0  0
   -6.5497   -5.1733    0.0000 C   0  0  0  0  0  0  0  0  0  0  0  0
   -5.0565   -5.0307    0.0000 C   0  0  0  0  0  0  0  0  0  0  0  0
   -5.2700   -6.5154    0.0000 C   0  0  0  0  0  0  0  0  0  0  0  0
   -6.6626   -5.9579    0.0000 C   0  0  0  0  0  0  0  0  0  0  0  0
   -7.8416   -6.8851    0.0000 C   0  0  0  0  0  0  0  0  0  0  0  0
   -7.6282   -8.3699    0.0000 C   0  0  0  0  0  0  0  0  0  0  0  0
   -6.2356   -8.9274    0.0000 C   0  0  0  0  0  0  0  0  0  0  0  0
   -5.0565   -8.0001    0.0000 C   0  0  0  0  0  0  0  0  0  0  0  0
   -4.4334   -9.3646    0.0000 C   0  0  0  0  0  0  0  0  0  0  0  0
   -5.9063   -9.6485    0.0000 C   0  0  0  0  0  0  0  0  0  0  0  0
   -6.3969  -11.0660    0.0000 C   0  0  0  0  0  0  0  0  0  0  0  0
   -5.4146  -12.1996    0.0000 C   0  0  0  0  0  0  0  0  0  0  0  0
   -3.9417  -11.9157    0.0000 C   0  0  0  0  0  0  0  0  0  0  0  0
   -3.4511  -10.4982    0.0000 C   0  0  0  0  0  0  0  0  0  0  0  0
   -2.1892  -11.3092    0.0000 C   0  0  0  0  0  0  0  0  0  0  0  0
   -3.2748  -12.3443    0.0000 C   0  0  0  0  0  0  0  0  0  0  0  0
   -2.9212  -13.8020    0.0000 C   0  0  0  0  0  0  0  0  0  0  0  0
   -1.4820  -14.2246    0.0000 C   0  0  0  0  0  0  0  0  0  0  0  0
   -0.3964  -13.1895    0.0000 C   0  0  0  0  0  0  0  0  0  0  0  0
   -0.7500  -11.7318    0.0000 C   0  0  0  0  0  0  0  0  0  0  0  0
    0.7500  -11.7318    0.0000 C   0  0  0  0  0  0  0  0  0  0  0  0
    0.3964  -13.1895    0.0000 C   0  0  0  0  0  0  0  0  0  0  0  0
    1.4820  -14.2246    0.0000 C   0  0  0  0  0  0  0  0  0  0  0  0
    2.9212  -13.8020    0.0000 C   0  0  0  0  0  0  0  0  0  0  0  0
    3.2748  -12.3443    0.0000 C   0  0  0  0  0  0  0  0  0  0  0  0
    2.1892  -11.3092    0.0000 C   0  0  0  0  0  0  0  0  0  0  0  0
    3.4511  -10.4982    0.0000 C   0  0  0  0  0  0  0  0  0  0  0  0
    3.9417  -11.9157    0.0000 C   0  0  0  0  0  0  0  0  0  0  0  0
    5.4146  -12.1996    0.0000 C   0  0  0  0  0  0  0  0  0  0  0  0
    6.3969  -11.0660    0.0000 C   0  0  0  0  0  0  0  0  0  0  0  0
    5.9063   -9.6485    0.0000 C   0  0  0  0  0  0  0  0  0  0  0  0
    4.4334   -9.3646    0.0000 C   0  0  0  0  0  0  0  0  0  0  0  0
    5.0565   -8.0001    0.0000 C   0  0  0  0  0  0  0  0  0  0  0  0
    6.2356   -8.9274    0.0000 C   0  0  0  0  0  0  0  0  0  0  0  0
    7.6282   -8.3699    0.0000 C   0  0  0  0  0  0  0  0  0  0  0  0
    7.8416   -6.8851    0.0000 C   0  0  0  0  0  0  0  0  0  0  0  0
    6.6626   -5.9579    0.0000 C   0  0  0  0  0  0  0  0  0  0  0  0
    5.2700   -6.5154    0.0000 C   0  0  0  0  0  0  0  0  0  0  0  0
  1  2  1  0
  2  3  1  0
  3  4  1  0
  4  5  1  0
  5  6  1  0
  6  7  1  0
  7  8  1  0
  8  9  2  0
  8 10  1  0
 10 11  1  0
 11 12  2  0
 12 13  1  0
 13 14  2  0
 14 15  1  0
 15 16  2  0
  7 17  1  0
 17 18  2  0
 18 19  1  0
 19 20  2  0
 20 21  1  0
 21 22  2  0
 22 23  1  0
 23 24  2  0
 24 25  1  0
 25 26  2  0
 26 27  1  0
 27 28  2  0
 28 29  1  0
 29 30  2  0
 30 31  1  0
 31 32  2  0
 32 33  1  0
 33 34  2  0
 34 35  1  0
 35 36  2  0
 36 37  1  0
 37 38  2  0
 38 39  1  0
 39 40  2  0
 40 41  1  0
 41 42  2  0
 42 43  1  0
 43 44  2  0
 44 45  1  0
 45 46  2  0
 46 47  1  0
 47 48  2  0
 48 49  1  0
 49 50  2  0
 50 51  1  0
 51 52  2  0
 52 53  1  0
 53 54  2  0
 54 55  1  0
 55 56  2  0
 56 57  1  0
 57 58  2  0
 58 59  1  0
 59 60  2  0
 60 61  1  0
 61 62  2  0
 62 63  1  0
 63 64  2  0
 64 65  1  0
 65 66  2  0
 66 67  1  0
 67 68  2  0
 68 69  1  0
 69 70  2  0
 70  4  1  0
 16 11  1  0
 22 17  1  0
 28 23  1  0
 34 29  1  0
 40 35  1  0
 46 41  1  0
 52 47  1  0
 58 53  1  0
 64 59  1  0
 70 65  1  0
M  END
>  <Title>  (149) 
idAADUgen9

$$$$

     RDKit          2D

100100  0  0  0  0  0  0  0  0999 V2000
   23.8772    0.0000    0.0000 C   0  0  0  0  0  0  0  0  0  0  0  0
   23.8301   -1.4993    0.0000 C   0  0  0  0  0  0  0  0  0  0  0  0
   23.6889   -2.9926    0.0000 C   0  0  0  0  0  0  0  0  0  0  0  0
   23.4542   -4.4741    0.0000 C   0  0  0  0  0  0  0  0  0  0  0  0
   23.1270   -5.9380    0.0000 C   0  0  0  0  0  0  0  0  0  0  0  0
   22.7085   -7.3785    0.0000 C   0  0  0  0  0  0  0  0  0  0  0  0
   22.2004   -8.7898    0.0000 C   0  0  0  0  0  0  0  0  0  0  0  0
   21.6047  -10.1664    0.0000 C   0  0  0  0  0  0  0  0  0  0  0  0
   20.9237  -11.5029    0.0000 C   0  0  0  0  0  0  0  0  0  0  0  0
   20.1602  -12.7940    0.0000 C   0  0  0  0  0  0  0  0  0  0  0  0
   19.3170  -14.0346    0.0000 C   0  0  0  0  0  0  0  0  0  0  0  0
   18.3977  -15.2199    0.0000 C   0  0  0  0  0  0  0  0  0  0  0  0
   17.4057  -16.3450    0.0000 C   0  0  0  0  0  0  0  0  0  0  0  0
   16.3450  -17.4057    0.0000 C   0  0  0  0  0  0  0  0  0  0  0  0
   15.2199  -18.3977    0.0000 C   0  0  0  0  0  0  0  0  0  0  0  0
   14.0346  -19.3170    0.0000 C   0  0  0  0  0  0  0  0  0  0  0  0
   12.7940  -20.1602    0.0000 C   0  0  0  0  0  0  0  0  0  0  0  0
   11.5029  -20.9237    0.0000 C   0  0  0  0  0  0  0  0  0  0  0  0
   10.1664  -21.6047    0.0000 C   0  0  0  0  0  0  0  0  0  0  0  0
    8.7898  -22.2004    0.0000 C   0  0  0  0  0  0  0  0  0  0  0  0
    7.3785  -22.7085    0.0000 C   0  0  0  0  0  0  0  0  0  0  0  0
    5.9380  -23.1270    0.0000 C   0  0  0  0  0  0  0  0  0  0  0  0
    4.4741  -23.4542    0.0000 C   0  0  0  0  0  0  0  0  0  0  0  0
    2.9926  -23.6889    0.0000 C   0  0  0  0  0  0  0  0  0  0  0  0
    1.4993  -23.8301    0.0000 C   0  0  0  0  0  0  0  0  0  0  0  0
   -0.0000  -23.8772    0.0000 C   0  0  0  0  0  0  0  0  0  0  0  0
   -1.4993  -23.8301    0.0000 C   0  0  0  0  0  0  0  0  0  0  0  0
   -2.9926  -23.6889    0.0000 C   0  0  0  0  0  0  0  0  0  0  0  0
   -4.4741  -23.4542    0.0000 C   0  0  0  0  0  0  0  0  0  0  0  0
   -5.9380  -23.1270    0.0000 C   0  0  0  0  0  0  0  0  0  0  0  0
   -7.3785  -22.7085    0.0000 C   0  0  0  0  0  0  0  0  0  0  0  0
   -8.7898  -22.2004    0.0000 C   0  0  0  0  0  0  0  0  0  0  0  0
  -10.1664  -21.6047    0.0000 C   0  0  0  0  0  0  0  0  0  0  0  0
  -11.5029  -20.9237    0.0000 C   0  0  0  0  0  0  0  0  0  0  0  0
  -12.7940  -20.1602    0.0000 C   0  0  0  0  0  0  0  0  0  0  0  0
  -14.0346  -19.3170    0.0000 C   0  0  0  0  0  0  0  0  0  0  0  0
  -15.2199  -18.3977    0.0000 C   0  0  0  0  0  0  0  0  0  0  0  0
  -16.3450  -17.4057    0.0000 C   0  0  0  0  0  0  0  0  0  0  0  0
  -17.4057  -16.3450    0.0000 C   0  0  0  0  0  0  0  0  0  0  0  0
  -18.3977  -15.2199    0.0000 C   0  0  0  0  0  0  0  0  0  0  0  0
  -19.3170  -14.0346    0.0000 C   0  0  0  0  0  0  0  0  0  0  0  0
  -20.1602  -12.7940    0.0000 C   0  0  0  0  0  0  0  0  0  0  0  0
  -20.9237  -11.5029    0.0000 C   0  0  0  0  0  0  0  0  0  0  0  0
  -21.6047  -10.1664    0.0000 C   0  0  0  0  0  0  0  0  0  0  0  0
  -22.2004   -8.7898    0.0000 C   0  0  0  0  0  0  0  0  0  0  0  0
  -22.7085   -7.3785    0.0000 C   0  0  0  0  0  0  0  0  0  0  0  0
  -23.1270   -5.9380    0.0000 C   0  0  0  0  0  0  0  0  0  0  0  0
  -23.4542   -4.4741    0.0000 C   0  0  0  0  0  0  0  0  0  0  0  0
  -23.6889   -2.9926    0.0000 C   0  0  0  0  0  0  0  0  0  0  0  0
  -23.8301   -1.4993    0.0000 C   0  0  0  0  0  0  0  0  0  0  0  0
  -23.8772   -0.0000    0.0000 C   0  0  0  0  0  0  0  0  0  0  0  0
  -23.8301    1.4993    0.0000 C   0  0  0  0  0  0  0  0  0  0  0  0
  -23.6889    2.9926    0.0000 C   0  0  0  0  0  0  0  0  0  0  0  0
  -23.4542    4.4741    0.0000 C   0  0  0  0  0  0  0  0  0  0  0  0
  -23.1270    5.9380    0.0000 C   0  0  0  0  0  0  0  0  0  0  0  0
  -22.7085    7.3785    0.0000 C   0  0  0  0  0  0  0  0  0  0  0  0
  -22.2004    8.7898    0.0000 C   0  0  0  0  0  0  0  0  0  0  0  0
  -21.6047   10.1664    0.0000 C   0  0  0  0  0  0  0  0  0  0  0  0
  -20.9237   11.5029    0.0000 C   0  0  0  0  0  0  0  0  0  0  0  0
  -20.1602   12.7940    0.0000 C   0  0  0  0  0  0  0  0  0  0  0  0
  -19.3170   14.0346    0.0000 C   0  0  0  0  0  0  0  0  0  0  0  0
  -18.3977   15.2199    0.0000 C   0  0  0  0  0  0  0  0  0  0  0  0
  -17.4057   16.3450    0.0000 C   0  0  0  0  0  0  0  0  0  0  0  0
  -16.3450   17.4057    0.0000 C   0  0  0  0  0  0  0  0  0  0  0  0
  -15.2199   18.3977    0.0000 C   0  0  0  0  0  0  0  0  0  0  0  0
  -14.0346   19.3170    0.0000 C   0  0  0  0  0  0  0  0  0  0  0  0
  -12.7940   20.1602    0.0000 C   0  0  0  0  0  0  0  0  0  0  0  0
  -11.5029   20.9237    0.0000 C   0  0  0  0  0  0  0  0  0  0  0  0
  -10.1664   21.6047    0.0000 C   0  0  0  0  0  0  0  0  0  0  0  0
   -8.7898   22.2004    0.0000 C   0  0  0  0  0  0  0  0  0  0  0  0
   -7.3785   22.7085    0.0000 C   0  0  0  0  0  0  0  0  0  0  0  0
   -5.9380   23.1270    0.0000 C   0  0  0  0  0  0  0  0  0  0  0  0
   -4.4741   23.4542    0.0000 C   0  0  0  0  0  0  0  0  0  0  0  0
   -2.9926   23.6889    0.0000 C   0  0  0  0  0  0  0  0  0  0  0  0
   -1.4993   23.8301    0.0000 C   0  0  0  0  0  0  0  0  0  0  0  0
   -0.0000   23.8772    0.0000 C   0  0  0  0  0  0  0  0  0  0  0  0
    1.4993   23.8301    0.0000 C   0  0  0  0  0  0  0  0  0  0  0  0
    2.9926   23.6889    0.0000 C   0  0  0  0  0  0  0  0  0  0  0  0
    4.4741   23.4542    0.0000 C   0  0  0  0  0  0  0  0  0  0  0  0
    5.9380   23.1270    0.0000 C   0  0  0  0  0  0  0  0  0  0  0  0
    7.3785   22.7085    0.0000 C   0  0  0  0  0  0  0  0  0  0  0  0
    8.7898   22.2004    0.0000 C   0  0  0  0  0  0  0  0  0  0  0  0
   10.1664   21.6047    0.0000 C   0  0  0  0  0  0  0  0  0  0  0  0
   11.5029   20.9237    0.0000 C   0  0  0  0  0  0  0  0  0  0  0  0
   12.7940   20.1602    0.0000 C   0  0  0  0  0  0  0  0  0  0  0  0
   14.0346   19.3170    0.0000 C   0  0  0  0  0  0  0  0  0  0  0  0
   15.2199   18.3977    0.0000 C   0  0  0  0  0  0  0  0  0  0  0  0
   16.3450   17.4057    0.0000 C   0  0  0  0  0  0  0  0  0  0  0  0
   17.4057   16.3450    0.0000 C   0  0  0  0  0  0  0  0  0  0  0  0
   18.3977   15.2199    0.0000 C   0  0  0  0  0  0  0  0  0  0  0  0
   19.3170   14.0346    0.0000 C   0  0  0  0  0  0  0  0  0  0  0  0
   20.1602   12.7940    0.0000 C   0  0  0  0  0  0  0  0  0  0  0  0
   20.9237   11.5029    0.0000 C   0  0  0  0  0  0  0  0  0  0  0  0
   21.6047   10.1664    0.0000 C   0  0  0  0  0  0  0  0  0  0  0  0
   22.2004    8.7898    0.0000 C   0  0  0  0  0  0  0  0  0  0  0  0
   22.7085    7.3785    0.0000 C   0  0  0  0  0  0  0  0  0  0  0  0
   23.1270    5.9380    0.0000 C   0  0  0  0  0  0  0  0  0  0  0  0
   23.4542    4.4741    0.0000 C   0  0  0  0  0  0  0  0  0  0  0  0
   23.6889    2.9926    0.0000 C   0  0  0  0  0  0  0  0  0  0  0  0
   23.8301    1.4993    0.0000 C   0  0  0  0  0  0  0  0  0  0  0  0
  1  2  2  0
  2  3  1  0
  3  4  1  0
  4  5  1  0
  5  6  1  0
  6  7  1  0
  7  8  1  0
  8  9  1  0
  9 10  1  0
 10 11  1  0
 11 12  1  0
 12 13  1  0
 13 14  1  0
 14 15  1  0
 15 16  1  0
 16 17  1  0
 17 18  1  0
 18 19  1  0
 19 20  1  0
 20 21  1  0
 21 22  1  0
 22 23  1  0
 23 24  1  0
 24 25  1  0
 25 26  1  0
 26 27  1  0
 27 28  1  0
 28 29  1  0
 29 30  1  0
 30 31  1  0
 31 32  1  0
 32 33  1  0
 33 34  1  0
 34 35  1  0
 35 36  1  0
 36 37  1  0
 37 38  1  0
 38 39  1  0
 39 40  1  0
 40 41  1  0
 41 42  1  0
 42 43  1  0
 43 44  1  0
 44 45  1  0
 45 46  1  0
 46 47  1  0
 47 48  1  0
 48 49  1  0
 49 50  1  0
 50 51  1  0
 51 52  1  0
 52 53  1  0
 53 54  1  0
 54 55  1  0
 55 56  1  0
 56 57  1  0
 57 58  1  0
 58 59  1  0
 59 60  1  0
 60 61  1  0
 61 62  1  0
 62 63  1  0
 63 64  1  0
 64 65  1  0
 65 66  1  0
 66 67  1  0
 67 68  1  0
 68 69  1  0
 69 70  1  0
 70 71  1  0
 71 72  1  0
 72 73  1  0
 73 74  1  0
 74 75  1  0
 75 76  1  0
 76 77  1  0
 77 78  1  0
 78 79  1  0
 79 80  1  0
 80 81  1  0
 81 82  1  0
 82 83  1  0
 83 84  1  0
 84 85  1  0
 85 86  1  0
 86 87  1  0
 87 88  1  0
 88 89  1  0
 89 90  1  0
 90 91  1  0
 91 92  1  0
 92 93  1  0
 93 94  1  0
 94 95  1  0
 95 96  1  0
 96 97  1  0
 97 98  1  0
 98 99  1  0
 99100  1  0
100  1  1  0
M  END
>  <Title>  (150) 
idAADVgen9

$$$$

     RDKit          2D

 61 67  0  0  0  0  0  0  0  0999 V2000
  -10.3344  -10.5499    0.0000 C   0  0  0  0  0  0  0  0  0  0  0  0
   -8.8358  -10.4862    0.0000 C   0  0  0  0  0  0  0  0  0  0  0  0
   -8.6452  -11.9741    0.0000 C   0  0  0  0  0  0  0  0  0  0  0  0
   -8.2060  -13.4083    0.0000 C   0  0  0  0  0  0  0  0  0  0  0  0
   -7.5307  -14.7477    0.0000 C   0  0  0  0  0  0  0  0  0  0  0  0
   -6.6387  -15.9537    0.0000 C   0  0  0  0  0  0  0  0  0  0  0  0
   -5.5558  -16.9916    0.0000 C   0  0  0  0  0  0  0  0  0  0  0  0
   -4.3130  -17.8316    0.0000 C   0  0  0  0  0  0  0  0  0  0  0  0
   -2.9462  -18.4494    0.0000 C   0  0  0  0  0  0  0  0  0  0  0  0
   -1.4946  -18.8274    0.0000 C   0  0  0  0  0  0  0  0  0  0  0  0
   -0.0000  -18.9546    0.0000 C   0  0  0  0  0  0  0  0  0  0  0  0
    1.4946  -18.8274    0.0000 C   0  0  0  0  0  0  0  0  0  0  0  0
    2.9462  -18.4494    0.0000 C   0  0  0  0  0  0  0  0  0  0  0  0
    4.3130  -17.8316    0.0000 C   0  0  0  0  0  0  0  0  0  0  0  0
    5.5558  -16.9916    0.0000 C   0  0  0  0  0  0  0  0  0  0  0  0
    6.6387  -15.9537    0.0000 C   0  0  0  0  0  0  0  0  0  0  0  0
    7.5307  -14.7477    0.0000 C   0  0  0  0  0  0  0  0  0  0  0  0
    8.2060  -13.4083    0.0000 C   0  0  0  0  0  0  0  0  0  0  0  0
    8.6452  -11.9741    0.0000 C   0  0  0  0  0  0  0  0  0  0  0  0
    8.8358  -10.4862    0.0000 C   0  0  0  0  0  0  0  0  0  0  0  0
    8.7721   -8.9876    0.0000 C   0  0  0  0  0  0  0  0  0  0  0  0
    8.4561   -7.5213    0.0000 C   0  0  0  0  0  0  0  0  0  0  0  0
    7.8968   -6.1294    0.0000 C   0  0  0  0  0  0  0  0  0  0  0  0
    7.1103   -4.8521    0.0000 C   0  0  0  0  0  0  0  0  0  0  0  0
    6.1193   -3.7261    0.0000 C   0  0  0  0  0  0  0  0  0  0  0  0
    4.9523   -2.7838    0.0000 C   0  0  0  0  0  0  0  0  0  0  0  0
    3.6427   -2.0522    0.0000 C   0  0  0  0  0  0  0  0  0  0  0  0
    4.5550   -0.8616    0.0000 C   0  0  0  0  0  0  0  0  0  0  0  0
    3.7046    0.3740    0.0000 C   0  0  0  0  0  0  0  0  0  0  0  0
    2.2666   -0.0530    0.0000 C   0  0  0  0  0  0  0  0  0  0  0  0
    2.2284   -1.5525    0.0000 C   0  0  0  0  0  0  0  0  0  0  0  0
    0.7500   -1.2990    0.0000 C   0  0  0  0  0  0  0  0  0  0  0  0
    1.5000    0.0000    0.0000 C   0  0  0  0  0  0  0  0  0  0  0  0
    0.7500    1.2990    0.0000 C   0  0  0  0  0  0  0  0  0  0  0  0
   -0.7500    1.2990    0.0000 C   0  0  0  0  0  0  0  0  0  0  0  0
   -1.5000    0.0000    0.0000 C   0  0  0  0  0  0  0  0  0  0  0  0
   -0.7500   -1.2990    0.0000 C   0  0  0  0  0  0  0  0  0  0  0  0
   -2.2284   -1.5525    0.0000 C   0  0  0  0  0  0  0  0  0  0  0  0
   -2.6140   -0.3110    0.0000 C   0  0  0  0  0  0  0  0  0  0  0  0
   -3.2220    0.2089    0.0000 C   0  0  0  0  0  0  0  0  0  0  0  0
   -3.9763   -0.0576    0.0000 C   0  0  0  0  0  0  0  0  0  0  0  0
   -4.1226   -0.8441    0.0000 C   0  0  0  0  0  0  0  0  0  0  0  0
   -3.6427   -2.0522    0.0000 C   0  0  0  0  0  0  0  0  0  0  0  0
   -4.9523   -2.7838    0.0000 C   0  0  0  0  0  0  0  0  0  0  0  0
   -5.1848   -1.3019    0.0000 C   0  0  0  0  0  0  0  0  0  0  0  0
   -6.5844   -0.7624    0.0000 C   0  0  0  0  0  0  0  0  0  0  0  0
   -7.7515   -1.7047    0.0000 C   0  0  0  0  0  0  0  0  0  0  0  0
   -7.5189   -3.1866    0.0000 C   0  0  0  0  0  0  0  0  0  0  0  0
   -6.1193   -3.7261    0.0000 C   0  0  0  0  0  0  0  0  0  0  0  0
   -7.1103   -4.8521    0.0000 C   0  0  0  0  0  0  0  0  0  0  0  0
   -8.1903   -4.1285    0.0000 C   0  0  0  0  0  0  0  0  0  0  0  0
   -8.9900   -4.1058    0.0000 C   0  0  0  0  0  0  0  0  0  0  0  0
   -9.4094   -4.7870    0.0000 C   0  0  0  0  0  0  0  0  0  0  0  0
   -9.0292   -5.4909    0.0000 C   0  0  0  0  0  0  0  0  0  0  0  0
   -7.8968   -6.1294    0.0000 C   0  0  0  0  0  0  0  0  0  0  0  0
   -8.4561   -7.5213    0.0000 C   0  0  0  0  0  0  0  0  0  0  0  0
   -9.5679   -6.5144    0.0000 C   0  0  0  0  0  0  0  0  0  0  0  0
  -10.9958   -6.9739    0.0000 C   0  0  0  0  0  0  0  0  0  0  0  0
  -11.3119   -8.4402    0.0000 C   0  0  0  0  0  0  0  0  0  0  0  0
  -10.2000   -9.4471    0.0000 C   0  0  0  0  0  0  0  0  0  0  0  0
   -8.7721   -8.9876    0.0000 C   0  0  0  0  0  0  0  0  0  0  0  0
  1  2  1  0
  2  3  1  0
  3  4  1  0
  4  5  1  0
  5  6  1  0
  6  7  1  0
  7  8  1  0
  8  9  1  0
  9 10  1  0
 10 11  1  0
 11 12  1  0
 12 13  2  0
 13 14  1  0
 14 15  2  0
 15 16  1  0
 16 17  2  0
 17 18  1  0
 18 19  2  0
 19 20  1  0
 20 21  2  0
 21 22  1  0
 22 23  2  0
 23 24  1  0
 24 25  2  0
 25 26  1  0
 26 27  2  0
 27 28  1  0
 28 29  2  0
 29 30  1  0
 30 31  2  0
 31 32  1  0
 32 33  2  0
 33 34  1  0
 34 35  2  0
 35 36  1  0
 36 37  2  0
 37 38  1  0
 38 39  2  0
 39 40  1  0
 40 41  2  0
 41 42  1  0
 42 43  2  0
 43 44  1  0
 44 45  2  0
 45 46  1  0
 46 47  2  0
 47 48  1  0
 48 49  2  0
 49 50  1  0
 50 51  2  0
 51 52  1  0
 52 53  2  0
 53 54  1  0
 54 55  2  0
 55 56  1  0
 56 57  2  0
 57 58  1  0
 58 59  2  0
 59 60  1  0
 60 61  2  0
 61  2  1  0
 31 27  1  0
 37 32  1  0
 43 38  1  0
 49 44  1  0
 55 50  1  0
 61 56  1  0
M  END
>  <Title>  (151) 
idAADWgen9

$$$$

     RDKit          2D

 43 48  0  0  0  0  0  0  0  0999 V2000
    2.6807   -7.6540    0.0000 C   0  0  0  0  0  0  0  0  0  0  0  0
    1.2135   -7.3421    0.0000 C   0  0  0  0  0  0  0  0  0  0  0  0
    0.2098   -8.4569    0.0000 C   0  0  0  0  0  0  0  0  0  0  0  0
    0.6734   -9.8835    0.0000 C   0  0  0  0  0  0  0  0  0  0  0  0
    2.1406  -10.1953    0.0000 O   0  0  0  0  0  0  0  0  0  0  0  0
   -0.3303  -10.9982    0.0000 N   0  0  0  0  0  0  0  0  0  0  0  0
    0.1332  -12.4248    0.0000 C   0  0  0  0  0  0  0  0  0  0  0  0
   -0.8705  -13.5395    0.0000 C   0  0  0  0  0  0  0  0  0  0  0  0
   -0.4070  -14.9661    0.0000 C   0  0  0  0  0  0  0  0  0  0  0  0
    1.0602  -15.2779    0.0000 C   0  0  0  0  0  0  0  0  0  0  0  0
    2.0639  -14.1632    0.0000 C   0  0  0  0  0  0  0  0  0  0  0  0
    1.6004  -12.7366    0.0000 C   0  0  0  0  0  0  0  0  0  0  0  0
    0.7500   -5.9156    0.0000 N   0  0  0  0  0  0  0  0  0  0  0  0
    1.9635   -5.0339    0.0000 C   0  0  0  0  0  0  0  0  0  0  0  0
    2.4271   -3.6073    0.0000 C   0  0  0  0  0  0  0  0  0  0  0  0
    1.9635   -2.1807    0.0000 C   0  0  0  0  0  0  0  0  0  0  0  0
    3.1771   -1.2990    0.0000 C   0  0  0  0  0  0  0  0  0  0  0  0
    3.0203    0.1927    0.0000 O   0  0  0  0  0  0  0  0  0  0  0  0
    4.5474   -1.9091    0.0000 N   0  0  0  0  0  0  0  0  0  0  0  0
    5.7609   -1.0275    0.0000 C   0  0  0  0  0  0  0  0  0  0  0  0
    7.1312   -1.6376    0.0000 N   0  0  0  0  0  0  0  0  0  0  0  0
    8.3447   -0.7559    0.0000 N   0  0  0  0  0  0  0  0  0  0  0  0
    8.1879    0.7359    0.0000 N   0  0  0  0  0  0  0  0  0  0  0  0
    6.8176    1.3460    0.0000 N   0  0  0  0  0  0  0  0  0  0  0  0
    5.6041    0.4643    0.0000 N   0  0  0  0  0  0  0  0  0  0  0  0
    0.7500   -1.2990    0.0000 C   0  0  0  0  0  0  0  0  0  0  0  0
    1.5000    0.0000    0.0000 C   0  0  0  0  0  0  0  0  0  0  0  0
    0.7500    1.2990    0.0000 C   0  0  0  0  0  0  0  0  0  0  0  0
   -0.7500    1.2990    0.0000 C   0  0  0  0  0  0  0  0  0  0  0  0
   -1.5000    0.0000    0.0000 C   0  0  0  0  0  0  0  0  0  0  0  0
   -0.7500   -1.2990    0.0000 C   0  0  0  0  0  0  0  0  0  0  0  0
   -1.9635   -2.1807    0.0000 C   0  0  0  0  0  0  0  0  0  0  0  0
   -2.9672   -1.0660    0.0000 C   0  0  0  0  0  0  0  0  0  0  0  0
   -4.4344   -1.3779    0.0000 C   0  0  0  0  0  0  0  0  0  0  0  0
   -4.8980   -2.8045    0.0000 C   0  0  0  0  0  0  0  0  0  0  0  0
   -3.8943   -3.9192    0.0000 C   0  0  0  0  0  0  0  0  0  0  0  0
   -2.4271   -3.6073    0.0000 C   0  0  0  0  0  0  0  0  0  0  0  0
   -1.9635   -5.0339    0.0000 C   0  0  0  0  0  0  0  0  0  0  0  0
   -3.3338   -5.6440    0.0000 C   0  0  0  0  0  0  0  0  0  0  0  0
   -3.4906   -7.1358    0.0000 C   0  0  0  0  0  0  0  0  0  0  0  0
   -2.2771   -8.0175    0.0000 C   0  0  0  0  0  0  0  0  0  0  0  0
   -0.9068   -7.4073    0.0000 C   0  0  0  0  0  0  0  0  0  0  0  0
   -0.7500   -5.9156    0.0000 C   0  0  0  0  0  0  0  0  0  0  0  0
  1  2  1  0
  2  3  1  0
  3  4  1  0
  4  5  2  0
  4  6  1  0
  6  7  1  0
  7  8  2  0
  8  9  1  0
  9 10  2  0
 10 11  1  0
 11 12  2  0
  2 13  1  0
 13 14  1  0
 14 15  1  0
 15 16  1  0
 16 17  1  0
 17 18  2  0
 17 19  1  0
 19 20  1  0
 20 21  2  0
 21 22  1  0
 22 23  2  0
 23 24  1  0
 24 25  2  0
 16 26  1  0
 26 27  2  0
 27 28  1  0
 28 29  2  0
 29 30  1  0
 30 31  2  0
 31 32  1  0
 32 33  2  0
 33 34  1  0
 34 35  2  0
 35 36  1  0
 36 37  2  0
 37 38  1  0
 38 39  2  0
 39 40  1  0
 40 41  2  0
 41 42  1  0
 42 43  2  0
 12  7  1  0
 43 13  1  0
 25 20  1  0
 31 26  1  0
 37 32  1  0
 43 38  1  0
M  END
>  <Title>  (152) 
idAADXgen9

$$$$

     RDKit          2D

 31 35  0  0  0  0  0  0  0  0999 V2000
   -1.3240   -6.3062    0.0000 C   0  0  0  0  0  0  0  0  0  0  0  0
   -0.7500   -4.9204    0.0000 C   0  0  0  0  0  0  0  0  0  0  0  0
    0.7500   -4.9204    0.0000 C   0  0  0  0  0  0  0  0  0  0  0  0
    1.8107   -3.8597    0.0000 C   0  0  0  0  0  0  0  0  0  0  0  0
    1.8107   -2.3597    0.0000 C   0  0  0  0  0  0  0  0  0  0  0  0
    3.1965   -1.7857    0.0000 C   0  0  0  0  0  0  0  0  0  0  0  0
    3.3923   -0.2985    0.0000 O   0  0  0  0  0  0  0  0  0  0  0  0
    4.3865   -2.6988    0.0000 N   0  0  0  0  0  0  0  0  0  0  0  0
    5.7723   -2.1248    0.0000 C   0  0  0  0  0  0  0  0  0  0  0  0
    6.1225   -0.6662    0.0000 N   0  0  0  0  0  0  0  0  0  0  0  0
    7.6179   -0.5485    0.0000 N   0  0  0  0  0  0  0  0  0  0  0  0
    8.1919   -1.9344    0.0000 N   0  0  0  0  0  0  0  0  0  0  0  0
    7.0513   -2.9085    0.0000 N   0  0  0  0  0  0  0  0  0  0  0  0
    7.1690   -4.4039    0.0000 C   0  0  0  0  0  0  0  0  0  0  0  0
    5.9328   -5.2535    0.0000 C   0  0  0  0  0  0  0  0  0  0  0  0
    6.0505   -6.7489    0.0000 C   0  0  0  0  0  0  0  0  0  0  0  0
    7.4044   -7.3947    0.0000 C   0  0  0  0  0  0  0  0  0  0  0  0
    8.6405   -6.5451    0.0000 C   0  0  0  0  0  0  0  0  0  0  0  0
    8.5229   -5.0497    0.0000 C   0  0  0  0  0  0  0  0  0  0  0  0
    0.7500   -1.2990    0.0000 C   0  0  0  0  0  0  0  0  0  0  0  0
    1.5000    0.0000    0.0000 C   0  0  0  0  0  0  0  0  0  0  0  0
    0.7500    1.2990    0.0000 C   0  0  0  0  0  0  0  0  0  0  0  0
   -0.7500    1.2990    0.0000 C   0  0  0  0  0  0  0  0  0  0  0  0
   -1.5000    0.0000    0.0000 C   0  0  0  0  0  0  0  0  0  0  0  0
   -0.7500   -1.2990    0.0000 C   0  0  0  0  0  0  0  0  0  0  0  0
   -1.8107   -2.3597    0.0000 C   0  0  0  0  0  0  0  0  0  0  0  0
   -3.1097   -1.6097    0.0000 C   0  0  0  0  0  0  0  0  0  0  0  0
   -4.4087   -2.3597    0.0000 C   0  0  0  0  0  0  0  0  0  0  0  0
   -4.4087   -3.8597    0.0000 C   0  0  0  0  0  0  0  0  0  0  0  0
   -3.1097   -4.6097    0.0000 C   0  0  0  0  0  0  0  0  0  0  0  0
   -1.8107   -3.8597    0.0000 C   0  0  0  0  0  0  0  0  0  0  0  0
  1  2  1  0
  2  3  1  0
  3  4  2  0
  4  5  1  0
  5  6  1  0
  6  7  2  0
  6  8  1  0
  8  9  1  0
  9 10  2  0
 10 11  1  0
 11 12  2  0
 12 13  1  0
 13 14  1  0
 14 15  2  0
 15 16  1  0
 16 17  2  0
 17 18  1  0
 18 19  2  0
  5 20  1  0
 20 21  2  0
 21 22  1  0
 22 23  2  0
 23 24  1  0
 24 25  2  0
 25 26  1  0
 26 27  2  0
 27 28  1  0
 28 29  2  0
 29 30  1  0
 30 31  2  0
 31  2  1  0
 13  9  1  0
 19 14  1  0
 25 20  1  0
 31 26  1  0
M  END
>  <Title>  (153) 
idAADYgen9

$$$$

     RDKit          2D

  8  8  0  0  0  0  0  0  0  0999 V2000
    3.0000    0.0000    0.0000 C   0  0  0  0  0  0  0  0  0  0  0  0
    1.5000    0.0000    0.0000 C   0  0  0  0  0  0  0  0  0  0  0  0
    0.7500   -1.2990    0.0000 C   0  0  0  0  0  0  0  0  0  0  0  0
   -0.7500   -1.2990    0.0000 C   0  0  0  0  0  0  0  0  0  0  0  0
   -1.5000    0.0000    0.0000 C   0  0  0  0  0  0  0  0  0  0  0  0
   -3.0000    0.0000    0.0000 O   0  0  0  0  0  0  0  0  0  0  0  0
   -0.7500    1.2990    0.0000 C   0  0  0  0  0  0  0  0  0  0  0  0
    0.7500    1.2990    0.0000 C   0  0  0  0  0  0  0  0  0  0  0  0
  1  2  1  0
  2  3  2  0
  3  4  1  0
  4  5  1  0
  5  6  1  0
  5  7  1  0
  7  8  1  0
  8  2  1  0
M  END
>  <Title>  (154) 
idAADZgen9

$$$$

     RDKit          2D

 23 25  0  0  0  0  0  0  0  0999 V2000
    3.0000    0.0000    0.0000 C   0  0  0  0  0  0  0  0  0  0  0  0
    1.5000    0.0000    0.0000 C   0  0  0  0  0  0  0  0  0  0  0  0
    0.7500   -1.2990    0.0000 C   0  0  0  0  0  0  0  0  0  0  0  0
   -0.7500   -1.2990    0.0000 C   0  0  0  0  0  0  0  0  0  0  0  0
   -1.5000    0.0000    0.0000 C   0  0  0  0  0  0  0  0  0  0  0  0
   -3.0000    0.0000    0.0000 C   0  0  0  0  0  0  0  0  0  0  0  0
   -3.7500   -1.2990    0.0000 O   0  0  0  0  0  0  0  0  0  0  0  0
   -3.7500    1.2990    0.0000 N   0  0  0  0  0  0  0  0  0  0  0  0
   -5.2500    1.2990    0.0000 C   0  0  0  0  0  0  0  0  0  0  0  0
   -6.1317    0.0855    0.0000 N   0  0  0  0  0  0  0  0  0  0  0  0
   -7.5583    0.5490    0.0000 N   0  0  0  0  0  0  0  0  0  0  0  0
   -7.5583    2.0490    0.0000 N   0  0  0  0  0  0  0  0  0  0  0  0
   -6.1317    2.5126    0.0000 N   0  0  0  0  0  0  0  0  0  0  0  0
   -5.6682    3.9391    0.0000 C   0  0  0  0  0  0  0  0  0  0  0  0
   -4.2009    4.2510    0.0000 C   0  0  0  0  0  0  0  0  0  0  0  0
   -3.7374    5.6776    0.0000 C   0  0  0  0  0  0  0  0  0  0  0  0
   -4.7411    6.7923    0.0000 C   0  0  0  0  0  0  0  0  0  0  0  0
   -6.2083    6.4805    0.0000 C   0  0  0  0  0  0  0  0  0  0  0  0
   -6.6718    5.0539    0.0000 C   0  0  0  0  0  0  0  0  0  0  0  0
   -0.7500    1.2990    0.0000 C   0  0  0  0  0  0  0  0  0  0  0  0
   -1.5000    2.5981    0.0000 O   0  0  0  0  0  0  0  0  0  0  0  0
    0.7500    1.2990    0.0000 C   0  0  0  0  0  0  0  0  0  0  0  0
    1.5000    2.5981    0.0000 O   0  0  0  0  0  0  0  0  0  0  0  0
  1  2  1  0
  2  3  2  0
  3  4  1  0
  4  5  1  0
  5  6  1  0
  6  7  2  0
  6  8  1  0
  8  9  1  0
  9 10  2  0
 10 11  1  0
 11 12  2  0
 12 13  1  0
 13 14  1  0
 14 15  2  0
 15 16  1  0
 16 17  2  0
 17 18  1  0
 18 19  2  0
  5 20  1  0
 20 21  2  0
 20 22  1  0
 22 23  2  0
 22  2  1  0
 13  9  1  0
 19 14  1  0
M  END
>  <Title>  (155) 
idAAEAgen9

$$$$

     RDKit          2D

108109  0  0  0  0  0  0  0  0999 V2000
    2.5491   -3.9145    0.0000 C   0  0  0  0  0  0  0  0  0  0  0  0
    3.2937   -4.1993    0.0000 C   0  0  0  0  0  0  0  0  0  0  0  0
    2.8076   -5.6183    0.0000 C   0  0  0  0  0  0  0  0  0  0  0  0
    2.4227   -7.0681    0.0000 C   0  0  0  0  0  0  0  0  0  0  0  0
    2.1412   -8.5414    0.0000 C   0  0  0  0  0  0  0  0  0  0  0  0
    1.9642  -10.0310    0.0000 C   0  0  0  0  0  0  0  0  0  0  0  0
    1.8927  -11.5293    0.0000 C   0  0  0  0  0  0  0  0  0  0  0  0
    1.9271  -13.0289    0.0000 C   0  0  0  0  0  0  0  0  0  0  0  0
    2.0673  -14.5223    0.0000 C   0  0  0  0  0  0  0  0  0  0  0  0
    2.3124  -16.0021    0.0000 C   0  0  0  0  0  0  0  0  0  0  0  0
    2.6612  -17.4610    0.0000 C   0  0  0  0  0  0  0  0  0  0  0  0
    3.1122  -18.8916    0.0000 C   0  0  0  0  0  0  0  0  0  0  0  0
    3.6629  -20.2869    0.0000 C   0  0  0  0  0  0  0  0  0  0  0  0
    4.3106  -21.6398    0.0000 C   0  0  0  0  0  0  0  0  0  0  0  0
    5.0522  -22.9437    0.0000 C   0  0  0  0  0  0  0  0  0  0  0  0
    5.8839  -24.1920    0.0000 C   0  0  0  0  0  0  0  0  0  0  0  0
    6.8016  -25.3785    0.0000 C   0  0  0  0  0  0  0  0  0  0  0  0
    7.8007  -26.4973    0.0000 C   0  0  0  0  0  0  0  0  0  0  0  0
    8.8762  -27.5429    0.0000 C   0  0  0  0  0  0  0  0  0  0  0  0
   10.0228  -28.5100    0.0000 C   0  0  0  0  0  0  0  0  0  0  0  0
   11.2348  -29.3938    0.0000 C   0  0  0  0  0  0  0  0  0  0  0  0
   12.5061  -30.1900    0.0000 C   0  0  0  0  0  0  0  0  0  0  0  0
   13.8304  -30.8944    0.0000 C   0  0  0  0  0  0  0  0  0  0  0  0
   15.2010  -31.5037    0.0000 C   0  0  0  0  0  0  0  0  0  0  0  0
   16.6113  -32.0148    0.0000 C   0  0  0  0  0  0  0  0  0  0  0  0
   18.0541  -32.4252    0.0000 C   0  0  0  0  0  0  0  0  0  0  0  0
   19.5222  -32.7327    0.0000 C   0  0  0  0  0  0  0  0  0  0  0  0
   21.0084  -32.9359    0.0000 C   0  0  0  0  0  0  0  0  0  0  0  0
   22.5052  -33.0338    0.0000 C   0  0  0  0  0  0  0  0  0  0  0  0
   24.0052  -33.0259    0.0000 C   0  0  0  0  0  0  0  0  0  0  0  0
   25.5008  -32.9122    0.0000 C   0  0  0  0  0  0  0  0  0  0  0  0
   26.9848  -32.6932    0.0000 C   0  0  0  0  0  0  0  0  0  0  0  0
   28.4496  -32.3701    0.0000 C   0  0  0  0  0  0  0  0  0  0  0  0
   29.8879  -31.9445    0.0000 C   0  0  0  0  0  0  0  0  0  0  0  0
   31.2927  -31.4185    0.0000 C   0  0  0  0  0  0  0  0  0  0  0  0
   32.6568  -30.7948    0.0000 C   0  0  0  0  0  0  0  0  0  0  0  0
   33.9736  -30.0763    0.0000 C   0  0  0  0  0  0  0  0  0  0  0  0
   35.2364  -29.2668    0.0000 C   0  0  0  0  0  0  0  0  0  0  0  0
   36.4389  -28.3702    0.0000 C   0  0  0  0  0  0  0  0  0  0  0  0
   37.5752  -27.3910    0.0000 C   0  0  0  0  0  0  0  0  0  0  0  0
   38.6396  -26.3341    0.0000 C   0  0  0  0  0  0  0  0  0  0  0  0
   39.6268  -25.2047    0.0000 C   0  0  0  0  0  0  0  0  0  0  0  0
   40.5319  -24.0085    0.0000 C   0  0  0  0  0  0  0  0  0  0  0  0
   41.3503  -22.7515    0.0000 C   0  0  0  0  0  0  0  0  0  0  0  0
   42.0780  -21.4398    0.0000 C   0  0  0  0  0  0  0  0  0  0  0  0
   42.7114  -20.0801    0.0000 C   0  0  0  0  0  0  0  0  0  0  0  0
   43.2473  -18.6791    0.0000 C   0  0  0  0  0  0  0  0  0  0  0  0
   43.6831  -17.2438    0.0000 C   0  0  0  0  0  0  0  0  0  0  0  0
   44.0165  -15.7813    0.0000 C   0  0  0  0  0  0  0  0  0  0  0  0
   44.2459  -14.2990    0.0000 C   0  0  0  0  0  0  0  0  0  0  0  0
   44.3702  -12.8041    0.0000 C   0  0  0  0  0  0  0  0  0  0  0  0
   44.3887  -11.3042    0.0000 C   0  0  0  0  0  0  0  0  0  0  0  0
   44.3014   -9.8068    0.0000 C   0  0  0  0  0  0  0  0  0  0  0  0
   44.1087   -8.3192    0.0000 C   0  0  0  0  0  0  0  0  0  0  0  0
   43.8115   -6.8490    0.0000 C   0  0  0  0  0  0  0  0  0  0  0  0
   43.4113   -5.4033    0.0000 C   0  0  0  0  0  0  0  0  0  0  0  0
   42.9102   -3.9895    0.0000 C   0  0  0  0  0  0  0  0  0  0  0  0
   42.3106   -2.6146    0.0000 C   0  0  0  0  0  0  0  0  0  0  0  0
   41.6155   -1.2853    0.0000 C   0  0  0  0  0  0  0  0  0  0  0  0
   40.8284   -0.0084    0.0000 C   0  0  0  0  0  0  0  0  0  0  0  0
   39.9531    1.2097    0.0000 C   0  0  0  0  0  0  0  0  0  0  0  0
   38.9942    2.3631    0.0000 C   0  0  0  0  0  0  0  0  0  0  0  0
   37.9562    3.4460    0.0000 C   0  0  0  0  0  0  0  0  0  0  0  0
   36.8444    4.4530    0.0000 C   0  0  0  0  0  0  0  0  0  0  0  0
   35.6644    5.3790    0.0000 C   0  0  0  0  0  0  0  0  0  0  0  0
   34.4220    6.2195    0.0000 C   0  0  0  0  0  0  0  0  0  0  0  0
   33.1234    6.9703    0.0000 C   0  0  0  0  0  0  0  0  0  0  0  0
   31.7751    7.6276    0.0000 C   0  0  0  0  0  0  0  0  0  0  0  0
   30.3838    8.1881    0.0000 C   0  0  0  0  0  0  0  0  0  0  0  0
   28.9564    8.6491    0.0000 C   0  0  0  0  0  0  0  0  0  0  0  0
   27.5000    9.0083    0.0000 C   0  0  0  0  0  0  0  0  0  0  0  0
   26.0219    9.2639    0.0000 C   0  0  0  0  0  0  0  0  0  0  0  0
   24.5295    9.4145    0.0000 C   0  0  0  0  0  0  0  0  0  0  0  0
   23.0302    9.4595    0.0000 C   0  0  0  0  0  0  0  0  0  0  0  0
   21.5314    9.3986    0.0000 C   0  0  0  0  0  0  0  0  0  0  0  0
   20.0407    9.2322    0.0000 C   0  0  0  0  0  0  0  0  0  0  0  0
   18.5654    8.9610    0.0000 C   0  0  0  0  0  0  0  0  0  0  0  0
   17.1129    8.5864    0.0000 C   0  0  0  0  0  0  0  0  0  0  0  0
   15.6905    8.1103    0.0000 C   0  0  0  0  0  0  0  0  0  0  0  0
   14.3052    7.5351    0.0000 C   0  0  0  0  0  0  0  0  0  0  0  0
   12.9639    6.8635    0.0000 C   0  0  0  0  0  0  0  0  0  0  0  0
   11.6733    6.0991    0.0000 C   0  0  0  0  0  0  0  0  0  0  0  0
   10.4399    5.2455    0.0000 C   0  0  0  0  0  0  0  0  0  0  0  0
    9.2697    4.3070    0.0000 C   0  0  0  0  0  0  0  0  0  0  0  0
    8.1687    3.2883    0.0000 C   0  0  0  0  0  0  0  0  0  0  0  0
    7.1423    2.1945    0.0000 C   0  0  0  0  0  0  0  0  0  0  0  0
    6.1955    1.0310    0.0000 C   0  0  0  0  0  0  0  0  0  0  0  0
    5.3333   -0.1964    0.0000 C   0  0  0  0  0  0  0  0  0  0  0  0
    4.5597   -1.4815    0.0000 C   0  0  0  0  0  0  0  0  0  0  0  0
    4.0943   -0.0000    0.0000 C   0  0  0  0  0  0  0  0  0  0  0  0
    3.8939    1.2652    0.0000 C   0  0  0  0  0  0  0  0  0  0  0  0
    3.3124    2.4066    0.0000 C   0  0  0  0  0  0  0  0  0  0  0  0
    2.4066    3.3124    0.0000 C   0  0  0  0  0  0  0  0  0  0  0  0
    1.2652    3.8939    0.0000 C   0  0  0  0  0  0  0  0  0  0  0  0
    0.0000    4.0943    0.0000 C   0  0  0  0  0  0  0  0  0  0  0  0
   -1.2652    3.8939    0.0000 C   0  0  0  0  0  0  0  0  0  0  0  0
   -2.4066    3.3124    0.0000 C   0  0  0  0  0  0  0  0  0  0  0  0
   -3.3124    2.4066    0.0000 C   0  0  0  0  0  0  0  0  0  0  0  0
   -3.8939    1.2652    0.0000 C   0  0  0  0  0  0  0  0  0  0  0  0
   -4.0943    0.0000    0.0000 C   0  0  0  0  0  0  0  0  0  0  0  0
   -3.8939   -1.2652    0.0000 C   0  0  0  0  0  0  0  0  0  0  0  0
   -3.3124   -2.4066    0.0000 C   0  0  0  0  0  0  0  0  0  0  0  0
   -2.4066   -3.3124    0.0000 C   0  0  0  0  0  0  0  0  0  0  0  0
   -1.2652   -3.8939    0.0000 C   0  0  0  0  0  0  0  0  0  0  0  0
   -0.0000   -4.0943    0.0000 C   0  0  0  0  0  0  0  0  0  0  0  0
    1.2652   -3.8939    0.0000 C   0  0  0  0  0  0  0  0  0  0  0  0
    2.4066   -3.3124    0.0000 C   0  0  0  0  0  0  0  0  0  0  0  0
    3.8787   -2.8180    0.0000 C   0  0  0  0  0  0  0  0  0  0  0  0
  1  2  1  0
  2  3  1  0
  3  4  1  0
  4  5  1  0
  5  6  1  0
  6  7  1  0
  7  8  1  0
  8  9  1  0
  9 10  1  0
 10 11  1  0
 11 12  1  0
 12 13  1  0
 13 14  1  0
 14 15  1  0
 15 16  1  0
 16 17  1  0
 17 18  1  0
 18 19  1  0
 19 20  1  0
 20 21  1  0
 21 22  1  0
 22 23  1  0
 23 24  1  0
 24 25  1  0
 25 26  1  0
 26 27  1  0
 27 28  1  0
 28 29  1  0
 29 30  1  0
 30 31  1  0
 31 32  1  0
 32 33  1  0
 33 34  1  0
 34 35  1  0
 35 36  1  0
 36 37  1  0
 37 38  1  0
 38 39  1  0
 39 40  1  0
 40 41  1  0
 41 42  1  0
 42 43  1  0
 43 44  1  0
 44 45  1  0
 45 46  1  0
 46 47  1  0
 47 48  1  0
 48 49  1  0
 49 50  1  0
 50 51  1  0
 51 52  1  0
 52 53  1  0
 53 54  1  0
 54 55  1  0
 55 56  1  0
 56 57  1  0
 57 58  1  0
 58 59  1  0
 59 60  1  0
 60 61  1  0
 61 62  1  0
 62 63  1  0
 63 64  1  0
 64 65  1  0
 65 66  1  0
 66 67  1  0
 67 68  1  0
 68 69  1  0
 69 70  1  0
 70 71  1  0
 71 72  1  0
 72 73  1  0
 73 74  1  0
 74 75  1  0
 75 76  1  0
 76 77  1  0
 77 78  1  0
 78 79  1  0
 79 80  1  0
 80 81  1  0
 81 82  1  0
 82 83  1  0
 83 84  1  0
 84 85  1  0
 85 86  1  0
 86 87  1  0
 87 88  1  0
 88 89  1  0
 89 90  1  0
 90 91  1  0
 91 92  1  0
 92 93  1  0
 93 94  1  0
 94 95  1  0
 95 96  1  0
 96 97  1  0
 97 98  2  0
 98 99  1  0
 99100  2  0
100101  1  0
101102  2  0
102103  1  0
103104  2  0
104105  1  0
105106  2  0
106107  1  0
107108  2  0
108  2  1  0
108 89  1  0
M  END
>  <Title>  (156) 
idAAEBgen9

$$$$

     RDKit          2D

  9  9  0  0  0  0  0  0  0  0999 V2000
    3.7500    1.2990    0.0000 C   0  0  0  0  0  0  0  0  0  0  0  0
    3.0000    0.0000    0.0000 C   0  0  0  0  0  0  0  0  0  0  0  0
    3.7500   -1.2990    0.0000 C   0  0  0  0  0  0  0  0  0  0  0  0
    1.5000    0.0000    0.0000 C   0  0  0  0  0  0  0  0  0  0  0  0
    0.7500   -1.2990    0.0000 C   0  0  0  0  0  0  0  0  0  0  0  0
   -0.7500   -1.2990    0.0000 C   0  0  0  0  0  0  0  0  0  0  0  0
   -1.5000    0.0000    0.0000 C   0  0  0  0  0  0  0  0  0  0  0  0
   -0.7500    1.2990    0.0000 C   0  0  0  0  0  0  0  0  0  0  0  0
    0.7500    1.2990    0.0000 C   0  0  0  0  0  0  0  0  0  0  0  0
  1  2  2  0
  2  3  1  0
  2  4  1  0
  4  5  2  0
  5  6  1  0
  6  7  2  0
  7  8  1  0
  8  9  2  0
  9  4  1  0
M  END
>  <Title>  (157) 
idAAECgen9

$$$$

     RDKit          2D

  8  8  0  0  0  0  0  0  0  0999 V2000
    2.7760    0.0000    0.0000 C   0  0  0  0  0  0  0  0  0  0  0  0
    1.2760    0.0000    0.0000 C   0  0  0  0  0  0  0  0  0  0  0  0
    0.3943    1.2135    0.0000 C   0  0  0  0  0  0  0  0  0  0  0  0
   -1.0323    0.7500    0.0000 C   0  0  0  0  0  0  0  0  0  0  0  0
   -2.2458    1.6317    0.0000 C   0  0  0  0  0  0  0  0  0  0  0  0
   -3.4593    2.5134    0.0000 N   0  0  0  0  0  0  0  0  0  0  0  0
   -1.0323   -0.7500    0.0000 C   0  0  0  0  0  0  0  0  0  0  0  0
    0.3943   -1.2135    0.0000 C   0  0  0  0  0  0  0  0  0  0  0  0
  1  2  1  0
  2  3  2  0
  3  4  1  0
  4  5  1  0
  5  6  3  0
  4  7  1  0
  7  8  2  0
  8  2  1  0
M  END
>  <Title>  (158) 
idAAEDgen9

$$$$

     RDKit          2D

 31 33  0  0  0  0  0  0  0  0999 V2000
   21.3135    8.9728    0.0000 C   0  0  0  0  0  0  0  0  0  0  0  0
   19.9432    8.3626    0.0000 C   0  0  0  0  0  0  0  0  0  0  0  0
   18.5729    7.7525    0.0000 C   0  0  0  0  0  0  0  0  0  0  0  0
   17.2026    7.1424    0.0000 C   0  0  0  0  0  0  0  0  0  0  0  0
   15.8323    6.5323    0.0000 C   0  0  0  0  0  0  0  0  0  0  0  0
   14.4620    5.9222    0.0000 C   0  0  0  0  0  0  0  0  0  0  0  0
   13.0916    5.3121    0.0000 C   0  0  0  0  0  0  0  0  0  0  0  0
   11.7213    4.7020    0.0000 C   0  0  0  0  0  0  0  0  0  0  0  0
   10.3510    4.0919    0.0000 C   0  0  0  0  0  0  0  0  0  0  0  0
    8.9807    3.4818    0.0000 C   0  0  0  0  0  0  0  0  0  0  0  0
    7.6104    2.8717    0.0000 C   0  0  0  0  0  0  0  0  0  0  0  0
    6.3968    3.7534    0.0000 O   0  0  0  0  0  0  0  0  0  0  0  0
    7.4536    1.3799    0.0000 N   0  0  0  0  0  0  0  0  0  0  0  0
    6.1545    0.6299    0.0000 C   0  0  0  0  0  0  0  0  0  0  0  0
    6.4664   -0.8373    0.0000 C   0  0  0  0  0  0  0  0  0  0  0  0
    5.4627   -1.9520    0.0000 C   0  0  0  0  0  0  0  0  0  0  0  0
    5.9262   -3.3786    0.0000 O   0  0  0  0  0  0  0  0  0  0  0  0
    3.9955   -1.6402    0.0000 N   0  0  0  0  0  0  0  0  0  0  0  0
    2.9918   -2.7549    0.0000 C   0  0  0  0  0  0  0  0  0  0  0  0
    3.3037   -4.2221    0.0000 N   0  0  0  0  0  0  0  0  0  0  0  0
    2.0046   -4.9721    0.0000 N   0  0  0  0  0  0  0  0  0  0  0  0
    0.8899   -3.9684    0.0000 N   0  0  0  0  0  0  0  0  0  0  0  0
    1.5000   -2.5981    0.0000 N   0  0  0  0  0  0  0  0  0  0  0  0
    0.7500   -1.2990    0.0000 C   0  0  0  0  0  0  0  0  0  0  0  0
    1.5000    0.0000    0.0000 C   0  0  0  0  0  0  0  0  0  0  0  0
    0.7500    1.2990    0.0000 C   0  0  0  0  0  0  0  0  0  0  0  0
   -0.7500    1.2990    0.0000 C   0  0  0  0  0  0  0  0  0  0  0  0
   -1.5000    0.0000    0.0000 C   0  0  0  0  0  0  0  0  0  0  0  0
   -0.7500   -1.2990    0.0000 C   0  0  0  0  0  0  0  0  0  0  0  0
    7.9582   -0.9941    0.0000 C   0  0  0  0  0  0  0  0  0  0  0  0
    8.5683    0.3762    0.0000 C   0  0  0  0  0  0  0  0  0  0  0  0
  1  2  3  0
  2  3  1  0
  3  4  3  0
  4  5  1  0
  5  6  3  0
  6  7  1  0
  7  8  3  0
  8  9  1  0
  9 10  3  0
 10 11  1  0
 11 12  2  0
 11 13  1  0
 13 14  1  0
 14 15  2  0
 15 16  1  0
 16 17  2  0
 16 18  1  0
 18 19  1  0
 19 20  2  0
 20 21  1  0
 21 22  2  0
 22 23  1  0
 23 24  1  0
 24 25  2  0
 25 26  1  0
 26 27  2  0
 27 28  1  0
 28 29  2  0
 15 30  1  0
 30 31  1  0
 31 13  1  0
 23 19  1  0
 29 24  1  0
M  END
>  <Title>  (159) 
idAAEEgen9

$$$$

     RDKit          2D

  9  9  0  0  0  0  0  0  0  0999 V2000
    7.2760   -0.0000    0.0000 C   0  0  0  0  0  0  0  0  0  0  0  0
    5.7760   -0.0000    0.0000 C   0  0  0  0  0  0  0  0  0  0  0  0
    4.2760   -0.0000    0.0000 C   0  0  0  0  0  0  0  0  0  0  0  0
    2.7760    0.0000    0.0000 C   0  0  0  0  0  0  0  0  0  0  0  0
    1.2760    0.0000    0.0000 C   0  0  0  0  0  0  0  0  0  0  0  0
    0.3943    1.2135    0.0000 C   0  0  0  0  0  0  0  0  0  0  0  0
   -1.0323    0.7500    0.0000 C   0  0  0  0  0  0  0  0  0  0  0  0
   -1.0323   -0.7500    0.0000 N   0  0  0  0  0  0  0  0  0  0  0  0
    0.3943   -1.2135    0.0000 C   0  0  0  0  0  0  0  0  0  0  0  0
  1  2  3  0
  2  3  1  0
  3  4  3  0
  4  5  1  0
  5  6  1  0
  6  7  2  0
  7  8  1  0
  8  9  1  0
  9  5  2  0
M  END
>  <Title>  (160) 
idAAEFgen9

$$$$

     RDKit          2D

 16 18  0  0  0  0  0  0  0  0999 V2000
    0.4895   -5.3743    0.0000 C   0  0  0  0  0  0  0  0  0  0  0  0
    0.7500   -3.8971    0.0000 C   0  0  0  0  0  0  0  0  0  0  0  0
    2.1595   -4.4101    0.0000 C   0  0  0  0  0  0  0  0  0  0  0  0
    1.5000   -2.5981    0.0000 N   0  0  0  0  0  0  0  0  0  0  0  0
    0.7500   -1.2990    0.0000 C   0  0  0  0  0  0  0  0  0  0  0  0
    1.5000    0.0000    0.0000 C   0  0  0  0  0  0  0  0  0  0  0  0
    0.7500    1.2990    0.0000 C   0  0  0  0  0  0  0  0  0  0  0  0
   -0.7500    1.2990    0.0000 C   0  0  0  0  0  0  0  0  0  0  0  0
   -1.5000    0.0000    0.0000 C   0  0  0  0  0  0  0  0  0  0  0  0
   -0.7500   -1.2990    0.0000 C   0  0  0  0  0  0  0  0  0  0  0  0
   -1.5000   -2.5981    0.0000 C   0  0  0  0  0  0  0  0  0  0  0  0
   -3.0000   -2.5981    0.0000 C   0  0  0  0  0  0  0  0  0  0  0  0
   -3.7500   -3.8971    0.0000 C   0  0  0  0  0  0  0  0  0  0  0  0
   -3.0000   -5.1962    0.0000 C   0  0  0  0  0  0  0  0  0  0  0  0
   -1.5000   -5.1962    0.0000 C   0  0  0  0  0  0  0  0  0  0  0  0
   -0.7500   -3.8971    0.0000 C   0  0  0  0  0  0  0  0  0  0  0  0
  1  2  1  0
  2  3  1  0
  2  4  1  0
  4  5  1  0
  5  6  2  0
  6  7  1  0
  7  8  2  0
  8  9  1  0
  9 10  2  0
 10 11  1  0
 11 12  2  0
 12 13  1  0
 13 14  2  0
 14 15  1  0
 15 16  2  0
 16  2  1  0
 10  5  1  0
 16 11  1  0
M  END
>  <Title>  (161) 
idAAEGgen9

$$$$

     RDKit          2D

  8  8  0  0  0  0  0  0  0  0999 V2000
    3.5260    1.2990    0.0000 C   0  0  0  0  0  0  0  0  0  0  0  0
    2.7760    0.0000    0.0000 C   0  0  0  0  0  0  0  0  0  0  0  0
    3.5260   -1.2990    0.0000 C   0  0  0  0  0  0  0  0  0  0  0  0
    1.2760    0.0000    0.0000 C   0  0  0  0  0  0  0  0  0  0  0  0
    0.3943    1.2135    0.0000 C   0  0  0  0  0  0  0  0  0  0  0  0
   -1.0323    0.7500    0.0000 C   0  0  0  0  0  0  0  0  0  0  0  0
   -1.0323   -0.7500    0.0000 C   0  0  0  0  0  0  0  0  0  0  0  0
    0.3943   -1.2135    0.0000 C   0  0  0  0  0  0  0  0  0  0  0  0
  1  2  2  0
  2  3  1  0
  2  4  1  0
  4  5  2  0
  5  6  1  0
  6  7  1  0
  7  8  2  0
  8  4  1  0
M  END
>  <Title>  (162) 
idAAEHgen9

$$$$

     RDKit          2D

 10 10  0  0  0  0  0  0  0  0999 V2000
    3.9786    1.2990    0.0000 O   0  0  0  0  0  0  0  0  0  0  0  0
    3.2286   -0.0000    0.0000 C   0  0  0  0  0  0  0  0  0  0  0  0
    3.9786   -1.2990    0.0000 O   0  0  0  0  0  0  0  0  0  0  0  0
    1.7286    0.0000    0.0000 C   0  0  0  0  0  0  0  0  0  0  0  0
    1.0777    1.3515    0.0000 C   0  0  0  0  0  0  0  0  0  0  0  0
   -0.3846    1.6852    0.0000 C   0  0  0  0  0  0  0  0  0  0  0  0
   -1.5574    0.7500    0.0000 C   0  0  0  0  0  0  0  0  0  0  0  0
   -1.5574   -0.7500    0.0000 C   0  0  0  0  0  0  0  0  0  0  0  0
   -0.3846   -1.6852    0.0000 C   0  0  0  0  0  0  0  0  0  0  0  0
    1.0777   -1.3515    0.0000 C   0  0  0  0  0  0  0  0  0  0  0  0
  1  2  2  0
  2  3  1  0
  2  4  1  0
  4  5  1  0
  5  6  1  0
  6  7  1  0
  7  8  1  0
  8  9  1  0
  9 10  1  0
 10  4  1  0
M  END
>  <Title>  (163) 
idAAEIgen9

$$$$

     RDKit          2D

 13 13  0  0  0  0  0  0  0  0999 V2000
   13.2760   -0.0000    0.0000 C   0  0  0  0  0  0  0  0  0  0  0  0
   11.7760   -0.0000    0.0000 C   0  0  0  0  0  0  0  0  0  0  0  0
   10.2760   -0.0000    0.0000 C   0  0  0  0  0  0  0  0  0  0  0  0
    8.7760   -0.0000    0.0000 C   0  0  0  0  0  0  0  0  0  0  0  0
    7.2760   -0.0000    0.0000 C   0  0  0  0  0  0  0  0  0  0  0  0
    5.7760   -0.0000    0.0000 C   0  0  0  0  0  0  0  0  0  0  0  0
    4.2760   -0.0000    0.0000 C   0  0  0  0  0  0  0  0  0  0  0  0
    2.7760    0.0000    0.0000 C   0  0  0  0  0  0  0  0  0  0  0  0
    1.2760    0.0000    0.0000 C   0  0  0  0  0  0  0  0  0  0  0  0
    0.3943    1.2135    0.0000 C   0  0  0  0  0  0  0  0  0  0  0  0
   -1.0323    0.7500    0.0000 C   0  0  0  0  0  0  0  0  0  0  0  0
   -1.0323   -0.7500    0.0000 C   0  0  0  0  0  0  0  0  0  0  0  0
    0.3943   -1.2135    0.0000 C   0  0  0  0  0  0  0  0  0  0  0  0
  1  2  3  0
  2  3  1  0
  3  4  3  0
  4  5  1  0
  5  6  3  0
  6  7  1  0
  7  8  3  0
  8  9  1  0
  9 10  1  0
 10 11  2  0
 11 12  1  0
 12 13  2  0
 13  9  1  0
M  END
>  <Title>  (164) 
idAAEJgen9

$$$$

     RDKit          2D

 12 12  0  0  0  0  0  0  0  0999 V2000
   10.0607    0.0000    0.0000 C   0  0  0  0  0  0  0  0  0  0  0  0
    8.5607    0.0000    0.0000 C   0  0  0  0  0  0  0  0  0  0  0  0
    7.0607    0.0000    0.0000 C   0  0  0  0  0  0  0  0  0  0  0  0
    5.5607    0.0000    0.0000 C   0  0  0  0  0  0  0  0  0  0  0  0
    4.0607    0.0000    0.0000 C   0  0  0  0  0  0  0  0  0  0  0  0
    2.5607    0.0000    0.0000 C   0  0  0  0  0  0  0  0  0  0  0  0
    1.0607    0.0000    0.0000 C   0  0  0  0  0  0  0  0  0  0  0  0
   -0.0000   -1.0607    0.0000 C   0  0  0  0  0  0  0  0  0  0  0  0
   -0.0000   -2.5607    0.0000 C   0  0  0  0  0  0  0  0  0  0  0  0
   -0.0000   -4.0607    0.0000 N   0  0  0  0  0  0  0  0  0  0  0  0
   -1.0607    0.0000    0.0000 C   0  0  0  0  0  0  0  0  0  0  0  0
    0.0000    1.0607    0.0000 C   0  0  0  0  0  0  0  0  0  0  0  0
  1  2  3  0
  2  3  1  0
  3  4  3  0
  4  5  1  0
  5  6  3  0
  6  7  1  0
  7  8  2  0
  8  9  1  0
  9 10  3  0
  8 11  1  0
 11 12  2  0
 12  7  1  0
M  END
>  <Title>  (165) 
idAAEKgen9

$$$$

     RDKit          2D

 29 32  0  0  0  0  0  0  0  0999 V2000
    3.9955   -1.6402    0.0000 C   0  0  0  0  0  0  0  0  0  0  0  0
    2.9918   -2.7549    0.0000 C   0  0  0  0  0  0  0  0  0  0  0  0
    3.3037   -4.2221    0.0000 C   0  0  0  0  0  0  0  0  0  0  0  0
    2.0046   -4.9721    0.0000 C   0  0  0  0  0  0  0  0  0  0  0  0
    1.8478   -6.4639    0.0000 C   0  0  0  0  0  0  0  0  0  0  0  0
    1.6910   -7.9557    0.0000 N   0  0  0  0  0  0  0  0  0  0  0  0
    0.8899   -3.9684    0.0000 C   0  0  0  0  0  0  0  0  0  0  0  0
    1.5000   -2.5981    0.0000 C   0  0  0  0  0  0  0  0  0  0  0  0
    0.7500   -1.2990    0.0000 C   0  0  0  0  0  0  0  0  0  0  0  0
    1.5000    0.0000    0.0000 C   0  0  0  0  0  0  0  0  0  0  0  0
    0.7500    1.2990    0.0000 C   0  0  0  0  0  0  0  0  0  0  0  0
   -0.7500    1.2990    0.0000 C   0  0  0  0  0  0  0  0  0  0  0  0
   -1.5000    2.5981    0.0000 C   0  0  0  0  0  0  0  0  0  0  0  0
   -2.2500    3.8971    0.0000 N   0  0  0  0  0  0  0  0  0  0  0  0
   -1.5000    0.0000    0.0000 C   0  0  0  0  0  0  0  0  0  0  0  0
   -0.7500   -1.2990    0.0000 C   0  0  0  0  0  0  0  0  0  0  0  0
   -1.5000   -2.5981    0.0000 C   0  0  0  0  0  0  0  0  0  0  0  0
   -0.7500   -3.8971    0.0000 C   0  0  0  0  0  0  0  0  0  0  0  0
   -1.5000   -5.1962    0.0000 C   0  0  0  0  0  0  0  0  0  0  0  0
   -3.0000   -5.1962    0.0000 C   0  0  0  0  0  0  0  0  0  0  0  0
   -3.7500   -3.8971    0.0000 C   0  0  0  0  0  0  0  0  0  0  0  0
   -3.0000   -2.5981    0.0000 C   0  0  0  0  0  0  0  0  0  0  0  0
   -3.7500   -1.2990    0.0000 C   0  0  0  0  0  0  0  0  0  0  0  0
   -3.0000    0.0000    0.0000 C   0  0  0  0  0  0  0  0  0  0  0  0
   -3.7500    1.2990    0.0000 C   0  0  0  0  0  0  0  0  0  0  0  0
   -5.2500    1.2990    0.0000 C   0  0  0  0  0  0  0  0  0  0  0  0
   -6.0000   -0.0000    0.0000 C   0  0  0  0  0  0  0  0  0  0  0  0
   -5.2500   -1.2990    0.0000 C   0  0  0  0  0  0  0  0  0  0  0  0
   -6.0000   -2.5981    0.0000 O   0  0  0  0  0  0  0  0  0  0  0  0
  1  2  1  0
  2  3  2  0
  3  4  1  0
  4  5  1  0
  5  6  3  0
  4  7  1  0
  7  8  2  0
  8  9  1  0
  9 10  2  0
 10 11  1  0
 11 12  2  0
 12 13  1  0
 13 14  3  0
 12 15  1  0
 15 16  2  0
 16 17  1  0
 17 18  2  0
 18 19  1  0
 19 20  2  0
 20 21  1  0
 21 22  2  0
 22 23  1  0
 23 24  2  0
 24 25  1  0
 25 26  2  0
 26 27  1  0
 27 28  2  0
 28 29  1  0
  8  2  1  0
 16  9  1  0
 22 17  1  0
 28 23  1  0
M  END
>  <Title>  (166) 
idAAELgen9

$$$$

     RDKit          2D

 18 18  0  0  0  0  0  0  0  0999 V2000
   13.7886  -12.7279    0.0000 C   0  0  0  0  0  0  0  0  0  0  0  0
   12.7279  -11.6673    0.0000 C   0  0  0  0  0  0  0  0  0  0  0  0
   11.6673  -10.6066    0.0000 C   0  0  0  0  0  0  0  0  0  0  0  0
   10.6066   -9.5459    0.0000 C   0  0  0  0  0  0  0  0  0  0  0  0
    9.5459   -8.4853    0.0000 C   0  0  0  0  0  0  0  0  0  0  0  0
    8.4853   -7.4246    0.0000 C   0  0  0  0  0  0  0  0  0  0  0  0
    7.4246   -6.3640    0.0000 C   0  0  0  0  0  0  0  0  0  0  0  0
    6.3640   -5.3033    0.0000 C   0  0  0  0  0  0  0  0  0  0  0  0
    5.3033   -4.2426    0.0000 C   0  0  0  0  0  0  0  0  0  0  0  0
    4.2426   -3.1820    0.0000 C   0  0  0  0  0  0  0  0  0  0  0  0
    3.1820   -2.1213    0.0000 C   0  0  0  0  0  0  0  0  0  0  0  0
    2.1213   -1.0607    0.0000 C   0  0  0  0  0  0  0  0  0  0  0  0
    1.0607    0.0000    0.0000 C   0  0  0  0  0  0  0  0  0  0  0  0
    2.1213    1.0607    0.0000 C   0  0  0  0  0  0  0  0  0  0  0  0
   -0.0000   -1.0607    0.0000 C   0  0  0  0  0  0  0  0  0  0  0  0
   -1.0607    0.0000    0.0000 C   0  0  0  0  0  0  0  0  0  0  0  0
    0.0000    1.0607    0.0000 C   0  0  0  0  0  0  0  0  0  0  0  0
    0.0000    2.5607    0.0000 C   0  0  0  0  0  0  0  0  0  0  0  0
  1  2  3  0
  2  3  1  0
  3  4  3  0
  4  5  1  0
  5  6  3  0
  6  7  1  0
  7  8  3  0
  8  9  1  0
  9 10  3  0
 10 11  1  0
 11 12  3  0
 12 13  1  0
 13 14  1  0
 13 15  1  0
 15 16  1  0
 16 17  2  0
 17 18  1  0
 17 13  1  0
M  END
>  <Title>  (167) 
idAAEMgen9

$$$$

     RDKit          2D

  5  5  0  0  0  0  0  0  0  0999 V2000
    1.2760    0.0000    0.0000 C   0  0  0  0  0  0  0  0  0  0  0  0
    0.3943    1.2135    0.0000 C   0  0  0  0  0  0  0  0  0  0  0  0
   -1.0323    0.7500    0.0000 C   0  0  0  0  0  0  0  0  0  0  0  0
   -1.0323   -0.7500    0.0000 C   0  0  0  0  0  0  0  0  0  0  0  0
    0.3943   -1.2135    0.0000 C   0  0  0  0  0  0  0  0  0  0  0  0
  1  2  2  0
  2  3  1  0
  3  4  1  0
  4  5  2  0
  5  1  1  0
M  END
>  <Title>  (168) 
idAAENgen9

$$$$

     RDKit          2D

 10 10  0  0  0  0  0  0  0  0999 V2000
    3.0000   -2.5981    0.0000 O   0  0  0  0  0  0  0  0  0  0  0  0
    3.7500   -1.2990    0.0000 C   0  0  0  0  0  0  0  0  0  0  0  0
    5.2500   -1.2990    0.0000 O   0  0  0  0  0  0  0  0  0  0  0  0
    3.0000    0.0000    0.0000 O   0  0  0  0  0  0  0  0  0  0  0  0
    1.5000    0.0000    0.0000 C   0  0  0  0  0  0  0  0  0  0  0  0
    0.7500   -1.2990    0.0000 C   0  0  0  0  0  0  0  0  0  0  0  0
   -0.7500   -1.2990    0.0000 C   0  0  0  0  0  0  0  0  0  0  0  0
   -1.5000    0.0000    0.0000 C   0  0  0  0  0  0  0  0  0  0  0  0
   -0.7500    1.2990    0.0000 C   0  0  0  0  0  0  0  0  0  0  0  0
    0.7500    1.2990    0.0000 C   0  0  0  0  0  0  0  0  0  0  0  0
  1  2  2  0
  2  3  1  0
  2  4  1  0
  4  5  1  0
  5  6  2  0
  6  7  1  0
  7  8  2  0
  8  9  1  0
  9 10  2  0
 10  5  1  0
M  END
>  <Title>  (169) 
idAAEOgen9

$$$$

     RDKit          2D

 14 14  0  0  0  0  0  0  0  0999 V2000
   10.1937   -8.0296    0.0000 C   0  0  0  0  0  0  0  0  0  0  0  0
    9.0790   -7.0259    0.0000 C   0  0  0  0  0  0  0  0  0  0  0  0
    7.9643   -6.0222    0.0000 C   0  0  0  0  0  0  0  0  0  0  0  0
    6.8496   -5.0185    0.0000 C   0  0  0  0  0  0  0  0  0  0  0  0
    5.7348   -4.0148    0.0000 C   0  0  0  0  0  0  0  0  0  0  0  0
    4.6201   -3.0111    0.0000 C   0  0  0  0  0  0  0  0  0  0  0  0
    3.5054   -2.0074    0.0000 C   0  0  0  0  0  0  0  0  0  0  0  0
    2.3907   -1.0037    0.0000 C   0  0  0  0  0  0  0  0  0  0  0  0
    1.2760    0.0000    0.0000 C   0  0  0  0  0  0  0  0  0  0  0  0
    2.3907    1.0037    0.0000 C   0  0  0  0  0  0  0  0  0  0  0  0
    0.3943    1.2135    0.0000 C   0  0  0  0  0  0  0  0  0  0  0  0
   -1.0323    0.7500    0.0000 C   0  0  0  0  0  0  0  0  0  0  0  0
   -1.0323   -0.7500    0.0000 C   0  0  0  0  0  0  0  0  0  0  0  0
    0.3943   -1.2135    0.0000 C   0  0  0  0  0  0  0  0  0  0  0  0
  1  2  3  0
  2  3  1  0
  3  4  3  0
  4  5  1  0
  5  6  3  0
  6  7  1  0
  7  8  3  0
  8  9  1  0
  9 10  1  0
  9 11  1  0
 11 12  2  0
 12 13  1  0
 13 14  2  0
 14  9  1  0
M  END
>  <Title>  (170) 
idAAEPgen9

$$$$

     RDKit          2D

 16 17  0  0  0  0  0  0  0  0999 V2000
    0.4022  -10.3610    0.0000 C   0  0  0  0  0  0  0  0  0  0  0  0
    0.2454   -8.8692    0.0000 C   0  0  0  0  0  0  0  0  0  0  0  0
    1.3601   -7.8655    0.0000 C   0  0  0  0  0  0  0  0  0  0  0  0
    0.7500   -6.4952    0.0000 C   0  0  0  0  0  0  0  0  0  0  0  0
    1.5000   -5.1962    0.0000 C   0  0  0  0  0  0  0  0  0  0  0  0
    3.0000   -5.1962    0.0000 O   0  0  0  0  0  0  0  0  0  0  0  0
    0.7500   -3.8971    0.0000 O   0  0  0  0  0  0  0  0  0  0  0  0
    1.5000   -2.5981    0.0000 C   0  0  0  0  0  0  0  0  0  0  0  0
    0.7500   -1.2990    0.0000 C   0  0  0  0  0  0  0  0  0  0  0  0
    1.5000    0.0000    0.0000 C   0  0  0  0  0  0  0  0  0  0  0  0
    0.7500    1.2990    0.0000 C   0  0  0  0  0  0  0  0  0  0  0  0
   -0.7500    1.2990    0.0000 C   0  0  0  0  0  0  0  0  0  0  0  0
   -1.5000    0.0000    0.0000 C   0  0  0  0  0  0  0  0  0  0  0  0
   -0.7500   -1.2990    0.0000 C   0  0  0  0  0  0  0  0  0  0  0  0
   -0.7418   -6.6520    0.0000 C   0  0  0  0  0  0  0  0  0  0  0  0
   -1.0537   -8.1192    0.0000 C   0  0  0  0  0  0  0  0  0  0  0  0
  1  2  1  0
  2  3  2  0
  3  4  1  0
  4  5  1  0
  5  6  2  0
  5  7  1  0
  7  8  1  0
  8  9  1  0
  9 10  2  0
 10 11  1  0
 11 12  2  0
 12 13  1  0
 13 14  2  0
  4 15  1  0
 15 16  2  0
 16  2  1  0
 14  9  1  0
M  END
>  <Title>  (171) 
idAAEQgen9

$$$$

     RDKit          2D

  9  9  0  0  0  0  0  0  0  0999 V2000
    4.2760   -0.0000    0.0000 C   0  0  0  0  0  0  0  0  0  0  0  0
    2.7760    0.0000    0.0000 C   0  0  0  0  0  0  0  0  0  0  0  0
    1.2760    0.0000    0.0000 C   0  0  0  0  0  0  0  0  0  0  0  0
    0.3943    1.2135    0.0000 C   0  0  0  0  0  0  0  0  0  0  0  0
   -1.0323    0.7500    0.0000 C   0  0  0  0  0  0  0  0  0  0  0  0
   -1.0323   -0.7500    0.0000 C   0  0  0  0  0  0  0  0  0  0  0  0
   -2.2458   -1.6317    0.0000 C   0  0  0  0  0  0  0  0  0  0  0  0
   -3.4593   -2.5134    0.0000 N   0  0  0  0  0  0  0  0  0  0  0  0
    0.3943   -1.2135    0.0000 C   0  0  0  0  0  0  0  0  0  0  0  0
  1  2  3  0
  2  3  1  0
  3  4  2  0
  4  5  1  0
  5  6  1  0
  6  7  1  0
  7  8  3  0
  6  9  2  0
  9  3  1  0
M  END
>  <Title>  (172) 
idAAERgen9

$$$$

     RDKit          2D

  9  9  0  0  0  0  0  0  0  0999 V2000
    4.2760   -0.0000    0.0000 N   0  0  0  0  0  0  0  0  0  0  0  0
    2.7760    0.0000    0.0000 C   0  0  0  0  0  0  0  0  0  0  0  0
    1.2760    0.0000    0.0000 C   0  0  0  0  0  0  0  0  0  0  0  0
    0.3943    1.2135    0.0000 C   0  0  0  0  0  0  0  0  0  0  0  0
   -1.0323    0.7500    0.0000 C   0  0  0  0  0  0  0  0  0  0  0  0
   -2.2458    1.6317    0.0000 C   0  0  0  0  0  0  0  0  0  0  0  0
   -3.4593    2.5134    0.0000 N   0  0  0  0  0  0  0  0  0  0  0  0
   -1.0323   -0.7500    0.0000 C   0  0  0  0  0  0  0  0  0  0  0  0
    0.3943   -1.2135    0.0000 C   0  0  0  0  0  0  0  0  0  0  0  0
  1  2  3  0
  2  3  1  0
  3  4  2  0
  4  5  1  0
  5  6  1  0
  6  7  3  0
  5  8  1  0
  8  9  2  0
  9  3  1  0
M  END
>  <Title>  (173) 
idAAESgen9

$$$$

     RDKit          2D

 17 18  0  0  0  0  0  0  0  0999 V2000
    3.0000    0.0000    0.0000 C   0  0  0  0  0  0  0  0  0  0  0  0
    1.5000    0.0000    0.0000 C   0  0  0  0  0  0  0  0  0  0  0  0
    0.7500   -1.2990    0.0000 C   0  0  0  0  0  0  0  0  0  0  0  0
   -0.7500   -1.2990    0.0000 C   0  0  0  0  0  0  0  0  0  0  0  0
   -1.5000    0.0000    0.0000 C   0  0  0  0  0  0  0  0  0  0  0  0
   -3.0000    0.0000    0.0000 C   0  0  0  0  0  0  0  0  0  0  0  0
   -4.5000    0.0000    0.0000 N   0  0  0  0  0  0  0  0  0  0  0  0
   -0.7500    1.2990    0.0000 C   0  0  0  0  0  0  0  0  0  0  0  0
    0.7500    1.2990    0.0000 C   0  0  0  0  0  0  0  0  0  0  0  0
    1.5000    2.5981    0.0000 C   0  0  0  0  0  0  0  0  0  0  0  0
    0.7500    3.8971    0.0000 O   0  0  0  0  0  0  0  0  0  0  0  0
    3.0000    2.5981    0.0000 N   0  0  0  0  0  0  0  0  0  0  0  0
    3.7500    3.8971    0.0000 C   0  0  0  0  0  0  0  0  0  0  0  0
    3.1399    5.2674    0.0000 C   0  0  0  0  0  0  0  0  0  0  0  0
    4.2546    6.2711    0.0000 C   0  0  0  0  0  0  0  0  0  0  0  0
    5.5537    5.5211    0.0000 C   0  0  0  0  0  0  0  0  0  0  0  0
    5.2418    4.0539    0.0000 C   0  0  0  0  0  0  0  0  0  0  0  0
  1  2  1  0
  2  3  2  0
  3  4  1  0
  4  5  1  0
  5  6  1  0
  6  7  3  0
  5  8  2  0
  8  9  1  0
  9 10  1  0
 10 11  2  0
 10 12  1  0
 12 13  1  0
 13 14  2  0
 14 15  1  0
 15 16  2  0
 16 17  1  0
  9  2  1  0
 17 13  1  0
M  END
>  <Title>  (174) 
idAAETgen9

$$$$

     RDKit          2D

 64 73  0  0  0  0  0  0  0  0999 V2000
   16.9845   -7.5478    0.0000 C   0  0  0  0  0  0  0  0  0  0  0  0
   15.4887   -7.4357    0.0000 C   0  0  0  0  0  0  0  0  0  0  0  0
   13.9929   -7.3236    0.0000 C   0  0  0  0  0  0  0  0  0  0  0  0
   12.4971   -7.2115    0.0000 C   0  0  0  0  0  0  0  0  0  0  0  0
   11.0013   -7.0994    0.0000 C   0  0  0  0  0  0  0  0  0  0  0  0
    9.5055   -6.9873    0.0000 C   0  0  0  0  0  0  0  0  0  0  0  0
    8.0097   -6.8752    0.0000 C   0  0  0  0  0  0  0  0  0  0  0  0
    6.5139   -6.7631    0.0000 C   0  0  0  0  0  0  0  0  0  0  0  0
    5.0181   -6.6510    0.0000 C   0  0  0  0  0  0  0  0  0  0  0  0
    4.9060   -5.1552    0.0000 C   0  0  0  0  0  0  0  0  0  0  0  0
    4.3580   -3.7589    0.0000 C   0  0  0  0  0  0  0  0  0  0  0  0
    3.4227   -2.5862    0.0000 C   0  0  0  0  0  0  0  0  0  0  0  0
    4.6093   -1.6686    0.0000 C   0  0  0  0  0  0  0  0  0  0  0  0
    4.1033   -0.2565    0.0000 C   0  0  0  0  0  0  0  0  0  0  0  0
    2.6040   -0.3014    0.0000 C   0  0  0  0  0  0  0  0  0  0  0  0
    2.1834   -1.7412    0.0000 C   0  0  0  0  0  0  0  0  0  0  0  0
    0.7500   -1.2990    0.0000 C   0  0  0  0  0  0  0  0  0  0  0  0
    1.5000    0.0000    0.0000 C   0  0  0  0  0  0  0  0  0  0  0  0
    0.7500    1.2990    0.0000 C   0  0  0  0  0  0  0  0  0  0  0  0
   -0.7500    1.2990    0.0000 C   0  0  0  0  0  0  0  0  0  0  0  0
   -1.5000    0.0000    0.0000 C   0  0  0  0  0  0  0  0  0  0  0  0
   -0.7500   -1.2990    0.0000 C   0  0  0  0  0  0  0  0  0  0  0  0
   -2.1834   -1.7412    0.0000 C   0  0  0  0  0  0  0  0  0  0  0  0
   -2.2955   -0.2454    0.0000 C   0  0  0  0  0  0  0  0  0  0  0  0
   -3.6469    0.4055    0.0000 C   0  0  0  0  0  0  0  0  0  0  0  0
   -4.8863   -0.4395    0.0000 C   0  0  0  0  0  0  0  0  0  0  0  0
   -4.7742   -1.9353    0.0000 C   0  0  0  0  0  0  0  0  0  0  0  0
   -3.4227   -2.5862    0.0000 C   0  0  0  0  0  0  0  0  0  0  0  0
   -4.3580   -3.7589    0.0000 C   0  0  0  0  0  0  0  0  0  0  0  0
   -5.2932   -2.5862    0.0000 C   0  0  0  0  0  0  0  0  0  0  0  0
   -6.7764   -2.8097    0.0000 C   0  0  0  0  0  0  0  0  0  0  0  0
   -7.3244   -4.2060    0.0000 C   0  0  0  0  0  0  0  0  0  0  0  0
   -6.3892   -5.3788    0.0000 C   0  0  0  0  0  0  0  0  0  0  0  0
   -4.9060   -5.1552    0.0000 C   0  0  0  0  0  0  0  0  0  0  0  0
   -5.0181   -6.6510    0.0000 C   0  0  0  0  0  0  0  0  0  0  0  0
   -6.4514   -6.2089    0.0000 C   0  0  0  0  0  0  0  0  0  0  0  0
   -7.5510   -7.2291    0.0000 C   0  0  0  0  0  0  0  0  0  0  0  0
   -7.2172   -8.6915    0.0000 C   0  0  0  0  0  0  0  0  0  0  0  0
   -5.7839   -9.1337    0.0000 C   0  0  0  0  0  0  0  0  0  0  0  0
   -4.6843   -8.1134    0.0000 C   0  0  0  0  0  0  0  0  0  0  0  0
   -3.9343   -9.4124    0.0000 C   0  0  0  0  0  0  0  0  0  0  0  0
   -5.3676   -9.8546    0.0000 C   0  0  0  0  0  0  0  0  0  0  0  0
   -5.7014  -11.3170    0.0000 C   0  0  0  0  0  0  0  0  0  0  0  0
   -4.6018  -12.3372    0.0000 C   0  0  0  0  0  0  0  0  0  0  0  0
   -3.1685  -11.8951    0.0000 C   0  0  0  0  0  0  0  0  0  0  0  0
   -2.8347  -10.4327    0.0000 C   0  0  0  0  0  0  0  0  0  0  0  0
   -1.4832  -11.0835    0.0000 C   0  0  0  0  0  0  0  0  0  0  0  0
   -2.4185  -12.2563    0.0000 C   0  0  0  0  0  0  0  0  0  0  0  0
   -1.8705  -13.6526    0.0000 C   0  0  0  0  0  0  0  0  0  0  0  0
   -0.3872  -13.8762    0.0000 C   0  0  0  0  0  0  0  0  0  0  0  0
    0.5480  -12.7034    0.0000 C   0  0  0  0  0  0  0  0  0  0  0  0
   -0.0000  -11.3071    0.0000 C   0  0  0  0  0  0  0  0  0  0  0  0
    1.4832  -11.0835    0.0000 C   0  0  0  0  0  0  0  0  0  0  0  0
    1.3712  -12.5793    0.0000 C   0  0  0  0  0  0  0  0  0  0  0  0
    2.6105  -13.4243    0.0000 C   0  0  0  0  0  0  0  0  0  0  0  0
    3.9620  -12.7735    0.0000 C   0  0  0  0  0  0  0  0  0  0  0  0
    4.0741  -11.2777    0.0000 C   0  0  0  0  0  0  0  0  0  0  0  0
    2.8347  -10.4327    0.0000 C   0  0  0  0  0  0  0  0  0  0  0  0
    3.9343   -9.4124    0.0000 C   0  0  0  0  0  0  0  0  0  0  0  0
    4.6843  -10.7115    0.0000 C   0  0  0  0  0  0  0  0  0  0  0  0
    6.1843  -10.7115    0.0000 C   0  0  0  0  0  0  0  0  0  0  0  0
    6.9343   -9.4124    0.0000 C   0  0  0  0  0  0  0  0  0  0  0  0
    6.1843   -8.1134    0.0000 C   0  0  0  0  0  0  0  0  0  0  0  0
    4.6843   -8.1134    0.0000 C   0  0  0  0  0  0  0  0  0  0  0  0
  1  2  3  0
  2  3  1  0
  3  4  3  0
  4  5  1  0
  5  6  3  0
  6  7  1  0
  7  8  3  0
  8  9  1  0
  9 10  1  0
 10 11  1  0
 11 12  1  0
 12 13  1  0
 13 14  2  0
 14 15  1  0
 15 16  2  0
 16 17  1  0
 17 18  2  0
 18 19  1  0
 19 20  2  0
 20 21  1  0
 21 22  2  0
 22 23  1  0
 23 24  2  0
 24 25  1  0
 25 26  2  0
 26 27  1  0
 27 28  2  0
 28 29  1  0
 29 30  2  0
 30 31  1  0
 31 32  2  0
 32 33  1  0
 33 34  2  0
 34 35  1  0
 35 36  2  0
 36 37  1  0
 37 38  2  0
 38 39  1  0
 39 40  2  0
 40 41  1  0
 41 42  2  0
 42 43  1  0
 43 44  2  0
 44 45  1  0
 45 46  2  0
 46 47  1  0
 47 48  2  0
 48 49  1  0
 49 50  2  0
 50 51  1  0
 51 52  2  0
 52 53  1  0
 53 54  2  0
 54 55  1  0
 55 56  2  0
 56 57  1  0
 57 58  2  0
 58 59  1  0
 59 60  2  0
 60 61  1  0
 61 62  2  0
 62 63  1  0
 63 64  2  0
 64  9  1  0
 16 12  1  0
 22 17  1  0
 28 23  1  0
 34 29  1  0
 40 35  1  0
 46 41  1  0
 52 47  1  0
 58 53  1  0
 64 59  1  0
M  END
>  <Title>  (175) 
idAAEUgen9

$$$$

     RDKit          2D

 10 10  0  0  0  0  0  0  0  0999 V2000
    5.7760   -2.5981    0.0000 C   0  0  0  0  0  0  0  0  0  0  0  0
    5.0260   -1.2990    0.0000 C   0  0  0  0  0  0  0  0  0  0  0  0
    3.5260   -1.2990    0.0000 C   0  0  0  0  0  0  0  0  0  0  0  0
    2.7760   -2.5981    0.0000 O   0  0  0  0  0  0  0  0  0  0  0  0
    2.7760    0.0000    0.0000 N   0  0  0  0  0  0  0  0  0  0  0  0
    1.2760    0.0000    0.0000 C   0  0  0  0  0  0  0  0  0  0  0  0
    0.3943    1.2135    0.0000 C   0  0  0  0  0  0  0  0  0  0  0  0
   -1.0323    0.7500    0.0000 C   0  0  0  0  0  0  0  0  0  0  0  0
   -1.0323   -0.7500    0.0000 C   0  0  0  0  0  0  0  0  0  0  0  0
    0.3943   -1.2135    0.0000 C   0  0  0  0  0  0  0  0  0  0  0  0
  1  2  1  0
  2  3  1  0
  3  4  2  0
  3  5  1  0
  5  6  1  0
  6  7  2  0
  7  8  1  0
  8  9  2  0
  9 10  1  0
 10  6  1  0
M  END
>  <Title>  (176) 
idAAEVgen9

$$$$

     RDKit          2D

 10  9  0  0  0  0  0  0  0  0999 V2000
    0.0000    0.0000    0.0000 C   0  0  0  0  0  0  0  0  0  0  0  0
   -0.0000   -1.5000    0.0000 C   0  0  0  0  0  0  0  0  0  0  0  0
   -0.0000   -3.0000    0.0000 C   0  0  0  0  0  0  0  0  0  0  0  0
   -0.0000   -4.5000    0.0000 C   0  0  0  0  0  0  0  0  0  0  0  0
   -0.0000   -6.0000    0.0000 C   0  0  0  0  0  0  0  0  0  0  0  0
   -0.0000   -7.5000    0.0000 C   0  0  0  0  0  0  0  0  0  0  0  0
   -0.0000   -9.0000    0.0000 C   0  0  0  0  0  0  0  0  0  0  0  0
   -0.0000  -10.5000    0.0000 C   0  0  0  0  0  0  0  0  0  0  0  0
   -0.0000  -12.0000    0.0000 C   0  0  0  0  0  0  0  0  0  0  0  0
    1.2990  -12.7500    0.0000 C   0  0  0  0  0  0  0  0  0  0  0  0
  1  2  3  0
  2  3  1  0
  3  4  3  0
  4  5  1  0
  5  6  3  0
  6  7  1  0
  7  8  3  0
  8  9  1  0
  9 10  1  0
M  END
>  <Title>  (177) 
idAAEWgen9

$$$$

     RDKit          2D

 26 29  0  0  0  0  0  0  0  0999 V2000
   -3.1476   -2.1380    0.0000 C   0  0  0  0  0  0  0  0  0  0  0  0
   -1.6852   -2.4718    0.0000 C   0  0  0  0  0  0  0  0  0  0  0  0
   -1.3515   -3.9342    0.0000 C   0  0  0  0  0  0  0  0  0  0  0  0
   -0.0000   -4.5850    0.0000 C   0  0  0  0  0  0  0  0  0  0  0  0
    1.3515   -3.9342    0.0000 C   0  0  0  0  0  0  0  0  0  0  0  0
    1.6852   -2.4718    0.0000 C   0  0  0  0  0  0  0  0  0  0  0  0
    3.1476   -2.1380    0.0000 C   0  0  0  0  0  0  0  0  0  0  0  0
    3.5898   -0.7046    0.0000 O   0  0  0  0  0  0  0  0  0  0  0  0
    4.1679   -3.2376    0.0000 N   0  0  0  0  0  0  0  0  0  0  0  0
    5.6303   -2.9038    0.0000 C   0  0  0  0  0  0  0  0  0  0  0  0
    6.2198   -1.5245    0.0000 N   0  0  0  0  0  0  0  0  0  0  0  0
    7.7138   -1.6590    0.0000 N   0  0  0  0  0  0  0  0  0  0  0  0
    8.0476   -3.1214    0.0000 N   0  0  0  0  0  0  0  0  0  0  0  0
    6.7599   -3.8907    0.0000 N   0  0  0  0  0  0  0  0  0  0  0  0
    6.6254   -5.3847    0.0000 C   0  0  0  0  0  0  0  0  0  0  0  0
    5.2644   -6.0152    0.0000 C   0  0  0  0  0  0  0  0  0  0  0  0
    5.1299   -7.5092    0.0000 C   0  0  0  0  0  0  0  0  0  0  0  0
    6.3565   -8.3726    0.0000 C   0  0  0  0  0  0  0  0  0  0  0  0
    7.7175   -7.7421    0.0000 C   0  0  0  0  0  0  0  0  0  0  0  0
    7.8520   -6.2481    0.0000 C   0  0  0  0  0  0  0  0  0  0  0  0
    0.7500   -1.2990    0.0000 C   0  0  0  0  0  0  0  0  0  0  0  0
    1.5000    0.0000    0.0000 C   0  0  0  0  0  0  0  0  0  0  0  0
    0.7500    1.2990    0.0000 C   0  0  0  0  0  0  0  0  0  0  0  0
   -0.7500    1.2990    0.0000 C   0  0  0  0  0  0  0  0  0  0  0  0
   -1.5000    0.0000    0.0000 C   0  0  0  0  0  0  0  0  0  0  0  0
   -0.7500   -1.2990    0.0000 C   0  0  0  0  0  0  0  0  0  0  0  0
  1  2  1  0
  2  3  1  0
  3  4  1  0
  4  5  1  0
  5  6  1  0
  6  7  1  0
  7  8  2  0
  7  9  1  0
  9 10  1  0
 10 11  2  0
 11 12  1  0
 12 13  2  0
 13 14  1  0
 14 15  1  0
 15 16  2  0
 16 17  1  0
 17 18  2  0
 18 19  1  0
 19 20  2  0
  6 21  1  0
 21 22  2  0
 22 23  1  0
 23 24  2  0
 24 25  1  0
 25 26  2  0
 26  2  1  0
 14 10  1  0
 20 15  1  0
 26 21  1  0
M  END
>  <Title>  (178) 
idAAEXgen9

$$$$

     RDKit          2D

 11 11  0  0  0  0  0  0  0  0999 V2000
    7.2760   -2.5981    0.0000 C   0  0  0  0  0  0  0  0  0  0  0  0
    5.7760   -2.5981    0.0000 C   0  0  0  0  0  0  0  0  0  0  0  0
    5.0260   -1.2990    0.0000 C   0  0  0  0  0  0  0  0  0  0  0  0
    3.5260   -1.2990    0.0000 C   0  0  0  0  0  0  0  0  0  0  0  0
    2.7760   -2.5981    0.0000 O   0  0  0  0  0  0  0  0  0  0  0  0
    2.7760    0.0000    0.0000 N   0  0  0  0  0  0  0  0  0  0  0  0
    1.2760    0.0000    0.0000 C   0  0  0  0  0  0  0  0  0  0  0  0
    0.3943    1.2135    0.0000 C   0  0  0  0  0  0  0  0  0  0  0  0
   -1.0323    0.7500    0.0000 C   0  0  0  0  0  0  0  0  0  0  0  0
   -1.0323   -0.7500    0.0000 C   0  0  0  0  0  0  0  0  0  0  0  0
    0.3943   -1.2135    0.0000 C   0  0  0  0  0  0  0  0  0  0  0  0
  1  2  1  0
  2  3  1  0
  3  4  1  0
  4  5  2  0
  4  6  1  0
  6  7  1  0
  7  8  2  0
  8  9  1  0
  9 10  2  0
 10 11  1  0
 11  7  1  0
M  END
>  <Title>  (179) 
idAAEYgen9

$$$$

     RDKit          2D

116117  0  0  0  0  0  0  0  0999 V2000
   -2.3748    0.1107    0.0000 C   0  0  0  0  0  0  0  0  0  0  0  0
   -2.2476   -1.3839    0.0000 C   0  0  0  0  0  0  0  0  0  0  0  0
   -3.7380   -1.5534    0.0000 C   0  0  0  0  0  0  0  0  0  0  0  0
   -5.2164   -1.8069    0.0000 C   0  0  0  0  0  0  0  0  0  0  0  0
   -6.6781   -2.1436    0.0000 C   0  0  0  0  0  0  0  0  0  0  0  0
   -8.1185   -2.5625    0.0000 C   0  0  0  0  0  0  0  0  0  0  0  0
   -9.5328   -3.0622    0.0000 C   0  0  0  0  0  0  0  0  0  0  0  0
  -10.9166   -3.6411    0.0000 C   0  0  0  0  0  0  0  0  0  0  0  0
  -12.2654   -4.2974    0.0000 C   0  0  0  0  0  0  0  0  0  0  0  0
  -13.5749   -5.0289    0.0000 C   0  0  0  0  0  0  0  0  0  0  0  0
  -14.8409   -5.8334    0.0000 C   0  0  0  0  0  0  0  0  0  0  0  0
  -16.0594   -6.7082    0.0000 C   0  0  0  0  0  0  0  0  0  0  0  0
  -17.2265   -7.6505    0.0000 C   0  0  0  0  0  0  0  0  0  0  0  0
  -18.3383   -8.6574    0.0000 C   0  0  0  0  0  0  0  0  0  0  0  0
  -19.3915   -9.7255    0.0000 C   0  0  0  0  0  0  0  0  0  0  0  0
  -20.3825  -10.8515    0.0000 C   0  0  0  0  0  0  0  0  0  0  0  0
  -21.3082  -12.0318    0.0000 C   0  0  0  0  0  0  0  0  0  0  0  0
  -22.1657  -13.2625    0.0000 C   0  0  0  0  0  0  0  0  0  0  0  0
  -22.9521  -14.5398    0.0000 C   0  0  0  0  0  0  0  0  0  0  0  0
  -23.6651  -15.8596    0.0000 C   0  0  0  0  0  0  0  0  0  0  0  0
  -24.3022  -17.2175    0.0000 C   0  0  0  0  0  0  0  0  0  0  0  0
  -24.8615  -18.6094    0.0000 C   0  0  0  0  0  0  0  0  0  0  0  0
  -25.3411  -20.0306    0.0000 C   0  0  0  0  0  0  0  0  0  0  0  0
  -25.7396  -21.4767    0.0000 C   0  0  0  0  0  0  0  0  0  0  0  0
  -26.0556  -22.9431    0.0000 C   0  0  0  0  0  0  0  0  0  0  0  0
  -26.2882  -24.4249    0.0000 C   0  0  0  0  0  0  0  0  0  0  0  0
  -26.4365  -25.9176    0.0000 C   0  0  0  0  0  0  0  0  0  0  0  0
  -26.5002  -27.4162    0.0000 C   0  0  0  0  0  0  0  0  0  0  0  0
  -26.4790  -28.9161    0.0000 C   0  0  0  0  0  0  0  0  0  0  0  0
  -26.3729  -30.4123    0.0000 C   0  0  0  0  0  0  0  0  0  0  0  0
  -26.1824  -31.9002    0.0000 C   0  0  0  0  0  0  0  0  0  0  0  0
  -25.9080  -33.3749    0.0000 C   0  0  0  0  0  0  0  0  0  0  0  0
  -25.5506  -34.8317    0.0000 C   0  0  0  0  0  0  0  0  0  0  0  0
  -25.1114  -36.2659    0.0000 C   0  0  0  0  0  0  0  0  0  0  0  0
  -24.5917  -37.6730    0.0000 C   0  0  0  0  0  0  0  0  0  0  0  0
  -23.9932  -39.0485    0.0000 C   0  0  0  0  0  0  0  0  0  0  0  0
  -23.3179  -40.3879    0.0000 C   0  0  0  0  0  0  0  0  0  0  0  0
  -22.5679  -41.6869    0.0000 C   0  0  0  0  0  0  0  0  0  0  0  0
  -21.7456  -42.9414    0.0000 C   0  0  0  0  0  0  0  0  0  0  0  0
  -20.8537  -44.1474    0.0000 C   0  0  0  0  0  0  0  0  0  0  0  0
  -19.8949  -45.3010    0.0000 C   0  0  0  0  0  0  0  0  0  0  0  0
  -18.8725  -46.3985    0.0000 C   0  0  0  0  0  0  0  0  0  0  0  0
  -17.7895  -47.4364    0.0000 C   0  0  0  0  0  0  0  0  0  0  0  0
  -16.6496  -48.4114    0.0000 C   0  0  0  0  0  0  0  0  0  0  0  0
  -15.4564  -49.3203    0.0000 C   0  0  0  0  0  0  0  0  0  0  0  0
  -14.2136  -50.1603    0.0000 C   0  0  0  0  0  0  0  0  0  0  0  0
  -12.9253  -50.9286    0.0000 C   0  0  0  0  0  0  0  0  0  0  0  0
  -11.5956  -51.6228    0.0000 C   0  0  0  0  0  0  0  0  0  0  0  0
  -10.2288  -52.2407    0.0000 C   0  0  0  0  0  0  0  0  0  0  0  0
   -8.8291  -52.7802    0.0000 C   0  0  0  0  0  0  0  0  0  0  0  0
   -7.4013  -53.2397    0.0000 C   0  0  0  0  0  0  0  0  0  0  0  0
   -5.9497  -53.6176    0.0000 C   0  0  0  0  0  0  0  0  0  0  0  0
   -4.4790  -53.9129    0.0000 C   0  0  0  0  0  0  0  0  0  0  0  0
   -2.9940  -54.1244    0.0000 C   0  0  0  0  0  0  0  0  0  0  0  0
   -1.4994  -54.2516    0.0000 C   0  0  0  0  0  0  0  0  0  0  0  0
   -0.0000  -54.2941    0.0000 C   0  0  0  0  0  0  0  0  0  0  0  0
    1.4994  -54.2516    0.0000 C   0  0  0  0  0  0  0  0  0  0  0  0
    2.9940  -54.1244    0.0000 C   0  0  0  0  0  0  0  0  0  0  0  0
    4.4790  -53.9129    0.0000 C   0  0  0  0  0  0  0  0  0  0  0  0
    5.9497  -53.6176    0.0000 C   0  0  0  0  0  0  0  0  0  0  0  0
    7.4013  -53.2397    0.0000 C   0  0  0  0  0  0  0  0  0  0  0  0
    8.8291  -52.7802    0.0000 C   0  0  0  0  0  0  0  0  0  0  0  0
   10.2288  -52.2407    0.0000 C   0  0  0  0  0  0  0  0  0  0  0  0
   11.5956  -51.6228    0.0000 C   0  0  0  0  0  0  0  0  0  0  0  0
   12.9253  -50.9286    0.0000 C   0  0  0  0  0  0  0  0  0  0  0  0
   14.2136  -50.1603    0.0000 C   0  0  0  0  0  0  0  0  0  0  0  0
   15.4564  -49.3203    0.0000 C   0  0  0  0  0  0  0  0  0  0  0  0
   16.6496  -48.4114    0.0000 C   0  0  0  0  0  0  0  0  0  0  0  0
   17.7895  -47.4364    0.0000 C   0  0  0  0  0  0  0  0  0  0  0  0
   18.8725  -46.3985    0.0000 C   0  0  0  0  0  0  0  0  0  0  0  0
   19.8949  -45.3010    0.0000 C   0  0  0  0  0  0  0  0  0  0  0  0
   20.8537  -44.1474    0.0000 C   0  0  0  0  0  0  0  0  0  0  0  0
   21.7456  -42.9414    0.0000 C   0  0  0  0  0  0  0  0  0  0  0  0
   22.5679  -41.6869    0.0000 C   0  0  0  0  0  0  0  0  0  0  0  0
   23.3179  -40.3879    0.0000 C   0  0  0  0  0  0  0  0  0  0  0  0
   23.9932  -39.0485    0.0000 C   0  0  0  0  0  0  0  0  0  0  0  0
   24.5917  -37.6730    0.0000 C   0  0  0  0  0  0  0  0  0  0  0  0
   25.1114  -36.2659    0.0000 C   0  0  0  0  0  0  0  0  0  0  0  0
   25.5506  -34.8317    0.0000 C   0  0  0  0  0  0  0  0  0  0  0  0
   25.9080  -33.3749    0.0000 C   0  0  0  0  0  0  0  0  0  0  0  0
   26.1824  -31.9002    0.0000 C   0  0  0  0  0  0  0  0  0  0  0  0
   26.3729  -30.4123    0.0000 C   0  0  0  0  0  0  0  0  0  0  0  0
   26.4790  -28.9161    0.0000 C   0  0  0  0  0  0  0  0  0  0  0  0
   26.5002  -27.4162    0.0000 C   0  0  0  0  0  0  0  0  0  0  0  0
   26.4365  -25.9176    0.0000 C   0  0  0  0  0  0  0  0  0  0  0  0
   26.2882  -24.4249    0.0000 C   0  0  0  0  0  0  0  0  0  0  0  0
   26.0556  -22.9431    0.0000 C   0  0  0  0  0  0  0  0  0  0  0  0
   25.7396  -21.4767    0.0000 C   0  0  0  0  0  0  0  0  0  0  0  0
   25.3411  -20.0306    0.0000 C   0  0  0  0  0  0  0  0  0  0  0  0
   24.8615  -18.6094    0.0000 C   0  0  0  0  0  0  0  0  0  0  0  0
   24.3022  -17.2175    0.0000 C   0  0  0  0  0  0  0  0  0  0  0  0
   23.6651  -15.8596    0.0000 C   0  0  0  0  0  0  0  0  0  0  0  0
   22.9521  -14.5398    0.0000 C   0  0  0  0  0  0  0  0  0  0  0  0
   22.1657  -13.2625    0.0000 C   0  0  0  0  0  0  0  0  0  0  0  0
   21.3082  -12.0318    0.0000 C   0  0  0  0  0  0  0  0  0  0  0  0
   20.3825  -10.8515    0.0000 C   0  0  0  0  0  0  0  0  0  0  0  0
   19.3915   -9.7255    0.0000 C   0  0  0  0  0  0  0  0  0  0  0  0
   18.3383   -8.6574    0.0000 C   0  0  0  0  0  0  0  0  0  0  0  0
   17.2265   -7.6505    0.0000 C   0  0  0  0  0  0  0  0  0  0  0  0
   16.0594   -6.7082    0.0000 C   0  0  0  0  0  0  0  0  0  0  0  0
   14.8409   -5.8334    0.0000 C   0  0  0  0  0  0  0  0  0  0  0  0
   13.5749   -5.0289    0.0000 C   0  0  0  0  0  0  0  0  0  0  0  0
   12.2654   -4.2974    0.0000 C   0  0  0  0  0  0  0  0  0  0  0  0
   10.9166   -3.6411    0.0000 C   0  0  0  0  0  0  0  0  0  0  0  0
    9.5328   -3.0622    0.0000 C   0  0  0  0  0  0  0  0  0  0  0  0
    8.1185   -2.5625    0.0000 C   0  0  0  0  0  0  0  0  0  0  0  0
    6.6781   -2.1436    0.0000 C   0  0  0  0  0  0  0  0  0  0  0  0
    5.2164   -1.8069    0.0000 C   0  0  0  0  0  0  0  0  0  0  0  0
    3.7380   -1.5534    0.0000 C   0  0  0  0  0  0  0  0  0  0  0  0
    2.2476   -1.3839    0.0000 C   0  0  0  0  0  0  0  0  0  0  0  0
    0.7500   -1.2990    0.0000 C   0  0  0  0  0  0  0  0  0  0  0  0
    1.5000    0.0000    0.0000 C   0  0  0  0  0  0  0  0  0  0  0  0
    0.7500    1.2990    0.0000 C   0  0  0  0  0  0  0  0  0  0  0  0
   -0.7500    1.2990    0.0000 C   0  0  0  0  0  0  0  0  0  0  0  0
   -1.5000    0.0000    0.0000 C   0  0  0  0  0  0  0  0  0  0  0  0
   -0.7500   -1.2990    0.0000 C   0  0  0  0  0  0  0  0  0  0  0  0
  1  2  1  0
  2  3  1  0
  3  4  1  0
  4  5  1  0
  5  6  1  0
  6  7  1  0
  7  8  1  0
  8  9  1  0
  9 10  1  0
 10 11  1  0
 11 12  1  0
 12 13  1  0
 13 14  1  0
 14 15  1  0
 15 16  1  0
 16 17  1  0
 17 18  1  0
 18 19  1  0
 19 20  1  0
 20 21  1  0
 21 22  1  0
 22 23  1  0
 23 24  1  0
 24 25  1  0
 25 26  1  0
 26 27  1  0
 27 28  1  0
 28 29  1  0
 29 30  1  0
 30 31  1  0
 31 32  1  0
 32 33  1  0
 33 34  1  0
 34 35  1  0
 35 36  1  0
 36 37  1  0
 37 38  1  0
 38 39  1  0
 39 40  1  0
 40 41  1  0
 41 42  1  0
 42 43  1  0
 43 44  1  0
 44 45  1  0
 45 46  1  0
 46 47  1  0
 47 48  1  0
 48 49  1  0
 49 50  1  0
 50 51  1  0
 51 52  1  0
 52 53  1  0
 53 54  1  0
 54 55  1  0
 55 56  1  0
 56 57  1  0
 57 58  1  0
 58 59  1  0
 59 60  1  0
 60 61  1  0
 61 62  1  0
 62 63  1  0
 63 64  1  0
 64 65  1  0
 65 66  1  0
 66 67  1  0
 67 68  1  0
 68 69  1  0
 69 70  1  0
 70 71  1  0
 71 72  1  0
 72 73  1  0
 73 74  1  0
 74 75  1  0
 75 76  1  0
 76 77  1  0
 77 78  1  0
 78 79  1  0
 79 80  1  0
 80 81  1  0
 81 82  1  0
 82 83  1  0
 83 84  1  0
 84 85  1  0
 85 86  1  0
 86 87  1  0
 87 88  1  0
 88 89  1  0
 89 90  1  0
 90 91  1  0
 91 92  1  0
 92 93  1  0
 93 94  1  0
 94 95  1  0
 95 96  1  0
 96 97  1  0
 97 98  1  0
 98 99  1  0
 99100  1  0
100101  1  0
101102  1  0
102103  1  0
103104  1  0
104105  1  0
105106  1  0
106107  2  0
107108  1  0
108109  2  0
109110  1  0
110111  2  0
111112  1  0
112113  1  0
113114  2  0
114115  1  0
115116  2  0
116  2  1  0
116111  1  0
M  END
>  <Title>  (180) 
idAAEZgen9

$$$$

     RDKit          2D

102103  0  0  0  0  0  0  0  0999 V2000
   -4.9818   -0.1668    0.0000 O   0  0  0  0  0  0  0  0  0  0  0  0
   -3.7644    0.7094    0.0000 C   0  0  0  0  0  0  0  0  0  0  0  0
   -3.9145    2.2019    0.0000 O   0  0  0  0  0  0  0  0  0  0  0  0
   -2.3968    0.0932    0.0000 O   0  0  0  0  0  0  0  0  0  0  0  0
   -2.2467   -1.3992    0.0000 C   0  0  0  0  0  0  0  0  0  0  0  0
   -3.7333   -1.5992    0.0000 C   0  0  0  0  0  0  0  0  0  0  0  0
   -5.2032   -1.8979    0.0000 C   0  0  0  0  0  0  0  0  0  0  0  0
   -6.6499   -2.2942    0.0000 C   0  0  0  0  0  0  0  0  0  0  0  0
   -8.0669   -2.7863    0.0000 C   0  0  0  0  0  0  0  0  0  0  0  0
   -9.4479   -3.3719    0.0000 C   0  0  0  0  0  0  0  0  0  0  0  0
  -10.7867   -4.0484    0.0000 C   0  0  0  0  0  0  0  0  0  0  0  0
  -12.0773   -4.8128    0.0000 C   0  0  0  0  0  0  0  0  0  0  0  0
  -13.3139   -5.6617    0.0000 C   0  0  0  0  0  0  0  0  0  0  0  0
  -14.4911   -6.5913    0.0000 C   0  0  0  0  0  0  0  0  0  0  0  0
  -15.6036   -7.5975    0.0000 C   0  0  0  0  0  0  0  0  0  0  0  0
  -16.6464   -8.6757    0.0000 C   0  0  0  0  0  0  0  0  0  0  0  0
  -17.6148   -9.8212    0.0000 C   0  0  0  0  0  0  0  0  0  0  0  0
  -18.5046  -11.0288    0.0000 C   0  0  0  0  0  0  0  0  0  0  0  0
  -19.3117  -12.2932    0.0000 C   0  0  0  0  0  0  0  0  0  0  0  0
  -20.0326  -13.6086    0.0000 C   0  0  0  0  0  0  0  0  0  0  0  0
  -20.6640  -14.9692    0.0000 C   0  0  0  0  0  0  0  0  0  0  0  0
  -21.2031  -16.3690    0.0000 C   0  0  0  0  0  0  0  0  0  0  0  0
  -21.6475  -17.8017    0.0000 C   0  0  0  0  0  0  0  0  0  0  0  0
  -21.9953  -19.2608    0.0000 C   0  0  0  0  0  0  0  0  0  0  0  0
  -22.2448  -20.7399    0.0000 C   0  0  0  0  0  0  0  0  0  0  0  0
  -22.3949  -22.2324    0.0000 C   0  0  0  0  0  0  0  0  0  0  0  0
  -22.4450  -23.7315    0.0000 C   0  0  0  0  0  0  0  0  0  0  0  0
  -22.3949  -25.2307    0.0000 C   0  0  0  0  0  0  0  0  0  0  0  0
  -22.2448  -26.7232    0.0000 C   0  0  0  0  0  0  0  0  0  0  0  0
  -21.9953  -28.2023    0.0000 C   0  0  0  0  0  0  0  0  0  0  0  0
  -21.6475  -29.6614    0.0000 C   0  0  0  0  0  0  0  0  0  0  0  0
  -21.2031  -31.0941    0.0000 C   0  0  0  0  0  0  0  0  0  0  0  0
  -20.6640  -32.4938    0.0000 C   0  0  0  0  0  0  0  0  0  0  0  0
  -20.0326  -33.8545    0.0000 C   0  0  0  0  0  0  0  0  0  0  0  0
  -19.3117  -35.1699    0.0000 C   0  0  0  0  0  0  0  0  0  0  0  0
  -18.5046  -36.4342    0.0000 C   0  0  0  0  0  0  0  0  0  0  0  0
  -17.6148  -37.6418    0.0000 C   0  0  0  0  0  0  0  0  0  0  0  0
  -16.6464  -38.7873    0.0000 C   0  0  0  0  0  0  0  0  0  0  0  0
  -15.6036  -39.8655    0.0000 C   0  0  0  0  0  0  0  0  0  0  0  0
  -14.4911  -40.8717    0.0000 C   0  0  0  0  0  0  0  0  0  0  0  0
  -13.3139  -41.8013    0.0000 C   0  0  0  0  0  0  0  0  0  0  0  0
  -12.0773  -42.6503    0.0000 C   0  0  0  0  0  0  0  0  0  0  0  0
  -10.7867  -43.4147    0.0000 C   0  0  0  0  0  0  0  0  0  0  0  0
   -9.4479  -44.0912    0.0000 C   0  0  0  0  0  0  0  0  0  0  0  0
   -8.0669  -44.6768    0.0000 C   0  0  0  0  0  0  0  0  0  0  0  0
   -6.6499  -45.1688    0.0000 C   0  0  0  0  0  0  0  0  0  0  0  0
   -5.2032  -45.5651    0.0000 C   0  0  0  0  0  0  0  0  0  0  0  0
   -3.7333  -45.8639    0.0000 C   0  0  0  0  0  0  0  0  0  0  0  0
   -2.2467  -46.0638    0.0000 C   0  0  0  0  0  0  0  0  0  0  0  0
   -0.7500  -46.1640    0.0000 C   0  0  0  0  0  0  0  0  0  0  0  0
    0.7500  -46.1640    0.0000 C   0  0  0  0  0  0  0  0  0  0  0  0
    2.2467  -46.0638    0.0000 C   0  0  0  0  0  0  0  0  0  0  0  0
    3.7333  -45.8639    0.0000 C   0  0  0  0  0  0  0  0  0  0  0  0
    5.2032  -45.5651    0.0000 C   0  0  0  0  0  0  0  0  0  0  0  0
    6.6499  -45.1688    0.0000 C   0  0  0  0  0  0  0  0  0  0  0  0
    8.0669  -44.6768    0.0000 C   0  0  0  0  0  0  0  0  0  0  0  0
    9.4479  -44.0912    0.0000 C   0  0  0  0  0  0  0  0  0  0  0  0
   10.7867  -43.4147    0.0000 C   0  0  0  0  0  0  0  0  0  0  0  0
   12.0773  -42.6503    0.0000 C   0  0  0  0  0  0  0  0  0  0  0  0
   13.3139  -41.8013    0.0000 C   0  0  0  0  0  0  0  0  0  0  0  0
   14.4911  -40.8717    0.0000 C   0  0  0  0  0  0  0  0  0  0  0  0
   15.6036  -39.8655    0.0000 C   0  0  0  0  0  0  0  0  0  0  0  0
   16.6464  -38.7873    0.0000 C   0  0  0  0  0  0  0  0  0  0  0  0
   17.6148  -37.6418    0.0000 C   0  0  0  0  0  0  0  0  0  0  0  0
   18.5046  -36.4342    0.0000 C   0  0  0  0  0  0  0  0  0  0  0  0
   19.3117  -35.1699    0.0000 C   0  0  0  0  0  0  0  0  0  0  0  0
   20.0326  -33.8545    0.0000 C   0  0  0  0  0  0  0  0  0  0  0  0
   20.6640  -32.4938    0.0000 C   0  0  0  0  0  0  0  0  0  0  0  0
   21.2031  -31.0941    0.0000 C   0  0  0  0  0  0  0  0  0  0  0  0
   21.6475  -29.6614    0.0000 C   0  0  0  0  0  0  0  0  0  0  0  0
   21.9953  -28.2023    0.0000 C   0  0  0  0  0  0  0  0  0  0  0  0
   22.2448  -26.7232    0.0000 C   0  0  0  0  0  0  0  0  0  0  0  0
   22.3949  -25.2307    0.0000 C   0  0  0  0  0  0  0  0  0  0  0  0
   22.4450  -23.7315    0.0000 C   0  0  0  0  0  0  0  0  0  0  0  0
   22.3949  -22.2324    0.0000 C   0  0  0  0  0  0  0  0  0  0  0  0
   22.2448  -20.7399    0.0000 C   0  0  0  0  0  0  0  0  0  0  0  0
   21.9953  -19.2608    0.0000 C   0  0  0  0  0  0  0  0  0  0  0  0
   21.6475  -17.8017    0.0000 C   0  0  0  0  0  0  0  0  0  0  0  0
   21.2031  -16.3690    0.0000 C   0  0  0  0  0  0  0  0  0  0  0  0
   20.6640  -14.9692    0.0000 C   0  0  0  0  0  0  0  0  0  0  0  0
   20.0326  -13.6086    0.0000 C   0  0  0  0  0  0  0  0  0  0  0  0
   19.3117  -12.2932    0.0000 C   0  0  0  0  0  0  0  0  0  0  0  0
   18.5046  -11.0288    0.0000 C   0  0  0  0  0  0  0  0  0  0  0  0
   17.6148   -9.8212    0.0000 C   0  0  0  0  0  0  0  0  0  0  0  0
   16.6464   -8.6757    0.0000 C   0  0  0  0  0  0  0  0  0  0  0  0
   15.6036   -7.5975    0.0000 C   0  0  0  0  0  0  0  0  0  0  0  0
   14.4911   -6.5913    0.0000 C   0  0  0  0  0  0  0  0  0  0  0  0
   13.3139   -5.6617    0.0000 C   0  0  0  0  0  0  0  0  0  0  0  0
   12.0773   -4.8128    0.0000 C   0  0  0  0  0  0  0  0  0  0  0  0
   10.7867   -4.0484    0.0000 C   0  0  0  0  0  0  0  0  0  0  0  0
    9.4479   -3.3719    0.0000 C   0  0  0  0  0  0  0  0  0  0  0  0
    8.0669   -2.7863    0.0000 C   0  0  0  0  0  0  0  0  0  0  0  0
    6.6499   -2.2942    0.0000 C   0  0  0  0  0  0  0  0  0  0  0  0
    5.2032   -1.8979    0.0000 C   0  0  0  0  0  0  0  0  0  0  0  0
    3.7333   -1.5992    0.0000 C   0  0  0  0  0  0  0  0  0  0  0  0
    2.2467   -1.3992    0.0000 C   0  0  0  0  0  0  0  0  0  0  0  0
    0.7500   -1.2990    0.0000 C   0  0  0  0  0  0  0  0  0  0  0  0
    1.5000    0.0000    0.0000 C   0  0  0  0  0  0  0  0  0  0  0  0
    0.7500    1.2990    0.0000 C   0  0  0  0  0  0  0  0  0  0  0  0
   -0.7500    1.2990    0.0000 C   0  0  0  0  0  0  0  0  0  0  0  0
   -1.5000    0.0000    0.0000 C   0  0  0  0  0  0  0  0  0  0  0  0
   -0.7500   -1.2990    0.0000 C   0  0  0  0  0  0  0  0  0  0  0  0
  1  2  2  0
  2  3  1  0
  2  4  1  0
  4  5  1  0
  5  6  1  0
  6  7  2  0
  7  8  1  0
  8  9  1  0
  9 10  1  0
 10 11  1  0
 11 12  1  0
 12 13  1  0
 13 14  1  0
 14 15  1  0
 15 16  1  0
 16 17  1  0
 17 18  1  0
 18 19  1  0
 19 20  1  0
 20 21  1  0
 21 22  1  0
 22 23  1  0
 23 24  1  0
 24 25  1  0
 25 26  1  0
 26 27  1  0
 27 28  1  0
 28 29  1  0
 29 30  1  0
 30 31  1  0
 31 32  1  0
 32 33  1  0
 33 34  1  0
 34 35  1  0
 35 36  1  0
 36 37  1  0
 37 38  1  0
 38 39  1  0
 39 40  1  0
 40 41  1  0
 41 42  1  0
 42 43  1  0
 43 44  1  0
 44 45  1  0
 45 46  1  0
 46 47  1  0
 47 48  1  0
 48 49  1  0
 49 50  1  0
 50 51  1  0
 51 52  1  0
 52 53  1  0
 53 54  1  0
 54 55  1  0
 55 56  1  0
 56 57  1  0
 57 58  1  0
 58 59  1  0
 59 60  1  0
 60 61  1  0
 61 62  1  0
 62 63  1  0
 63 64  1  0
 64 65  1  0
 65 66  1  0
 66 67  1  0
 67 68  1  0
 68 69  1  0
 69 70  1  0
 70 71  1  0
 71 72  1  0
 72 73  1  0
 73 74  1  0
 74 75  1  0
 75 76  1  0
 76 77  1  0
 77 78  1  0
 78 79  1  0
 79 80  1  0
 80 81  1  0
 81 82  1  0
 82 83  1  0
 83 84  1  0
 84 85  1  0
 85 86  1  0
 86 87  1  0
 87 88  1  0
 88 89  1  0
 89 90  1  0
 90 91  1  0
 91 92  1  0
 92 93  1  0
 93 94  1  0
 94 95  1  0
 95 96  1  0
 96 97  1  0
 97 98  2  0
 98 99  1  0
 99100  2  0
100101  1  0
101102  2  0
102  5  1  0
102 97  1  0
M  END
>  <Title>  (181) 
idAAFAgen9

$$$$

     RDKit          2D

 43 49  0  0  0  0  0  0  0  0999 V2000
    4.6001   -4.9005    0.0000 C   0  0  0  0  0  0  0  0  0  0  0  0
    3.1111   -4.7197    0.0000 C   0  0  0  0  0  0  0  0  0  0  0  0
    2.9303   -3.2306    0.0000 C   0  0  0  0  0  0  0  0  0  0  0  0
    2.0782   -1.9961    0.0000 C   0  0  0  0  0  0  0  0  0  0  0  0
    3.0729   -0.8734    0.0000 C   0  0  0  0  0  0  0  0  0  0  0  0
    2.5979    0.5494    0.0000 O   0  0  0  0  0  0  0  0  0  0  0  0
    4.5426   -1.1734    0.0000 N   0  0  0  0  0  0  0  0  0  0  0  0
    5.5372   -0.0506    0.0000 C   0  0  0  0  0  0  0  0  0  0  0  0
    7.0069   -0.3507    0.0000 N   0  0  0  0  0  0  0  0  0  0  0  0
    8.0016    0.7721    0.0000 N   0  0  0  0  0  0  0  0  0  0  0  0
    7.5266    2.1949    0.0000 N   0  0  0  0  0  0  0  0  0  0  0  0
    6.0569    2.4949    0.0000 N   0  0  0  0  0  0  0  0  0  0  0  0
    5.0622    1.3722    0.0000 N   0  0  0  0  0  0  0  0  0  0  0  0
    0.7500   -1.2990    0.0000 C   0  0  0  0  0  0  0  0  0  0  0  0
    1.5000    0.0000    0.0000 C   0  0  0  0  0  0  0  0  0  0  0  0
    0.7500    1.2990    0.0000 C   0  0  0  0  0  0  0  0  0  0  0  0
   -0.7500    1.2990    0.0000 C   0  0  0  0  0  0  0  0  0  0  0  0
   -1.5000    0.0000    0.0000 C   0  0  0  0  0  0  0  0  0  0  0  0
   -0.7500   -1.2990    0.0000 C   0  0  0  0  0  0  0  0  0  0  0  0
   -2.0782   -1.9961    0.0000 C   0  0  0  0  0  0  0  0  0  0  0  0
   -2.7212   -0.6409    0.0000 C   0  0  0  0  0  0  0  0  0  0  0  0
   -4.2164   -0.5202    0.0000 C   0  0  0  0  0  0  0  0  0  0  0  0
   -5.0685   -1.7547    0.0000 C   0  0  0  0  0  0  0  0  0  0  0  0
   -4.4254   -3.1099    0.0000 C   0  0  0  0  0  0  0  0  0  0  0  0
   -2.9303   -3.2306    0.0000 C   0  0  0  0  0  0  0  0  0  0  0  0
   -3.1111   -4.7197    0.0000 C   0  0  0  0  0  0  0  0  0  0  0  0
   -4.5917   -4.4790    0.0000 C   0  0  0  0  0  0  0  0  0  0  0  0
   -5.5403   -5.6410    0.0000 C   0  0  0  0  0  0  0  0  0  0  0  0
   -5.0084   -7.0435    0.0000 C   0  0  0  0  0  0  0  0  0  0  0  0
   -3.5278   -7.2841    0.0000 C   0  0  0  0  0  0  0  0  0  0  0  0
   -2.5792   -6.1222    0.0000 C   0  0  0  0  0  0  0  0  0  0  0  0
   -1.4564   -7.1169    0.0000 C   0  0  0  0  0  0  0  0  0  0  0  0
   -2.4955   -8.1987    0.0000 C   0  0  0  0  0  0  0  0  0  0  0  0
   -2.0782   -9.6395    0.0000 C   0  0  0  0  0  0  0  0  0  0  0  0
   -0.6218   -9.9984    0.0000 C   0  0  0  0  0  0  0  0  0  0  0  0
    0.4173   -8.9166    0.0000 C   0  0  0  0  0  0  0  0  0  0  0  0
   -0.0000   -7.4758    0.0000 C   0  0  0  0  0  0  0  0  0  0  0  0
    1.4564   -7.1169    0.0000 C   0  0  0  0  0  0  0  0  0  0  0  0
    1.7565   -8.5866    0.0000 C   0  0  0  0  0  0  0  0  0  0  0  0
    3.1793   -9.0616    0.0000 C   0  0  0  0  0  0  0  0  0  0  0  0
    4.3020   -8.0669    0.0000 C   0  0  0  0  0  0  0  0  0  0  0  0
    4.0020   -6.5972    0.0000 C   0  0  0  0  0  0  0  0  0  0  0  0
    2.5792   -6.1222    0.0000 C   0  0  0  0  0  0  0  0  0  0  0  0
  1  2  1  0
  2  3  2  0
  3  4  1  0
  4  5  1  0
  5  6  2  0
  5  7  1  0
  7  8  1  0
  8  9  2  0
  9 10  1  0
 10 11  2  0
 11 12  1  0
 12 13  2  0
  4 14  1  0
 14 15  2  0
 15 16  1  0
 16 17  2  0
 17 18  1  0
 18 19  2  0
 19 20  1  0
 20 21  2  0
 21 22  1  0
 22 23  2  0
 23 24  1  0
 24 25  2  0
 25 26  1  0
 26 27  2  0
 27 28  1  0
 28 29  2  0
 29 30  1  0
 30 31  2  0
 31 32  1  0
 32 33  2  0
 33 34  1  0
 34 35  2  0
 35 36  1  0
 36 37  2  0
 37 38  1  0
 38 39  2  0
 39 40  1  0
 40 41  2  0
 41 42  1  0
 42 43  2  0
 43  2  1  0
 13  8  1  0
 19 14  1  0
 25 20  1  0
 31 26  1  0
 37 32  1  0
 43 38  1  0
M  END
>  <Title>  (182) 
idAAFBgen9

$$$$

     RDKit          2D

 51 58  0  0  0  0  0  0  0  0999 V2000
    5.0691    8.8659    0.0000 C   0  0  0  0  0  0  0  0  0  0  0  0
    3.9791    7.8354    0.0000 C   0  0  0  0  0  0  0  0  0  0  0  0
    4.7772    6.5653    0.0000 C   0  0  0  0  0  0  0  0  0  0  0  0
    5.0284    5.0865    0.0000 C   0  0  0  0  0  0  0  0  0  0  0  0
    4.6946    3.6241    0.0000 C   0  0  0  0  0  0  0  0  0  0  0  0
    6.0638    3.0114    0.0000 C   0  0  0  0  0  0  0  0  0  0  0  0
    6.2178    1.5194    0.0000 O   0  0  0  0  0  0  0  0  0  0  0  0
    7.2790    3.8908    0.0000 N   0  0  0  0  0  0  0  0  0  0  0  0
    8.6482    3.2782    0.0000 C   0  0  0  0  0  0  0  0  0  0  0  0
    8.8022    1.7861    0.0000 N   0  0  0  0  0  0  0  0  0  0  0  0
   10.1713    1.1734    0.0000 N   0  0  0  0  0  0  0  0  0  0  0  0
   11.3865    2.0528    0.0000 N   0  0  0  0  0  0  0  0  0  0  0  0
   11.2325    3.5449    0.0000 N   0  0  0  0  0  0  0  0  0  0  0  0
    9.8633    4.1576    0.0000 N   0  0  0  0  0  0  0  0  0  0  0  0
    3.8266    2.4008    0.0000 C   0  0  0  0  0  0  0  0  0  0  0  0
    5.1528    1.6999    0.0000 C   0  0  0  0  0  0  0  0  0  0  0  0
    5.2089    0.2009    0.0000 C   0  0  0  0  0  0  0  0  0  0  0  0
    3.9388   -0.5971    0.0000 C   0  0  0  0  0  0  0  0  0  0  0  0
    2.6126    0.1038    0.0000 C   0  0  0  0  0  0  0  0  0  0  0  0
    2.5566    1.6027    0.0000 C   0  0  0  0  0  0  0  0  0  0  0  0
    1.0777    1.3515    0.0000 C   0  0  0  0  0  0  0  0  0  0  0  0
    1.7286    0.0000    0.0000 C   0  0  0  0  0  0  0  0  0  0  0  0
    1.0777   -1.3515    0.0000 C   0  0  0  0  0  0  0  0  0  0  0  0
   -0.3846   -1.6852    0.0000 C   0  0  0  0  0  0  0  0  0  0  0  0
   -1.5574   -0.7500    0.0000 C   0  0  0  0  0  0  0  0  0  0  0  0
   -1.5574    0.7500    0.0000 C   0  0  0  0  0  0  0  0  0  0  0  0
   -0.3846    1.6852    0.0000 C   0  0  0  0  0  0  0  0  0  0  0  0
   -1.6080    2.5532    0.0000 C   0  0  0  0  0  0  0  0  0  0  0  0
   -2.3089    1.2271    0.0000 C   0  0  0  0  0  0  0  0  0  0  0  0
   -3.8078    1.1710    0.0000 C   0  0  0  0  0  0  0  0  0  0  0  0
   -4.6059    2.4411    0.0000 C   0  0  0  0  0  0  0  0  0  0  0  0
   -3.9050    3.7672    0.0000 C   0  0  0  0  0  0  0  0  0  0  0  0
   -2.4060    3.8233    0.0000 C   0  0  0  0  0  0  0  0  0  0  0  0
   -2.6573    5.3021    0.0000 C   0  0  0  0  0  0  0  0  0  0  0  0
   -4.0907    4.8600    0.0000 C   0  0  0  0  0  0  0  0  0  0  0  0
   -5.1902    5.8803    0.0000 C   0  0  0  0  0  0  0  0  0  0  0  0
   -4.8564    7.3427    0.0000 C   0  0  0  0  0  0  0  0  0  0  0  0
   -3.4231    7.7848    0.0000 C   0  0  0  0  0  0  0  0  0  0  0  0
   -2.3235    6.7645    0.0000 C   0  0  0  0  0  0  0  0  0  0  0  0
   -1.4555    7.9879    0.0000 C   0  0  0  0  0  0  0  0  0  0  0  0
   -2.7817    8.6888    0.0000 C   0  0  0  0  0  0  0  0  0  0  0  0
   -2.8378   10.1877    0.0000 C   0  0  0  0  0  0  0  0  0  0  0  0
   -1.5677   10.9858    0.0000 C   0  0  0  0  0  0  0  0  0  0  0  0
   -0.2415   10.2849    0.0000 C   0  0  0  0  0  0  0  0  0  0  0  0
   -0.1854    8.7859    0.0000 C   0  0  0  0  0  0  0  0  0  0  0  0
    1.2934    9.0372    0.0000 C   0  0  0  0  0  0  0  0  0  0  0  0
    0.8513   10.4705    0.0000 C   0  0  0  0  0  0  0  0  0  0  0  0
    1.8715   11.5701    0.0000 C   0  0  0  0  0  0  0  0  0  0  0  0
    3.3339   11.2363    0.0000 C   0  0  0  0  0  0  0  0  0  0  0  0
    3.7760    9.8030    0.0000 C   0  0  0  0  0  0  0  0  0  0  0  0
    2.7558    8.7034    0.0000 C   0  0  0  0  0  0  0  0  0  0  0  0
  1  2  1  0
  2  3  2  0
  3  4  1  0
  4  5  1  0
  5  6  1  0
  6  7  2  0
  6  8  1  0
  8  9  1  0
  9 10  2  0
 10 11  1  0
 11 12  2  0
 12 13  1  0
 13 14  2  0
  5 15  1  0
 15 16  2  0
 16 17  1  0
 17 18  2  0
 18 19  1  0
 19 20  2  0
 20 21  1  0
 21 22  2  0
 22 23  1  0
 23 24  2  0
 24 25  1  0
 25 26  2  0
 26 27  1  0
 27 28  1  0
 28 29  2  0
 29 30  1  0
 30 31  2  0
 31 32  1  0
 32 33  2  0
 33 34  1  0
 34 35  2  0
 35 36  1  0
 36 37  2  0
 37 38  1  0
 38 39  2  0
 39 40  1  0
 40 41  2  0
 41 42  1  0
 42 43  2  0
 43 44  1  0
 44 45  2  0
 45 46  1  0
 46 47  2  0
 47 48  1  0
 48 49  2  0
 49 50  1  0
 50 51  2  0
 51  2  1  0
 14  9  1  0
 20 15  1  0
 27 21  1  0
 33 28  1  0
 39 34  1  0
 45 40  1  0
 51 46  1  0
M  END
>  <Title>  (183) 
idAAFCgen9

$$$$

     RDKit          2D

 16 17  0  0  0  0  0  0  0  0999 V2000
    1.6910  -10.5537    0.0000 N   0  0  0  0  0  0  0  0  0  0  0  0
    1.8478   -9.0619    0.0000 C   0  0  0  0  0  0  0  0  0  0  0  0
    2.0046   -7.5702    0.0000 C   0  0  0  0  0  0  0  0  0  0  0  0
    3.3037   -6.8202    0.0000 C   0  0  0  0  0  0  0  0  0  0  0  0
    2.9918   -5.3529    0.0000 C   0  0  0  0  0  0  0  0  0  0  0  0
    1.5000   -5.1962    0.0000 C   0  0  0  0  0  0  0  0  0  0  0  0
    0.7500   -3.8971    0.0000 C   0  0  0  0  0  0  0  0  0  0  0  0
   -0.7500   -3.8971    0.0000 O   0  0  0  0  0  0  0  0  0  0  0  0
    1.5000   -2.5981    0.0000 N   0  0  0  0  0  0  0  0  0  0  0  0
    0.7500   -1.2990    0.0000 C   0  0  0  0  0  0  0  0  0  0  0  0
    1.5000    0.0000    0.0000 N   0  0  0  0  0  0  0  0  0  0  0  0
    0.7500    1.2990    0.0000 N   0  0  0  0  0  0  0  0  0  0  0  0
   -0.7500    1.2990    0.0000 N   0  0  0  0  0  0  0  0  0  0  0  0
   -1.5000    0.0000    0.0000 N   0  0  0  0  0  0  0  0  0  0  0  0
   -0.7500   -1.2990    0.0000 N   0  0  0  0  0  0  0  0  0  0  0  0
    0.8899   -6.5665    0.0000 C   0  0  0  0  0  0  0  0  0  0  0  0
  1  2  3  0
  2  3  1  0
  3  4  2  0
  4  5  1  0
  5  6  2  0
  6  7  1  0
  7  8  2  0
  7  9  1  0
  9 10  1  0
 10 11  2  0
 11 12  1  0
 12 13  2  0
 13 14  1  0
 14 15  2  0
  6 16  1  0
 16  3  1  0
 15 10  1  0
M  END
>  <Title>  (184) 
idAAFDgen9

$$$$

     RDKit          2D

 20 22  0  0  0  0  0  0  0  0999 V2000
    7.6104    2.8717    0.0000 C   0  0  0  0  0  0  0  0  0  0  0  0
    7.4536    1.3799    0.0000 C   0  0  0  0  0  0  0  0  0  0  0  0
    6.1545    0.6299    0.0000 C   0  0  0  0  0  0  0  0  0  0  0  0
    6.4664   -0.8373    0.0000 C   0  0  0  0  0  0  0  0  0  0  0  0
    5.4627   -1.9520    0.0000 C   0  0  0  0  0  0  0  0  0  0  0  0
    5.9262   -3.3786    0.0000 O   0  0  0  0  0  0  0  0  0  0  0  0
    3.9955   -1.6402    0.0000 N   0  0  0  0  0  0  0  0  0  0  0  0
    2.9918   -2.7549    0.0000 C   0  0  0  0  0  0  0  0  0  0  0  0
    3.3037   -4.2221    0.0000 N   0  0  0  0  0  0  0  0  0  0  0  0
    2.0046   -4.9721    0.0000 N   0  0  0  0  0  0  0  0  0  0  0  0
    0.8899   -3.9684    0.0000 N   0  0  0  0  0  0  0  0  0  0  0  0
    1.5000   -2.5981    0.0000 N   0  0  0  0  0  0  0  0  0  0  0  0
    0.7500   -1.2990    0.0000 C   0  0  0  0  0  0  0  0  0  0  0  0
    1.5000    0.0000    0.0000 C   0  0  0  0  0  0  0  0  0  0  0  0
    0.7500    1.2990    0.0000 C   0  0  0  0  0  0  0  0  0  0  0  0
   -0.7500    1.2990    0.0000 C   0  0  0  0  0  0  0  0  0  0  0  0
   -1.5000    0.0000    0.0000 C   0  0  0  0  0  0  0  0  0  0  0  0
   -0.7500   -1.2990    0.0000 C   0  0  0  0  0  0  0  0  0  0  0  0
    7.9582   -0.9941    0.0000 C   0  0  0  0  0  0  0  0  0  0  0  0
    8.5683    0.3762    0.0000 C   0  0  0  0  0  0  0  0  0  0  0  0
  1  2  1  0
  2  3  1  0
  3  4  2  0
  4  5  1  0
  5  6  2  0
  5  7  1  0
  7  8  1  0
  8  9  2  0
  9 10  1  0
 10 11  2  0
 11 12  1  0
 12 13  1  0
 13 14  2  0
 14 15  1  0
 15 16  2  0
 16 17  1  0
 17 18  2  0
  4 19  1  0
 19 20  1  0
 20  2  1  0
 12  8  1  0
 18 13  1  0
M  END
>  <Title>  (185) 
idAAFEgen9

$$$$

     RDKit          2D

 40 45  0  0  0  0  0  0  0  0999 V2000
    3.1097   -7.2078    0.0000 C   0  0  0  0  0  0  0  0  0  0  0  0
    2.0490   -6.1471    0.0000 C   0  0  0  0  0  0  0  0  0  0  0  0
    2.7990   -4.8481    0.0000 C   0  0  0  0  0  0  0  0  0  0  0  0
    2.7990   -3.3481    0.0000 C   0  0  0  0  0  0  0  0  0  0  0  0
    2.0490   -2.0490    0.0000 C   0  0  0  0  0  0  0  0  0  0  0  0
    3.1097   -0.9884    0.0000 C   0  0  0  0  0  0  0  0  0  0  0  0
    2.7215    0.4605    0.0000 O   0  0  0  0  0  0  0  0  0  0  0  0
    4.5586   -1.3766    0.0000 N   0  0  0  0  0  0  0  0  0  0  0  0
    5.6192   -0.3159    0.0000 C   0  0  0  0  0  0  0  0  0  0  0  0
    7.0681   -0.7042    0.0000 N   0  0  0  0  0  0  0  0  0  0  0  0
    8.1288    0.3565    0.0000 N   0  0  0  0  0  0  0  0  0  0  0  0
    7.7406    1.8054    0.0000 N   0  0  0  0  0  0  0  0  0  0  0  0
    6.2917    2.1936    0.0000 N   0  0  0  0  0  0  0  0  0  0  0  0
    5.2310    1.1329    0.0000 N   0  0  0  0  0  0  0  0  0  0  0  0
    0.7500   -1.2990    0.0000 C   0  0  0  0  0  0  0  0  0  0  0  0
    1.5000    0.0000    0.0000 C   0  0  0  0  0  0  0  0  0  0  0  0
    0.7500    1.2990    0.0000 C   0  0  0  0  0  0  0  0  0  0  0  0
   -0.7500    1.2990    0.0000 C   0  0  0  0  0  0  0  0  0  0  0  0
   -1.5000    0.0000    0.0000 C   0  0  0  0  0  0  0  0  0  0  0  0
   -0.7500   -1.2990    0.0000 C   0  0  0  0  0  0  0  0  0  0  0  0
   -2.0490   -2.0490    0.0000 C   0  0  0  0  0  0  0  0  0  0  0  0
   -2.7990   -0.7500    0.0000 C   0  0  0  0  0  0  0  0  0  0  0  0
   -4.2990   -0.7500    0.0000 C   0  0  0  0  0  0  0  0  0  0  0  0
   -5.0490   -2.0490    0.0000 C   0  0  0  0  0  0  0  0  0  0  0  0
   -4.2990   -3.3481    0.0000 C   0  0  0  0  0  0  0  0  0  0  0  0
   -2.7990   -3.3481    0.0000 C   0  0  0  0  0  0  0  0  0  0  0  0
   -2.7990   -4.8481    0.0000 C   0  0  0  0  0  0  0  0  0  0  0  0
   -4.2990   -4.8481    0.0000 C   0  0  0  0  0  0  0  0  0  0  0  0
   -5.0490   -6.1471    0.0000 C   0  0  0  0  0  0  0  0  0  0  0  0
   -4.2990   -7.4462    0.0000 C   0  0  0  0  0  0  0  0  0  0  0  0
   -2.7990   -7.4462    0.0000 C   0  0  0  0  0  0  0  0  0  0  0  0
   -2.0490   -6.1471    0.0000 C   0  0  0  0  0  0  0  0  0  0  0  0
   -0.7500   -6.8971    0.0000 C   0  0  0  0  0  0  0  0  0  0  0  0
   -1.5000   -8.1962    0.0000 C   0  0  0  0  0  0  0  0  0  0  0  0
   -0.7500   -9.4952    0.0000 C   0  0  0  0  0  0  0  0  0  0  0  0
    0.7500   -9.4952    0.0000 C   0  0  0  0  0  0  0  0  0  0  0  0
    1.5000  -10.7942    0.0000 C   0  0  0  0  0  0  0  0  0  0  0  0
    2.2500  -12.0933    0.0000 N   0  0  0  0  0  0  0  0  0  0  0  0
    1.5000   -8.1962    0.0000 C   0  0  0  0  0  0  0  0  0  0  0  0
    0.7500   -6.8971    0.0000 C   0  0  0  0  0  0  0  0  0  0  0  0
  1  2  1  0
  2  3  2  0
  3  4  1  0
  4  5  2  0
  5  6  1  0
  6  7  2  0
  6  8  1  0
  8  9  1  0
  9 10  2  0
 10 11  1  0
 11 12  2  0
 12 13  1  0
 13 14  2  0
  5 15  1  0
 15 16  2  0
 16 17  1  0
 17 18  2  0
 18 19  1  0
 19 20  2  0
 20 21  1  0
 21 22  2  0
 22 23  1  0
 23 24  2  0
 24 25  1  0
 25 26  2  0
 26 27  1  0
 27 28  2  0
 28 29  1  0
 29 30  2  0
 30 31  1  0
 31 32  2  0
 32 33  1  0
 33 34  2  0
 34 35  1  0
 35 36  2  0
 36 37  1  0
 37 38  3  0
 36 39  1  0
 39 40  2  0
 40  2  1  0
 14  9  1  0
 20 15  1  0
 26 21  1  0
 32 27  1  0
 40 33  1  0
M  END
>  <Title>  (186) 
idAAFFgen9

$$$$

     RDKit          2D

 25 27  0  0  0  0  0  0  0  0999 V2000
   -7.5000   -5.1962    0.0000 C   0  0  0  0  0  0  0  0  0  0  0  0
   -6.0000   -5.1962    0.0000 C   0  0  0  0  0  0  0  0  0  0  0  0
   -5.2500   -3.8971    0.0000 C   0  0  0  0  0  0  0  0  0  0  0  0
   -3.7500   -3.8971    0.0000 C   0  0  0  0  0  0  0  0  0  0  0  0
   -3.0000   -5.1962    0.0000 O   0  0  0  0  0  0  0  0  0  0  0  0
   -3.0000   -2.5981    0.0000 N   0  0  0  0  0  0  0  0  0  0  0  0
   -1.5000   -2.5981    0.0000 C   0  0  0  0  0  0  0  0  0  0  0  0
   -0.7500   -3.8971    0.0000 N   0  0  0  0  0  0  0  0  0  0  0  0
    0.7500   -3.8971    0.0000 N   0  0  0  0  0  0  0  0  0  0  0  0
    1.5000   -2.5981    0.0000 N   0  0  0  0  0  0  0  0  0  0  0  0
    0.7500   -1.2990    0.0000 N   0  0  0  0  0  0  0  0  0  0  0  0
    1.5000    0.0000    0.0000 C   0  0  0  0  0  0  0  0  0  0  0  0
    0.7500    1.2990    0.0000 C   0  0  0  0  0  0  0  0  0  0  0  0
   -0.7500    1.2990    0.0000 C   0  0  0  0  0  0  0  0  0  0  0  0
   -1.5000    0.0000    0.0000 C   0  0  0  0  0  0  0  0  0  0  0  0
   -0.7500   -1.2990    0.0000 C   0  0  0  0  0  0  0  0  0  0  0  0
   -5.2500   -6.4952    0.0000 N   0  0  0  0  0  0  0  0  0  0  0  0
   -3.7582   -6.6520    0.0000 C   0  0  0  0  0  0  0  0  0  0  0  0
   -3.4463   -8.1192    0.0000 C   0  0  0  0  0  0  0  0  0  0  0  0
   -4.7454   -8.8692    0.0000 C   0  0  0  0  0  0  0  0  0  0  0  0
   -4.9022  -10.3610    0.0000 C   0  0  0  0  0  0  0  0  0  0  0  0
   -3.6887  -11.2427    0.0000 O   0  0  0  0  0  0  0  0  0  0  0  0
   -6.2725  -10.9711    0.0000 O   0  0  0  0  0  0  0  0  0  0  0  0
   -5.8601   -7.8655    0.0000 C   0  0  0  0  0  0  0  0  0  0  0  0
   -7.3273   -8.1774    0.0000 O   0  0  0  0  0  0  0  0  0  0  0  0
  1  2  1  0
  2  3  1  0
  3  4  1  0
  4  5  2  0
  4  6  1  0
  6  7  1  0
  7  8  2  0
  8  9  1  0
  9 10  2  0
 10 11  1  0
 11 12  1  0
 12 13  1  0
 13 14  2  0
 14 15  1  0
 15 16  2  0
  2 17  1  0
 17 18  1  0
 18 19  1  0
 19 20  1  0
 20 21  1  0
 21 22  2  0
 21 23  1  0
 20 24  1  0
 24 25  2  0
 16  7  1  0
 24 17  1  0
 16 11  1  0
M  END
>  <Title>  (187) 
idAAFGgen9

$$$$

     RDKit          2D

 20 22  0  0  0  0  0  0  0  0999 V2000
   10.0355    0.6881    0.0000 C   0  0  0  0  0  0  0  0  0  0  0  0
    8.5683    0.3762    0.0000 C   0  0  0  0  0  0  0  0  0  0  0  0
    7.4536    1.3799    0.0000 C   0  0  0  0  0  0  0  0  0  0  0  0
    6.1545    0.6299    0.0000 C   0  0  0  0  0  0  0  0  0  0  0  0
    6.4664   -0.8373    0.0000 C   0  0  0  0  0  0  0  0  0  0  0  0
    5.4627   -1.9520    0.0000 C   0  0  0  0  0  0  0  0  0  0  0  0
    5.9262   -3.3786    0.0000 O   0  0  0  0  0  0  0  0  0  0  0  0
    3.9955   -1.6402    0.0000 N   0  0  0  0  0  0  0  0  0  0  0  0
    2.9918   -2.7549    0.0000 C   0  0  0  0  0  0  0  0  0  0  0  0
    3.3037   -4.2221    0.0000 N   0  0  0  0  0  0  0  0  0  0  0  0
    2.0046   -4.9721    0.0000 N   0  0  0  0  0  0  0  0  0  0  0  0
    0.8899   -3.9684    0.0000 N   0  0  0  0  0  0  0  0  0  0  0  0
    1.5000   -2.5981    0.0000 N   0  0  0  0  0  0  0  0  0  0  0  0
    0.7500   -1.2990    0.0000 C   0  0  0  0  0  0  0  0  0  0  0  0
    1.5000    0.0000    0.0000 C   0  0  0  0  0  0  0  0  0  0  0  0
    0.7500    1.2990    0.0000 C   0  0  0  0  0  0  0  0  0  0  0  0
   -0.7500    1.2990    0.0000 C   0  0  0  0  0  0  0  0  0  0  0  0
   -1.5000    0.0000    0.0000 C   0  0  0  0  0  0  0  0  0  0  0  0
   -0.7500   -1.2990    0.0000 C   0  0  0  0  0  0  0  0  0  0  0  0
    7.9582   -0.9941    0.0000 C   0  0  0  0  0  0  0  0  0  0  0  0
  1  2  1  0
  2  3  1  0
  3  4  1  0
  4  5  1  0
  5  6  1  0
  6  7  2  0
  6  8  1  0
  8  9  1  0
  9 10  2  0
 10 11  1  0
 11 12  2  0
 12 13  1  0
 13 14  1  0
 14 15  2  0
 15 16  1  0
 16 17  2  0
 17 18  1  0
 18 19  2  0
  5 20  1  0
 20  2  1  0
 13  9  1  0
 19 14  1  0
M  END
>  <Title>  (188) 
idAAFHgen9

$$$$

     RDKit          2D

  8  8  0  0  0  0  0  0  0  0999 V2000
    2.7760    0.0000    0.0000 C   0  0  0  0  0  0  0  0  0  0  0  0
    1.2760    0.0000    0.0000 N   0  0  0  0  0  0  0  0  0  0  0  0
    0.3943    1.2135    0.0000 C   0  0  0  0  0  0  0  0  0  0  0  0
   -1.0323    0.7500    0.0000 C   0  0  0  0  0  0  0  0  0  0  0  0
   -1.0323   -0.7500    0.0000 C   0  0  0  0  0  0  0  0  0  0  0  0
    0.3943   -1.2135    0.0000 C   0  0  0  0  0  0  0  0  0  0  0  0
    0.8578   -2.6401    0.0000 C   0  0  0  0  0  0  0  0  0  0  0  0
    1.3213   -4.0667    0.0000 N   0  0  0  0  0  0  0  0  0  0  0  0
  1  2  1  0
  2  3  1  0
  3  4  2  0
  4  5  1  0
  5  6  1  0
  6  7  1  0
  7  8  3  0
  6  2  1  0
M  END
>  <Title>  (189) 
idAAFIgen9

$$$$

     RDKit          2D

  9  9  0  0  0  0  0  0  0  0999 V2000
    5.2500   -1.2990    0.0000 C   0  0  0  0  0  0  0  0  0  0  0  0
    3.7500   -1.2990    0.0000 N   0  0  0  0  0  0  0  0  0  0  0  0
    3.0000    0.0000    0.0000 C   0  0  0  0  0  0  0  0  0  0  0  0
    1.5000    0.0000    0.0000 C   0  0  0  0  0  0  0  0  0  0  0  0
    0.7500   -1.2990    0.0000 C   0  0  0  0  0  0  0  0  0  0  0  0
   -0.7500   -1.2990    0.0000 C   0  0  0  0  0  0  0  0  0  0  0  0
   -1.5000    0.0000    0.0000 C   0  0  0  0  0  0  0  0  0  0  0  0
   -0.7500    1.2990    0.0000 C   0  0  0  0  0  0  0  0  0  0  0  0
    0.7500    1.2990    0.0000 C   0  0  0  0  0  0  0  0  0  0  0  0
  1  2  1  0
  2  3  1  0
  3  4  1  0
  4  5  2  0
  5  6  1  0
  6  7  2  0
  7  8  1  0
  8  9  2  0
  9  4  1  0
M  END
>  <Title>  (190) 
idAAFJgen9

$$$$

     RDKit          2D

 12 12  0  0  0  0  0  0  0  0999 V2000
    3.4598   -2.5981    0.0000 O   0  0  0  0  0  0  0  0  0  0  0  0
    4.2098   -1.2990    0.0000 C   0  0  0  0  0  0  0  0  0  0  0  0
    5.7098   -1.2990    0.0000 O   0  0  0  0  0  0  0  0  0  0  0  0
    3.4598   -0.0000    0.0000 O   0  0  0  0  0  0  0  0  0  0  0  0
    1.9598    0.0000    0.0000 C   0  0  0  0  0  0  0  0  0  0  0  0
    1.3858   -1.3858    0.0000 C   0  0  0  0  0  0  0  0  0  0  0  0
   -0.0000   -1.9598    0.0000 C   0  0  0  0  0  0  0  0  0  0  0  0
   -1.3858   -1.3858    0.0000 C   0  0  0  0  0  0  0  0  0  0  0  0
   -1.9598    0.0000    0.0000 C   0  0  0  0  0  0  0  0  0  0  0  0
   -1.3858    1.3858    0.0000 C   0  0  0  0  0  0  0  0  0  0  0  0
    0.0000    1.9598    0.0000 C   0  0  0  0  0  0  0  0  0  0  0  0
    1.3858    1.3858    0.0000 C   0  0  0  0  0  0  0  0  0  0  0  0
  1  2  2  0
  2  3  1  0
  2  4  1  0
  4  5  1  0
  5  6  1  0
  6  7  2  0
  7  8  1  0
  8  9  1  0
  9 10  1  0
 10 11  1  0
 11 12  1  0
 12  5  1  0
M  END
>  <Title>  (191) 
idAAFKgen9

$$$$

     RDKit          2D

102104  0  0  0  0  0  0  0  0999 V2000
    9.8418   -7.7887    0.0000 C   0  0  0  0  0  0  0  0  0  0  0  0
   11.3006   -7.4396    0.0000 C   0  0  0  0  0  0  0  0  0  0  0  0
   11.7388   -8.8742    0.0000 C   0  0  0  0  0  0  0  0  0  0  0  0
   12.3499  -10.2440    0.0000 C   0  0  0  0  0  0  0  0  0  0  0  0
   13.1248  -11.5284    0.0000 C   0  0  0  0  0  0  0  0  0  0  0  0
   14.0516  -12.7078    0.0000 C   0  0  0  0  0  0  0  0  0  0  0  0
   15.1164  -13.7644    0.0000 C   0  0  0  0  0  0  0  0  0  0  0  0
   16.3029  -14.6821    0.0000 C   0  0  0  0  0  0  0  0  0  0  0  0
   17.5932  -15.4470    0.0000 C   0  0  0  0  0  0  0  0  0  0  0  0
   18.9677  -16.0476    0.0000 C   0  0  0  0  0  0  0  0  0  0  0  0
   20.4056  -16.4748    0.0000 C   0  0  0  0  0  0  0  0  0  0  0  0
   21.8851  -16.7220    0.0000 C   0  0  0  0  0  0  0  0  0  0  0  0
   23.3837  -16.7855    0.0000 C   0  0  0  0  0  0  0  0  0  0  0  0
   24.8788  -16.6643    0.0000 C   0  0  0  0  0  0  0  0  0  0  0  0
   26.3477  -16.3604    0.0000 C   0  0  0  0  0  0  0  0  0  0  0  0
   27.7681  -15.8782    0.0000 C   0  0  0  0  0  0  0  0  0  0  0  0
   29.1185  -15.2252    0.0000 C   0  0  0  0  0  0  0  0  0  0  0  0
   30.3784  -14.4111    0.0000 C   0  0  0  0  0  0  0  0  0  0  0  0
   31.5287  -13.4484    0.0000 C   0  0  0  0  0  0  0  0  0  0  0  0
   32.5520  -12.3516    0.0000 C   0  0  0  0  0  0  0  0  0  0  0  0
   33.4327  -11.1374    0.0000 C   0  0  0  0  0  0  0  0  0  0  0  0
   34.1576   -9.8242    0.0000 C   0  0  0  0  0  0  0  0  0  0  0  0
   34.7155   -8.4318    0.0000 C   0  0  0  0  0  0  0  0  0  0  0  0
   35.0982   -6.9815    0.0000 C   0  0  0  0  0  0  0  0  0  0  0  0
   35.2997   -5.4951    0.0000 C   0  0  0  0  0  0  0  0  0  0  0  0
   35.3170   -3.9952    0.0000 C   0  0  0  0  0  0  0  0  0  0  0  0
   35.1499   -2.5045    0.0000 C   0  0  0  0  0  0  0  0  0  0  0  0
   34.8008   -1.0457    0.0000 C   0  0  0  0  0  0  0  0  0  0  0  0
   34.2752    0.3592    0.0000 C   0  0  0  0  0  0  0  0  0  0  0  0
   33.5808    1.6888    0.0000 C   0  0  0  0  0  0  0  0  0  0  0  0
   32.7284    2.9230    0.0000 C   0  0  0  0  0  0  0  0  0  0  0  0
   31.7307    4.0432    0.0000 C   0  0  0  0  0  0  0  0  0  0  0  0
   30.6029    5.0322    0.0000 C   0  0  0  0  0  0  0  0  0  0  0  0
   29.3622    5.8751    0.0000 C   0  0  0  0  0  0  0  0  0  0  0  0
   28.0273    6.5592    0.0000 C   0  0  0  0  0  0  0  0  0  0  0  0
   26.6184    7.0740    0.0000 C   0  0  0  0  0  0  0  0  0  0  0  0
   25.1569    7.4118    0.0000 C   0  0  0  0  0  0  0  0  0  0  0  0
   23.6650    7.5675    0.0000 C   0  0  0  0  0  0  0  0  0  0  0  0
   22.1653    7.5386    0.0000 C   0  0  0  0  0  0  0  0  0  0  0  0
   20.6805    7.3256    0.0000 C   0  0  0  0  0  0  0  0  0  0  0  0
   19.2331    6.9318    0.0000 C   0  0  0  0  0  0  0  0  0  0  0  0
   17.8451    6.3632    0.0000 C   0  0  0  0  0  0  0  0  0  0  0  0
   16.5375    5.6282    0.0000 C   0  0  0  0  0  0  0  0  0  0  0  0
   15.3301    4.7381    0.0000 C   0  0  0  0  0  0  0  0  0  0  0  0
   14.2412    3.7064    0.0000 C   0  0  0  0  0  0  0  0  0  0  0  0
   13.2874    2.5488    0.0000 C   0  0  0  0  0  0  0  0  0  0  0  0
   12.4831    1.2826    0.0000 C   0  0  0  0  0  0  0  0  0  0  0  0
   11.8404   -0.0727    0.0000 C   0  0  0  0  0  0  0  0  0  0  0  0
   11.3692   -1.4968    0.0000 C   0  0  0  0  0  0  0  0  0  0  0  0
   10.7673   -0.0000    0.0000 C   0  0  0  0  0  0  0  0  0  0  0  0
   10.6752    1.4054    0.0000 C   0  0  0  0  0  0  0  0  0  0  0  0
   10.4005    2.7868    0.0000 C   0  0  0  0  0  0  0  0  0  0  0  0
    9.9477    4.1205    0.0000 C   0  0  0  0  0  0  0  0  0  0  0  0
    9.3248    5.3837    0.0000 C   0  0  0  0  0  0  0  0  0  0  0  0
    8.5423    6.5547    0.0000 C   0  0  0  0  0  0  0  0  0  0  0  0
    7.6137    7.6137    0.0000 C   0  0  0  0  0  0  0  0  0  0  0  0
    6.5547    8.5423    0.0000 C   0  0  0  0  0  0  0  0  0  0  0  0
    5.3837    9.3248    0.0000 C   0  0  0  0  0  0  0  0  0  0  0  0
    4.1205    9.9477    0.0000 C   0  0  0  0  0  0  0  0  0  0  0  0
    2.7868   10.4005    0.0000 C   0  0  0  0  0  0  0  0  0  0  0  0
    1.4054   10.6752    0.0000 C   0  0  0  0  0  0  0  0  0  0  0  0
    0.0000   10.7673    0.0000 C   0  0  0  0  0  0  0  0  0  0  0  0
   -1.4054   10.6752    0.0000 C   0  0  0  0  0  0  0  0  0  0  0  0
   -2.7868   10.4005    0.0000 C   0  0  0  0  0  0  0  0  0  0  0  0
   -4.1205    9.9477    0.0000 C   0  0  0  0  0  0  0  0  0  0  0  0
   -5.3837    9.3248    0.0000 C   0  0  0  0  0  0  0  0  0  0  0  0
   -6.5547    8.5423    0.0000 C   0  0  0  0  0  0  0  0  0  0  0  0
   -7.6137    7.6137    0.0000 C   0  0  0  0  0  0  0  0  0  0  0  0
   -8.5423    6.5547    0.0000 C   0  0  0  0  0  0  0  0  0  0  0  0
   -9.3248    5.3837    0.0000 C   0  0  0  0  0  0  0  0  0  0  0  0
   -9.9477    4.1205    0.0000 C   0  0  0  0  0  0  0  0  0  0  0  0
  -10.4005    2.7868    0.0000 C   0  0  0  0  0  0  0  0  0  0  0  0
  -10.6752    1.4054    0.0000 C   0  0  0  0  0  0  0  0  0  0  0  0
  -10.7673    0.0000    0.0000 C   0  0  0  0  0  0  0  0  0  0  0  0
  -10.6752   -1.4054    0.0000 C   0  0  0  0  0  0  0  0  0  0  0  0
  -10.4005   -2.7868    0.0000 C   0  0  0  0  0  0  0  0  0  0  0  0
   -9.9477   -4.1205    0.0000 C   0  0  0  0  0  0  0  0  0  0  0  0
   -9.3248   -5.3837    0.0000 C   0  0  0  0  0  0  0  0  0  0  0  0
   -8.5423   -6.5547    0.0000 C   0  0  0  0  0  0  0  0  0  0  0  0
   -7.6137   -7.6137    0.0000 C   0  0  0  0  0  0  0  0  0  0  0  0
   -6.5547   -8.5423    0.0000 C   0  0  0  0  0  0  0  0  0  0  0  0
   -5.3837   -9.3248    0.0000 C   0  0  0  0  0  0  0  0  0  0  0  0
   -4.1205   -9.9477    0.0000 C   0  0  0  0  0  0  0  0  0  0  0  0
   -2.7868  -10.4005    0.0000 C   0  0  0  0  0  0  0  0  0  0  0  0
   -1.4054  -10.6752    0.0000 C   0  0  0  0  0  0  0  0  0  0  0  0
   -0.0000  -10.7673    0.0000 C   0  0  0  0  0  0  0  0  0  0  0  0
    1.4054  -10.6752    0.0000 C   0  0  0  0  0  0  0  0  0  0  0  0
    2.7868  -10.4005    0.0000 C   0  0  0  0  0  0  0  0  0  0  0  0
    4.1205   -9.9477    0.0000 C   0  0  0  0  0  0  0  0  0  0  0  0
    5.3837   -9.3248    0.0000 C   0  0  0  0  0  0  0  0  0  0  0  0
    6.5547   -8.5423    0.0000 C   0  0  0  0  0  0  0  0  0  0  0  0
    7.6137   -7.6137    0.0000 C   0  0  0  0  0  0  0  0  0  0  0  0
    8.5423   -6.5547    0.0000 C   0  0  0  0  0  0  0  0  0  0  0  0
    9.3248   -5.3837    0.0000 C   0  0  0  0  0  0  0  0  0  0  0  0
    9.9477   -4.1205    0.0000 C   0  0  0  0  0  0  0  0  0  0  0  0
   11.0766   -2.9680    0.0000 C   0  0  0  0  0  0  0  0  0  0  0  0
   10.9670   -4.4640    0.0000 C   0  0  0  0  0  0  0  0  0  0  0  0
   12.2269   -3.6499    0.0000 C   0  0  0  0  0  0  0  0  0  0  0  0
   13.5618   -4.3340    0.0000 C   0  0  0  0  0  0  0  0  0  0  0  0
   13.6368   -5.8321    0.0000 C   0  0  0  0  0  0  0  0  0  0  0  0
   12.3770   -6.6461    0.0000 C   0  0  0  0  0  0  0  0  0  0  0  0
   11.0420   -5.9621    0.0000 C   0  0  0  0  0  0  0  0  0  0  0  0
  1  2  1  0
  2  3  1  0
  3  4  1  0
  4  5  1  0
  5  6  1  0
  6  7  1  0
  7  8  1  0
  8  9  1  0
  9 10  1  0
 10 11  1  0
 11 12  1  0
 12 13  1  0
 13 14  1  0
 14 15  1  0
 15 16  1  0
 16 17  1  0
 17 18  1  0
 18 19  1  0
 19 20  1  0
 20 21  1  0
 21 22  1  0
 22 23  1  0
 23 24  1  0
 24 25  1  0
 25 26  1  0
 26 27  1  0
 27 28  1  0
 28 29  1  0
 29 30  1  0
 30 31  1  0
 31 32  1  0
 32 33  1  0
 33 34  1  0
 34 35  1  0
 35 36  1  0
 36 37  1  0
 37 38  1  0
 38 39  1  0
 39 40  1  0
 40 41  1  0
 41 42  1  0
 42 43  1  0
 43 44  1  0
 44 45  1  0
 45 46  1  0
 46 47  1  0
 47 48  1  0
 48 49  1  0
 49 50  1  0
 50 51  1  0
 51 52  1  0
 52 53  1  0
 53 54  1  0
 54 55  1  0
 55 56  1  0
 56 57  1  0
 57 58  1  0
 58 59  1  0
 59 60  1  0
 60 61  1  0
 61 62  1  0
 62 63  1  0
 63 64  1  0
 64 65  1  0
 65 66  1  0
 66 67  1  0
 67 68  1  0
 68 69  1  0
 69 70  1  0
 70 71  1  0
 71 72  1  0
 72 73  1  0
 73 74  1  0
 74 75  1  0
 75 76  1  0
 76 77  1  0
 77 78  1  0
 78 79  1  0
 79 80  1  0
 80 81  1  0
 81 82  1  0
 82 83  1  0
 83 84  1  0
 84 85  1  0
 85 86  1  0
 86 87  1  0
 87 88  1  0
 88 89  1  0
 89 90  1  0
 90 91  1  0
 91 92  2  0
 92 93  1  0
 93 94  2  0
 94 95  1  0
 95 96  2  0
 96 97  1  0
 97 98  2  0
 98 99  1  0
 99100  2  0
100101  1  0
101102  2  0
102  2  1  0
 96 49  1  0
102 97  1  0
M  END
>  <Title>  (192) 
idAAFLgen9

$$$$

     RDKit          2D

 11 11  0  0  0  0  0  0  0  0999 V2000
    9.5260   -1.2990    0.0000 C   0  0  0  0  0  0  0  0  0  0  0  0
    8.7760   -0.0000    0.0000 C   0  0  0  0  0  0  0  0  0  0  0  0
    7.2760   -0.0000    0.0000 C   0  0  0  0  0  0  0  0  0  0  0  0
    5.7760   -0.0000    0.0000 C   0  0  0  0  0  0  0  0  0  0  0  0
    4.2760   -0.0000    0.0000 C   0  0  0  0  0  0  0  0  0  0  0  0
    2.7760    0.0000    0.0000 C   0  0  0  0  0  0  0  0  0  0  0  0
    1.2760    0.0000    0.0000 C   0  0  0  0  0  0  0  0  0  0  0  0
    0.3943    1.2135    0.0000 C   0  0  0  0  0  0  0  0  0  0  0  0
   -1.0323    0.7500    0.0000 C   0  0  0  0  0  0  0  0  0  0  0  0
   -1.0323   -0.7500    0.0000 C   0  0  0  0  0  0  0  0  0  0  0  0
    0.3943   -1.2135    0.0000 C   0  0  0  0  0  0  0  0  0  0  0  0
  1  2  2  0
  2  3  1  0
  3  4  3  0
  4  5  1  0
  5  6  3  0
  6  7  1  0
  7  8  2  0
  8  9  1  0
  9 10  1  0
 10 11  2  0
 11  7  1  0
M  END
>  <Title>  (193) 
idAAFMgen9

$$$$

     RDKit          2D

  9  9  0  0  0  0  0  0  0  0999 V2000
    5.0260   -1.2990    0.0000 C   0  0  0  0  0  0  0  0  0  0  0  0
    3.5260   -1.2990    0.0000 C   0  0  0  0  0  0  0  0  0  0  0  0
    2.7760   -2.5981    0.0000 O   0  0  0  0  0  0  0  0  0  0  0  0
    2.7760    0.0000    0.0000 N   0  0  0  0  0  0  0  0  0  0  0  0
    1.2760    0.0000    0.0000 C   0  0  0  0  0  0  0  0  0  0  0  0
    0.3943    1.2135    0.0000 C   0  0  0  0  0  0  0  0  0  0  0  0
   -1.0323    0.7500    0.0000 C   0  0  0  0  0  0  0  0  0  0  0  0
   -1.0323   -0.7500    0.0000 C   0  0  0  0  0  0  0  0  0  0  0  0
    0.3943   -1.2135    0.0000 C   0  0  0  0  0  0  0  0  0  0  0  0
  1  2  1  0
  2  3  2  0
  2  4  1  0
  4  5  1  0
  5  6  2  0
  6  7  1  0
  7  8  2  0
  8  9  1  0
  9  5  1  0
M  END
>  <Title>  (194) 
idAAFNgen9

$$$$

     RDKit          2D

 12 11  0  0  0  0  0  0  0  0999 V2000
    0.0000    0.0000    0.0000 C   0  0  0  0  0  0  0  0  0  0  0  0
   -0.0000   -1.5000    0.0000 C   0  0  0  0  0  0  0  0  0  0  0  0
   -0.0000   -3.0000    0.0000 C   0  0  0  0  0  0  0  0  0  0  0  0
   -0.0000   -4.5000    0.0000 C   0  0  0  0  0  0  0  0  0  0  0  0
   -0.0000   -6.0000    0.0000 C   0  0  0  0  0  0  0  0  0  0  0  0
   -0.0000   -7.5000    0.0000 C   0  0  0  0  0  0  0  0  0  0  0  0
   -0.0000   -9.0000    0.0000 C   0  0  0  0  0  0  0  0  0  0  0  0
   -0.0000  -10.5000    0.0000 C   0  0  0  0  0  0  0  0  0  0  0  0
   -0.0000  -12.0000    0.0000 C   0  0  0  0  0  0  0  0  0  0  0  0
   -0.0000  -13.5000    0.0000 C   0  0  0  0  0  0  0  0  0  0  0  0
   -0.0000  -15.0000    0.0000 C   0  0  0  0  0  0  0  0  0  0  0  0
    1.2990  -15.7500    0.0000 O   0  0  0  0  0  0  0  0  0  0  0  0
  1  2  3  0
  2  3  1  0
  3  4  3  0
  4  5  1  0
  5  6  3  0
  6  7  1  0
  7  8  3  0
  8  9  1  0
  9 10  3  0
 10 11  1  0
 11 12  1  0
M  END
>  <Title>  (195) 
idAAFOgen9

$$$$

     RDKit          2D

 10  9  0  0  0  0  0  0  0  0999 V2000
    0.0000    0.0000    0.0000 C   0  0  0  0  0  0  0  0  0  0  0  0
   -0.0000   -1.5000    0.0000 C   0  0  0  0  0  0  0  0  0  0  0  0
   -0.0000   -3.0000    0.0000 C   0  0  0  0  0  0  0  0  0  0  0  0
   -0.0000   -4.5000    0.0000 C   0  0  0  0  0  0  0  0  0  0  0  0
   -0.0000   -6.0000    0.0000 C   0  0  0  0  0  0  0  0  0  0  0  0
   -0.0000   -7.5000    0.0000 C   0  0  0  0  0  0  0  0  0  0  0  0
   -0.0000   -9.0000    0.0000 C   0  0  0  0  0  0  0  0  0  0  0  0
   -0.0000  -10.5000    0.0000 C   0  0  0  0  0  0  0  0  0  0  0  0
   -0.0000  -12.0000    0.0000 C   0  0  0  0  0  0  0  0  0  0  0  0
   -0.0000  -13.5000    0.0000 N   0  0  0  0  0  0  0  0  0  0  0  0
  1  2  3  0
  2  3  1  0
  3  4  3  0
  4  5  1  0
  5  6  3  0
  6  7  1  0
  7  8  3  0
  8  9  1  0
  9 10  3  0
M  END
>  <Title>  (196) 
idAAFPgen9

$$$$

     RDKit          2D

113113  0  0  0  0  0  0  0  0999 V2000
   28.2415    0.0000    0.0000 C   0  0  0  0  0  0  0  0  0  0  0  0
   26.7415    0.0000    0.0000 C   0  0  0  0  0  0  0  0  0  0  0  0
   26.6995   -1.4994    0.0000 C   0  0  0  0  0  0  0  0  0  0  0  0
   26.5734   -2.9941    0.0000 C   0  0  0  0  0  0  0  0  0  0  0  0
   26.3637   -4.4794    0.0000 C   0  0  0  0  0  0  0  0  0  0  0  0
   26.0711   -5.9506    0.0000 C   0  0  0  0  0  0  0  0  0  0  0  0
   25.6964   -7.4030    0.0000 C   0  0  0  0  0  0  0  0  0  0  0  0
   25.2409   -8.8322    0.0000 C   0  0  0  0  0  0  0  0  0  0  0  0
   24.7060  -10.2335    0.0000 C   0  0  0  0  0  0  0  0  0  0  0  0
   24.0933  -11.6027    0.0000 C   0  0  0  0  0  0  0  0  0  0  0  0
   23.4048  -12.9354    0.0000 C   0  0  0  0  0  0  0  0  0  0  0  0
   22.6427  -14.2274    0.0000 C   0  0  0  0  0  0  0  0  0  0  0  0
   21.8094  -15.4746    0.0000 C   0  0  0  0  0  0  0  0  0  0  0  0
   20.9074  -16.6731    0.0000 C   0  0  0  0  0  0  0  0  0  0  0  0
   19.9396  -17.8191    0.0000 C   0  0  0  0  0  0  0  0  0  0  0  0
   18.9091  -18.9091    0.0000 C   0  0  0  0  0  0  0  0  0  0  0  0
   17.8191  -19.9396    0.0000 C   0  0  0  0  0  0  0  0  0  0  0  0
   16.6731  -20.9074    0.0000 C   0  0  0  0  0  0  0  0  0  0  0  0
   15.4746  -21.8094    0.0000 C   0  0  0  0  0  0  0  0  0  0  0  0
   14.2274  -22.6427    0.0000 C   0  0  0  0  0  0  0  0  0  0  0  0
   12.9354  -23.4048    0.0000 C   0  0  0  0  0  0  0  0  0  0  0  0
   11.6027  -24.0933    0.0000 C   0  0  0  0  0  0  0  0  0  0  0  0
   10.2335  -24.7060    0.0000 C   0  0  0  0  0  0  0  0  0  0  0  0
    8.8322  -25.2409    0.0000 C   0  0  0  0  0  0  0  0  0  0  0  0
    7.4030  -25.6964    0.0000 C   0  0  0  0  0  0  0  0  0  0  0  0
    5.9506  -26.0711    0.0000 C   0  0  0  0  0  0  0  0  0  0  0  0
    4.4794  -26.3637    0.0000 C   0  0  0  0  0  0  0  0  0  0  0  0
    2.9941  -26.5734    0.0000 C   0  0  0  0  0  0  0  0  0  0  0  0
    1.4994  -26.6995    0.0000 C   0  0  0  0  0  0  0  0  0  0  0  0
   -0.0000  -26.7415    0.0000 C   0  0  0  0  0  0  0  0  0  0  0  0
   -1.4994  -26.6995    0.0000 C   0  0  0  0  0  0  0  0  0  0  0  0
   -2.9941  -26.5734    0.0000 C   0  0  0  0  0  0  0  0  0  0  0  0
   -4.4794  -26.3637    0.0000 C   0  0  0  0  0  0  0  0  0  0  0  0
   -5.9506  -26.0711    0.0000 C   0  0  0  0  0  0  0  0  0  0  0  0
   -7.4030  -25.6964    0.0000 C   0  0  0  0  0  0  0  0  0  0  0  0
   -8.8322  -25.2409    0.0000 C   0  0  0  0  0  0  0  0  0  0  0  0
  -10.2335  -24.7060    0.0000 C   0  0  0  0  0  0  0  0  0  0  0  0
  -11.6027  -24.0933    0.0000 C   0  0  0  0  0  0  0  0  0  0  0  0
  -12.9354  -23.4048    0.0000 C   0  0  0  0  0  0  0  0  0  0  0  0
  -14.2274  -22.6427    0.0000 C   0  0  0  0  0  0  0  0  0  0  0  0
  -15.4746  -21.8094    0.0000 C   0  0  0  0  0  0  0  0  0  0  0  0
  -16.6731  -20.9074    0.0000 C   0  0  0  0  0  0  0  0  0  0  0  0
  -17.8191  -19.9396    0.0000 C   0  0  0  0  0  0  0  0  0  0  0  0
  -18.9091  -18.9091    0.0000 C   0  0  0  0  0  0  0  0  0  0  0  0
  -19.9396  -17.8191    0.0000 C   0  0  0  0  0  0  0  0  0  0  0  0
  -20.9074  -16.6731    0.0000 C   0  0  0  0  0  0  0  0  0  0  0  0
  -21.8094  -15.4746    0.0000 C   0  0  0  0  0  0  0  0  0  0  0  0
  -22.6427  -14.2274    0.0000 C   0  0  0  0  0  0  0  0  0  0  0  0
  -23.4048  -12.9354    0.0000 C   0  0  0  0  0  0  0  0  0  0  0  0
  -24.0933  -11.6027    0.0000 C   0  0  0  0  0  0  0  0  0  0  0  0
  -24.7060  -10.2335    0.0000 C   0  0  0  0  0  0  0  0  0  0  0  0
  -25.2409   -8.8322    0.0000 C   0  0  0  0  0  0  0  0  0  0  0  0
  -25.6964   -7.4030    0.0000 C   0  0  0  0  0  0  0  0  0  0  0  0
  -26.0711   -5.9506    0.0000 C   0  0  0  0  0  0  0  0  0  0  0  0
  -26.3637   -4.4794    0.0000 C   0  0  0  0  0  0  0  0  0  0  0  0
  -26.5734   -2.9941    0.0000 C   0  0  0  0  0  0  0  0  0  0  0  0
  -26.6995   -1.4994    0.0000 C   0  0  0  0  0  0  0  0  0  0  0  0
  -26.7415    0.0000    0.0000 C   0  0  0  0  0  0  0  0  0  0  0  0
  -26.6995    1.4994    0.0000 C   0  0  0  0  0  0  0  0  0  0  0  0
  -26.5734    2.9941    0.0000 C   0  0  0  0  0  0  0  0  0  0  0  0
  -26.3637    4.4794    0.0000 C   0  0  0  0  0  0  0  0  0  0  0  0
  -26.0711    5.9506    0.0000 C   0  0  0  0  0  0  0  0  0  0  0  0
  -25.6964    7.4030    0.0000 C   0  0  0  0  0  0  0  0  0  0  0  0
  -25.2409    8.8322    0.0000 C   0  0  0  0  0  0  0  0  0  0  0  0
  -24.7060   10.2335    0.0000 C   0  0  0  0  0  0  0  0  0  0  0  0
  -24.0933   11.6027    0.0000 C   0  0  0  0  0  0  0  0  0  0  0  0
  -23.4048   12.9354    0.0000 C   0  0  0  0  0  0  0  0  0  0  0  0
  -22.6427   14.2274    0.0000 C   0  0  0  0  0  0  0  0  0  0  0  0
  -21.8094   15.4746    0.0000 C   0  0  0  0  0  0  0  0  0  0  0  0
  -20.9074   16.6731    0.0000 C   0  0  0  0  0  0  0  0  0  0  0  0
  -19.9396   17.8191    0.0000 C   0  0  0  0  0  0  0  0  0  0  0  0
  -18.9091   18.9091    0.0000 C   0  0  0  0  0  0  0  0  0  0  0  0
  -17.8191   19.9396    0.0000 C   0  0  0  0  0  0  0  0  0  0  0  0
  -16.6731   20.9074    0.0000 C   0  0  0  0  0  0  0  0  0  0  0  0
  -15.4746   21.8094    0.0000 C   0  0  0  0  0  0  0  0  0  0  0  0
  -14.2274   22.6427    0.0000 C   0  0  0  0  0  0  0  0  0  0  0  0
  -12.9354   23.4048    0.0000 C   0  0  0  0  0  0  0  0  0  0  0  0
  -11.6027   24.0933    0.0000 C   0  0  0  0  0  0  0  0  0  0  0  0
  -10.2335   24.7060    0.0000 C   0  0  0  0  0  0  0  0  0  0  0  0
   -8.8322   25.2409    0.0000 C   0  0  0  0  0  0  0  0  0  0  0  0
   -7.4030   25.6964    0.0000 C   0  0  0  0  0  0  0  0  0  0  0  0
   -5.9506   26.0711    0.0000 C   0  0  0  0  0  0  0  0  0  0  0  0
   -4.4794   26.3637    0.0000 C   0  0  0  0  0  0  0  0  0  0  0  0
   -2.9941   26.5734    0.0000 C   0  0  0  0  0  0  0  0  0  0  0  0
   -1.4994   26.6995    0.0000 C   0  0  0  0  0  0  0  0  0  0  0  0
    0.0000   26.7415    0.0000 C   0  0  0  0  0  0  0  0  0  0  0  0
    1.4994   26.6995    0.0000 C   0  0  0  0  0  0  0  0  0  0  0  0
    2.9941   26.5734    0.0000 C   0  0  0  0  0  0  0  0  0  0  0  0
    4.4794   26.3637    0.0000 C   0  0  0  0  0  0  0  0  0  0  0  0
    5.9506   26.0711    0.0000 C   0  0  0  0  0  0  0  0  0  0  0  0
    7.4030   25.6964    0.0000 C   0  0  0  0  0  0  0  0  0  0  0  0
    8.8322   25.2409    0.0000 C   0  0  0  0  0  0  0  0  0  0  0  0
   10.2335   24.7060    0.0000 C   0  0  0  0  0  0  0  0  0  0  0  0
   11.6027   24.0933    0.0000 C   0  0  0  0  0  0  0  0  0  0  0  0
   12.9354   23.4048    0.0000 C   0  0  0  0  0  0  0  0  0  0  0  0
   14.2274   22.6427    0.0000 C   0  0  0  0  0  0  0  0  0  0  0  0
   15.4746   21.8094    0.0000 C   0  0  0  0  0  0  0  0  0  0  0  0
   16.6731   20.9074    0.0000 C   0  0  0  0  0  0  0  0  0  0  0  0
   17.8191   19.9396    0.0000 C   0  0  0  0  0  0  0  0  0  0  0  0
   18.9091   18.9091    0.0000 C   0  0  0  0  0  0  0  0  0  0  0  0
   19.9396   17.8191    0.0000 C   0  0  0  0  0  0  0  0  0  0  0  0
   20.9074   16.6731    0.0000 C   0  0  0  0  0  0  0  0  0  0  0  0
   21.8094   15.4746    0.0000 C   0  0  0  0  0  0  0  0  0  0  0  0
   22.6427   14.2274    0.0000 C   0  0  0  0  0  0  0  0  0  0  0  0
   23.4048   12.9354    0.0000 C   0  0  0  0  0  0  0  0  0  0  0  0
   24.0933   11.6027    0.0000 C   0  0  0  0  0  0  0  0  0  0  0  0
   24.7060   10.2335    0.0000 C   0  0  0  0  0  0  0  0  0  0  0  0
   25.2409    8.8322    0.0000 C   0  0  0  0  0  0  0  0  0  0  0  0
   25.6964    7.4030    0.0000 C   0  0  0  0  0  0  0  0  0  0  0  0
   26.0711    5.9506    0.0000 C   0  0  0  0  0  0  0  0  0  0  0  0
   26.3637    4.4794    0.0000 C   0  0  0  0  0  0  0  0  0  0  0  0
   26.5734    2.9941    0.0000 C   0  0  0  0  0  0  0  0  0  0  0  0
   26.6995    1.4994    0.0000 C   0  0  0  0  0  0  0  0  0  0  0  0
  1  2  1  0
  2  3  1  0
  3  4  1  0
  4  5  2  0
  5  6  1  0
  6  7  1  0
  7  8  1  0
  8  9  1  0
  9 10  1  0
 10 11  1  0
 11 12  1  0
 12 13  1  0
 13 14  1  0
 14 15  1  0
 15 16  1  0
 16 17  1  0
 17 18  1  0
 18 19  1  0
 19 20  1  0
 20 21  1  0
 21 22  1  0
 22 23  1  0
 23 24  1  0
 24 25  1  0
 25 26  1  0
 26 27  1  0
 27 28  1  0
 28 29  1  0
 29 30  1  0
 30 31  1  0
 31 32  1  0
 32 33  1  0
 33 34  1  0
 34 35  1  0
 35 36  1  0
 36 37  1  0
 37 38  1  0
 38 39  1  0
 39 40  1  0
 40 41  1  0
 41 42  1  0
 42 43  1  0
 43 44  1  0
 44 45  1  0
 45 46  1  0
 46 47  1  0
 47 48  1  0
 48 49  1  0
 49 50  1  0
 50 51  1  0
 51 52  1  0
 52 53  1  0
 53 54  1  0
 54 55  1  0
 55 56  1  0
 56 57  1  0
 57 58  1  0
 58 59  1  0
 59 60  1  0
 60 61  1  0
 61 62  1  0
 62 63  1  0
 63 64  1  0
 64 65  1  0
 65 66  1  0
 66 67  1  0
 67 68  1  0
 68 69  1  0
 69 70  1  0
 70 71  1  0
 71 72  1  0
 72 73  1  0
 73 74  1  0
 74 75  1  0
 75 76  1  0
 76 77  1  0
 77 78  1  0
 78 79  1  0
 79 80  1  0
 80 81  1  0
 81 82  1  0
 82 83  1  0
 83 84  1  0
 84 85  1  0
 85 86  1  0
 86 87  1  0
 87 88  1  0
 88 89  1  0
 89 90  1  0
 90 91  1  0
 91 92  1  0
 92 93  1  0
 93 94  1  0
 94 95  1  0
 95 96  1  0
 96 97  1  0
 97 98  1  0
 98 99  1  0
 99100  1  0
100101  1  0
101102  1  0
102103  1  0
103104  1  0
104105  1  0
105106  1  0
106107  1  0
107108  1  0
108109  1  0
109110  1  0
110111  1  0
111112  1  0
112113  1  0
113  2  1  0
M  END
>  <Title>  (197) 
idAAFQgen9

$$$$

     RDKit          2D

116116  0  0  0  0  0  0  0  0999 V2000
   28.7189    0.0000    0.0000 C   0  0  0  0  0  0  0  0  0  0  0  0
   27.2189    0.0000    0.0000 C   0  0  0  0  0  0  0  0  0  0  0  0
   27.1776   -1.4994    0.0000 C   0  0  0  0  0  0  0  0  0  0  0  0
   27.0537   -2.9943    0.0000 C   0  0  0  0  0  0  0  0  0  0  0  0
   26.8477   -4.4801    0.0000 C   0  0  0  0  0  0  0  0  0  0  0  0
   26.5601   -5.9523    0.0000 C   0  0  0  0  0  0  0  0  0  0  0  0
   26.1919   -7.4064    0.0000 C   0  0  0  0  0  0  0  0  0  0  0  0
   25.7441   -8.8380    0.0000 C   0  0  0  0  0  0  0  0  0  0  0  0
   25.2182  -10.2427    0.0000 C   0  0  0  0  0  0  0  0  0  0  0  0
   24.6156  -11.6164    0.0000 C   0  0  0  0  0  0  0  0  0  0  0  0
   23.9383  -12.9548    0.0000 C   0  0  0  0  0  0  0  0  0  0  0  0
   23.1883  -14.2538    0.0000 C   0  0  0  0  0  0  0  0  0  0  0  0
   22.3679  -15.5096    0.0000 C   0  0  0  0  0  0  0  0  0  0  0  0
   21.4796  -16.7182    0.0000 C   0  0  0  0  0  0  0  0  0  0  0  0
   20.5260  -17.8761    0.0000 C   0  0  0  0  0  0  0  0  0  0  0  0
   19.5101  -18.9797    0.0000 C   0  0  0  0  0  0  0  0  0  0  0  0
   18.4349  -20.0256    0.0000 C   0  0  0  0  0  0  0  0  0  0  0  0
   17.3037  -21.0108    0.0000 C   0  0  0  0  0  0  0  0  0  0  0  0
   16.1200  -21.9321    0.0000 C   0  0  0  0  0  0  0  0  0  0  0  0
   14.8873  -22.7868    0.0000 C   0  0  0  0  0  0  0  0  0  0  0  0
   13.6095  -23.5723    0.0000 C   0  0  0  0  0  0  0  0  0  0  0  0
   12.2903  -24.2862    0.0000 C   0  0  0  0  0  0  0  0  0  0  0  0
   10.9337  -24.9264    0.0000 C   0  0  0  0  0  0  0  0  0  0  0  0
    9.5440  -25.4908    0.0000 C   0  0  0  0  0  0  0  0  0  0  0  0
    8.1253  -25.9779    0.0000 C   0  0  0  0  0  0  0  0  0  0  0  0
    6.6819  -26.3860    0.0000 C   0  0  0  0  0  0  0  0  0  0  0  0
    5.2182  -26.7141    0.0000 C   0  0  0  0  0  0  0  0  0  0  0  0
    3.7386  -26.9610    0.0000 C   0  0  0  0  0  0  0  0  0  0  0  0
    2.2477  -27.1260    0.0000 C   0  0  0  0  0  0  0  0  0  0  0  0
    0.7500  -27.2086    0.0000 C   0  0  0  0  0  0  0  0  0  0  0  0
   -0.7500  -27.2086    0.0000 C   0  0  0  0  0  0  0  0  0  0  0  0
   -2.2477  -27.1260    0.0000 C   0  0  0  0  0  0  0  0  0  0  0  0
   -3.7386  -26.9610    0.0000 C   0  0  0  0  0  0  0  0  0  0  0  0
   -5.2182  -26.7141    0.0000 C   0  0  0  0  0  0  0  0  0  0  0  0
   -6.6819  -26.3860    0.0000 C   0  0  0  0  0  0  0  0  0  0  0  0
   -8.1253  -25.9779    0.0000 C   0  0  0  0  0  0  0  0  0  0  0  0
   -9.5440  -25.4908    0.0000 C   0  0  0  0  0  0  0  0  0  0  0  0
  -10.9337  -24.9264    0.0000 C   0  0  0  0  0  0  0  0  0  0  0  0
  -12.2903  -24.2862    0.0000 C   0  0  0  0  0  0  0  0  0  0  0  0
  -13.6095  -23.5723    0.0000 C   0  0  0  0  0  0  0  0  0  0  0  0
  -14.8873  -22.7868    0.0000 C   0  0  0  0  0  0  0  0  0  0  0  0
  -16.1200  -21.9321    0.0000 C   0  0  0  0  0  0  0  0  0  0  0  0
  -17.3037  -21.0108    0.0000 C   0  0  0  0  0  0  0  0  0  0  0  0
  -18.4349  -20.0256    0.0000 C   0  0  0  0  0  0  0  0  0  0  0  0
  -19.5101  -18.9797    0.0000 C   0  0  0  0  0  0  0  0  0  0  0  0
  -20.5260  -17.8761    0.0000 C   0  0  0  0  0  0  0  0  0  0  0  0
  -21.4796  -16.7182    0.0000 C   0  0  0  0  0  0  0  0  0  0  0  0
  -22.3679  -15.5096    0.0000 C   0  0  0  0  0  0  0  0  0  0  0  0
  -23.1883  -14.2538    0.0000 C   0  0  0  0  0  0  0  0  0  0  0  0
  -23.9383  -12.9548    0.0000 C   0  0  0  0  0  0  0  0  0  0  0  0
  -24.6156  -11.6164    0.0000 C   0  0  0  0  0  0  0  0  0  0  0  0
  -25.2182  -10.2427    0.0000 C   0  0  0  0  0  0  0  0  0  0  0  0
  -25.7441   -8.8380    0.0000 C   0  0  0  0  0  0  0  0  0  0  0  0
  -26.1919   -7.4064    0.0000 C   0  0  0  0  0  0  0  0  0  0  0  0
  -26.5601   -5.9523    0.0000 C   0  0  0  0  0  0  0  0  0  0  0  0
  -26.8477   -4.4801    0.0000 C   0  0  0  0  0  0  0  0  0  0  0  0
  -27.0537   -2.9943    0.0000 C   0  0  0  0  0  0  0  0  0  0  0  0
  -27.1776   -1.4994    0.0000 C   0  0  0  0  0  0  0  0  0  0  0  0
  -27.2189    0.0000    0.0000 C   0  0  0  0  0  0  0  0  0  0  0  0
  -27.1776    1.4994    0.0000 C   0  0  0  0  0  0  0  0  0  0  0  0
  -27.0537    2.9943    0.0000 C   0  0  0  0  0  0  0  0  0  0  0  0
  -26.8477    4.4801    0.0000 C   0  0  0  0  0  0  0  0  0  0  0  0
  -26.5601    5.9523    0.0000 C   0  0  0  0  0  0  0  0  0  0  0  0
  -26.1919    7.4064    0.0000 C   0  0  0  0  0  0  0  0  0  0  0  0
  -25.7441    8.8380    0.0000 C   0  0  0  0  0  0  0  0  0  0  0  0
  -25.2182   10.2427    0.0000 C   0  0  0  0  0  0  0  0  0  0  0  0
  -24.6156   11.6164    0.0000 C   0  0  0  0  0  0  0  0  0  0  0  0
  -23.9383   12.9548    0.0000 C   0  0  0  0  0  0  0  0  0  0  0  0
  -23.1883   14.2538    0.0000 C   0  0  0  0  0  0  0  0  0  0  0  0
  -22.3679   15.5096    0.0000 C   0  0  0  0  0  0  0  0  0  0  0  0
  -21.4796   16.7182    0.0000 C   0  0  0  0  0  0  0  0  0  0  0  0
  -20.5260   17.8761    0.0000 C   0  0  0  0  0  0  0  0  0  0  0  0
  -19.5101   18.9797    0.0000 C   0  0  0  0  0  0  0  0  0  0  0  0
  -18.4349   20.0256    0.0000 C   0  0  0  0  0  0  0  0  0  0  0  0
  -17.3037   21.0108    0.0000 C   0  0  0  0  0  0  0  0  0  0  0  0
  -16.1200   21.9321    0.0000 C   0  0  0  0  0  0  0  0  0  0  0  0
  -14.8873   22.7868    0.0000 C   0  0  0  0  0  0  0  0  0  0  0  0
  -13.6095   23.5723    0.0000 C   0  0  0  0  0  0  0  0  0  0  0  0
  -12.2903   24.2862    0.0000 C   0  0  0  0  0  0  0  0  0  0  0  0
  -10.9337   24.9264    0.0000 C   0  0  0  0  0  0  0  0  0  0  0  0
   -9.5440   25.4908    0.0000 C   0  0  0  0  0  0  0  0  0  0  0  0
   -8.1253   25.9779    0.0000 C   0  0  0  0  0  0  0  0  0  0  0  0
   -6.6819   26.3860    0.0000 C   0  0  0  0  0  0  0  0  0  0  0  0
   -5.2182   26.7141    0.0000 C   0  0  0  0  0  0  0  0  0  0  0  0
   -3.7386   26.9610    0.0000 C   0  0  0  0  0  0  0  0  0  0  0  0
   -2.2477   27.1260    0.0000 C   0  0  0  0  0  0  0  0  0  0  0  0
   -0.7500   27.2086    0.0000 C   0  0  0  0  0  0  0  0  0  0  0  0
    0.7500   27.2086    0.0000 C   0  0  0  0  0  0  0  0  0  0  0  0
    2.2477   27.1260    0.0000 C   0  0  0  0  0  0  0  0  0  0  0  0
    3.7386   26.9610    0.0000 C   0  0  0  0  0  0  0  0  0  0  0  0
    5.2182   26.7141    0.0000 C   0  0  0  0  0  0  0  0  0  0  0  0
    6.6819   26.3860    0.0000 C   0  0  0  0  0  0  0  0  0  0  0  0
    8.1253   25.9779    0.0000 C   0  0  0  0  0  0  0  0  0  0  0  0
    9.5440   25.4908    0.0000 C   0  0  0  0  0  0  0  0  0  0  0  0
   10.9337   24.9264    0.0000 C   0  0  0  0  0  0  0  0  0  0  0  0
   12.2903   24.2862    0.0000 C   0  0  0  0  0  0  0  0  0  0  0  0
   13.6095   23.5723    0.0000 C   0  0  0  0  0  0  0  0  0  0  0  0
   14.8873   22.7868    0.0000 C   0  0  0  0  0  0  0  0  0  0  0  0
   16.1200   21.9321    0.0000 C   0  0  0  0  0  0  0  0  0  0  0  0
   17.3037   21.0108    0.0000 C   0  0  0  0  0  0  0  0  0  0  0  0
   18.4349   20.0256    0.0000 C   0  0  0  0  0  0  0  0  0  0  0  0
   19.5101   18.9797    0.0000 C   0  0  0  0  0  0  0  0  0  0  0  0
   20.5260   17.8761    0.0000 C   0  0  0  0  0  0  0  0  0  0  0  0
   21.4796   16.7182    0.0000 C   0  0  0  0  0  0  0  0  0  0  0  0
   22.3679   15.5096    0.0000 C   0  0  0  0  0  0  0  0  0  0  0  0
   23.1883   14.2538    0.0000 C   0  0  0  0  0  0  0  0  0  0  0  0
   23.9383   12.9548    0.0000 C   0  0  0  0  0  0  0  0  0  0  0  0
   24.6156   11.6164    0.0000 C   0  0  0  0  0  0  0  0  0  0  0  0
   25.2182   10.2427    0.0000 C   0  0  0  0  0  0  0  0  0  0  0  0
   25.7441    8.8380    0.0000 C   0  0  0  0  0  0  0  0  0  0  0  0
   26.1919    7.4064    0.0000 C   0  0  0  0  0  0  0  0  0  0  0  0
   26.5601    5.9523    0.0000 C   0  0  0  0  0  0  0  0  0  0  0  0
   26.8477    4.4801    0.0000 C   0  0  0  0  0  0  0  0  0  0  0  0
   27.0537    2.9943    0.0000 C   0  0  0  0  0  0  0  0  0  0  0  0
   28.5446    3.1593    0.0000 C   0  0  0  0  0  0  0  0  0  0  0  0
   27.1776    1.4994    0.0000 C   0  0  0  0  0  0  0  0  0  0  0  0
  1  2  1  0
  2  3  1  0
  3  4  1  0
  4  5  1  0
  5  6  1  0
  6  7  1  0
  7  8  1  0
  8  9  1  0
  9 10  1  0
 10 11  1  0
 11 12  1  0
 12 13  1  0
 13 14  1  0
 14 15  1  0
 15 16  1  0
 16 17  1  0
 17 18  1  0
 18 19  1  0
 19 20  1  0
 20 21  1  0
 21 22  1  0
 22 23  1  0
 23 24  1  0
 24 25  1  0
 25 26  1  0
 26 27  1  0
 27 28  1  0
 28 29  1  0
 29 30  1  0
 30 31  1  0
 31 32  1  0
 32 33  1  0
 33 34  1  0
 34 35  1  0
 35 36  1  0
 36 37  1  0
 37 38  1  0
 38 39  1  0
 39 40  1  0
 40 41  1  0
 41 42  1  0
 42 43  1  0
 43 44  1  0
 44 45  1  0
 45 46  1  0
 46 47  1  0
 47 48  1  0
 48 49  1  0
 49 50  1  0
 50 51  1  0
 51 52  1  0
 52 53  1  0
 53 54  1  0
 54 55  1  0
 55 56  1  0
 56 57  1  0
 57 58  1  0
 58 59  1  0
 59 60  1  0
 60 61  1  0
 61 62  1  0
 62 63  1  0
 63 64  1  0
 64 65  1  0
 65 66  1  0
 66 67  1  0
 67 68  1  0
 68 69  1  0
 69 70  1  0
 70 71  1  0
 71 72  1  0
 72 73  1  0
 73 74  1  0
 74 75  1  0
 75 76  1  0
 76 77  1  0
 77 78  1  0
 78 79  1  0
 79 80  1  0
 80 81  1  0
 81 82  1  0
 82 83  1  0
 83 84  1  0
 84 85  1  0
 85 86  1  0
 86 87  1  0
 87 88  1  0
 88 89  1  0
 89 90  1  0
 90 91  1  0
 91 92  1  0
 92 93  1  0
 93 94  1  0
 94 95  1  0
 95 96  1  0
 96 97  1  0
 97 98  1  0
 98 99  1  0
 99100  1  0
100101  1  0
101102  1  0
102103  1  0
103104  1  0
104105  1  0
105106  1  0
106107  1  0
107108  1  0
108109  1  0
109110  1  0
110111  1  0
111112  1  0
112113  1  0
113114  1  0
114115  1  0
114116  1  0
116  2  1  0
M  END
>  <Title>  (198) 
idAAFRgen9

$$$$

     RDKit          2D

 19 19  0  0  0  0  0  0  0  0999 V2000
   22.2760   -0.0000    0.0000 C   0  0  0  0  0  0  0  0  0  0  0  0
   20.7760   -0.0000    0.0000 C   0  0  0  0  0  0  0  0  0  0  0  0
   19.2760   -0.0000    0.0000 C   0  0  0  0  0  0  0  0  0  0  0  0
   17.7760   -0.0000    0.0000 C   0  0  0  0  0  0  0  0  0  0  0  0
   16.2760   -0.0000    0.0000 C   0  0  0  0  0  0  0  0  0  0  0  0
   14.7760   -0.0000    0.0000 C   0  0  0  0  0  0  0  0  0  0  0  0
   13.2760   -0.0000    0.0000 C   0  0  0  0  0  0  0  0  0  0  0  0
   11.7760   -0.0000    0.0000 C   0  0  0  0  0  0  0  0  0  0  0  0
   10.2760   -0.0000    0.0000 C   0  0  0  0  0  0  0  0  0  0  0  0
    8.7760   -0.0000    0.0000 C   0  0  0  0  0  0  0  0  0  0  0  0
    7.2760   -0.0000    0.0000 C   0  0  0  0  0  0  0  0  0  0  0  0
    5.7760   -0.0000    0.0000 C   0  0  0  0  0  0  0  0  0  0  0  0
    4.2760   -0.0000    0.0000 C   0  0  0  0  0  0  0  0  0  0  0  0
    2.7760    0.0000    0.0000 C   0  0  0  0  0  0  0  0  0  0  0  0
    1.2760    0.0000    0.0000 C   0  0  0  0  0  0  0  0  0  0  0  0
    0.3943    1.2135    0.0000 C   0  0  0  0  0  0  0  0  0  0  0  0
   -1.0323    0.7500    0.0000 C   0  0  0  0  0  0  0  0  0  0  0  0
   -1.0323   -0.7500    0.0000 C   0  0  0  0  0  0  0  0  0  0  0  0
    0.3943   -1.2135    0.0000 C   0  0  0  0  0  0  0  0  0  0  0  0
  1  2  3  0
  2  3  1  0
  3  4  3  0
  4  5  1  0
  5  6  3  0
  6  7  1  0
  7  8  3  0
  8  9  1  0
  9 10  3  0
 10 11  1  0
 11 12  3  0
 12 13  1  0
 13 14  3  0
 14 15  1  0
 15 16  2  0
 16 17  1  0
 17 18  1  0
 18 19  2  0
 19 15  1  0
M  END
>  <Title>  (199) 
idAAFSgen9

$$$$

     RDKit          2D

 25 26  0  0  0  0  0  0  0  0999 V2000
   -0.7768  -21.6063    0.0000 C   0  0  0  0  0  0  0  0  0  0  0  0
   -0.6200  -20.1145    0.0000 C   0  0  0  0  0  0  0  0  0  0  0  0
   -0.4633  -18.6228    0.0000 C   0  0  0  0  0  0  0  0  0  0  0  0
   -0.3065  -17.1310    0.0000 C   0  0  0  0  0  0  0  0  0  0  0  0
   -0.1497  -15.6392    0.0000 C   0  0  0  0  0  0  0  0  0  0  0  0
    0.0071  -14.1474    0.0000 C   0  0  0  0  0  0  0  0  0  0  0  0
    0.1639  -12.6556    0.0000 C   0  0  0  0  0  0  0  0  0  0  0  0
    0.3207  -11.1638    0.0000 C   0  0  0  0  0  0  0  0  0  0  0  0
    0.4775   -9.6721    0.0000 C   0  0  0  0  0  0  0  0  0  0  0  0
    1.8478   -9.0619    0.0000 C   0  0  0  0  0  0  0  0  0  0  0  0
    3.0613   -9.9436    0.0000 O   0  0  0  0  0  0  0  0  0  0  0  0
    2.0046   -7.5702    0.0000 N   0  0  0  0  0  0  0  0  0  0  0  0
    3.3037   -6.8202    0.0000 C   0  0  0  0  0  0  0  0  0  0  0  0
    2.9918   -5.3529    0.0000 C   0  0  0  0  0  0  0  0  0  0  0  0
    1.5000   -5.1962    0.0000 C   0  0  0  0  0  0  0  0  0  0  0  0
    0.7500   -3.8971    0.0000 C   0  0  0  0  0  0  0  0  0  0  0  0
   -0.7500   -3.8971    0.0000 O   0  0  0  0  0  0  0  0  0  0  0  0
    1.5000   -2.5981    0.0000 N   0  0  0  0  0  0  0  0  0  0  0  0
    0.7500   -1.2990    0.0000 C   0  0  0  0  0  0  0  0  0  0  0  0
    1.5000    0.0000    0.0000 N   0  0  0  0  0  0  0  0  0  0  0  0
    0.7500    1.2990    0.0000 N   0  0  0  0  0  0  0  0  0  0  0  0
   -0.7500    1.2990    0.0000 N   0  0  0  0  0  0  0  0  0  0  0  0
   -1.5000    0.0000    0.0000 N   0  0  0  0  0  0  0  0  0  0  0  0
   -0.7500   -1.2990    0.0000 N   0  0  0  0  0  0  0  0  0  0  0  0
    0.8899   -6.5665    0.0000 C   0  0  0  0  0  0  0  0  0  0  0  0
  1  2  3  0
  2  3  1  0
  3  4  3  0
  4  5  1  0
  5  6  3  0
  6  7  1  0
  7  8  3  0
  8  9  1  0
  9 10  1  0
 10 11  2  0
 10 12  1  0
 12 13  1  0
 13 14  1  0
 14 15  1  0
 15 16  1  0
 16 17  2  0
 16 18  1  0
 18 19  1  0
 19 20  2  0
 20 21  1  0
 21 22  2  0
 22 23  1  0
 23 24  2  0
 15 25  1  0
 25 12  1  0
 24 19  1  0
M  END
>  <Title>  (200) 
idAAFTgen9

$$$$

     RDKit          2D

  7  7  0  0  0  0  0  0  0  0999 V2000
    3.0000    0.0000    0.0000 C   0  0  0  0  0  0  0  0  0  0  0  0
    1.5000    0.0000    0.0000 C   0  0  0  0  0  0  0  0  0  0  0  0
    0.7500   -1.2990    0.0000 C   0  0  0  0  0  0  0  0  0  0  0  0
   -0.7500   -1.2990    0.0000 C   0  0  0  0  0  0  0  0  0  0  0  0
   -1.5000    0.0000    0.0000 C   0  0  0  0  0  0  0  0  0  0  0  0
   -0.7500    1.2990    0.0000 C   0  0  0  0  0  0  0  0  0  0  0  0
    0.7500    1.2990    0.0000 C   0  0  0  0  0  0  0  0  0  0  0  0
  1  2  1  0
  2  3  2  0
  3  4  1  0
  4  5  1  0
  5  6  1  0
  6  7  2  0
  7  2  1  0
M  END
>  <Title>  (201) 
idAAFUgen9

$$$$

     RDKit          2D

 76 76  0  0  0  0  0  0  0  0999 V2000
   19.4102    0.0000    0.0000 C   0  0  0  0  0  0  0  0  0  0  0  0
   17.9102    0.0000    0.0000 C   0  0  0  0  0  0  0  0  0  0  0  0
   17.8474    1.4987    0.0000 C   0  0  0  0  0  0  0  0  0  0  0  0
   17.6594    2.9869    0.0000 C   0  0  0  0  0  0  0  0  0  0  0  0
   17.3475    4.4541    0.0000 C   0  0  0  0  0  0  0  0  0  0  0  0
   16.9139    5.8901    0.0000 C   0  0  0  0  0  0  0  0  0  0  0  0
   16.3618    7.2847    0.0000 C   0  0  0  0  0  0  0  0  0  0  0  0
   15.6948    8.6283    0.0000 C   0  0  0  0  0  0  0  0  0  0  0  0
   14.9178    9.9113    0.0000 C   0  0  0  0  0  0  0  0  0  0  0  0
   14.0361   11.1249    0.0000 C   0  0  0  0  0  0  0  0  0  0  0  0
   13.0560   12.2604    0.0000 C   0  0  0  0  0  0  0  0  0  0  0  0
   11.9842   13.3098    0.0000 C   0  0  0  0  0  0  0  0  0  0  0  0
   10.8285   14.2660    0.0000 C   0  0  0  0  0  0  0  0  0  0  0  0
    9.5967   15.1221    0.0000 C   0  0  0  0  0  0  0  0  0  0  0  0
    8.2977   15.8721    0.0000 C   0  0  0  0  0  0  0  0  0  0  0  0
    6.9405   16.5107    0.0000 C   0  0  0  0  0  0  0  0  0  0  0  0
    5.5345   17.0336    0.0000 C   0  0  0  0  0  0  0  0  0  0  0  0
    4.0898   17.4370    0.0000 C   0  0  0  0  0  0  0  0  0  0  0  0
    2.6164   17.7180    0.0000 C   0  0  0  0  0  0  0  0  0  0  0  0
    1.1246   17.8748    0.0000 C   0  0  0  0  0  0  0  0  0  0  0  0
   -0.3751   17.9062    0.0000 C   0  0  0  0  0  0  0  0  0  0  0  0
   -1.8721   17.8121    0.0000 C   0  0  0  0  0  0  0  0  0  0  0  0
   -3.3560   17.5929    0.0000 C   0  0  0  0  0  0  0  0  0  0  0  0
   -4.8164   17.2504    0.0000 C   0  0  0  0  0  0  0  0  0  0  0  0
   -6.2430   16.7869    0.0000 C   0  0  0  0  0  0  0  0  0  0  0  0
   -7.6258   16.2056    0.0000 C   0  0  0  0  0  0  0  0  0  0  0  0
   -8.9551   15.5107    0.0000 C   0  0  0  0  0  0  0  0  0  0  0  0
  -10.2216   14.7069    0.0000 C   0  0  0  0  0  0  0  0  0  0  0  0
  -11.4164   13.8000    0.0000 C   0  0  0  0  0  0  0  0  0  0  0  0
  -12.5311   12.7963    0.0000 C   0  0  0  0  0  0  0  0  0  0  0  0
  -13.5579   11.7029    0.0000 C   0  0  0  0  0  0  0  0  0  0  0  0
  -14.4896   10.5273    0.0000 C   0  0  0  0  0  0  0  0  0  0  0  0
  -15.3197    9.2780    0.0000 C   0  0  0  0  0  0  0  0  0  0  0  0
  -16.0423    7.9635    0.0000 C   0  0  0  0  0  0  0  0  0  0  0  0
  -16.6525    6.5932    0.0000 C   0  0  0  0  0  0  0  0  0  0  0  0
  -17.1458    5.1766    0.0000 C   0  0  0  0  0  0  0  0  0  0  0  0
  -17.5188    3.7237    0.0000 C   0  0  0  0  0  0  0  0  0  0  0  0
  -17.7689    2.2447    0.0000 C   0  0  0  0  0  0  0  0  0  0  0  0
  -17.8945    0.7500    0.0000 C   0  0  0  0  0  0  0  0  0  0  0  0
  -17.8945   -0.7500    0.0000 C   0  0  0  0  0  0  0  0  0  0  0  0
  -17.7689   -2.2447    0.0000 C   0  0  0  0  0  0  0  0  0  0  0  0
  -17.5188   -3.7237    0.0000 C   0  0  0  0  0  0  0  0  0  0  0  0
  -17.1458   -5.1766    0.0000 C   0  0  0  0  0  0  0  0  0  0  0  0
  -16.6525   -6.5932    0.0000 C   0  0  0  0  0  0  0  0  0  0  0  0
  -16.0423   -7.9635    0.0000 C   0  0  0  0  0  0  0  0  0  0  0  0
  -15.3197   -9.2780    0.0000 C   0  0  0  0  0  0  0  0  0  0  0  0
  -14.4896  -10.5273    0.0000 C   0  0  0  0  0  0  0  0  0  0  0  0
  -13.5579  -11.7029    0.0000 C   0  0  0  0  0  0  0  0  0  0  0  0
  -12.5311  -12.7963    0.0000 C   0  0  0  0  0  0  0  0  0  0  0  0
  -11.4164  -13.8000    0.0000 C   0  0  0  0  0  0  0  0  0  0  0  0
  -10.2216  -14.7069    0.0000 C   0  0  0  0  0  0  0  0  0  0  0  0
   -8.9551  -15.5107    0.0000 C   0  0  0  0  0  0  0  0  0  0  0  0
   -7.6258  -16.2056    0.0000 C   0  0  0  0  0  0  0  0  0  0  0  0
   -6.2430  -16.7869    0.0000 C   0  0  0  0  0  0  0  0  0  0  0  0
   -4.8164  -17.2504    0.0000 C   0  0  0  0  0  0  0  0  0  0  0  0
   -3.3560  -17.5929    0.0000 C   0  0  0  0  0  0  0  0  0  0  0  0
   -1.8721  -17.8121    0.0000 C   0  0  0  0  0  0  0  0  0  0  0  0
   -0.3751  -17.9062    0.0000 C   0  0  0  0  0  0  0  0  0  0  0  0
    1.1246  -17.8748    0.0000 C   0  0  0  0  0  0  0  0  0  0  0  0
    2.6164  -17.7180    0.0000 C   0  0  0  0  0  0  0  0  0  0  0  0
    4.0898  -17.4370    0.0000 C   0  0  0  0  0  0  0  0  0  0  0  0
    5.5345  -17.0336    0.0000 C   0  0  0  0  0  0  0  0  0  0  0  0
    6.9405  -16.5107    0.0000 C   0  0  0  0  0  0  0  0  0  0  0  0
    8.2977  -15.8721    0.0000 C   0  0  0  0  0  0  0  0  0  0  0  0
    9.5967  -15.1221    0.0000 C   0  0  0  0  0  0  0  0  0  0  0  0
   10.8285  -14.2660    0.0000 C   0  0  0  0  0  0  0  0  0  0  0  0
   11.9842  -13.3098    0.0000 C   0  0  0  0  0  0  0  0  0  0  0  0
   13.0560  -12.2604    0.0000 C   0  0  0  0  0  0  0  0  0  0  0  0
   14.0361  -11.1249    0.0000 C   0  0  0  0  0  0  0  0  0  0  0  0
   14.9178   -9.9113    0.0000 C   0  0  0  0  0  0  0  0  0  0  0  0
   15.6948   -8.6283    0.0000 C   0  0  0  0  0  0  0  0  0  0  0  0
   16.3618   -7.2847    0.0000 C   0  0  0  0  0  0  0  0  0  0  0  0
   16.9139   -5.8901    0.0000 C   0  0  0  0  0  0  0  0  0  0  0  0
   17.3475   -4.4541    0.0000 C   0  0  0  0  0  0  0  0  0  0  0  0
   17.6594   -2.9869    0.0000 C   0  0  0  0  0  0  0  0  0  0  0  0
   17.8474   -1.4987    0.0000 C   0  0  0  0  0  0  0  0  0  0  0  0
  1  2  1  0
  2  3  1  0
  3  4  1  0
  4  5  1  0
  5  6  1  0
  6  7  1  0
  7  8  1  0
  8  9  1  0
  9 10  1  0
 10 11  1  0
 11 12  1  0
 12 13  1  0
 13 14  1  0
 14 15  1  0
 15 16  1  0
 16 17  1  0
 17 18  1  0
 18 19  1  0
 19 20  1  0
 20 21  1  0
 21 22  1  0
 22 23  1  0
 23 24  1  0
 24 25  1  0
 25 26  1  0
 26 27  1  0
 27 28  1  0
 28 29  1  0
 29 30  1  0
 30 31  1  0
 31 32  1  0
 32 33  1  0
 33 34  1  0
 34 35  1  0
 35 36  1  0
 36 37  1  0
 37 38  1  0
 38 39  1  0
 39 40  1  0
 40 41  1  0
 41 42  1  0
 42 43  1  0
 43 44  1  0
 44 45  1  0
 45 46  1  0
 46 47  1  0
 47 48  1  0
 48 49  1  0
 49 50  1  0
 50 51  1  0
 51 52  1  0
 52 53  1  0
 53 54  1  0
 54 55  1  0
 55 56  1  0
 56 57  1  0
 57 58  1  0
 58 59  1  0
 59 60  1  0
 60 61  1  0
 61 62  1  0
 62 63  1  0
 63 64  1  0
 64 65  1  0
 65 66  1  0
 66 67  1  0
 67 68  1  0
 68 69  1  0
 69 70  1  0
 70 71  1  0
 71 72  1  0
 72 73  1  0
 73 74  1  0
 74 75  1  0
 75 76  1  0
 76  2  1  0
M  END
>  <Title>  (202) 
idAAFVgen9

$$$$

     RDKit          2D

 92 94  0  0  0  0  0  0  0  0999 V2000
   -5.5828   -0.5288    0.0000 C   0  0  0  0  0  0  0  0  0  0  0  0
   -5.1900   -1.9765    0.0000 C   0  0  0  0  0  0  0  0  0  0  0  0
   -6.6218   -2.4237    0.0000 C   0  0  0  0  0  0  0  0  0  0  0  0
   -8.0156   -2.9780    0.0000 C   0  0  0  0  0  0  0  0  0  0  0  0
   -9.3635   -3.6362    0.0000 C   0  0  0  0  0  0  0  0  0  0  0  0
  -10.6578   -4.3943    0.0000 C   0  0  0  0  0  0  0  0  0  0  0  0
  -11.8910   -5.2482    0.0000 C   0  0  0  0  0  0  0  0  0  0  0  0
  -13.0562   -6.1930    0.0000 C   0  0  0  0  0  0  0  0  0  0  0  0
  -14.1465   -7.2231    0.0000 C   0  0  0  0  0  0  0  0  0  0  0  0
  -15.1558   -8.3327    0.0000 C   0  0  0  0  0  0  0  0  0  0  0  0
  -16.0783   -9.5155    0.0000 C   0  0  0  0  0  0  0  0  0  0  0  0
  -16.9087  -10.7647    0.0000 C   0  0  0  0  0  0  0  0  0  0  0  0
  -17.6423  -12.0731    0.0000 C   0  0  0  0  0  0  0  0  0  0  0  0
  -18.2748  -13.4332    0.0000 C   0  0  0  0  0  0  0  0  0  0  0  0
  -18.8026  -14.8373    0.0000 C   0  0  0  0  0  0  0  0  0  0  0  0
  -19.2227  -16.2772    0.0000 C   0  0  0  0  0  0  0  0  0  0  0  0
  -19.5327  -17.7449    0.0000 C   0  0  0  0  0  0  0  0  0  0  0  0
  -19.7309  -19.2317    0.0000 C   0  0  0  0  0  0  0  0  0  0  0  0
  -19.8160  -20.7293    0.0000 C   0  0  0  0  0  0  0  0  0  0  0  0
  -19.7876  -22.2290    0.0000 C   0  0  0  0  0  0  0  0  0  0  0  0
  -19.6459  -23.7223    0.0000 C   0  0  0  0  0  0  0  0  0  0  0  0
  -19.3916  -25.2006    0.0000 C   0  0  0  0  0  0  0  0  0  0  0  0
  -19.0263  -26.6554    0.0000 C   0  0  0  0  0  0  0  0  0  0  0  0
  -18.5520  -28.0785    0.0000 C   0  0  0  0  0  0  0  0  0  0  0  0
  -17.9714  -29.4616    0.0000 C   0  0  0  0  0  0  0  0  0  0  0  0
  -17.2879  -30.7968    0.0000 C   0  0  0  0  0  0  0  0  0  0  0  0
  -16.5053  -32.0765    0.0000 C   0  0  0  0  0  0  0  0  0  0  0  0
  -15.6283  -33.2933    0.0000 C   0  0  0  0  0  0  0  0  0  0  0  0
  -14.6617  -34.4404    0.0000 C   0  0  0  0  0  0  0  0  0  0  0  0
  -13.6111  -35.5110    0.0000 C   0  0  0  0  0  0  0  0  0  0  0  0
  -12.4825  -36.4992    0.0000 C   0  0  0  0  0  0  0  0  0  0  0  0
  -11.2825  -37.3991    0.0000 C   0  0  0  0  0  0  0  0  0  0  0  0
  -10.0178  -38.2057    0.0000 C   0  0  0  0  0  0  0  0  0  0  0  0
   -8.6958  -38.9144    0.0000 C   0  0  0  0  0  0  0  0  0  0  0  0
   -7.3239  -39.5210    0.0000 C   0  0  0  0  0  0  0  0  0  0  0  0
   -5.9101  -40.0222    0.0000 C   0  0  0  0  0  0  0  0  0  0  0  0
   -4.4625  -40.4150    0.0000 C   0  0  0  0  0  0  0  0  0  0  0  0
   -2.9893  -40.6972    0.0000 C   0  0  0  0  0  0  0  0  0  0  0  0
   -1.4989  -40.8671    0.0000 C   0  0  0  0  0  0  0  0  0  0  0  0
   -0.0000  -40.9239    0.0000 C   0  0  0  0  0  0  0  0  0  0  0  0
    1.4989  -40.8671    0.0000 C   0  0  0  0  0  0  0  0  0  0  0  0
    2.9893  -40.6972    0.0000 C   0  0  0  0  0  0  0  0  0  0  0  0
    4.4625  -40.4150    0.0000 C   0  0  0  0  0  0  0  0  0  0  0  0
    5.9101  -40.0222    0.0000 C   0  0  0  0  0  0  0  0  0  0  0  0
    7.3239  -39.5210    0.0000 C   0  0  0  0  0  0  0  0  0  0  0  0
    8.6958  -38.9144    0.0000 C   0  0  0  0  0  0  0  0  0  0  0  0
   10.0178  -38.2057    0.0000 C   0  0  0  0  0  0  0  0  0  0  0  0
   11.2825  -37.3991    0.0000 C   0  0  0  0  0  0  0  0  0  0  0  0
   12.4825  -36.4992    0.0000 C   0  0  0  0  0  0  0  0  0  0  0  0
   13.6111  -35.5110    0.0000 C   0  0  0  0  0  0  0  0  0  0  0  0
   14.6617  -34.4404    0.0000 C   0  0  0  0  0  0  0  0  0  0  0  0
   15.6283  -33.2933    0.0000 C   0  0  0  0  0  0  0  0  0  0  0  0
   16.5053  -32.0765    0.0000 C   0  0  0  0  0  0  0  0  0  0  0  0
   17.2879  -30.7968    0.0000 C   0  0  0  0  0  0  0  0  0  0  0  0
   17.9714  -29.4616    0.0000 C   0  0  0  0  0  0  0  0  0  0  0  0
   18.5520  -28.0785    0.0000 C   0  0  0  0  0  0  0  0  0  0  0  0
   19.0263  -26.6554    0.0000 C   0  0  0  0  0  0  0  0  0  0  0  0
   19.3916  -25.2006    0.0000 C   0  0  0  0  0  0  0  0  0  0  0  0
   19.6459  -23.7223    0.0000 C   0  0  0  0  0  0  0  0  0  0  0  0
   19.7876  -22.2290    0.0000 C   0  0  0  0  0  0  0  0  0  0  0  0
   19.8160  -20.7293    0.0000 C   0  0  0  0  0  0  0  0  0  0  0  0
   19.7309  -19.2317    0.0000 C   0  0  0  0  0  0  0  0  0  0  0  0
   19.5327  -17.7449    0.0000 C   0  0  0  0  0  0  0  0  0  0  0  0
   19.2227  -16.2772    0.0000 C   0  0  0  0  0  0  0  0  0  0  0  0
   18.8026  -14.8373    0.0000 C   0  0  0  0  0  0  0  0  0  0  0  0
   18.2748  -13.4332    0.0000 C   0  0  0  0  0  0  0  0  0  0  0  0
   17.6423  -12.0731    0.0000 C   0  0  0  0  0  0  0  0  0  0  0  0
   16.9087  -10.7647    0.0000 C   0  0  0  0  0  0  0  0  0  0  0  0
   16.0783   -9.5155    0.0000 C   0  0  0  0  0  0  0  0  0  0  0  0
   15.1558   -8.3327    0.0000 C   0  0  0  0  0  0  0  0  0  0  0  0
   14.1465   -7.2231    0.0000 C   0  0  0  0  0  0  0  0  0  0  0  0
   13.0562   -6.1930    0.0000 C   0  0  0  0  0  0  0  0  0  0  0  0
   11.8910   -5.2482    0.0000 C   0  0  0  0  0  0  0  0  0  0  0  0
   10.6578   -4.3943    0.0000 C   0  0  0  0  0  0  0  0  0  0  0  0
    9.3635   -3.6362    0.0000 C   0  0  0  0  0  0  0  0  0  0  0  0
    8.0156   -2.9780    0.0000 C   0  0  0  0  0  0  0  0  0  0  0  0
    6.6218   -2.4237    0.0000 C   0  0  0  0  0  0  0  0  0  0  0  0
    5.1900   -1.9765    0.0000 C   0  0  0  0  0  0  0  0  0  0  0  0
    3.7285   -1.6387    0.0000 C   0  0  0  0  0  0  0  0  0  0  0  0
    2.2457   -1.4125    0.0000 C   0  0  0  0  0  0  0  0  0  0  0  0
    0.7500   -1.2990    0.0000 C   0  0  0  0  0  0  0  0  0  0  0  0
    1.5000    0.0000    0.0000 C   0  0  0  0  0  0  0  0  0  0  0  0
    0.7500    1.2990    0.0000 C   0  0  0  0  0  0  0  0  0  0  0  0
   -0.7500    1.2990    0.0000 C   0  0  0  0  0  0  0  0  0  0  0  0
   -1.5000    0.0000    0.0000 C   0  0  0  0  0  0  0  0  0  0  0  0
   -0.7500   -1.2990    0.0000 C   0  0  0  0  0  0  0  0  0  0  0  0
   -2.2457   -1.4125    0.0000 C   0  0  0  0  0  0  0  0  0  0  0  0
   -1.3084   -2.5835    0.0000 C   0  0  0  0  0  0  0  0  0  0  0  0
   -1.8539   -3.9808    0.0000 C   0  0  0  0  0  0  0  0  0  0  0  0
   -3.3367   -4.2071    0.0000 C   0  0  0  0  0  0  0  0  0  0  0  0
   -4.2740   -3.0360    0.0000 C   0  0  0  0  0  0  0  0  0  0  0  0
   -3.7285   -1.6387    0.0000 C   0  0  0  0  0  0  0  0  0  0  0  0
  1  2  1  0
  2  3  1  0
  3  4  1  0
  4  5  1  0
  5  6  1  0
  6  7  1  0
  7  8  1  0
  8  9  1  0
  9 10  1  0
 10 11  1  0
 11 12  1  0
 12 13  1  0
 13 14  1  0
 14 15  1  0
 15 16  1  0
 16 17  1  0
 17 18  1  0
 18 19  1  0
 19 20  1  0
 20 21  1  0
 21 22  1  0
 22 23  1  0
 23 24  1  0
 24 25  1  0
 25 26  1  0
 26 27  1  0
 27 28  1  0
 28 29  1  0
 29 30  1  0
 30 31  1  0
 31 32  1  0
 32 33  1  0
 33 34  1  0
 34 35  1  0
 35 36  1  0
 36 37  1  0
 37 38  1  0
 38 39  1  0
 39 40  1  0
 40 41  1  0
 41 42  1  0
 42 43  1  0
 43 44  1  0
 44 45  1  0
 45 46  1  0
 46 47  1  0
 47 48  1  0
 48 49  1  0
 49 50  1  0
 50 51  1  0
 51 52  1  0
 52 53  1  0
 53 54  1  0
 54 55  1  0
 55 56  1  0
 56 57  1  0
 57 58  1  0
 58 59  1  0
 59 60  1  0
 60 61  1  0
 61 62  1  0
 62 63  1  0
 63 64  1  0
 64 65  1  0
 65 66  1  0
 66 67  1  0
 67 68  1  0
 68 69  1  0
 69 70  1  0
 70 71  1  0
 71 72  1  0
 72 73  1  0
 73 74  1  0
 74 75  1  0
 75 76  1  0
 76 77  1  0
 77 78  1  0
 78 79  1  0
 79 80  1  0
 80 81  1  0
 81 82  2  0
 82 83  1  0
 83 84  2  0
 84 85  1  0
 85 86  2  0
 86 87  1  0
 87 88  2  0
 88 89  1  0
 89 90  2  0
 90 91  1  0
 91 92  2  0
 92  2  1  0
 86 81  1  0
 92 87  1  0
M  END
>  <Title>  (203) 
idAAFWgen9

$$$$

     RDKit          2D

  9  9  0  0  0  0  0  0  0  0999 V2000
    4.2760   -0.0000    0.0000 C   0  0  0  0  0  0  0  0  0  0  0  0
    2.7760    0.0000    0.0000 C   0  0  0  0  0  0  0  0  0  0  0  0
    1.2760    0.0000    0.0000 C   0  0  0  0  0  0  0  0  0  0  0  0
    0.3943    1.2135    0.0000 C   0  0  0  0  0  0  0  0  0  0  0  0
   -1.0323    0.7500    0.0000 C   0  0  0  0  0  0  0  0  0  0  0  0
   -2.2458    1.6317    0.0000 C   0  0  0  0  0  0  0  0  0  0  0  0
   -1.0323   -0.7500    0.0000 C   0  0  0  0  0  0  0  0  0  0  0  0
   -2.2458   -1.6317    0.0000 C   0  0  0  0  0  0  0  0  0  0  0  0
    0.3943   -1.2135    0.0000 N   0  0  0  0  0  0  0  0  0  0  0  0
  1  2  3  0
  2  3  1  0
  3  4  2  0
  4  5  1  0
  5  6  1  0
  5  7  1  0
  7  8  1  0
  7  9  1  0
  9  3  1  0
M  END
>  <Title>  (204) 
idAAFXgen9

$$$$

     RDKit          2D

 96 98  0  0  0  0  0  0  0  0999 V2000
   -5.5705   -0.4933    0.0000 C   0  0  0  0  0  0  0  0  0  0  0  0
   -5.1954   -1.9456    0.0000 C   0  0  0  0  0  0  0  0  0  0  0  0
   -6.6332   -2.3730    0.0000 C   0  0  0  0  0  0  0  0  0  0  0  0
   -8.0365   -2.9029    0.0000 C   0  0  0  0  0  0  0  0  0  0  0  0
   -9.3979   -3.5328    0.0000 C   0  0  0  0  0  0  0  0  0  0  0  0
  -10.7102   -4.2592    0.0000 C   0  0  0  0  0  0  0  0  0  0  0  0
  -11.9668   -5.0784    0.0000 C   0  0  0  0  0  0  0  0  0  0  0  0
  -13.1609   -5.9862    0.0000 N   0  0  0  0  0  0  0  0  0  0  0  0
  -14.2864   -6.9777    0.0000 C   0  0  0  0  0  0  0  0  0  0  0  0
  -15.3375   -8.0479    0.0000 C   0  0  0  0  0  0  0  0  0  0  0  0
  -16.3086   -9.1912    0.0000 C   0  0  0  0  0  0  0  0  0  0  0  0
  -17.1946  -10.4015    0.0000 C   0  0  0  0  0  0  0  0  0  0  0  0
  -17.9910  -11.6726    0.0000 C   0  0  0  0  0  0  0  0  0  0  0  0
  -18.6936  -12.9979    0.0000 C   0  0  0  0  0  0  0  0  0  0  0  0
  -19.2988  -14.3704    0.0000 C   0  0  0  0  0  0  0  0  0  0  0  0
  -19.8033  -15.7830    0.0000 C   0  0  0  0  0  0  0  0  0  0  0  0
  -20.2046  -17.2283    0.0000 C   0  0  0  0  0  0  0  0  0  0  0  0
  -20.5006  -18.6988    0.0000 C   0  0  0  0  0  0  0  0  0  0  0  0
  -20.6896  -20.1869    0.0000 C   0  0  0  0  0  0  0  0  0  0  0  0
  -20.7708  -21.6847    0.0000 C   0  0  0  0  0  0  0  0  0  0  0  0
  -20.7438  -23.1844    0.0000 C   0  0  0  0  0  0  0  0  0  0  0  0
  -20.6085  -24.6783    0.0000 C   0  0  0  0  0  0  0  0  0  0  0  0
  -20.3659  -26.1586    0.0000 C   0  0  0  0  0  0  0  0  0  0  0  0
  -20.0170  -27.6174    0.0000 C   0  0  0  0  0  0  0  0  0  0  0  0
  -19.5638  -29.0473    0.0000 C   0  0  0  0  0  0  0  0  0  0  0  0
  -19.0086  -30.4408    0.0000 C   0  0  0  0  0  0  0  0  0  0  0  0
  -18.3543  -31.7906    0.0000 C   0  0  0  0  0  0  0  0  0  0  0  0
  -17.6043  -33.0896    0.0000 C   0  0  0  0  0  0  0  0  0  0  0  0
  -16.7625  -34.3311    0.0000 C   0  0  0  0  0  0  0  0  0  0  0  0
  -15.8333  -35.5087    0.0000 C   0  0  0  0  0  0  0  0  0  0  0  0
  -14.8216  -36.6161    0.0000 C   0  0  0  0  0  0  0  0  0  0  0  0
  -13.7326  -37.6477    0.0000 C   0  0  0  0  0  0  0  0  0  0  0  0
  -12.5720  -38.5980    0.0000 C   0  0  0  0  0  0  0  0  0  0  0  0
  -11.3459  -39.4620    0.0000 C   0  0  0  0  0  0  0  0  0  0  0  0
  -10.0606  -40.2353    0.0000 C   0  0  0  0  0  0  0  0  0  0  0  0
   -8.7229  -40.9139    0.0000 C   0  0  0  0  0  0  0  0  0  0  0  0
   -7.3397  -41.4942    0.0000 C   0  0  0  0  0  0  0  0  0  0  0  0
   -5.9182  -41.9731    0.0000 C   0  0  0  0  0  0  0  0  0  0  0  0
   -4.4658  -42.3483    0.0000 C   0  0  0  0  0  0  0  0  0  0  0  0
   -2.9902  -42.6176    0.0000 C   0  0  0  0  0  0  0  0  0  0  0  0
   -1.4990  -42.7798    0.0000 C   0  0  0  0  0  0  0  0  0  0  0  0
   -0.0000  -42.8340    0.0000 C   0  0  0  0  0  0  0  0  0  0  0  0
    1.4990  -42.7798    0.0000 C   0  0  0  0  0  0  0  0  0  0  0  0
    2.9902  -42.6176    0.0000 C   0  0  0  0  0  0  0  0  0  0  0  0
    4.4658  -42.3483    0.0000 C   0  0  0  0  0  0  0  0  0  0  0  0
    5.9182  -41.9731    0.0000 C   0  0  0  0  0  0  0  0  0  0  0  0
    7.3397  -41.4942    0.0000 C   0  0  0  0  0  0  0  0  0  0  0  0
    8.7229  -40.9139    0.0000 C   0  0  0  0  0  0  0  0  0  0  0  0
   10.0606  -40.2353    0.0000 C   0  0  0  0  0  0  0  0  0  0  0  0
   11.3459  -39.4620    0.0000 C   0  0  0  0  0  0  0  0  0  0  0  0
   12.5720  -38.5980    0.0000 C   0  0  0  0  0  0  0  0  0  0  0  0
   13.7326  -37.6477    0.0000 C   0  0  0  0  0  0  0  0  0  0  0  0
   14.8216  -36.6161    0.0000 C   0  0  0  0  0  0  0  0  0  0  0  0
   15.8333  -35.5087    0.0000 C   0  0  0  0  0  0  0  0  0  0  0  0
   16.7625  -34.3311    0.0000 C   0  0  0  0  0  0  0  0  0  0  0  0
   17.6043  -33.0896    0.0000 C   0  0  0  0  0  0  0  0  0  0  0  0
   18.3543  -31.7906    0.0000 C   0  0  0  0  0  0  0  0  0  0  0  0
   19.0086  -30.4408    0.0000 C   0  0  0  0  0  0  0  0  0  0  0  0
   19.5638  -29.0473    0.0000 C   0  0  0  0  0  0  0  0  0  0  0  0
   20.0170  -27.6174    0.0000 C   0  0  0  0  0  0  0  0  0  0  0  0
   20.3659  -26.1586    0.0000 C   0  0  0  0  0  0  0  0  0  0  0  0
   20.6085  -24.6783    0.0000 C   0  0  0  0  0  0  0  0  0  0  0  0
   20.7438  -23.1844    0.0000 C   0  0  0  0  0  0  0  0  0  0  0  0
   20.7708  -21.6847    0.0000 C   0  0  0  0  0  0  0  0  0  0  0  0
   20.6896  -20.1869    0.0000 C   0  0  0  0  0  0  0  0  0  0  0  0
   20.5006  -18.6988    0.0000 C   0  0  0  0  0  0  0  0  0  0  0  0
   20.2046  -17.2283    0.0000 C   0  0  0  0  0  0  0  0  0  0  0  0
   19.8033  -15.7830    0.0000 C   0  0  0  0  0  0  0  0  0  0  0  0
   19.2988  -14.3704    0.0000 C   0  0  0  0  0  0  0  0  0  0  0  0
   18.6936  -12.9979    0.0000 C   0  0  0  0  0  0  0  0  0  0  0  0
   17.9910  -11.6726    0.0000 C   0  0  0  0  0  0  0  0  0  0  0  0
   17.1946  -10.4015    0.0000 C   0  0  0  0  0  0  0  0  0  0  0  0
   16.3086   -9.1912    0.0000 C   0  0  0  0  0  0  0  0  0  0  0  0
   15.3375   -8.0479    0.0000 C   0  0  0  0  0  0  0  0  0  0  0  0
   14.2864   -6.9777    0.0000 C   0  0  0  0  0  0  0  0  0  0  0  0
   13.1609   -5.9862    0.0000 C   0  0  0  0  0  0  0  0  0  0  0  0
   11.9668   -5.0784    0.0000 C   0  0  0  0  0  0  0  0  0  0  0  0
   10.7102   -4.2592    0.0000 C   0  0  0  0  0  0  0  0  0  0  0  0
    9.3979   -3.5328    0.0000 C   0  0  0  0  0  0  0  0  0  0  0  0
    8.0365   -2.9029    0.0000 C   0  0  0  0  0  0  0  0  0  0  0  0
    6.6332   -2.3730    0.0000 C   0  0  0  0  0  0  0  0  0  0  0  0
    5.1954   -1.9456    0.0000 C   0  0  0  0  0  0  0  0  0  0  0  0
    3.7305   -1.6232    0.0000 C   0  0  0  0  0  0  0  0  0  0  0  0
    2.2461   -1.4073    0.0000 C   0  0  0  0  0  0  0  0  0  0  0  0
    0.7500   -1.2990    0.0000 C   0  0  0  0  0  0  0  0  0  0  0  0
    1.5000    0.0000    0.0000 C   0  0  0  0  0  0  0  0  0  0  0  0
    0.7500    1.2990    0.0000 C   0  0  0  0  0  0  0  0  0  0  0  0
   -0.7500    1.2990    0.0000 C   0  0  0  0  0  0  0  0  0  0  0  0
   -1.5000    0.0000    0.0000 C   0  0  0  0  0  0  0  0  0  0  0  0
   -0.7500   -1.2990    0.0000 C   0  0  0  0  0  0  0  0  0  0  0  0
   -2.2461   -1.4073    0.0000 C   0  0  0  0  0  0  0  0  0  0  0  0
   -1.3169   -2.5848    0.0000 C   0  0  0  0  0  0  0  0  0  0  0  0
   -1.8721   -3.9783    0.0000 C   0  0  0  0  0  0  0  0  0  0  0  0
   -3.3565   -4.1942    0.0000 C   0  0  0  0  0  0  0  0  0  0  0  0
   -4.2857   -3.0166    0.0000 C   0  0  0  0  0  0  0  0  0  0  0  0
   -3.7305   -1.6232    0.0000 C   0  0  0  0  0  0  0  0  0  0  0  0
  1  2  1  0
  2  3  1  0
  3  4  2  0
  4  5  1  0
  5  6  2  0
  6  7  1  0
  7  8  1  0
  8  9  1  0
  9 10  1  0
 10 11  1  0
 11 12  1  0
 12 13  1  0
 13 14  1  0
 14 15  1  0
 15 16  1  0
 16 17  1  0
 17 18  1  0
 18 19  1  0
 19 20  1  0
 20 21  1  0
 21 22  1  0
 22 23  1  0
 23 24  1  0
 24 25  1  0
 25 26  1  0
 26 27  1  0
 27 28  1  0
 28 29  1  0
 29 30  1  0
 30 31  1  0
 31 32  1  0
 32 33  1  0
 33 34  1  0
 34 35  1  0
 35 36  1  0
 36 37  1  0
 37 38  1  0
 38 39  1  0
 39 40  1  0
 40 41  1  0
 41 42  1  0
 42 43  1  0
 43 44  1  0
 44 45  1  0
 45 46  1  0
 46 47  1  0
 47 48  1  0
 48 49  1  0
 49 50  1  0
 50 51  1  0
 51 52  1  0
 52 53  1  0
 53 54  1  0
 54 55  1  0
 55 56  1  0
 56 57  1  0
 57 58  1  0
 58 59  1  0
 59 60  1  0
 60 61  1  0
 61 62  1  0
 62 63  1  0
 63 64  1  0
 64 65  1  0
 65 66  1  0
 66 67  1  0
 67 68  1  0
 68 69  1  0
 69 70  1  0
 70 71  1  0
 71 72  1  0
 72 73  1  0
 73 74  1  0
 74 75  1  0
 75 76  1  0
 76 77  1  0
 77 78  1  0
 78 79  1  0
 79 80  1  0
 80 81  1  0
 81 82  1  0
 82 83  1  0
 83 84  1  0
 84 85  1  0
 85 86  1  0
 86 87  1  0
 87 88  1  0
 88 89  1  0
 89 90  1  0
 90 91  1  0
 91 92  2  0
 92 93  1  0
 93 94  2  0
 94 95  1  0
 95 96  2  0
 96  2  1  0
 90 85  1  0
 96 91  1  0
M  END
>  <Title>  (205) 
idAAFYgen9

$$$$

     RDKit          2D

 17 17  0  0  0  0  0  0  0  0999 V2000
   17.0260    1.2990    0.0000 C   0  0  0  0  0  0  0  0  0  0  0  0
   15.5260    1.2990    0.0000 C   0  0  0  0  0  0  0  0  0  0  0  0
   14.7760   -0.0000    0.0000 C   0  0  0  0  0  0  0  0  0  0  0  0
   15.5260   -1.2990    0.0000 C   0  0  0  0  0  0  0  0  0  0  0  0
   13.2760   -0.0000    0.0000 C   0  0  0  0  0  0  0  0  0  0  0  0
   11.7760   -0.0000    0.0000 C   0  0  0  0  0  0  0  0  0  0  0  0
   10.2760   -0.0000    0.0000 C   0  0  0  0  0  0  0  0  0  0  0  0
    8.7760   -0.0000    0.0000 C   0  0  0  0  0  0  0  0  0  0  0  0
    7.2760   -0.0000    0.0000 C   0  0  0  0  0  0  0  0  0  0  0  0
    5.7760   -0.0000    0.0000 C   0  0  0  0  0  0  0  0  0  0  0  0
    4.2760   -0.0000    0.0000 C   0  0  0  0  0  0  0  0  0  0  0  0
    2.7760    0.0000    0.0000 C   0  0  0  0  0  0  0  0  0  0  0  0
    1.2760    0.0000    0.0000 C   0  0  0  0  0  0  0  0  0  0  0  0
    0.3943    1.2135    0.0000 C   0  0  0  0  0  0  0  0  0  0  0  0
   -1.0323    0.7500    0.0000 C   0  0  0  0  0  0  0  0  0  0  0  0
   -1.0323   -0.7500    0.0000 C   0  0  0  0  0  0  0  0  0  0  0  0
    0.3943   -1.2135    0.0000 C   0  0  0  0  0  0  0  0  0  0  0  0
  1  2  1  0
  2  3  2  3
  3  4  1  0
  3  5  1  0
  5  6  3  0
  6  7  1  0
  7  8  3  0
  8  9  1  0
  9 10  3  0
 10 11  1  0
 11 12  3  0
 12 13  1  0
 13 14  2  0
 14 15  1  0
 15 16  2  0
 16 17  1  0
 17 13  1  0
M  END
>  <Title>  (206) 
idAAFZgen9

$$$$

     RDKit          2D

 49 56  0  0  0  0  0  0  0  0999 V2000
    4.3881   -6.6982    0.0000 C   0  0  0  0  0  0  0  0  0  0  0  0
    3.0367   -6.0474    0.0000 C   0  0  0  0  0  0  0  0  0  0  0  0
    3.3705   -4.5850    0.0000 C   0  0  0  0  0  0  0  0  0  0  0  0
    3.0367   -3.1226    0.0000 C   0  0  0  0  0  0  0  0  0  0  0  0
    2.1015   -1.9499    0.0000 C   0  0  0  0  0  0  0  0  0  0  0  0
    3.0367   -0.7771    0.0000 C   0  0  0  0  0  0  0  0  0  0  0  0
    2.4887    0.6192    0.0000 O   0  0  0  0  0  0  0  0  0  0  0  0
    4.5199   -1.0007    0.0000 N   0  0  0  0  0  0  0  0  0  0  0  0
    5.4552    0.1721    0.0000 C   0  0  0  0  0  0  0  0  0  0  0  0
    5.0561    1.6180    0.0000 N   0  0  0  0  0  0  0  0  0  0  0  0
    6.3080    2.4444    0.0000 N   0  0  0  0  0  0  0  0  0  0  0  0
    7.4807    1.5091    0.0000 N   0  0  0  0  0  0  0  0  0  0  0  0
    6.9537    0.1048    0.0000 N   0  0  0  0  0  0  0  0  0  0  0  0
    7.7800   -1.1471    0.0000 C   0  0  0  0  0  0  0  0  0  0  0  0
    7.1090   -2.4887    0.0000 N   0  0  0  0  0  0  0  0  0  0  0  0
    7.9354   -3.7405    0.0000 N   0  0  0  0  0  0  0  0  0  0  0  0
    9.4327   -3.6508    0.0000 N   0  0  0  0  0  0  0  0  0  0  0  0
   10.1037   -2.3092    0.0000 N   0  0  0  0  0  0  0  0  0  0  0  0
    9.2773   -1.0574    0.0000 N   0  0  0  0  0  0  0  0  0  0  0  0
    0.7500   -1.2990    0.0000 C   0  0  0  0  0  0  0  0  0  0  0  0
    1.5000    0.0000    0.0000 C   0  0  0  0  0  0  0  0  0  0  0  0
    0.7500    1.2990    0.0000 C   0  0  0  0  0  0  0  0  0  0  0  0
   -0.7500    1.2990    0.0000 C   0  0  0  0  0  0  0  0  0  0  0  0
   -1.5000    0.0000    0.0000 C   0  0  0  0  0  0  0  0  0  0  0  0
   -0.7500   -1.2990    0.0000 C   0  0  0  0  0  0  0  0  0  0  0  0
   -2.1015   -1.9499    0.0000 C   0  0  0  0  0  0  0  0  0  0  0  0
   -2.6495   -0.5536    0.0000 C   0  0  0  0  0  0  0  0  0  0  0  0
   -4.1327   -0.3300    0.0000 C   0  0  0  0  0  0  0  0  0  0  0  0
   -5.0679   -1.5027    0.0000 C   0  0  0  0  0  0  0  0  0  0  0  0
   -4.5199   -2.8990    0.0000 C   0  0  0  0  0  0  0  0  0  0  0  0
   -3.0367   -3.1226    0.0000 C   0  0  0  0  0  0  0  0  0  0  0  0
   -3.3705   -4.5850    0.0000 C   0  0  0  0  0  0  0  0  0  0  0  0
   -4.8038   -4.1429    0.0000 C   0  0  0  0  0  0  0  0  0  0  0  0
   -5.9034   -5.1631    0.0000 C   0  0  0  0  0  0  0  0  0  0  0  0
   -5.5696   -6.6255    0.0000 C   0  0  0  0  0  0  0  0  0  0  0  0
   -4.1363   -7.0677    0.0000 C   0  0  0  0  0  0  0  0  0  0  0  0
   -3.0367   -6.0474    0.0000 C   0  0  0  0  0  0  0  0  0  0  0  0
   -2.1015   -7.2201    0.0000 C   0  0  0  0  0  0  0  0  0  0  0  0
   -3.3408   -8.0651    0.0000 C   0  0  0  0  0  0  0  0  0  0  0  0
   -3.2287   -9.5609    0.0000 C   0  0  0  0  0  0  0  0  0  0  0  0
   -1.8773  -10.2118    0.0000 C   0  0  0  0  0  0  0  0  0  0  0  0
   -0.6379   -9.3668    0.0000 C   0  0  0  0  0  0  0  0  0  0  0  0
   -0.7500   -7.8710    0.0000 C   0  0  0  0  0  0  0  0  0  0  0  0
    0.7500   -7.8710    0.0000 C   0  0  0  0  0  0  0  0  0  0  0  0
    0.6379   -9.3668    0.0000 C   0  0  0  0  0  0  0  0  0  0  0  0
    1.8773  -10.2118    0.0000 C   0  0  0  0  0  0  0  0  0  0  0  0
    3.2287   -9.5609    0.0000 C   0  0  0  0  0  0  0  0  0  0  0  0
    3.3408   -8.0651    0.0000 C   0  0  0  0  0  0  0  0  0  0  0  0
    2.1015   -7.2201    0.0000 C   0  0  0  0  0  0  0  0  0  0  0  0
  1  2  1  0
  2  3  2  0
  3  4  1  0
  4  5  1  0
  5  6  1  0
  6  7  2  0
  6  8  1  0
  8  9  1  0
  9 10  2  0
 10 11  1  0
 11 12  2  0
 12 13  1  0
 13 14  1  0
 14 15  2  0
 15 16  1  0
 16 17  2  0
 17 18  1  0
 18 19  2  0
  5 20  1  0
 20 21  2  0
 21 22  1  0
 22 23  2  0
 23 24  1  0
 24 25  2  0
 25 26  1  0
 26 27  2  0
 27 28  1  0
 28 29  2  0
 29 30  1  0
 30 31  2  0
 31 32  1  0
 32 33  2  0
 33 34  1  0
 34 35  2  0
 35 36  1  0
 36 37  2  0
 37 38  1  0
 38 39  2  0
 39 40  1  0
 40 41  2  0
 41 42  1  0
 42 43  2  0
 43 44  1  0
 44 45  2  0
 45 46  1  0
 46 47  2  0
 47 48  1  0
 48 49  2  0
 49  2  1  0
 13  9  1  0
 19 14  1  0
 25 20  1  0
 31 26  1  0
 37 32  1  0
 43 38  1  0
 49 44  1  0
M  END
>  <Title>  (207) 
idAAGAgen9

$$$$

     RDKit          2D

 27 30  0  0  0  0  0  0  0  0999 V2000
   -1.3240   -6.3062    0.0000 C   0  0  0  0  0  0  0  0  0  0  0  0
   -0.7500   -4.9204    0.0000 C   0  0  0  0  0  0  0  0  0  0  0  0
    0.7500   -4.9204    0.0000 C   0  0  0  0  0  0  0  0  0  0  0  0
    1.8107   -3.8597    0.0000 C   0  0  0  0  0  0  0  0  0  0  0  0
    3.1965   -4.4337    0.0000 C   0  0  0  0  0  0  0  0  0  0  0  0
    1.8107   -2.3597    0.0000 N   0  0  0  0  0  0  0  0  0  0  0  0
    3.1965   -1.7857    0.0000 C   0  0  0  0  0  0  0  0  0  0  0  0
    4.3865   -2.6988    0.0000 C   0  0  0  0  0  0  0  0  0  0  0  0
    5.7723   -2.1248    0.0000 C   0  0  0  0  0  0  0  0  0  0  0  0
    5.9681   -0.6376    0.0000 O   0  0  0  0  0  0  0  0  0  0  0  0
    6.9624   -3.0379    0.0000 N   0  0  0  0  0  0  0  0  0  0  0  0
    8.4006   -2.6119    0.0000 C   0  0  0  0  0  0  0  0  0  0  0  0
    9.2502   -3.8481    0.0000 C   0  0  0  0  0  0  0  0  0  0  0  0
    8.3371   -5.0381    0.0000 C   0  0  0  0  0  0  0  0  0  0  0  0
    6.9231   -4.5374    0.0000 C   0  0  0  0  0  0  0  0  0  0  0  0
    0.7500   -1.2990    0.0000 C   0  0  0  0  0  0  0  0  0  0  0  0
    1.5000    0.0000    0.0000 C   0  0  0  0  0  0  0  0  0  0  0  0
    0.7500    1.2990    0.0000 C   0  0  0  0  0  0  0  0  0  0  0  0
   -0.7500    1.2990    0.0000 C   0  0  0  0  0  0  0  0  0  0  0  0
   -1.5000    0.0000    0.0000 C   0  0  0  0  0  0  0  0  0  0  0  0
   -0.7500   -1.2990    0.0000 C   0  0  0  0  0  0  0  0  0  0  0  0
   -1.8107   -2.3597    0.0000 C   0  0  0  0  0  0  0  0  0  0  0  0
   -3.1097   -1.6097    0.0000 C   0  0  0  0  0  0  0  0  0  0  0  0
   -4.4087   -2.3597    0.0000 C   0  0  0  0  0  0  0  0  0  0  0  0
   -4.4087   -3.8597    0.0000 C   0  0  0  0  0  0  0  0  0  0  0  0
   -3.1097   -4.6097    0.0000 C   0  0  0  0  0  0  0  0  0  0  0  0
   -1.8107   -3.8597    0.0000 C   0  0  0  0  0  0  0  0  0  0  0  0
  1  2  1  0
  2  3  2  0
  3  4  1  0
  4  5  1  0
  4  6  1  0
  6  7  1  0
  7  8  1  0
  8  9  1  0
  9 10  2  0
  9 11  1  0
 11 12  1  0
 12 13  1  0
 13 14  1  0
 14 15  1  0
  6 16  1  0
 16 17  2  0
 17 18  1  0
 18 19  2  0
 19 20  1  0
 20 21  2  0
 21 22  1  0
 22 23  2  0
 23 24  1  0
 24 25  2  0
 25 26  1  0
 26 27  2  0
 27  2  1  0
 15 11  1  0
 21 16  1  0
 27 22  1  0
M  END
>  <Title>  (208) 
idAAGBgen9

$$$$

     RDKit          2D

 70 76  0  0  0  0  0  0  0  0999 V2000
  -11.0250   -9.9610    0.0000 C   0  0  0  0  0  0  0  0  0  0  0  0
   -9.5297  -10.0787    0.0000 C   0  0  0  0  0  0  0  0  0  0  0  0
   -9.5297  -11.5787    0.0000 C   0  0  0  0  0  0  0  0  0  0  0  0
   -9.2950  -13.0602    0.0000 C   0  0  0  0  0  0  0  0  0  0  0  0
   -8.8315  -14.4868    0.0000 C   0  0  0  0  0  0  0  0  0  0  0  0
   -8.1505  -15.8233    0.0000 C   0  0  0  0  0  0  0  0  0  0  0  0
   -7.2688  -17.0368    0.0000 C   0  0  0  0  0  0  0  0  0  0  0  0
   -6.2082  -18.0975    0.0000 C   0  0  0  0  0  0  0  0  0  0  0  0
   -4.9946  -18.9792    0.0000 C   0  0  0  0  0  0  0  0  0  0  0  0
   -3.6581  -19.6602    0.0000 C   0  0  0  0  0  0  0  0  0  0  0  0
   -2.2315  -20.1237    0.0000 C   0  0  0  0  0  0  0  0  0  0  0  0
   -0.7500  -20.3583    0.0000 C   0  0  0  0  0  0  0  0  0  0  0  0
    0.7500  -20.3583    0.0000 C   0  0  0  0  0  0  0  0  0  0  0  0
    2.2315  -20.1237    0.0000 C   0  0  0  0  0  0  0  0  0  0  0  0
    3.6581  -19.6602    0.0000 C   0  0  0  0  0  0  0  0  0  0  0  0
    4.9946  -18.9792    0.0000 C   0  0  0  0  0  0  0  0  0  0  0  0
    6.2082  -18.0975    0.0000 C   0  0  0  0  0  0  0  0  0  0  0  0
    7.2688  -17.0368    0.0000 C   0  0  0  0  0  0  0  0  0  0  0  0
    8.1505  -15.8233    0.0000 C   0  0  0  0  0  0  0  0  0  0  0  0
    8.8315  -14.4868    0.0000 C   0  0  0  0  0  0  0  0  0  0  0  0
    9.2950  -13.0602    0.0000 C   0  0  0  0  0  0  0  0  0  0  0  0
    9.5297  -11.5787    0.0000 C   0  0  0  0  0  0  0  0  0  0  0  0
    9.5297  -10.0787    0.0000 C   0  0  0  0  0  0  0  0  0  0  0  0
    9.2950   -8.5972    0.0000 C   0  0  0  0  0  0  0  0  0  0  0  0
    8.8315   -7.1706    0.0000 C   0  0  0  0  0  0  0  0  0  0  0  0
   10.2173   -6.5965    0.0000 C   0  0  0  0  0  0  0  0  0  0  0  0
   10.4131   -5.1094    0.0000 O   0  0  0  0  0  0  0  0  0  0  0  0
   11.4073   -7.5097    0.0000 N   0  0  0  0  0  0  0  0  0  0  0  0
   12.7931   -6.9357    0.0000 C   0  0  0  0  0  0  0  0  0  0  0  0
   13.9832   -7.8488    0.0000 N   0  0  0  0  0  0  0  0  0  0  0  0
   15.3690   -7.2748    0.0000 N   0  0  0  0  0  0  0  0  0  0  0  0
   15.5648   -5.7876    0.0000 N   0  0  0  0  0  0  0  0  0  0  0  0
   14.3748   -4.8745    0.0000 N   0  0  0  0  0  0  0  0  0  0  0  0
   12.9889   -5.4485    0.0000 N   0  0  0  0  0  0  0  0  0  0  0  0
    8.1505   -5.8341    0.0000 C   0  0  0  0  0  0  0  0  0  0  0  0
    7.2688   -4.6205    0.0000 C   0  0  0  0  0  0  0  0  0  0  0  0
    6.2082   -3.5599    0.0000 C   0  0  0  0  0  0  0  0  0  0  0  0
    4.9946   -2.6782    0.0000 C   0  0  0  0  0  0  0  0  0  0  0  0
    3.6581   -1.9972    0.0000 C   0  0  0  0  0  0  0  0  0  0  0  0
    2.2315   -1.5337    0.0000 C   0  0  0  0  0  0  0  0  0  0  0  0
    0.7500   -1.2990    0.0000 C   0  0  0  0  0  0  0  0  0  0  0  0
    1.5000    0.0000    0.0000 C   0  0  0  0  0  0  0  0  0  0  0  0
    0.7500    1.2990    0.0000 C   0  0  0  0  0  0  0  0  0  0  0  0
   -0.7500    1.2990    0.0000 C   0  0  0  0  0  0  0  0  0  0  0  0
   -1.5000    0.0000    0.0000 C   0  0  0  0  0  0  0  0  0  0  0  0
   -0.7500   -1.2990    0.0000 C   0  0  0  0  0  0  0  0  0  0  0  0
   -2.2315   -1.5337    0.0000 C   0  0  0  0  0  0  0  0  0  0  0  0
   -1.1168   -2.5374    0.0000 C   0  0  0  0  0  0  0  0  0  0  0  0
   -1.4287   -4.0046    0.0000 C   0  0  0  0  0  0  0  0  0  0  0  0
   -2.8553   -4.4681    0.0000 C   0  0  0  0  0  0  0  0  0  0  0  0
   -3.9700   -3.4644    0.0000 C   0  0  0  0  0  0  0  0  0  0  0  0
   -3.6581   -1.9972    0.0000 C   0  0  0  0  0  0  0  0  0  0  0  0
   -4.9946   -2.6782    0.0000 C   0  0  0  0  0  0  0  0  0  0  0  0
   -5.1514   -1.1864    0.0000 C   0  0  0  0  0  0  0  0  0  0  0  0
   -6.5217   -0.5763    0.0000 C   0  0  0  0  0  0  0  0  0  0  0  0
   -7.7353   -1.4580    0.0000 C   0  0  0  0  0  0  0  0  0  0  0  0
   -7.5785   -2.9498    0.0000 C   0  0  0  0  0  0  0  0  0  0  0  0
   -6.2082   -3.5599    0.0000 C   0  0  0  0  0  0  0  0  0  0  0  0
   -7.2688   -4.6205    0.0000 C   0  0  0  0  0  0  0  0  0  0  0  0
   -8.2904   -3.8165    0.0000 C   0  0  0  0  0  0  0  0  0  0  0  0
   -9.0860   -3.7329    0.0000 C   0  0  0  0  0  0  0  0  0  0  0  0
   -9.5562   -4.3801    0.0000 C   0  0  0  0  0  0  0  0  0  0  0  0
   -9.2308   -5.1110    0.0000 C   0  0  0  0  0  0  0  0  0  0  0  0
   -8.1505   -5.8341    0.0000 C   0  0  0  0  0  0  0  0  0  0  0  0
   -8.8315   -7.1706    0.0000 C   0  0  0  0  0  0  0  0  0  0  0  0
   -9.8352   -6.0559    0.0000 C   0  0  0  0  0  0  0  0  0  0  0  0
  -11.3024   -6.3677    0.0000 C   0  0  0  0  0  0  0  0  0  0  0  0
  -11.7659   -7.7943    0.0000 C   0  0  0  0  0  0  0  0  0  0  0  0
  -10.7622   -8.9090    0.0000 C   0  0  0  0  0  0  0  0  0  0  0  0
   -9.2950   -8.5972    0.0000 C   0  0  0  0  0  0  0  0  0  0  0  0
  1  2  1  0
  2  3  1  0
  3  4  1  0
  4  5  1  0
  5  6  1  0
  6  7  1  0
  7  8  1  0
  8  9  1  0
  9 10  1  0
 10 11  1  0
 11 12  1  0
 12 13  1  0
 13 14  1  0
 14 15  1  0
 15 16  1  0
 16 17  1  0
 17 18  1  0
 18 19  1  0
 19 20  1  0
 20 21  1  0
 21 22  1  0
 22 23  1  0
 23 24  1  0
 24 25  1  0
 25 26  1  0
 26 27  2  0
 26 28  1  0
 28 29  1  0
 29 30  2  0
 30 31  1  0
 31 32  2  0
 32 33  1  0
 33 34  2  0
 25 35  2  0
 35 36  1  0
 36 37  2  0
 37 38  1  0
 38 39  2  0
 39 40  1  0
 40 41  1  0
 41 42  2  0
 42 43  1  0
 43 44  2  0
 44 45  1  0
 45 46  2  0
 46 47  1  0
 47 48  2  0
 48 49  1  0
 49 50  2  0
 50 51  1  0
 51 52  2  0
 52 53  1  0
 53 54  2  0
 54 55  1  0
 55 56  2  0
 56 57  1  0
 57 58  2  0
 58 59  1  0
 59 60  2  0
 60 61  1  0
 61 62  2  0
 62 63  1  0
 63 64  2  0
 64 65  1  0
 65 66  2  0
 66 67  1  0
 67 68  2  0
 68 69  1  0
 69 70  2  0
 70  2  1  0
 34 29  1  0
 46 41  1  0
 52 47  1  0
 58 53  1  0
 64 59  1  0
 70 65  1  0
M  END
>  <Title>  (209) 
idAAGCgen9

$$$$

     RDKit          2D

 16 18  0  0  0  0  0  0  0  0999 V2000
   -0.1459    3.7548    0.0000 O   0  0  0  0  0  0  0  0  0  0  0  0
    0.8578    2.6401    0.0000 C   0  0  0  0  0  0  0  0  0  0  0  0
    2.3250    2.9520    0.0000 C   0  0  0  0  0  0  0  0  0  0  0  0
    3.3287    1.8373    0.0000 O   0  0  0  0  0  0  0  0  0  0  0  0
    2.7886    4.3786    0.0000 N   0  0  0  0  0  0  0  0  0  0  0  0
    4.1251    5.0595    0.0000 C   0  0  0  0  0  0  0  0  0  0  0  0
    3.4441    6.3961    0.0000 C   0  0  0  0  0  0  0  0  0  0  0  0
    2.1076    5.7151    0.0000 C   0  0  0  0  0  0  0  0  0  0  0  0
    0.6810    6.1786    0.0000 C   0  0  0  0  0  0  0  0  0  0  0  0
   -0.7862    5.8667    0.0000 C   0  0  0  0  0  0  0  0  0  0  0  0
   -0.3227    7.2933    0.0000 C   0  0  0  0  0  0  0  0  0  0  0  0
    0.3943    1.2135    0.0000 C   0  0  0  0  0  0  0  0  0  0  0  0
    1.2760    0.0000    0.0000 C   0  0  0  0  0  0  0  0  0  0  0  0
    0.3943   -1.2135    0.0000 C   0  0  0  0  0  0  0  0  0  0  0  0
   -1.0323   -0.7500    0.0000 C   0  0  0  0  0  0  0  0  0  0  0  0
   -1.0323    0.7500    0.0000 C   0  0  0  0  0  0  0  0  0  0  0  0
  1  2  2  0
  2  3  1  0
  3  4  2  0
  3  5  1  0
  5  6  1  0
  6  7  1  0
  7  8  1  0
  8  9  1  0
  9 10  1  0
 10 11  1  0
  2 12  1  0
 12 13  2  0
 13 14  1  0
 14 15  2  0
 15 16  1  0
  8  5  1  0
 11  9  1  0
 16 12  1  0
M  END
>  <Title>  (210) 
idAAGDgen9

$$$$

     RDKit          2D

 32 34  0  0  0  0  0  0  0  0999 V2000
  -12.5158   -0.9971    0.0000 C   0  0  0  0  0  0  0  0  0  0  0  0
  -11.1063   -1.5101    0.0000 C   0  0  0  0  0  0  0  0  0  0  0  0
   -9.6968   -2.0232    0.0000 C   0  0  0  0  0  0  0  0  0  0  0  0
   -8.2872   -2.5362    0.0000 C   0  0  0  0  0  0  0  0  0  0  0  0
   -6.8777   -3.0492    0.0000 C   0  0  0  0  0  0  0  0  0  0  0  0
   -5.4681   -3.5623    0.0000 C   0  0  0  0  0  0  0  0  0  0  0  0
   -4.0586   -4.0753    0.0000 C   0  0  0  0  0  0  0  0  0  0  0  0
   -4.3191   -5.5525    0.0000 C   0  0  0  0  0  0  0  0  0  0  0  0
   -4.0586   -7.0297    0.0000 C   0  0  0  0  0  0  0  0  0  0  0  0
   -3.3086   -8.3287    0.0000 C   0  0  0  0  0  0  0  0  0  0  0  0
   -2.1595   -9.2929    0.0000 C   0  0  0  0  0  0  0  0  0  0  0  0
   -0.7500   -9.8060    0.0000 C   0  0  0  0  0  0  0  0  0  0  0  0
    0.7500   -9.8060    0.0000 C   0  0  0  0  0  0  0  0  0  0  0  0
    2.1595   -9.2929    0.0000 C   0  0  0  0  0  0  0  0  0  0  0  0
    3.3086   -8.3287    0.0000 C   0  0  0  0  0  0  0  0  0  0  0  0
    4.0586   -7.0297    0.0000 C   0  0  0  0  0  0  0  0  0  0  0  0
    4.3191   -5.5525    0.0000 C   0  0  0  0  0  0  0  0  0  0  0  0
    4.0586   -4.0753    0.0000 C   0  0  0  0  0  0  0  0  0  0  0  0
    3.3086   -2.7762    0.0000 C   0  0  0  0  0  0  0  0  0  0  0  0
    2.1595   -1.8121    0.0000 C   0  0  0  0  0  0  0  0  0  0  0  0
    0.7500   -1.2990    0.0000 C   0  0  0  0  0  0  0  0  0  0  0  0
    1.5000    0.0000    0.0000 C   0  0  0  0  0  0  0  0  0  0  0  0
    0.7500    1.2990    0.0000 C   0  0  0  0  0  0  0  0  0  0  0  0
   -0.7500    1.2990    0.0000 C   0  0  0  0  0  0  0  0  0  0  0  0
   -1.5000    0.0000    0.0000 C   0  0  0  0  0  0  0  0  0  0  0  0
   -0.7500   -1.2990    0.0000 C   0  0  0  0  0  0  0  0  0  0  0  0
   -2.1595   -1.8121    0.0000 C   0  0  0  0  0  0  0  0  0  0  0  0
   -2.4200   -0.3349    0.0000 C   0  0  0  0  0  0  0  0  0  0  0  0
   -3.8296    0.1782    0.0000 C   0  0  0  0  0  0  0  0  0  0  0  0
   -4.9786   -0.7860    0.0000 C   0  0  0  0  0  0  0  0  0  0  0  0
   -4.7181   -2.2632    0.0000 C   0  0  0  0  0  0  0  0  0  0  0  0
   -3.3086   -2.7762    0.0000 C   0  0  0  0  0  0  0  0  0  0  0  0
  1  2  3  0
  2  3  1  0
  3  4  3  0
  4  5  1  0
  5  6  3  0
  6  7  1  0
  7  8  1  0
  8  9  1  0
  9 10  1  0
 10 11  1  0
 11 12  1  0
 12 13  1  0
 13 14  1  0
 14 15  1  0
 15 16  1  0
 16 17  1  0
 17 18  1  0
 18 19  1  0
 19 20  1  0
 20 21  1  0
 21 22  2  0
 22 23  1  0
 23 24  2  0
 24 25  1  0
 25 26  2  0
 26 27  1  0
 27 28  2  0
 28 29  1  0
 29 30  2  0
 30 31  1  0
 31 32  2  0
 32  7  1  0
 26 21  1  0
 32 27  1  0
M  END
>  <Title>  (211) 
idAAGEgen9

$$$$

     RDKit          2D

 62 71  0  0  0  0  0  0  0  0999 V2000
    6.2168   -5.0497    0.0000 C   0  0  0  0  0  0  0  0  0  0  0  0
    4.7353   -5.2844    0.0000 C   0  0  0  0  0  0  0  0  0  0  0  0
    4.2718   -3.8578    0.0000 C   0  0  0  0  0  0  0  0  0  0  0  0
    3.3901   -2.6442    0.0000 C   0  0  0  0  0  0  0  0  0  0  0  0
    2.1766   -1.7626    0.0000 C   0  0  0  0  0  0  0  0  0  0  0  0
    2.8576   -0.4261    0.0000 C   0  0  0  0  0  0  0  0  0  0  0  0
    2.0406    0.8320    0.0000 O   0  0  0  0  0  0  0  0  0  0  0  0
    4.3555   -0.3475    0.0000 O   0  0  0  0  0  0  0  0  0  0  0  0
    5.0365    0.9890    0.0000 C   0  0  0  0  0  0  0  0  0  0  0  0
    6.5344    1.0675    0.0000 N   0  0  0  0  0  0  0  0  0  0  0  0
    7.2154    2.4040    0.0000 N   0  0  0  0  0  0  0  0  0  0  0  0
    6.3985    3.6620    0.0000 N   0  0  0  0  0  0  0  0  0  0  0  0
    4.9005    3.5835    0.0000 N   0  0  0  0  0  0  0  0  0  0  0  0
    4.2195    2.2470    0.0000 N   0  0  0  0  0  0  0  0  0  0  0  0
    0.7500   -1.2990    0.0000 C   0  0  0  0  0  0  0  0  0  0  0  0
    1.5000    0.0000    0.0000 C   0  0  0  0  0  0  0  0  0  0  0  0
    0.7500    1.2990    0.0000 C   0  0  0  0  0  0  0  0  0  0  0  0
   -0.7500    1.2990    0.0000 C   0  0  0  0  0  0  0  0  0  0  0  0
   -1.5000    0.0000    0.0000 C   0  0  0  0  0  0  0  0  0  0  0  0
   -0.7500   -1.2990    0.0000 C   0  0  0  0  0  0  0  0  0  0  0  0
   -2.1766   -1.7626    0.0000 C   0  0  0  0  0  0  0  0  0  0  0  0
   -2.3334   -0.2708    0.0000 C   0  0  0  0  0  0  0  0  0  0  0  0
   -3.7037    0.3393    0.0000 C   0  0  0  0  0  0  0  0  0  0  0  0
   -4.9172   -0.5424    0.0000 C   0  0  0  0  0  0  0  0  0  0  0  0
   -4.7604   -2.0341    0.0000 C   0  0  0  0  0  0  0  0  0  0  0  0
   -3.3901   -2.6442    0.0000 C   0  0  0  0  0  0  0  0  0  0  0  0
   -4.2718   -3.8578    0.0000 C   0  0  0  0  0  0  0  0  0  0  0  0
   -5.2755   -2.7430    0.0000 C   0  0  0  0  0  0  0  0  0  0  0  0
   -6.7427   -3.0549    0.0000 C   0  0  0  0  0  0  0  0  0  0  0  0
   -7.2062   -4.4815    0.0000 C   0  0  0  0  0  0  0  0  0  0  0  0
   -6.2025   -5.5962    0.0000 C   0  0  0  0  0  0  0  0  0  0  0  0
   -4.7353   -5.2844    0.0000 C   0  0  0  0  0  0  0  0  0  0  0  0
   -4.7353   -6.7844    0.0000 C   0  0  0  0  0  0  0  0  0  0  0  0
   -6.2025   -6.4725    0.0000 C   0  0  0  0  0  0  0  0  0  0  0  0
   -7.2062   -7.5872    0.0000 C   0  0  0  0  0  0  0  0  0  0  0  0
   -6.7427   -9.0138    0.0000 C   0  0  0  0  0  0  0  0  0  0  0  0
   -5.2755   -9.3257    0.0000 C   0  0  0  0  0  0  0  0  0  0  0  0
   -4.2718   -8.2109    0.0000 C   0  0  0  0  0  0  0  0  0  0  0  0
   -3.3901   -9.4245    0.0000 C   0  0  0  0  0  0  0  0  0  0  0  0
   -4.7604  -10.0346    0.0000 C   0  0  0  0  0  0  0  0  0  0  0  0
   -4.9172  -11.5263    0.0000 C   0  0  0  0  0  0  0  0  0  0  0  0
   -3.7037  -12.4080    0.0000 C   0  0  0  0  0  0  0  0  0  0  0  0
   -2.3334  -11.7979    0.0000 C   0  0  0  0  0  0  0  0  0  0  0  0
   -2.1766  -10.3061    0.0000 C   0  0  0  0  0  0  0  0  0  0  0  0
   -0.7500  -10.7697    0.0000 C   0  0  0  0  0  0  0  0  0  0  0  0
   -1.5000  -12.0687    0.0000 C   0  0  0  0  0  0  0  0  0  0  0  0
   -0.7500  -13.3677    0.0000 C   0  0  0  0  0  0  0  0  0  0  0  0
    0.7500  -13.3677    0.0000 C   0  0  0  0  0  0  0  0  0  0  0  0
    1.5000  -12.0687    0.0000 C   0  0  0  0  0  0  0  0  0  0  0  0
    0.7500  -10.7697    0.0000 C   0  0  0  0  0  0  0  0  0  0  0  0
    2.1766  -10.3061    0.0000 C   0  0  0  0  0  0  0  0  0  0  0  0
    2.3334  -11.7979    0.0000 C   0  0  0  0  0  0  0  0  0  0  0  0
    3.7037  -12.4080    0.0000 C   0  0  0  0  0  0  0  0  0  0  0  0
    4.9172  -11.5263    0.0000 C   0  0  0  0  0  0  0  0  0  0  0  0
    4.7604  -10.0346    0.0000 C   0  0  0  0  0  0  0  0  0  0  0  0
    3.3901   -9.4245    0.0000 C   0  0  0  0  0  0  0  0  0  0  0  0
    4.2718   -8.2109    0.0000 C   0  0  0  0  0  0  0  0  0  0  0  0
    5.2755   -9.3257    0.0000 C   0  0  0  0  0  0  0  0  0  0  0  0
    6.7427   -9.0138    0.0000 C   0  0  0  0  0  0  0  0  0  0  0  0
    7.2062   -7.5872    0.0000 C   0  0  0  0  0  0  0  0  0  0  0  0
    6.2025   -6.4725    0.0000 C   0  0  0  0  0  0  0  0  0  0  0  0
    4.7353   -6.7844    0.0000 C   0  0  0  0  0  0  0  0  0  0  0  0
  1  2  1  0
  2  3  2  0
  3  4  1  0
  4  5  2  0
  5  6  1  0
  6  7  2  0
  6  8  1  0
  8  9  1  0
  9 10  2  0
 10 11  1  0
 11 12  2  0
 12 13  1  0
 13 14  2  0
  5 15  1  0
 15 16  2  0
 16 17  1  0
 17 18  2  0
 18 19  1  0
 19 20  2  0
 20 21  1  0
 21 22  2  0
 22 23  1  0
 23 24  2  0
 24 25  1  0
 25 26  2  0
 26 27  1  0
 27 28  2  0
 28 29  1  0
 29 30  2  0
 30 31  1  0
 31 32  2  0
 32 33  1  0
 33 34  2  0
 34 35  1  0
 35 36  2  0
 36 37  1  0
 37 38  2  0
 38 39  1  0
 39 40  2  0
 40 41  1  0
 41 42  2  0
 42 43  1  0
 43 44  2  0
 44 45  1  0
 45 46  2  0
 46 47  1  0
 47 48  2  0
 48 49  1  0
 49 50  2  0
 50 51  1  0
 51 52  2  0
 52 53  1  0
 53 54  2  0
 54 55  1  0
 55 56  2  0
 56 57  1  0
 57 58  2  0
 58 59  1  0
 59 60  2  0
 60 61  1  0
 61 62  2  0
 62  2  1  0
 14  9  1  0
 20 15  1  0
 26 21  1  0
 32 27  1  0
 38 33  1  0
 44 39  1  0
 50 45  1  0
 56 51  1  0
 62 57  1  0
M  END
>  <Title>  (212) 
idAAGFgen9

$$$$

     RDKit          2D

  7  7  0  0  0  0  0  0  0  0999 V2000
    4.2760   -0.0000    0.0000 N   0  0  0  0  0  0  0  0  0  0  0  0
    2.7760    0.0000    0.0000 C   0  0  0  0  0  0  0  0  0  0  0  0
    1.2760    0.0000    0.0000 C   0  0  0  0  0  0  0  0  0  0  0  0
    0.3943    1.2135    0.0000 C   0  0  0  0  0  0  0  0  0  0  0  0
   -1.0323    0.7500    0.0000 C   0  0  0  0  0  0  0  0  0  0  0  0
   -1.0323   -0.7500    0.0000 C   0  0  0  0  0  0  0  0  0  0  0  0
    0.3943   -1.2135    0.0000 C   0  0  0  0  0  0  0  0  0  0  0  0
  1  2  3  0
  2  3  1  0
  3  4  2  0
  4  5  1  0
  5  6  2  0
  6  7  1  0
  7  3  1  0
M  END
>  <Title>  (213) 
idAAGGgen9

$$$$

     RDKit          2D

121121  0  0  0  0  0  0  0  0999 V2000
   29.9125    0.0000    0.0000 C   0  0  0  0  0  0  0  0  0  0  0  0
   28.4125    0.0000    0.0000 C   0  0  0  0  0  0  0  0  0  0  0  0
   28.3729    1.4995    0.0000 C   0  0  0  0  0  0  0  0  0  0  0  0
   28.2542    2.9948    0.0000 C   0  0  0  0  0  0  0  0  0  0  0  0
   28.0568    4.4817    0.0000 C   0  0  0  0  0  0  0  0  0  0  0  0
   27.7811    5.9562    0.0000 C   0  0  0  0  0  0  0  0  0  0  0  0
   27.4281    7.4140    0.0000 C   0  0  0  0  0  0  0  0  0  0  0  0
   26.9986    8.8512    0.0000 C   0  0  0  0  0  0  0  0  0  0  0  0
   26.4938   10.2638    0.0000 C   0  0  0  0  0  0  0  0  0  0  0  0
   25.9152   11.6477    0.0000 C   0  0  0  0  0  0  0  0  0  0  0  0
   25.2644   12.9991    0.0000 C   0  0  0  0  0  0  0  0  0  0  0  0
   24.5432   14.3144    0.0000 C   0  0  0  0  0  0  0  0  0  0  0  0
   23.7535   15.5897    0.0000 C   0  0  0  0  0  0  0  0  0  0  0  0
   22.8977   16.8216    0.0000 C   0  0  0  0  0  0  0  0  0  0  0  0
   21.9780   18.0065    0.0000 C   0  0  0  0  0  0  0  0  0  0  0  0
   20.9971   19.1413    0.0000 C   0  0  0  0  0  0  0  0  0  0  0  0
   19.9576   20.2228    0.0000 C   0  0  0  0  0  0  0  0  0  0  0  0
   18.8625   21.2479    0.0000 C   0  0  0  0  0  0  0  0  0  0  0  0
   17.7149   22.2138    0.0000 C   0  0  0  0  0  0  0  0  0  0  0  0
   16.5179   23.1177    0.0000 C   0  0  0  0  0  0  0  0  0  0  0  0
   15.2748   23.9572    0.0000 C   0  0  0  0  0  0  0  0  0  0  0  0
   13.9892   24.7300    0.0000 C   0  0  0  0  0  0  0  0  0  0  0  0
   12.6645   25.4338    0.0000 C   0  0  0  0  0  0  0  0  0  0  0  0
   11.3046   26.0667    0.0000 C   0  0  0  0  0  0  0  0  0  0  0  0
    9.9132   26.6270    0.0000 C   0  0  0  0  0  0  0  0  0  0  0  0
    8.4941   27.1131    0.0000 C   0  0  0  0  0  0  0  0  0  0  0  0
    7.0514   27.5236    0.0000 C   0  0  0  0  0  0  0  0  0  0  0  0
    5.5890   27.8573    0.0000 C   0  0  0  0  0  0  0  0  0  0  0  0
    4.1110   28.1135    0.0000 C   0  0  0  0  0  0  0  0  0  0  0  0
    2.6216   28.2913    0.0000 C   0  0  0  0  0  0  0  0  0  0  0  0
    1.1248   28.3902    0.0000 C   0  0  0  0  0  0  0  0  0  0  0  0
   -0.3750   28.4100    0.0000 C   0  0  0  0  0  0  0  0  0  0  0  0
   -1.8739   28.3506    0.0000 C   0  0  0  0  0  0  0  0  0  0  0  0
   -3.3675   28.2122    0.0000 C   0  0  0  0  0  0  0  0  0  0  0  0
   -4.8517   27.9952    0.0000 C   0  0  0  0  0  0  0  0  0  0  0  0
   -6.3224   27.7001    0.0000 C   0  0  0  0  0  0  0  0  0  0  0  0
   -7.7754   27.3278    0.0000 C   0  0  0  0  0  0  0  0  0  0  0  0
   -9.2068   26.8794    0.0000 C   0  0  0  0  0  0  0  0  0  0  0  0
  -10.6126   26.3560    0.0000 C   0  0  0  0  0  0  0  0  0  0  0  0
  -11.9887   25.7592    0.0000 C   0  0  0  0  0  0  0  0  0  0  0  0
  -13.3315   25.0906    0.0000 C   0  0  0  0  0  0  0  0  0  0  0  0
  -14.6371   24.3521    0.0000 C   0  0  0  0  0  0  0  0  0  0  0  0
  -15.9019   23.5457    0.0000 C   0  0  0  0  0  0  0  0  0  0  0  0
  -17.1223   22.6736    0.0000 C   0  0  0  0  0  0  0  0  0  0  0  0
  -18.2951   21.7384    0.0000 C   0  0  0  0  0  0  0  0  0  0  0  0
  -19.4168   20.7426    0.0000 C   0  0  0  0  0  0  0  0  0  0  0  0
  -20.4845   19.6889    0.0000 C   0  0  0  0  0  0  0  0  0  0  0  0
  -21.4950   18.5804    0.0000 C   0  0  0  0  0  0  0  0  0  0  0  0
  -22.4456   17.4201    0.0000 C   0  0  0  0  0  0  0  0  0  0  0  0
  -23.3337   16.2113    0.0000 C   0  0  0  0  0  0  0  0  0  0  0  0
  -24.1568   14.9572    0.0000 C   0  0  0  0  0  0  0  0  0  0  0  0
  -24.9125   13.6615    0.0000 C   0  0  0  0  0  0  0  0  0  0  0  0
  -25.5987   12.3277    0.0000 C   0  0  0  0  0  0  0  0  0  0  0  0
  -26.2137   10.9595    0.0000 C   0  0  0  0  0  0  0  0  0  0  0  0
  -26.7555    9.5608    0.0000 C   0  0  0  0  0  0  0  0  0  0  0  0
  -27.2228    8.1355    0.0000 C   0  0  0  0  0  0  0  0  0  0  0  0
  -27.6142    6.6874    0.0000 C   0  0  0  0  0  0  0  0  0  0  0  0
  -27.9287    5.2208    0.0000 C   0  0  0  0  0  0  0  0  0  0  0  0
  -28.1653    3.7396    0.0000 C   0  0  0  0  0  0  0  0  0  0  0  0
  -28.3234    2.2479    0.0000 C   0  0  0  0  0  0  0  0  0  0  0  0
  -28.4026    0.7500    0.0000 C   0  0  0  0  0  0  0  0  0  0  0  0
  -28.4026   -0.7500    0.0000 C   0  0  0  0  0  0  0  0  0  0  0  0
  -28.3234   -2.2479    0.0000 C   0  0  0  0  0  0  0  0  0  0  0  0
  -28.1653   -3.7396    0.0000 C   0  0  0  0  0  0  0  0  0  0  0  0
  -27.9287   -5.2208    0.0000 C   0  0  0  0  0  0  0  0  0  0  0  0
  -27.6142   -6.6874    0.0000 C   0  0  0  0  0  0  0  0  0  0  0  0
  -27.2228   -8.1355    0.0000 C   0  0  0  0  0  0  0  0  0  0  0  0
  -26.7555   -9.5608    0.0000 C   0  0  0  0  0  0  0  0  0  0  0  0
  -26.2137  -10.9595    0.0000 C   0  0  0  0  0  0  0  0  0  0  0  0
  -25.5987  -12.3277    0.0000 C   0  0  0  0  0  0  0  0  0  0  0  0
  -24.9125  -13.6615    0.0000 C   0  0  0  0  0  0  0  0  0  0  0  0
  -24.1568  -14.9572    0.0000 C   0  0  0  0  0  0  0  0  0  0  0  0
  -23.3337  -16.2113    0.0000 C   0  0  0  0  0  0  0  0  0  0  0  0
  -22.4456  -17.4201    0.0000 C   0  0  0  0  0  0  0  0  0  0  0  0
  -21.4950  -18.5804    0.0000 C   0  0  0  0  0  0  0  0  0  0  0  0
  -20.4845  -19.6889    0.0000 C   0  0  0  0  0  0  0  0  0  0  0  0
  -19.4168  -20.7426    0.0000 C   0  0  0  0  0  0  0  0  0  0  0  0
  -18.2951  -21.7384    0.0000 C   0  0  0  0  0  0  0  0  0  0  0  0
  -17.1223  -22.6736    0.0000 C   0  0  0  0  0  0  0  0  0  0  0  0
  -15.9019  -23.5457    0.0000 C   0  0  0  0  0  0  0  0  0  0  0  0
  -14.6371  -24.3521    0.0000 C   0  0  0  0  0  0  0  0  0  0  0  0
  -13.3315  -25.0906    0.0000 C   0  0  0  0  0  0  0  0  0  0  0  0
  -11.9887  -25.7592    0.0000 C   0  0  0  0  0  0  0  0  0  0  0  0
  -10.6126  -26.3560    0.0000 C   0  0  0  0  0  0  0  0  0  0  0  0
   -9.2068  -26.8794    0.0000 C   0  0  0  0  0  0  0  0  0  0  0  0
   -7.7754  -27.3278    0.0000 C   0  0  0  0  0  0  0  0  0  0  0  0
   -6.3224  -27.7001    0.0000 C   0  0  0  0  0  0  0  0  0  0  0  0
   -4.8517  -27.9952    0.0000 C   0  0  0  0  0  0  0  0  0  0  0  0
   -3.3675  -28.2122    0.0000 C   0  0  0  0  0  0  0  0  0  0  0  0
   -1.8739  -28.3506    0.0000 C   0  0  0  0  0  0  0  0  0  0  0  0
   -0.3750  -28.4100    0.0000 C   0  0  0  0  0  0  0  0  0  0  0  0
    1.1248  -28.3902    0.0000 C   0  0  0  0  0  0  0  0  0  0  0  0
    2.6216  -28.2913    0.0000 C   0  0  0  0  0  0  0  0  0  0  0  0
    4.1110  -28.1135    0.0000 C   0  0  0  0  0  0  0  0  0  0  0  0
    5.5890  -27.8573    0.0000 C   0  0  0  0  0  0  0  0  0  0  0  0
    7.0514  -27.5236    0.0000 C   0  0  0  0  0  0  0  0  0  0  0  0
    8.4941  -27.1131    0.0000 C   0  0  0  0  0  0  0  0  0  0  0  0
    9.9132  -26.6270    0.0000 C   0  0  0  0  0  0  0  0  0  0  0  0
   11.3046  -26.0667    0.0000 C   0  0  0  0  0  0  0  0  0  0  0  0
   12.6645  -25.4338    0.0000 C   0  0  0  0  0  0  0  0  0  0  0  0
   13.9892  -24.7300    0.0000 C   0  0  0  0  0  0  0  0  0  0  0  0
   15.2748  -23.9572    0.0000 C   0  0  0  0  0  0  0  0  0  0  0  0
   16.5179  -23.1177    0.0000 C   0  0  0  0  0  0  0  0  0  0  0  0
   17.7149  -22.2138    0.0000 C   0  0  0  0  0  0  0  0  0  0  0  0
   18.8625  -21.2479    0.0000 C   0  0  0  0  0  0  0  0  0  0  0  0
   19.9576  -20.2228    0.0000 C   0  0  0  0  0  0  0  0  0  0  0  0
   20.9971  -19.1413    0.0000 C   0  0  0  0  0  0  0  0  0  0  0  0
   21.9780  -18.0065    0.0000 C   0  0  0  0  0  0  0  0  0  0  0  0
   22.8977  -16.8216    0.0000 C   0  0  0  0  0  0  0  0  0  0  0  0
   23.7535  -15.5897    0.0000 C   0  0  0  0  0  0  0  0  0  0  0  0
   24.5432  -14.3144    0.0000 C   0  0  0  0  0  0  0  0  0  0  0  0
   25.2644  -12.9991    0.0000 C   0  0  0  0  0  0  0  0  0  0  0  0
   25.9152  -11.6477    0.0000 C   0  0  0  0  0  0  0  0  0  0  0  0
   26.4938  -10.2638    0.0000 C   0  0  0  0  0  0  0  0  0  0  0  0
   26.9986   -8.8512    0.0000 C   0  0  0  0  0  0  0  0  0  0  0  0
   27.4281   -7.4140    0.0000 C   0  0  0  0  0  0  0  0  0  0  0  0
   27.7811   -5.9562    0.0000 C   0  0  0  0  0  0  0  0  0  0  0  0
   28.0568   -4.4817    0.0000 C   0  0  0  0  0  0  0  0  0  0  0  0
   28.2542   -2.9948    0.0000 C   0  0  0  0  0  0  0  0  0  0  0  0
   29.7458   -3.1529    0.0000 C   0  0  0  0  0  0  0  0  0  0  0  0
   28.3729   -1.4995    0.0000 C   0  0  0  0  0  0  0  0  0  0  0  0
  1  2  1  0
  2  3  1  0
  3  4  1  0
  4  5  1  0
  5  6  1  0
  6  7  1  0
  7  8  1  0
  8  9  1  0
  9 10  1  0
 10 11  1  0
 11 12  1  0
 12 13  1  0
 13 14  1  0
 14 15  1  0
 15 16  1  0
 16 17  1  0
 17 18  1  0
 18 19  1  0
 19 20  1  0
 20 21  1  0
 21 22  1  0
 22 23  1  0
 23 24  1  0
 24 25  1  0
 25 26  1  0
 26 27  1  0
 27 28  1  0
 28 29  1  0
 29 30  1  0
 30 31  1  0
 31 32  1  0
 32 33  1  0
 33 34  1  0
 34 35  1  0
 35 36  1  0
 36 37  1  0
 37 38  1  0
 38 39  1  0
 39 40  1  0
 40 41  1  0
 41 42  1  0
 42 43  1  0
 43 44  1  0
 44 45  1  0
 45 46  1  0
 46 47  1  0
 47 48  1  0
 48 49  1  0
 49 50  1  0
 50 51  1  0
 51 52  1  0
 52 53  1  0
 53 54  1  0
 54 55  1  0
 55 56  1  0
 56 57  1  0
 57 58  1  0
 58 59  1  0
 59 60  1  0
 60 61  1  0
 61 62  1  0
 62 63  1  0
 63 64  1  0
 64 65  1  0
 65 66  1  0
 66 67  1  0
 67 68  1  0
 68 69  1  0
 69 70  1  0
 70 71  1  0
 71 72  1  0
 72 73  1  0
 73 74  1  0
 74 75  1  0
 75 76  1  0
 76 77  1  0
 77 78  1  0
 78 79  1  0
 79 80  1  0
 80 81  1  0
 81 82  1  0
 82 83  1  0
 83 84  1  0
 84 85  1  0
 85 86  1  0
 86 87  1  0
 87 88  1  0
 88 89  1  0
 89 90  1  0
 90 91  1  0
 91 92  1  0
 92 93  1  0
 93 94  1  0
 94 95  1  0
 95 96  1  0
 96 97  1  0
 97 98  1  0
 98 99  1  0
 99100  1  0
100101  1  0
101102  1  0
102103  1  0
103104  1  0
104105  1  0
105106  1  0
106107  1  0
107108  1  0
108109  1  0
109110  1  0
110111  1  0
111112  1  0
112113  1  0
113114  1  0
114115  1  0
115116  1  0
116117  1  0
117118  1  0
118119  1  0
119120  1  0
119121  1  0
121  2  1  0
M  END
>  <Title>  (214) 
idAAGHgen9

$$$$

     RDKit          2D

 61 70  0  0  0  0  0  0  0  0999 V2000
    5.8191   -5.5525    0.0000 C   0  0  0  0  0  0  0  0  0  0  0  0
    4.3191   -5.5525    0.0000 C   0  0  0  0  0  0  0  0  0  0  0  0
    4.0586   -4.0753    0.0000 C   0  0  0  0  0  0  0  0  0  0  0  0
    3.3086   -2.7762    0.0000 C   0  0  0  0  0  0  0  0  0  0  0  0
    2.1595   -1.8121    0.0000 C   0  0  0  0  0  0  0  0  0  0  0  0
    2.9095   -0.5130    0.0000 C   0  0  0  0  0  0  0  0  0  0  0  0
    2.1595    0.7860    0.0000 O   0  0  0  0  0  0  0  0  0  0  0  0
    4.4095   -0.5130    0.0000 N   0  0  0  0  0  0  0  0  0  0  0  0
    5.1595    0.7860    0.0000 C   0  0  0  0  0  0  0  0  0  0  0  0
    4.5494    2.1563    0.0000 N   0  0  0  0  0  0  0  0  0  0  0  0
    5.6642    3.1600    0.0000 N   0  0  0  0  0  0  0  0  0  0  0  0
    6.9632    2.4100    0.0000 N   0  0  0  0  0  0  0  0  0  0  0  0
    6.6513    0.9428    0.0000 N   0  0  0  0  0  0  0  0  0  0  0  0
    7.6550   -0.1719    0.0000 C   0  0  0  0  0  0  0  0  0  0  0  0
    7.1915   -1.5985    0.0000 C   0  0  0  0  0  0  0  0  0  0  0  0
    8.1952   -2.7132    0.0000 C   0  0  0  0  0  0  0  0  0  0  0  0
    9.6624   -2.4014    0.0000 C   0  0  0  0  0  0  0  0  0  0  0  0
   10.1259   -0.9748    0.0000 C   0  0  0  0  0  0  0  0  0  0  0  0
    9.1222    0.1400    0.0000 C   0  0  0  0  0  0  0  0  0  0  0  0
    0.7500   -1.2990    0.0000 C   0  0  0  0  0  0  0  0  0  0  0  0
    1.5000    0.0000    0.0000 C   0  0  0  0  0  0  0  0  0  0  0  0
    0.7500    1.2990    0.0000 C   0  0  0  0  0  0  0  0  0  0  0  0
   -0.7500    1.2990    0.0000 C   0  0  0  0  0  0  0  0  0  0  0  0
   -1.5000    0.0000    0.0000 C   0  0  0  0  0  0  0  0  0  0  0  0
   -0.7500   -1.2990    0.0000 C   0  0  0  0  0  0  0  0  0  0  0  0
   -2.1595   -1.8121    0.0000 C   0  0  0  0  0  0  0  0  0  0  0  0
   -2.4200   -0.3349    0.0000 C   0  0  0  0  0  0  0  0  0  0  0  0
   -3.8296    0.1782    0.0000 C   0  0  0  0  0  0  0  0  0  0  0  0
   -4.9786   -0.7860    0.0000 C   0  0  0  0  0  0  0  0  0  0  0  0
   -4.7181   -2.2632    0.0000 C   0  0  0  0  0  0  0  0  0  0  0  0
   -3.3086   -2.7762    0.0000 C   0  0  0  0  0  0  0  0  0  0  0  0
   -4.0586   -4.0753    0.0000 C   0  0  0  0  0  0  0  0  0  0  0  0
   -5.2077   -3.1111    0.0000 C   0  0  0  0  0  0  0  0  0  0  0  0
   -6.6172   -3.6241    0.0000 C   0  0  0  0  0  0  0  0  0  0  0  0
   -6.8777   -5.1013    0.0000 C   0  0  0  0  0  0  0  0  0  0  0  0
   -5.7286   -6.0655    0.0000 C   0  0  0  0  0  0  0  0  0  0  0  0
   -4.3191   -5.5525    0.0000 C   0  0  0  0  0  0  0  0  0  0  0  0
   -4.0586   -7.0297    0.0000 C   0  0  0  0  0  0  0  0  0  0  0  0
   -5.5586   -7.0297    0.0000 C   0  0  0  0  0  0  0  0  0  0  0  0
   -6.3086   -8.3287    0.0000 C   0  0  0  0  0  0  0  0  0  0  0  0
   -5.5586   -9.6278    0.0000 C   0  0  0  0  0  0  0  0  0  0  0  0
   -4.0586   -9.6278    0.0000 C   0  0  0  0  0  0  0  0  0  0  0  0
   -3.3086   -8.3287    0.0000 C   0  0  0  0  0  0  0  0  0  0  0  0
   -2.1595   -9.2929    0.0000 C   0  0  0  0  0  0  0  0  0  0  0  0
   -3.3086  -10.2571    0.0000 C   0  0  0  0  0  0  0  0  0  0  0  0
   -3.0481  -11.7343    0.0000 C   0  0  0  0  0  0  0  0  0  0  0  0
   -1.6386  -12.2474    0.0000 C   0  0  0  0  0  0  0  0  0  0  0  0
   -0.4895  -11.2832    0.0000 C   0  0  0  0  0  0  0  0  0  0  0  0
   -0.7500   -9.8060    0.0000 C   0  0  0  0  0  0  0  0  0  0  0  0
    0.7500   -9.8060    0.0000 C   0  0  0  0  0  0  0  0  0  0  0  0
    0.4895  -11.2832    0.0000 C   0  0  0  0  0  0  0  0  0  0  0  0
    1.6386  -12.2474    0.0000 C   0  0  0  0  0  0  0  0  0  0  0  0
    3.0481  -11.7343    0.0000 C   0  0  0  0  0  0  0  0  0  0  0  0
    3.3086  -10.2571    0.0000 C   0  0  0  0  0  0  0  0  0  0  0  0
    2.1595   -9.2929    0.0000 C   0  0  0  0  0  0  0  0  0  0  0  0
    3.3086   -8.3287    0.0000 C   0  0  0  0  0  0  0  0  0  0  0  0
    4.0586   -9.6278    0.0000 C   0  0  0  0  0  0  0  0  0  0  0  0
    5.5586   -9.6278    0.0000 C   0  0  0  0  0  0  0  0  0  0  0  0
    6.3086   -8.3287    0.0000 C   0  0  0  0  0  0  0  0  0  0  0  0
    5.5586   -7.0297    0.0000 C   0  0  0  0  0  0  0  0  0  0  0  0
    4.0586   -7.0297    0.0000 C   0  0  0  0  0  0  0  0  0  0  0  0
  1  2  1  0
  2  3  2  0
  3  4  1  0
  4  5  1  0
  5  6  1  0
  6  7  2  0
  6  8  1  0
  8  9  1  0
  9 10  2  0
 10 11  1  0
 11 12  2  0
 12 13  1  0
 13 14  1  0
 14 15  2  0
 15 16  1  0
 16 17  2  0
 17 18  1  0
 18 19  2  0
  5 20  1  0
 20 21  2  0
 21 22  1  0
 22 23  2  0
 23 24  1  0
 24 25  2  0
 25 26  1  0
 26 27  2  0
 27 28  1  0
 28 29  2  0
 29 30  1  0
 30 31  2  0
 31 32  1  0
 32 33  2  0
 33 34  1  0
 34 35  2  0
 35 36  1  0
 36 37  2  0
 37 38  1  0
 38 39  2  0
 39 40  1  0
 40 41  2  0
 41 42  1  0
 42 43  2  0
 43 44  1  0
 44 45  2  0
 45 46  1  0
 46 47  2  0
 47 48  1  0
 48 49  2  0
 49 50  1  0
 50 51  2  0
 51 52  1  0
 52 53  2  0
 53 54  1  0
 54 55  2  0
 55 56  1  0
 56 57  2  0
 57 58  1  0
 58 59  2  0
 59 60  1  0
 60 61  2  0
 61  2  1  0
 13  9  1  0
 19 14  1  0
 25 20  1  0
 31 26  1  0
 37 32  1  0
 43 38  1  0
 49 44  1  0
 55 50  1  0
 61 56  1  0
M  END
>  <Title>  (215) 
idAAGIgen9

$$$$

     RDKit          2D

 15 15  0  0  0  0  0  0  0  0999 V2000
   10.5000    0.0000    0.0000 C   0  0  0  0  0  0  0  0  0  0  0  0
    9.0000    0.0000    0.0000 C   0  0  0  0  0  0  0  0  0  0  0  0
    7.5000    0.0000    0.0000 C   0  0  0  0  0  0  0  0  0  0  0  0
    6.0000    0.0000    0.0000 C   0  0  0  0  0  0  0  0  0  0  0  0
    4.5000    0.0000    0.0000 C   0  0  0  0  0  0  0  0  0  0  0  0
    3.0000    0.0000    0.0000 C   0  0  0  0  0  0  0  0  0  0  0  0
    1.5000    0.0000    0.0000 C   0  0  0  0  0  0  0  0  0  0  0  0
    0.7500   -1.2990    0.0000 C   0  0  0  0  0  0  0  0  0  0  0  0
   -0.7500   -1.2990    0.0000 C   0  0  0  0  0  0  0  0  0  0  0  0
   -1.5000    0.0000    0.0000 C   0  0  0  0  0  0  0  0  0  0  0  0
   -3.0000    0.0000    0.0000 C   0  0  0  0  0  0  0  0  0  0  0  0
   -3.7500   -1.2990    0.0000 O   0  0  0  0  0  0  0  0  0  0  0  0
   -3.7500    1.2990    0.0000 O   0  0  0  0  0  0  0  0  0  0  0  0
   -0.7500    1.2990    0.0000 C   0  0  0  0  0  0  0  0  0  0  0  0
    0.7500    1.2990    0.0000 C   0  0  0  0  0  0  0  0  0  0  0  0
  1  2  3  0
  2  3  1  0
  3  4  3  0
  4  5  1  0
  5  6  3  0
  6  7  1  0
  7  8  2  0
  8  9  1  0
  9 10  2  0
 10 11  1  0
 11 12  2  0
 11 13  1  0
 10 14  1  0
 14 15  1  0
 15  7  1  0
M  END
>  <Title>  (216) 
idAAGJgen9

$$$$

     RDKit          2D

  9  9  0  0  0  0  0  0  0  0999 V2000
    3.0000    0.0000    0.0000 C   0  0  0  0  0  0  0  0  0  0  0  0
    1.5000    0.0000    0.0000 C   0  0  0  0  0  0  0  0  0  0  0  0
    0.7500   -1.2990    0.0000 C   0  0  0  0  0  0  0  0  0  0  0  0
   -0.7500   -1.2990    0.0000 C   0  0  0  0  0  0  0  0  0  0  0  0
   -1.5000   -2.5981    0.0000 O   0  0  0  0  0  0  0  0  0  0  0  0
   -1.5000    0.0000    0.0000 C   0  0  0  0  0  0  0  0  0  0  0  0
   -3.0000    0.0000    0.0000 O   0  0  0  0  0  0  0  0  0  0  0  0
   -0.7500    1.2990    0.0000 C   0  0  0  0  0  0  0  0  0  0  0  0
    0.7500    1.2990    0.0000 C   0  0  0  0  0  0  0  0  0  0  0  0
  1  2  1  0
  2  3  2  0
  3  4  1  0
  4  5  1  0
  4  6  1  0
  6  7  1  0
  6  8  1  0
  8  9  2  0
  9  2  1  0
M  END
>  <Title>  (217) 
idAAGKgen9

$$$$

     RDKit          2D

 18 18  0  0  0  0  0  0  0  0999 V2000
    7.2760  -12.9904    0.0000 C   0  0  0  0  0  0  0  0  0  0  0  0
    6.5260  -11.6913    0.0000 C   0  0  0  0  0  0  0  0  0  0  0  0
    5.7760  -10.3923    0.0000 C   0  0  0  0  0  0  0  0  0  0  0  0
    5.0260   -9.0933    0.0000 C   0  0  0  0  0  0  0  0  0  0  0  0
    4.2760   -7.7942    0.0000 C   0  0  0  0  0  0  0  0  0  0  0  0
    3.5260   -6.4952    0.0000 C   0  0  0  0  0  0  0  0  0  0  0  0
    2.7760   -5.1962    0.0000 C   0  0  0  0  0  0  0  0  0  0  0  0
    3.5260   -3.8971    0.0000 C   0  0  0  0  0  0  0  0  0  0  0  0
    2.7760   -2.5981    0.0000 C   0  0  0  0  0  0  0  0  0  0  0  0
    3.5260   -1.2990    0.0000 C   0  0  0  0  0  0  0  0  0  0  0  0
    5.0260   -1.2990    0.0000 C   0  0  0  0  0  0  0  0  0  0  0  0
    2.7760    0.0000    0.0000 C   0  0  0  0  0  0  0  0  0  0  0  0
    3.5260    1.2990    0.0000 O   0  0  0  0  0  0  0  0  0  0  0  0
    1.2760    0.0000    0.0000 C   0  0  0  0  0  0  0  0  0  0  0  0
    0.3943    1.2135    0.0000 C   0  0  0  0  0  0  0  0  0  0  0  0
   -1.0323    0.7500    0.0000 C   0  0  0  0  0  0  0  0  0  0  0  0
   -1.0323   -0.7500    0.0000 C   0  0  0  0  0  0  0  0  0  0  0  0
    0.3943   -1.2135    0.0000 C   0  0  0  0  0  0  0  0  0  0  0  0
  1  2  3  0
  2  3  1  0
  3  4  3  0
  4  5  1  0
  5  6  3  0
  6  7  1  0
  7  8  1  0
  8  9  1  0
  9 10  1  0
 10 11  1  0
 10 12  1  0
 12 13  2  0
 12 14  1  0
 14 15  2  0
 15 16  1  0
 16 17  2  0
 17 18  1  0
 18 14  1  0
M  END
>  <Title>  (218) 
idAAGLgen9

$$$$

     RDKit          2D

 82 83  0  0  0  0  0  0  0  0999 V2000
   -2.4282    0.0675    0.0000 C   0  0  0  0  0  0  0  0  0  0  0  0
   -2.2450   -1.4213    0.0000 C   0  0  0  0  0  0  0  0  0  0  0  0
   -3.7251   -1.6650    0.0000 C   0  0  0  0  0  0  0  0  0  0  0  0
   -5.1804   -2.0286    0.0000 C   0  0  0  0  0  0  0  0  0  0  0  0
   -6.6012   -2.5095    0.0000 C   0  0  0  0  0  0  0  0  0  0  0  0
   -7.9780   -3.1047    0.0000 C   0  0  0  0  0  0  0  0  0  0  0  0
   -9.3018   -3.8101    0.0000 C   0  0  0  0  0  0  0  0  0  0  0  0
  -10.5637   -4.6210    0.0000 C   0  0  0  0  0  0  0  0  0  0  0  0
  -11.7553   -5.5322    0.0000 C   0  0  0  0  0  0  0  0  0  0  0  0
  -12.8686   -6.5374    0.0000 C   0  0  0  0  0  0  0  0  0  0  0  0
  -13.8963   -7.6300    0.0000 C   0  0  0  0  0  0  0  0  0  0  0  0
  -14.8316   -8.8027    0.0000 C   0  0  0  0  0  0  0  0  0  0  0  0
  -15.6681  -10.0478    0.0000 C   0  0  0  0  0  0  0  0  0  0  0  0
  -16.4004  -11.3569    0.0000 C   0  0  0  0  0  0  0  0  0  0  0  0
  -17.0235  -12.7214    0.0000 C   0  0  0  0  0  0  0  0  0  0  0  0
  -17.5333  -14.1321    0.0000 C   0  0  0  0  0  0  0  0  0  0  0  0
  -17.9265  -15.5796    0.0000 C   0  0  0  0  0  0  0  0  0  0  0  0
  -18.2003  -17.0544    0.0000 C   0  0  0  0  0  0  0  0  0  0  0  0
  -18.3531  -18.5466    0.0000 C   0  0  0  0  0  0  0  0  0  0  0  0
  -18.3837  -20.0463    0.0000 C   0  0  0  0  0  0  0  0  0  0  0  0
  -18.2919  -21.5435    0.0000 C   0  0  0  0  0  0  0  0  0  0  0  0
  -18.0785  -23.0282    0.0000 C   0  0  0  0  0  0  0  0  0  0  0  0
  -17.7447  -24.4906    0.0000 C   0  0  0  0  0  0  0  0  0  0  0  0
  -17.2928  -25.9209    0.0000 C   0  0  0  0  0  0  0  0  0  0  0  0
  -16.7259  -27.3097    0.0000 C   0  0  0  0  0  0  0  0  0  0  0  0
  -16.0476  -28.6476    0.0000 C   0  0  0  0  0  0  0  0  0  0  0  0
  -15.2625  -29.9257    0.0000 C   0  0  0  0  0  0  0  0  0  0  0  0
  -14.3759  -31.1356    0.0000 C   0  0  0  0  0  0  0  0  0  0  0  0
  -13.3936  -32.2693    0.0000 C   0  0  0  0  0  0  0  0  0  0  0  0
  -12.3222  -33.3191    0.0000 C   0  0  0  0  0  0  0  0  0  0  0  0
  -11.1688  -34.2780    0.0000 C   0  0  0  0  0  0  0  0  0  0  0  0
   -9.9410  -35.1398    0.0000 C   0  0  0  0  0  0  0  0  0  0  0  0
   -8.6471  -35.8986    0.0000 C   0  0  0  0  0  0  0  0  0  0  0  0
   -7.2957  -36.5494    0.0000 C   0  0  0  0  0  0  0  0  0  0  0  0
   -5.8957  -37.0879    0.0000 C   0  0  0  0  0  0  0  0  0  0  0  0
   -4.4564  -37.5105    0.0000 C   0  0  0  0  0  0  0  0  0  0  0  0
   -2.9875  -37.8144    0.0000 C   0  0  0  0  0  0  0  0  0  0  0  0
   -1.4988  -37.9975    0.0000 C   0  0  0  0  0  0  0  0  0  0  0  0
   -0.0000  -38.0587    0.0000 C   0  0  0  0  0  0  0  0  0  0  0  0
    1.4988  -37.9975    0.0000 C   0  0  0  0  0  0  0  0  0  0  0  0
    2.9875  -37.8144    0.0000 C   0  0  0  0  0  0  0  0  0  0  0  0
    4.4564  -37.5105    0.0000 C   0  0  0  0  0  0  0  0  0  0  0  0
    5.8957  -37.0879    0.0000 C   0  0  0  0  0  0  0  0  0  0  0  0
    7.2957  -36.5494    0.0000 C   0  0  0  0  0  0  0  0  0  0  0  0
    8.6471  -35.8986    0.0000 C   0  0  0  0  0  0  0  0  0  0  0  0
    9.9410  -35.1398    0.0000 C   0  0  0  0  0  0  0  0  0  0  0  0
   11.1688  -34.2780    0.0000 C   0  0  0  0  0  0  0  0  0  0  0  0
   12.3222  -33.3191    0.0000 C   0  0  0  0  0  0  0  0  0  0  0  0
   13.3936  -32.2693    0.0000 C   0  0  0  0  0  0  0  0  0  0  0  0
   14.3759  -31.1356    0.0000 C   0  0  0  0  0  0  0  0  0  0  0  0
   15.2625  -29.9257    0.0000 C   0  0  0  0  0  0  0  0  0  0  0  0
   16.0476  -28.6476    0.0000 C   0  0  0  0  0  0  0  0  0  0  0  0
   16.7259  -27.3097    0.0000 C   0  0  0  0  0  0  0  0  0  0  0  0
   17.2928  -25.9209    0.0000 C   0  0  0  0  0  0  0  0  0  0  0  0
   17.7447  -24.4906    0.0000 C   0  0  0  0  0  0  0  0  0  0  0  0
   18.0785  -23.0282    0.0000 C   0  0  0  0  0  0  0  0  0  0  0  0
   18.2919  -21.5435    0.0000 C   0  0  0  0  0  0  0  0  0  0  0  0
   18.3837  -20.0463    0.0000 C   0  0  0  0  0  0  0  0  0  0  0  0
   18.3531  -18.5466    0.0000 C   0  0  0  0  0  0  0  0  0  0  0  0
   18.2003  -17.0544    0.0000 C   0  0  0  0  0  0  0  0  0  0  0  0
   17.9265  -15.5796    0.0000 C   0  0  0  0  0  0  0  0  0  0  0  0
   17.5333  -14.1321    0.0000 C   0  0  0  0  0  0  0  0  0  0  0  0
   17.0235  -12.7214    0.0000 C   0  0  0  0  0  0  0  0  0  0  0  0
   16.4004  -11.3569    0.0000 C   0  0  0  0  0  0  0  0  0  0  0  0
   15.6681  -10.0478    0.0000 C   0  0  0  0  0  0  0  0  0  0  0  0
   14.8316   -8.8027    0.0000 C   0  0  0  0  0  0  0  0  0  0  0  0
   13.8963   -7.6300    0.0000 C   0  0  0  0  0  0  0  0  0  0  0  0
   12.8686   -6.5374    0.0000 C   0  0  0  0  0  0  0  0  0  0  0  0
   11.7553   -5.5322    0.0000 C   0  0  0  0  0  0  0  0  0  0  0  0
   10.5637   -4.6210    0.0000 C   0  0  0  0  0  0  0  0  0  0  0  0
    9.3018   -3.8101    0.0000 C   0  0  0  0  0  0  0  0  0  0  0  0
    7.9780   -3.1047    0.0000 C   0  0  0  0  0  0  0  0  0  0  0  0
    6.6012   -2.5095    0.0000 C   0  0  0  0  0  0  0  0  0  0  0  0
    5.1804   -2.0286    0.0000 C   0  0  0  0  0  0  0  0  0  0  0  0
    3.7251   -1.6650    0.0000 C   0  0  0  0  0  0  0  0  0  0  0  0
    2.2450   -1.4213    0.0000 C   0  0  0  0  0  0  0  0  0  0  0  0
    0.7500   -1.2990    0.0000 C   0  0  0  0  0  0  0  0  0  0  0  0
    1.5000    0.0000    0.0000 C   0  0  0  0  0  0  0  0  0  0  0  0
    0.7500    1.2990    0.0000 C   0  0  0  0  0  0  0  0  0  0  0  0
   -0.7500    1.2990    0.0000 C   0  0  0  0  0  0  0  0  0  0  0  0
   -1.5000    0.0000    0.0000 C   0  0  0  0  0  0  0  0  0  0  0  0
   -0.7500   -1.2990    0.0000 C   0  0  0  0  0  0  0  0  0  0  0  0
  1  2  1  0
  2  3  1  0
  3  4  1  0
  4  5  1  0
  5  6  1  0
  6  7  1  0
  7  8  1  0
  8  9  1  0
  9 10  1  0
 10 11  1  0
 11 12  1  0
 12 13  1  0
 13 14  1  0
 14 15  1  0
 15 16  1  0
 16 17  1  0
 17 18  1  0
 18 19  1  0
 19 20  1  0
 20 21  1  0
 21 22  1  0
 22 23  1  0
 23 24  1  0
 24 25  1  0
 25 26  1  0
 26 27  1  0
 27 28  1  0
 28 29  1  0
 29 30  1  0
 30 31  1  0
 31 32  1  0
 32 33  1  0
 33 34  1  0
 34 35  1  0
 35 36  1  0
 36 37  1  0
 37 38  1  0
 38 39  1  0
 39 40  1  0
 40 41  1  0
 41 42  1  0
 42 43  1  0
 43 44  1  0
 44 45  1  0
 45 46  1  0
 46 47  1  0
 47 48  1  0
 48 49  1  0
 49 50  1  0
 50 51  1  0
 51 52  1  0
 52 53  1  0
 53 54  1  0
 54 55  1  0
 55 56  1  0
 56 57  1  0
 57 58  1  0
 58 59  1  0
 59 60  1  0
 60 61  1  0
 61 62  1  0
 62 63  1  0
 63 64  1  0
 64 65  1  0
 65 66  1  0
 66 67  1  0
 67 68  1  0
 68 69  1  0
 69 70  1  0
 70 71  1  0
 71 72  1  0
 72 73  1  0
 73 74  1  0
 74 75  1  0
 75 76  1  0
 76 77  1  0
 77 78  1  0
 78 79  1  0
 79 80  1  0
 80 81  1  0
 81 82  1  0
 82  2  1  0
 82 77  1  0
M  END
>  <Title>  (219) 
idAAGMgen9

$$$$

     RDKit          2D

  6  6  0  0  0  0  0  0  0  0999 V2000
    2.7760    0.0000    0.0000 C   0  0  0  0  0  0  0  0  0  0  0  0
    1.2760    0.0000    0.0000 C   0  0  0  0  0  0  0  0  0  0  0  0
    0.3943    1.2135    0.0000 C   0  0  0  0  0  0  0  0  0  0  0  0
   -1.0323    0.7500    0.0000 C   0  0  0  0  0  0  0  0  0  0  0  0
   -1.0323   -0.7500    0.0000 C   0  0  0  0  0  0  0  0  0  0  0  0
    0.3943   -1.2135    0.0000 C   0  0  0  0  0  0  0  0  0  0  0  0
  1  2  1  0
  2  3  2  0
  3  4  1  0
  4  5  2  0
  5  6  1  0
  6  2  1  0
M  END
>  <Title>  (220) 
idAAGNgen9

$$$$

     RDKit          2D

 26 28  0  0  0  0  0  0  0  0999 V2000
  -13.4779  -15.5270    0.0000 C   0  0  0  0  0  0  0  0  0  0  0  0
  -12.4173  -14.4663    0.0000 C   0  0  0  0  0  0  0  0  0  0  0  0
  -11.3566  -13.4056    0.0000 C   0  0  0  0  0  0  0  0  0  0  0  0
  -10.2959  -12.3450    0.0000 C   0  0  0  0  0  0  0  0  0  0  0  0
   -9.2353  -11.2843    0.0000 C   0  0  0  0  0  0  0  0  0  0  0  0
   -8.1746  -10.2237    0.0000 C   0  0  0  0  0  0  0  0  0  0  0  0
   -7.1140   -9.1630    0.0000 C   0  0  0  0  0  0  0  0  0  0  0  0
   -6.0533   -8.1023    0.0000 C   0  0  0  0  0  0  0  0  0  0  0  0
   -4.9926   -7.0417    0.0000 C   0  0  0  0  0  0  0  0  0  0  0  0
   -3.9320   -5.9810    0.0000 C   0  0  0  0  0  0  0  0  0  0  0  0
   -2.8713   -4.9204    0.0000 C   0  0  0  0  0  0  0  0  0  0  0  0
   -1.8107   -3.8597    0.0000 C   0  0  0  0  0  0  0  0  0  0  0  0
   -0.7500   -2.7990    0.0000 C   0  0  0  0  0  0  0  0  0  0  0  0
    0.7500   -2.7990    0.0000 C   0  0  0  0  0  0  0  0  0  0  0  0
    1.8107   -3.8597    0.0000 C   0  0  0  0  0  0  0  0  0  0  0  0
    1.4224   -5.3086    0.0000 C   0  0  0  0  0  0  0  0  0  0  0  0
    2.4831   -6.3692    0.0000 C   0  0  0  0  0  0  0  0  0  0  0  0
    3.9320   -5.9810    0.0000 C   0  0  0  0  0  0  0  0  0  0  0  0
    4.3202   -4.5321    0.0000 C   0  0  0  0  0  0  0  0  0  0  0  0
    3.2595   -3.4715    0.0000 C   0  0  0  0  0  0  0  0  0  0  0  0
    0.7500   -1.2990    0.0000 C   0  0  0  0  0  0  0  0  0  0  0  0
    1.5000    0.0000    0.0000 C   0  0  0  0  0  0  0  0  0  0  0  0
    0.7500    1.2990    0.0000 C   0  0  0  0  0  0  0  0  0  0  0  0
   -0.7500    1.2990    0.0000 C   0  0  0  0  0  0  0  0  0  0  0  0
   -1.5000    0.0000    0.0000 C   0  0  0  0  0  0  0  0  0  0  0  0
   -0.7500   -1.2990    0.0000 C   0  0  0  0  0  0  0  0  0  0  0  0
  1  2  3  0
  2  3  1  0
  3  4  3  0
  4  5  1  0
  5  6  3  0
  6  7  1  0
  7  8  3  0
  8  9  1  0
  9 10  3  0
 10 11  1  0
 11 12  3  0
 12 13  1  0
 13 14  2  0
 14 15  1  0
 15 16  2  0
 16 17  1  0
 17 18  2  0
 18 19  1  0
 19 20  2  0
 14 21  1  0
 21 22  2  0
 22 23  1  0
 23 24  2  0
 24 25  1  0
 25 26  2  0
 26 13  1  0
 20 15  1  0
 26 21  1  0
M  END
>  <Title>  (221) 
idAAGOgen9

$$$$

     RDKit          2D

 62 62  0  0  0  0  0  0  0  0999 V2000
   15.8305    0.0000    0.0000 C   0  0  0  0  0  0  0  0  0  0  0  0
   14.3305    0.0000    0.0000 C   0  0  0  0  0  0  0  0  0  0  0  0
   14.2520   -1.4979    0.0000 C   0  0  0  0  0  0  0  0  0  0  0  0
   14.0173   -2.9795    0.0000 C   0  0  0  0  0  0  0  0  0  0  0  0
   13.6291   -4.4284    0.0000 C   0  0  0  0  0  0  0  0  0  0  0  0
   13.0916   -5.8287    0.0000 C   0  0  0  0  0  0  0  0  0  0  0  0
   12.4106   -7.1652    0.0000 C   0  0  0  0  0  0  0  0  0  0  0  0
   11.5936   -8.4233    0.0000 C   0  0  0  0  0  0  0  0  0  0  0  0
   10.6496   -9.5890    0.0000 C   0  0  0  0  0  0  0  0  0  0  0  0
    9.5890  -10.6496    0.0000 C   0  0  0  0  0  0  0  0  0  0  0  0
    8.4233  -11.5936    0.0000 C   0  0  0  0  0  0  0  0  0  0  0  0
    7.1652  -12.4106    0.0000 C   0  0  0  0  0  0  0  0  0  0  0  0
    5.8287  -13.0916    0.0000 C   0  0  0  0  0  0  0  0  0  0  0  0
    4.4284  -13.6291    0.0000 C   0  0  0  0  0  0  0  0  0  0  0  0
    2.9795  -14.0173    0.0000 C   0  0  0  0  0  0  0  0  0  0  0  0
    1.4979  -14.2520    0.0000 C   0  0  0  0  0  0  0  0  0  0  0  0
   -0.0000  -14.3305    0.0000 C   0  0  0  0  0  0  0  0  0  0  0  0
   -1.4979  -14.2520    0.0000 C   0  0  0  0  0  0  0  0  0  0  0  0
   -2.9795  -14.0173    0.0000 C   0  0  0  0  0  0  0  0  0  0  0  0
   -4.4284  -13.6291    0.0000 C   0  0  0  0  0  0  0  0  0  0  0  0
   -5.8287  -13.0916    0.0000 C   0  0  0  0  0  0  0  0  0  0  0  0
   -7.1652  -12.4106    0.0000 C   0  0  0  0  0  0  0  0  0  0  0  0
   -8.4233  -11.5936    0.0000 C   0  0  0  0  0  0  0  0  0  0  0  0
   -9.5890  -10.6496    0.0000 C   0  0  0  0  0  0  0  0  0  0  0  0
  -10.6496   -9.5890    0.0000 C   0  0  0  0  0  0  0  0  0  0  0  0
  -11.5936   -8.4233    0.0000 C   0  0  0  0  0  0  0  0  0  0  0  0
  -12.4106   -7.1652    0.0000 C   0  0  0  0  0  0  0  0  0  0  0  0
  -13.0916   -5.8287    0.0000 C   0  0  0  0  0  0  0  0  0  0  0  0
  -13.6291   -4.4284    0.0000 C   0  0  0  0  0  0  0  0  0  0  0  0
  -14.0173   -2.9795    0.0000 C   0  0  0  0  0  0  0  0  0  0  0  0
  -14.2520   -1.4979    0.0000 C   0  0  0  0  0  0  0  0  0  0  0  0
  -14.3305    0.0000    0.0000 C   0  0  0  0  0  0  0  0  0  0  0  0
  -14.2520    1.4979    0.0000 C   0  0  0  0  0  0  0  0  0  0  0  0
  -14.0173    2.9795    0.0000 C   0  0  0  0  0  0  0  0  0  0  0  0
  -13.6291    4.4284    0.0000 C   0  0  0  0  0  0  0  0  0  0  0  0
  -13.0916    5.8287    0.0000 C   0  0  0  0  0  0  0  0  0  0  0  0
  -12.4106    7.1652    0.0000 C   0  0  0  0  0  0  0  0  0  0  0  0
  -11.5936    8.4233    0.0000 C   0  0  0  0  0  0  0  0  0  0  0  0
  -10.6496    9.5890    0.0000 C   0  0  0  0  0  0  0  0  0  0  0  0
   -9.5890   10.6496    0.0000 C   0  0  0  0  0  0  0  0  0  0  0  0
   -8.4233   11.5936    0.0000 C   0  0  0  0  0  0  0  0  0  0  0  0
   -7.1652   12.4106    0.0000 C   0  0  0  0  0  0  0  0  0  0  0  0
   -5.8287   13.0916    0.0000 C   0  0  0  0  0  0  0  0  0  0  0  0
   -4.4284   13.6291    0.0000 C   0  0  0  0  0  0  0  0  0  0  0  0
   -2.9795   14.0173    0.0000 C   0  0  0  0  0  0  0  0  0  0  0  0
   -1.4979   14.2520    0.0000 C   0  0  0  0  0  0  0  0  0  0  0  0
    0.0000   14.3305    0.0000 C   0  0  0  0  0  0  0  0  0  0  0  0
    1.4979   14.2520    0.0000 C   0  0  0  0  0  0  0  0  0  0  0  0
    2.9795   14.0173    0.0000 C   0  0  0  0  0  0  0  0  0  0  0  0
    4.4284   13.6291    0.0000 C   0  0  0  0  0  0  0  0  0  0  0  0
    5.8287   13.0916    0.0000 C   0  0  0  0  0  0  0  0  0  0  0  0
    7.1652   12.4106    0.0000 C   0  0  0  0  0  0  0  0  0  0  0  0
    8.4233   11.5936    0.0000 C   0  0  0  0  0  0  0  0  0  0  0  0
    9.5890   10.6496    0.0000 C   0  0  0  0  0  0  0  0  0  0  0  0
   10.6496    9.5890    0.0000 C   0  0  0  0  0  0  0  0  0  0  0  0
   11.5936    8.4233    0.0000 C   0  0  0  0  0  0  0  0  0  0  0  0
   12.4106    7.1652    0.0000 C   0  0  0  0  0  0  0  0  0  0  0  0
   13.0916    5.8287    0.0000 C   0  0  0  0  0  0  0  0  0  0  0  0
   13.6291    4.4284    0.0000 C   0  0  0  0  0  0  0  0  0  0  0  0
   14.0173    2.9795    0.0000 C   0  0  0  0  0  0  0  0  0  0  0  0
   15.4846    3.2913    0.0000 C   0  0  0  0  0  0  0  0  0  0  0  0
   14.2520    1.4979    0.0000 C   0  0  0  0  0  0  0  0  0  0  0  0
  1  2  1  0
  2  3  2  0
  3  4  1  0
  4  5  1  0
  5  6  1  0
  6  7  1  0
  7  8  1  0
  8  9  1  0
  9 10  1  0
 10 11  1  0
 11 12  1  0
 12 13  1  0
 13 14  1  0
 14 15  1  0
 15 16  1  0
 16 17  1  0
 17 18  1  0
 18 19  1  0
 19 20  1  0
 20 21  1  0
 21 22  1  0
 22 23  1  0
 23 24  1  0
 24 25  1  0
 25 26  1  0
 26 27  1  0
 27 28  1  0
 28 29  1  0
 29 30  1  0
 30 31  1  0
 31 32  1  0
 32 33  1  0
 33 34  1  0
 34 35  1  0
 35 36  1  0
 36 37  1  0
 37 38  1  0
 38 39  1  0
 39 40  1  0
 40 41  1  0
 41 42  1  0
 42 43  1  0
 43 44  1  0
 44 45  1  0
 45 46  1  0
 46 47  1  0
 47 48  1  0
 48 49  1  0
 49 50  1  0
 50 51  1  0
 51 52  1  0
 52 53  1  0
 53 54  1  0
 54 55  1  0
 55 56  1  0
 56 57  1  0
 57 58  1  0
 58 59  1  0
 59 60  1  0
 60 61  1  0
 60 62  1  0
 62  2  1  0
M  END
>  <Title>  (222) 
idAAGPgen9

$$$$

     RDKit          2D

  8  8  0  0  0  0  0  0  0  0999 V2000
    2.7760    0.0000    0.0000 C   0  0  0  0  0  0  0  0  0  0  0  0
    1.2760    0.0000    0.0000 C   0  0  0  0  0  0  0  0  0  0  0  0
    0.3943    1.2135    0.0000 C   0  0  0  0  0  0  0  0  0  0  0  0
   -1.0323    0.7500    0.0000 C   0  0  0  0  0  0  0  0  0  0  0  0
   -2.2458    1.6317    0.0000 C   0  0  0  0  0  0  0  0  0  0  0  0
   -3.4593    2.5134    0.0000 N   0  0  0  0  0  0  0  0  0  0  0  0
   -1.0323   -0.7500    0.0000 C   0  0  0  0  0  0  0  0  0  0  0  0
    0.3943   -1.2135    0.0000 C   0  0  0  0  0  0  0  0  0  0  0  0
  1  2  1  0
  2  3  2  0
  3  4  1  0
  4  5  1  0
  5  6  3  0
  4  7  2  0
  7  8  1  0
  8  2  1  0
M  END
>  <Title>  (223) 
idAAGQgen9

$$$$

     RDKit          2D

 10 10  0  0  0  0  0  0  0  0999 V2000
    3.0000   -2.5981    0.0000 O   0  0  0  0  0  0  0  0  0  0  0  0
    3.7500   -1.2990    0.0000 C   0  0  0  0  0  0  0  0  0  0  0  0
    5.2500   -1.2990    0.0000 O   0  0  0  0  0  0  0  0  0  0  0  0
    3.0000    0.0000    0.0000 O   0  0  0  0  0  0  0  0  0  0  0  0
    1.5000    0.0000    0.0000 C   0  0  0  0  0  0  0  0  0  0  0  0
    0.7500   -1.2990    0.0000 C   0  0  0  0  0  0  0  0  0  0  0  0
   -0.7500   -1.2990    0.0000 C   0  0  0  0  0  0  0  0  0  0  0  0
   -1.5000    0.0000    0.0000 C   0  0  0  0  0  0  0  0  0  0  0  0
   -0.7500    1.2990    0.0000 C   0  0  0  0  0  0  0  0  0  0  0  0
    0.7500    1.2990    0.0000 C   0  0  0  0  0  0  0  0  0  0  0  0
  1  2  2  0
  2  3  1  0
  2  4  1  0
  4  5  1  0
  5  6  1  0
  6  7  2  0
  7  8  2  0
  8  9  1  0
  9 10  2  0
 10  5  1  0
M  END
>  <Title>  (224) 
idAAGRgen9

$$$$

     RDKit          2D

 11 11  0  0  0  0  0  0  0  0999 V2000
   10.2760   -0.0000    0.0000 N   0  0  0  0  0  0  0  0  0  0  0  0
    8.7760   -0.0000    0.0000 C   0  0  0  0  0  0  0  0  0  0  0  0
    7.2760   -0.0000    0.0000 C   0  0  0  0  0  0  0  0  0  0  0  0
    5.7760   -0.0000    0.0000 C   0  0  0  0  0  0  0  0  0  0  0  0
    4.2760   -0.0000    0.0000 C   0  0  0  0  0  0  0  0  0  0  0  0
    2.7760    0.0000    0.0000 C   0  0  0  0  0  0  0  0  0  0  0  0
    1.2760    0.0000    0.0000 C   0  0  0  0  0  0  0  0  0  0  0  0
    0.3943    1.2135    0.0000 C   0  0  0  0  0  0  0  0  0  0  0  0
   -1.0323    0.7500    0.0000 C   0  0  0  0  0  0  0  0  0  0  0  0
   -1.0323   -0.7500    0.0000 C   0  0  0  0  0  0  0  0  0  0  0  0
    0.3943   -1.2135    0.0000 C   0  0  0  0  0  0  0  0  0  0  0  0
  1  2  3  0
  2  3  1  0
  3  4  3  0
  4  5  1  0
  5  6  3  0
  6  7  1  0
  7  8  2  0
  8  9  1  0
  9 10  1  0
 10 11  2  0
 11  7  1  0
M  END
>  <Title>  (225) 
idAAGSgen9

$$$$

     RDKit          2D

 36 41  0  0  0  0  0  0  0  0999 V2000
    2.3737   -6.1885    0.0000 C   0  0  0  0  0  0  0  0  0  0  0  0
    1.4095   -5.0395    0.0000 N   0  0  0  0  0  0  0  0  0  0  0  0
    2.1595   -3.7404    0.0000 C   0  0  0  0  0  0  0  0  0  0  0  0
    1.8991   -2.2632    0.0000 C   0  0  0  0  0  0  0  0  0  0  0  0
    3.1981   -1.5132    0.0000 C   0  0  0  0  0  0  0  0  0  0  0  0
    3.1981   -0.0132    0.0000 O   0  0  0  0  0  0  0  0  0  0  0  0
    4.4971   -2.2632    0.0000 N   0  0  0  0  0  0  0  0  0  0  0  0
    5.7962   -1.5132    0.0000 C   0  0  0  0  0  0  0  0  0  0  0  0
    5.9530   -0.0214    0.0000 N   0  0  0  0  0  0  0  0  0  0  0  0
    7.4202    0.2904    0.0000 N   0  0  0  0  0  0  0  0  0  0  0  0
    8.1702   -1.0086    0.0000 N   0  0  0  0  0  0  0  0  0  0  0  0
    7.1665   -2.1233    0.0000 N   0  0  0  0  0  0  0  0  0  0  0  0
    7.4784   -3.5905    0.0000 C   0  0  0  0  0  0  0  0  0  0  0  0
    6.3636   -4.5942    0.0000 C   0  0  0  0  0  0  0  0  0  0  0  0
    6.6755   -6.0615    0.0000 C   0  0  0  0  0  0  0  0  0  0  0  0
    8.1021   -6.5250    0.0000 C   0  0  0  0  0  0  0  0  0  0  0  0
    9.2168   -5.5213    0.0000 C   0  0  0  0  0  0  0  0  0  0  0  0
    8.9050   -4.0541    0.0000 C   0  0  0  0  0  0  0  0  0  0  0  0
    0.7500   -1.2990    0.0000 C   0  0  0  0  0  0  0  0  0  0  0  0
    1.5000    0.0000    0.0000 C   0  0  0  0  0  0  0  0  0  0  0  0
    0.7500    1.2990    0.0000 C   0  0  0  0  0  0  0  0  0  0  0  0
   -0.7500    1.2990    0.0000 C   0  0  0  0  0  0  0  0  0  0  0  0
   -1.5000    0.0000    0.0000 C   0  0  0  0  0  0  0  0  0  0  0  0
   -0.7500   -1.2990    0.0000 C   0  0  0  0  0  0  0  0  0  0  0  0
   -1.8991   -2.2632    0.0000 C   0  0  0  0  0  0  0  0  0  0  0  0
   -3.0481   -1.2990    0.0000 C   0  0  0  0  0  0  0  0  0  0  0  0
   -4.4577   -1.8121    0.0000 C   0  0  0  0  0  0  0  0  0  0  0  0
   -4.7181   -3.2893    0.0000 C   0  0  0  0  0  0  0  0  0  0  0  0
   -3.5691   -4.2535    0.0000 C   0  0  0  0  0  0  0  0  0  0  0  0
   -2.1595   -3.7404    0.0000 C   0  0  0  0  0  0  0  0  0  0  0  0
   -1.4095   -5.0395    0.0000 C   0  0  0  0  0  0  0  0  0  0  0  0
   -2.5586   -6.0037    0.0000 C   0  0  0  0  0  0  0  0  0  0  0  0
   -2.2981   -7.4809    0.0000 C   0  0  0  0  0  0  0  0  0  0  0  0
   -0.8886   -7.9939    0.0000 C   0  0  0  0  0  0  0  0  0  0  0  0
    0.2605   -7.0297    0.0000 C   0  0  0  0  0  0  0  0  0  0  0  0
   -0.0000   -5.5525    0.0000 C   0  0  0  0  0  0  0  0  0  0  0  0
  1  2  1  0
  2  3  1  0
  3  4  1  0
  4  5  1  0
  5  6  2  0
  5  7  1  0
  7  8  1  0
  8  9  2  0
  9 10  1  0
 10 11  2  0
 11 12  1  0
 12 13  1  0
 13 14  2  0
 14 15  1  0
 15 16  2  0
 16 17  1  0
 17 18  2  0
  4 19  1  0
 19 20  2  0
 20 21  1  0
 21 22  2  0
 22 23  1  0
 23 24  2  0
 24 25  1  0
 25 26  2  0
 26 27  1  0
 27 28  2  0
 28 29  1  0
 29 30  2  0
 30 31  1  0
 31 32  2  0
 32 33  1  0
 33 34  2  0
 34 35  1  0
 35 36  2  0
 36  2  1  0
 12  8  1  0
 18 13  1  0
 24 19  1  0
 30 25  1  0
 36 31  1  0
M  END
>  <Title>  (226) 
idAAGTgen9

$$$$

     RDKit          2D

  5  4  0  0  0  0  0  0  0  0999 V2000
    0.0000    0.0000    0.0000 C   0  0  0  0  0  0  0  0  0  0  0  0
   -0.0000   -1.5000    0.0000 C   0  0  0  0  0  0  0  0  0  0  0  0
   -0.0000   -3.0000    0.0000 C   0  0  0  0  0  0  0  0  0  0  0  0
    1.2990   -3.7500    0.0000 C   0  0  0  0  0  0  0  0  0  0  0  0
    1.2990   -5.2500    0.0000 C   0  0  0  0  0  0  0  0  0  0  0  0
  1  2  3  0
  2  3  1  0
  3  4  2  3
  4  5  1  0
M  END
>  <Title>  (227) 
idAAGUgen9

$$$$

     RDKit          2D

  9  8  0  0  0  0  0  0  0  0999 V2000
    0.0000    0.0000    0.0000 C   0  0  0  0  0  0  0  0  0  0  0  0
   -0.0000   -1.5000    0.0000 C   0  0  0  0  0  0  0  0  0  0  0  0
   -0.0000   -3.0000    0.0000 C   0  0  0  0  0  0  0  0  0  0  0  0
   -0.0000   -4.5000    0.0000 C   0  0  0  0  0  0  0  0  0  0  0  0
   -0.0000   -6.0000    0.0000 C   0  0  0  0  0  0  0  0  0  0  0  0
   -0.0000   -7.5000    0.0000 C   0  0  0  0  0  0  0  0  0  0  0  0
   -0.0000   -9.0000    0.0000 C   0  0  0  0  0  0  0  0  0  0  0  0
    1.2990   -9.7500    0.0000 C   0  0  0  0  0  0  0  0  0  0  0  0
    1.2990  -11.2500    0.0000 C   0  0  0  0  0  0  0  0  0  0  0  0
  1  2  3  0
  2  3  1  0
  3  4  3  0
  4  5  1  0
  5  6  3  0
  6  7  1  0
  7  8  2  3
  8  9  1  0
M  END
>  <Title>  (228) 
idAAGVgen9

$$$$

     RDKit          2D

 11 11  0  0  0  0  0  0  0  0999 V2000
    3.5260   -3.8971    0.0000 C   0  0  0  0  0  0  0  0  0  0  0  0
    2.7760   -2.5981    0.0000 C   0  0  0  0  0  0  0  0  0  0  0  0
    3.5260   -1.2990    0.0000 N   0  0  0  0  0  0  0  0  0  0  0  0
    5.0260   -1.2990    0.0000 C   0  0  0  0  0  0  0  0  0  0  0  0
    2.7760    0.0000    0.0000 C   0  0  0  0  0  0  0  0  0  0  0  0
    3.5260    1.2990    0.0000 O   0  0  0  0  0  0  0  0  0  0  0  0
    1.2760    0.0000    0.0000 C   0  0  0  0  0  0  0  0  0  0  0  0
    0.3943    1.2135    0.0000 C   0  0  0  0  0  0  0  0  0  0  0  0
   -1.0323    0.7500    0.0000 C   0  0  0  0  0  0  0  0  0  0  0  0
   -1.0323   -0.7500    0.0000 C   0  0  0  0  0  0  0  0  0  0  0  0
    0.3943   -1.2135    0.0000 C   0  0  0  0  0  0  0  0  0  0  0  0
  1  2  1  0
  2  3  1  0
  3  4  1  0
  3  5  1  0
  5  6  2  0
  5  7  1  0
  7  8  2  0
  8  9  1  0
  9 10  2  0
 10 11  1  0
 11  7  1  0
M  END
>  <Title>  (229) 
idAAGWgen9

$$$$

     RDKit          2D

 16 17  0  0  0  0  0  0  0  0999 V2000
    3.0000    0.0000    0.0000 C   0  0  0  0  0  0  0  0  0  0  0  0
    1.5000    0.0000    0.0000 C   0  0  0  0  0  0  0  0  0  0  0  0
    0.7500   -1.2990    0.0000 C   0  0  0  0  0  0  0  0  0  0  0  0
   -0.7500   -1.2990    0.0000 C   0  0  0  0  0  0  0  0  0  0  0  0
   -1.5000    0.0000    0.0000 C   0  0  0  0  0  0  0  0  0  0  0  0
   -3.0000    0.0000    0.0000 C   0  0  0  0  0  0  0  0  0  0  0  0
   -3.7500   -1.2990    0.0000 O   0  0  0  0  0  0  0  0  0  0  0  0
   -3.7500    1.2990    0.0000 N   0  0  0  0  0  0  0  0  0  0  0  0
   -5.2500    1.2990    0.0000 C   0  0  0  0  0  0  0  0  0  0  0  0
   -6.0000    2.5981    0.0000 N   0  0  0  0  0  0  0  0  0  0  0  0
   -7.5000    2.5981    0.0000 N   0  0  0  0  0  0  0  0  0  0  0  0
   -8.2500    1.2990    0.0000 N   0  0  0  0  0  0  0  0  0  0  0  0
   -7.5000    0.0000    0.0000 N   0  0  0  0  0  0  0  0  0  0  0  0
   -6.0000    0.0000    0.0000 N   0  0  0  0  0  0  0  0  0  0  0  0
   -0.7500    1.2990    0.0000 C   0  0  0  0  0  0  0  0  0  0  0  0
    0.7500    1.2990    0.0000 C   0  0  0  0  0  0  0  0  0  0  0  0
  1  2  1  0
  2  3  1  0
  3  4  1  0
  4  5  1  0
  5  6  1  0
  6  7  2  0
  6  8  1  0
  8  9  1  0
  9 10  2  0
 10 11  1  0
 11 12  2  0
 12 13  1  0
 13 14  2  0
  5 15  1  0
 15 16  1  0
 16  2  1  0
 14  9  1  0
M  END
>  <Title>  (230) 
idAAGXgen9

$$$$

     RDKit          2D

118119  0  0  0  0  0  0  0  0999 V2000
   29.6429   -3.2089    0.0000 C   0  0  0  0  0  0  0  0  0  0  0  0
   29.7668   -1.7140    0.0000 C   0  0  0  0  0  0  0  0  0  0  0  0
   28.5341   -0.8593    0.0000 C   0  0  0  0  0  0  0  0  0  0  0  0
   27.1776   -1.4994    0.0000 C   0  0  0  0  0  0  0  0  0  0  0  0
   27.2189    0.0000    0.0000 C   0  0  0  0  0  0  0  0  0  0  0  0
   27.1776    1.4994    0.0000 C   0  0  0  0  0  0  0  0  0  0  0  0
   27.0537    2.9943    0.0000 C   0  0  0  0  0  0  0  0  0  0  0  0
   26.8477    4.4801    0.0000 C   0  0  0  0  0  0  0  0  0  0  0  0
   26.5601    5.9523    0.0000 C   0  0  0  0  0  0  0  0  0  0  0  0
   26.1919    7.4064    0.0000 C   0  0  0  0  0  0  0  0  0  0  0  0
   25.7441    8.8380    0.0000 C   0  0  0  0  0  0  0  0  0  0  0  0
   25.2182   10.2427    0.0000 C   0  0  0  0  0  0  0  0  0  0  0  0
   24.6156   11.6164    0.0000 C   0  0  0  0  0  0  0  0  0  0  0  0
   23.9383   12.9548    0.0000 C   0  0  0  0  0  0  0  0  0  0  0  0
   23.1883   14.2538    0.0000 C   0  0  0  0  0  0  0  0  0  0  0  0
   22.3679   15.5096    0.0000 C   0  0  0  0  0  0  0  0  0  0  0  0
   21.4796   16.7182    0.0000 C   0  0  0  0  0  0  0  0  0  0  0  0
   20.5260   17.8761    0.0000 C   0  0  0  0  0  0  0  0  0  0  0  0
   19.5101   18.9797    0.0000 C   0  0  0  0  0  0  0  0  0  0  0  0
   18.4349   20.0256    0.0000 C   0  0  0  0  0  0  0  0  0  0  0  0
   17.3037   21.0108    0.0000 C   0  0  0  0  0  0  0  0  0  0  0  0
   16.1200   21.9321    0.0000 C   0  0  0  0  0  0  0  0  0  0  0  0
   14.8873   22.7868    0.0000 C   0  0  0  0  0  0  0  0  0  0  0  0
   13.6095   23.5723    0.0000 C   0  0  0  0  0  0  0  0  0  0  0  0
   12.2903   24.2862    0.0000 C   0  0  0  0  0  0  0  0  0  0  0  0
   10.9337   24.9264    0.0000 C   0  0  0  0  0  0  0  0  0  0  0  0
    9.5440   25.4908    0.0000 C   0  0  0  0  0  0  0  0  0  0  0  0
    8.1253   25.9779    0.0000 C   0  0  0  0  0  0  0  0  0  0  0  0
    6.6819   26.3860    0.0000 C   0  0  0  0  0  0  0  0  0  0  0  0
    5.2182   26.7141    0.0000 C   0  0  0  0  0  0  0  0  0  0  0  0
    3.7386   26.9610    0.0000 C   0  0  0  0  0  0  0  0  0  0  0  0
    2.2477   27.1260    0.0000 C   0  0  0  0  0  0  0  0  0  0  0  0
    0.7500   27.2086    0.0000 C   0  0  0  0  0  0  0  0  0  0  0  0
   -0.7500   27.2086    0.0000 C   0  0  0  0  0  0  0  0  0  0  0  0
   -2.2477   27.1260    0.0000 C   0  0  0  0  0  0  0  0  0  0  0  0
   -3.7386   26.9610    0.0000 C   0  0  0  0  0  0  0  0  0  0  0  0
   -5.2182   26.7141    0.0000 C   0  0  0  0  0  0  0  0  0  0  0  0
   -6.6819   26.3860    0.0000 C   0  0  0  0  0  0  0  0  0  0  0  0
   -8.1253   25.9779    0.0000 C   0  0  0  0  0  0  0  0  0  0  0  0
   -9.5440   25.4908    0.0000 C   0  0  0  0  0  0  0  0  0  0  0  0
  -10.9337   24.9264    0.0000 C   0  0  0  0  0  0  0  0  0  0  0  0
  -12.2903   24.2862    0.0000 C   0  0  0  0  0  0  0  0  0  0  0  0
  -13.6095   23.5723    0.0000 C   0  0  0  0  0  0  0  0  0  0  0  0
  -14.8873   22.7868    0.0000 C   0  0  0  0  0  0  0  0  0  0  0  0
  -16.1200   21.9321    0.0000 C   0  0  0  0  0  0  0  0  0  0  0  0
  -17.3037   21.0108    0.0000 C   0  0  0  0  0  0  0  0  0  0  0  0
  -18.4349   20.0256    0.0000 C   0  0  0  0  0  0  0  0  0  0  0  0
  -19.5101   18.9797    0.0000 C   0  0  0  0  0  0  0  0  0  0  0  0
  -20.5260   17.8761    0.0000 C   0  0  0  0  0  0  0  0  0  0  0  0
  -21.4796   16.7182    0.0000 C   0  0  0  0  0  0  0  0  0  0  0  0
  -22.3679   15.5096    0.0000 C   0  0  0  0  0  0  0  0  0  0  0  0
  -23.1883   14.2538    0.0000 C   0  0  0  0  0  0  0  0  0  0  0  0
  -23.9383   12.9548    0.0000 C   0  0  0  0  0  0  0  0  0  0  0  0
  -24.6156   11.6164    0.0000 C   0  0  0  0  0  0  0  0  0  0  0  0
  -25.2182   10.2427    0.0000 C   0  0  0  0  0  0  0  0  0  0  0  0
  -25.7441    8.8380    0.0000 C   0  0  0  0  0  0  0  0  0  0  0  0
  -26.1919    7.4064    0.0000 C   0  0  0  0  0  0  0  0  0  0  0  0
  -26.5601    5.9523    0.0000 C   0  0  0  0  0  0  0  0  0  0  0  0
  -26.8477    4.4801    0.0000 C   0  0  0  0  0  0  0  0  0  0  0  0
  -27.0537    2.9943    0.0000 C   0  0  0  0  0  0  0  0  0  0  0  0
  -27.1776    1.4994    0.0000 C   0  0  0  0  0  0  0  0  0  0  0  0
  -27.2189    0.0000    0.0000 C   0  0  0  0  0  0  0  0  0  0  0  0
  -27.1776   -1.4994    0.0000 C   0  0  0  0  0  0  0  0  0  0  0  0
  -27.0537   -2.9943    0.0000 C   0  0  0  0  0  0  0  0  0  0  0  0
  -26.8477   -4.4801    0.0000 C   0  0  0  0  0  0  0  0  0  0  0  0
  -26.5601   -5.9523    0.0000 C   0  0  0  0  0  0  0  0  0  0  0  0
  -26.1919   -7.4064    0.0000 C   0  0  0  0  0  0  0  0  0  0  0  0
  -25.7441   -8.8380    0.0000 C   0  0  0  0  0  0  0  0  0  0  0  0
  -25.2182  -10.2427    0.0000 C   0  0  0  0  0  0  0  0  0  0  0  0
  -24.6156  -11.6164    0.0000 C   0  0  0  0  0  0  0  0  0  0  0  0
  -23.9383  -12.9548    0.0000 C   0  0  0  0  0  0  0  0  0  0  0  0
  -23.1883  -14.2538    0.0000 C   0  0  0  0  0  0  0  0  0  0  0  0
  -22.3679  -15.5096    0.0000 C   0  0  0  0  0  0  0  0  0  0  0  0
  -21.4796  -16.7182    0.0000 C   0  0  0  0  0  0  0  0  0  0  0  0
  -20.5260  -17.8761    0.0000 C   0  0  0  0  0  0  0  0  0  0  0  0
  -19.5101  -18.9797    0.0000 C   0  0  0  0  0  0  0  0  0  0  0  0
  -18.4349  -20.0256    0.0000 C   0  0  0  0  0  0  0  0  0  0  0  0
  -17.3037  -21.0108    0.0000 C   0  0  0  0  0  0  0  0  0  0  0  0
  -16.1200  -21.9321    0.0000 C   0  0  0  0  0  0  0  0  0  0  0  0
  -14.8873  -22.7868    0.0000 C   0  0  0  0  0  0  0  0  0  0  0  0
  -13.6095  -23.5723    0.0000 C   0  0  0  0  0  0  0  0  0  0  0  0
  -12.2903  -24.2862    0.0000 C   0  0  0  0  0  0  0  0  0  0  0  0
  -10.9337  -24.9264    0.0000 C   0  0  0  0  0  0  0  0  0  0  0  0
   -9.5440  -25.4908    0.0000 C   0  0  0  0  0  0  0  0  0  0  0  0
   -8.1253  -25.9779    0.0000 C   0  0  0  0  0  0  0  0  0  0  0  0
   -6.6819  -26.3860    0.0000 C   0  0  0  0  0  0  0  0  0  0  0  0
   -5.2182  -26.7141    0.0000 C   0  0  0  0  0  0  0  0  0  0  0  0
   -3.7386  -26.9610    0.0000 C   0  0  0  0  0  0  0  0  0  0  0  0
   -2.2477  -27.1260    0.0000 C   0  0  0  0  0  0  0  0  0  0  0  0
   -0.7500  -27.2086    0.0000 C   0  0  0  0  0  0  0  0  0  0  0  0
    0.7500  -27.2086    0.0000 C   0  0  0  0  0  0  0  0  0  0  0  0
    2.2477  -27.1260    0.0000 C   0  0  0  0  0  0  0  0  0  0  0  0
    3.7386  -26.9610    0.0000 C   0  0  0  0  0  0  0  0  0  0  0  0
    5.2182  -26.7141    0.0000 C   0  0  0  0  0  0  0  0  0  0  0  0
    6.6819  -26.3860    0.0000 C   0  0  0  0  0  0  0  0  0  0  0  0
    8.1253  -25.9779    0.0000 C   0  0  0  0  0  0  0  0  0  0  0  0
    9.5440  -25.4908    0.0000 C   0  0  0  0  0  0  0  0  0  0  0  0
   10.9337  -24.9264    0.0000 C   0  0  0  0  0  0  0  0  0  0  0  0
   12.2903  -24.2862    0.0000 C   0  0  0  0  0  0  0  0  0  0  0  0
   13.6095  -23.5723    0.0000 C   0  0  0  0  0  0  0  0  0  0  0  0
   14.8873  -22.7868    0.0000 C   0  0  0  0  0  0  0  0  0  0  0  0
   16.1200  -21.9321    0.0000 C   0  0  0  0  0  0  0  0  0  0  0  0
   17.3037  -21.0108    0.0000 C   0  0  0  0  0  0  0  0  0  0  0  0
   18.4349  -20.0256    0.0000 C   0  0  0  0  0  0  0  0  0  0  0  0
   19.5101  -18.9797    0.0000 C   0  0  0  0  0  0  0  0  0  0  0  0
   20.5260  -17.8761    0.0000 C   0  0  0  0  0  0  0  0  0  0  0  0
   21.4796  -16.7182    0.0000 C   0  0  0  0  0  0  0  0  0  0  0  0
   22.3679  -15.5096    0.0000 C   0  0  0  0  0  0  0  0  0  0  0  0
   23.1883  -14.2538    0.0000 C   0  0  0  0  0  0  0  0  0  0  0  0
   23.9383  -12.9548    0.0000 C   0  0  0  0  0  0  0  0  0  0  0  0
   24.6156  -11.6164    0.0000 C   0  0  0  0  0  0  0  0  0  0  0  0
   25.2182  -10.2427    0.0000 C   0  0  0  0  0  0  0  0  0  0  0  0
   25.7441   -8.8380    0.0000 C   0  0  0  0  0  0  0  0  0  0  0  0
   26.1919   -7.4064    0.0000 C   0  0  0  0  0  0  0  0  0  0  0  0
   26.5601   -5.9523    0.0000 C   0  0  0  0  0  0  0  0  0  0  0  0
   26.8477   -4.4801    0.0000 C   0  0  0  0  0  0  0  0  0  0  0  0
   27.0537   -2.9943    0.0000 C   0  0  0  0  0  0  0  0  0  0  0  0
   28.2864   -3.8490    0.0000 C   0  0  0  0  0  0  0  0  0  0  0  0
  1  2  2  0
  2  3  1  0
  3  4  2  0
  4  5  1  0
  5  6  1  0
  6  7  1  0
  7  8  1  0
  8  9  1  0
  9 10  1  0
 10 11  1  0
 11 12  1  0
 12 13  1  0
 13 14  1  0
 14 15  1  0
 15 16  1  0
 16 17  1  0
 17 18  1  0
 18 19  1  0
 19 20  1  0
 20 21  1  0
 21 22  1  0
 22 23  1  0
 23 24  1  0
 24 25  1  0
 25 26  1  0
 26 27  1  0
 27 28  1  0
 28 29  1  0
 29 30  1  0
 30 31  1  0
 31 32  1  0
 32 33  1  0
 33 34  1  0
 34 35  1  0
 35 36  1  0
 36 37  1  0
 37 38  1  0
 38 39  1  0
 39 40  1  0
 40 41  1  0
 41 42  1  0
 42 43  1  0
 43 44  1  0
 44 45  1  0
 45 46  1  0
 46 47  1  0
 47 48  1  0
 48 49  1  0
 49 50  1  0
 50 51  1  0
 51 52  1  0
 52 53  1  0
 53 54  1  0
 54 55  1  0
 55 56  1  0
 56 57  1  0
 57 58  1  0
 58 59  1  0
 59 60  1  0
 60 61  1  0
 61 62  1  0
 62 63  1  0
 63 64  1  0
 64 65  1  0
 65 66  1  0
 66 67  1  0
 67 68  1  0
 68 69  1  0
 69 70  1  0
 70 71  1  0
 71 72  1  0
 72 73  1  0
 73 74  1  0
 74 75  1  0
 75 76  1  0
 76 77  1  0
 77 78  1  0
 78 79  1  0
 79 80  1  0
 80 81  1  0
 81 82  1  0
 82 83  1  0
 83 84  1  0
 84 85  1  0
 85 86  1  0
 86 87  1  0
 87 88  1  0
 88 89  1  0
 89 90  1  0
 90 91  1  0
 91 92  1  0
 92 93  1  0
 93 94  1  0
 94 95  1  0
 95 96  1  0
 96 97  1  0
 97 98  1  0
 98 99  1  0
 99100  1  0
100101  1  0
101102  1  0
102103  1  0
103104  1  0
104105  1  0
105106  1  0
106107  1  0
107108  1  0
108109  1  0
109110  1  0
110111  1  0
111112  1  0
112113  1  0
113114  1  0
114115  1  0
115116  2  0
116117  1  0
117118  2  0
118  1  1  0
117  4  1  0
M  END
>  <Title>  (231) 
idAAGYgen9

$$$$

     RDKit          2D

 82 85  0  0  0  0  0  0  0  0999 V2000
  -10.8715   -0.7416    0.0000 C   0  0  0  0  0  0  0  0  0  0  0  0
  -10.1317   -2.0465    0.0000 C   0  0  0  0  0  0  0  0  0  0  0  0
   -8.6318   -2.0582    0.0000 C   0  0  0  0  0  0  0  0  0  0  0  0
   -7.8919   -3.3631    0.0000 C   0  0  0  0  0  0  0  0  0  0  0  0
   -9.1607   -4.1632    0.0000 C   0  0  0  0  0  0  0  0  0  0  0  0
  -10.3489   -5.0787    0.0000 C   0  0  0  0  0  0  0  0  0  0  0  0
  -11.4462   -6.1014    0.0000 C   0  0  0  0  0  0  0  0  0  0  0  0
  -12.4429   -7.2224    0.0000 C   0  0  0  0  0  0  0  0  0  0  0  0
  -13.3303   -8.4318    0.0000 C   0  0  0  0  0  0  0  0  0  0  0  0
  -14.1005   -9.7189    0.0000 C   0  0  0  0  0  0  0  0  0  0  0  0
  -14.7468  -11.0726    0.0000 C   0  0  0  0  0  0  0  0  0  0  0  0
  -15.2635  -12.4808    0.0000 C   0  0  0  0  0  0  0  0  0  0  0  0
  -15.6461  -13.9311    0.0000 C   0  0  0  0  0  0  0  0  0  0  0  0
  -15.8911  -15.4110    0.0000 C   0  0  0  0  0  0  0  0  0  0  0  0
  -15.9965  -16.9073    0.0000 C   0  0  0  0  0  0  0  0  0  0  0  0
  -15.9614  -18.4069    0.0000 C   0  0  0  0  0  0  0  0  0  0  0  0
  -15.7859  -19.8966    0.0000 C   0  0  0  0  0  0  0  0  0  0  0  0
  -15.4718  -21.3633    0.0000 C   0  0  0  0  0  0  0  0  0  0  0  0
  -15.0217  -22.7942    0.0000 C   0  0  0  0  0  0  0  0  0  0  0  0
  -14.4395  -24.1766    0.0000 C   0  0  0  0  0  0  0  0  0  0  0  0
  -13.7305  -25.4985    0.0000 C   0  0  0  0  0  0  0  0  0  0  0  0
  -12.9008  -26.7481    0.0000 C   0  0  0  0  0  0  0  0  0  0  0  0
  -11.9577  -27.9146    0.0000 C   0  0  0  0  0  0  0  0  0  0  0  0
  -10.9096  -28.9876    0.0000 C   0  0  0  0  0  0  0  0  0  0  0  0
   -9.7655  -29.9577    0.0000 C   0  0  0  0  0  0  0  0  0  0  0  0
   -8.5357  -30.8165    0.0000 C   0  0  0  0  0  0  0  0  0  0  0  0
   -7.2308  -31.5563    0.0000 C   0  0  0  0  0  0  0  0  0  0  0  0
   -5.8624  -32.1707    0.0000 C   0  0  0  0  0  0  0  0  0  0  0  0
   -4.4425  -32.6542    0.0000 C   0  0  0  0  0  0  0  0  0  0  0  0
   -2.9835  -33.0027    0.0000 C   0  0  0  0  0  0  0  0  0  0  0  0
   -1.4984  -33.2130    0.0000 C   0  0  0  0  0  0  0  0  0  0  0  0
   -0.0000  -33.2833    0.0000 C   0  0  0  0  0  0  0  0  0  0  0  0
    1.4984  -33.2130    0.0000 C   0  0  0  0  0  0  0  0  0  0  0  0
    2.9835  -33.0027    0.0000 C   0  0  0  0  0  0  0  0  0  0  0  0
    4.4425  -32.6542    0.0000 C   0  0  0  0  0  0  0  0  0  0  0  0
    5.8624  -32.1707    0.0000 C   0  0  0  0  0  0  0  0  0  0  0  0
    7.2308  -31.5563    0.0000 C   0  0  0  0  0  0  0  0  0  0  0  0
    8.5357  -30.8165    0.0000 C   0  0  0  0  0  0  0  0  0  0  0  0
    9.7655  -29.9577    0.0000 C   0  0  0  0  0  0  0  0  0  0  0  0
   10.9096  -28.9876    0.0000 C   0  0  0  0  0  0  0  0  0  0  0  0
   11.9577  -27.9146    0.0000 C   0  0  0  0  0  0  0  0  0  0  0  0
   12.9008  -26.7481    0.0000 C   0  0  0  0  0  0  0  0  0  0  0  0
   13.7305  -25.4985    0.0000 C   0  0  0  0  0  0  0  0  0  0  0  0
   14.4395  -24.1766    0.0000 C   0  0  0  0  0  0  0  0  0  0  0  0
   15.0217  -22.7942    0.0000 C   0  0  0  0  0  0  0  0  0  0  0  0
   15.4718  -21.3633    0.0000 C   0  0  0  0  0  0  0  0  0  0  0  0
   15.7859  -19.8966    0.0000 C   0  0  0  0  0  0  0  0  0  0  0  0
   15.9614  -18.4069    0.0000 C   0  0  0  0  0  0  0  0  0  0  0  0
   15.9965  -16.9073    0.0000 C   0  0  0  0  0  0  0  0  0  0  0  0
   15.8911  -15.4110    0.0000 N   0  0  0  0  0  0  0  0  0  0  0  0
   15.6461  -13.9311    0.0000 C   0  0  0  0  0  0  0  0  0  0  0  0
   15.2635  -12.4808    0.0000 C   0  0  0  0  0  0  0  0  0  0  0  0
   14.7468  -11.0726    0.0000 C   0  0  0  0  0  0  0  0  0  0  0  0
   14.1005   -9.7189    0.0000 C   0  0  0  0  0  0  0  0  0  0  0  0
   13.3303   -8.4318    0.0000 C   0  0  0  0  0  0  0  0  0  0  0  0
   12.4429   -7.2224    0.0000 C   0  0  0  0  0  0  0  0  0  0  0  0
   11.4462   -6.1014    0.0000 C   0  0  0  0  0  0  0  0  0  0  0  0
   10.3489   -5.0787    0.0000 C   0  0  0  0  0  0  0  0  0  0  0  0
    9.1607   -4.1632    0.0000 C   0  0  0  0  0  0  0  0  0  0  0  0
    7.8919   -3.3631    0.0000 C   0  0  0  0  0  0  0  0  0  0  0  0
    6.5538   -2.6852    0.0000 C   0  0  0  0  0  0  0  0  0  0  0  0
    5.1581   -2.1357    0.0000 C   0  0  0  0  0  0  0  0  0  0  0  0
    3.7171   -1.7192    0.0000 C   0  0  0  0  0  0  0  0  0  0  0  0
    2.2434   -1.4395    0.0000 C   0  0  0  0  0  0  0  0  0  0  0  0
    0.7500   -1.2990    0.0000 C   0  0  0  0  0  0  0  0  0  0  0  0
    1.5000    0.0000    0.0000 C   0  0  0  0  0  0  0  0  0  0  0  0
    0.7500    1.2990    0.0000 C   0  0  0  0  0  0  0  0  0  0  0  0
   -0.7500    1.2990    0.0000 C   0  0  0  0  0  0  0  0  0  0  0  0
   -1.5000    0.0000    0.0000 C   0  0  0  0  0  0  0  0  0  0  0  0
   -0.7500   -1.2990    0.0000 C   0  0  0  0  0  0  0  0  0  0  0  0
   -2.2434   -1.4395    0.0000 C   0  0  0  0  0  0  0  0  0  0  0  0
   -1.2643   -2.5759    0.0000 C   0  0  0  0  0  0  0  0  0  0  0  0
   -1.7590   -3.9920    0.0000 C   0  0  0  0  0  0  0  0  0  0  0  0
   -3.2327   -4.2717    0.0000 C   0  0  0  0  0  0  0  0  0  0  0  0
   -4.2117   -3.1353    0.0000 C   0  0  0  0  0  0  0  0  0  0  0  0
   -3.7171   -1.7192    0.0000 C   0  0  0  0  0  0  0  0  0  0  0  0
   -5.1581   -2.1357    0.0000 C   0  0  0  0  0  0  0  0  0  0  0  0
   -4.9362   -0.6522    0.0000 C   0  0  0  0  0  0  0  0  0  0  0  0
   -6.1100    0.2818    0.0000 C   0  0  0  0  0  0  0  0  0  0  0  0
   -7.5057   -0.2678    0.0000 C   0  0  0  0  0  0  0  0  0  0  0  0
   -7.7276   -1.7513    0.0000 C   0  0  0  0  0  0  0  0  0  0  0  0
   -6.5538   -2.6852    0.0000 C   0  0  0  0  0  0  0  0  0  0  0  0
  1  2  1  0
  2  3  1  0
  3  4  1  0
  4  5  2  0
  5  6  1  0
  6  7  1  0
  7  8  1  0
  8  9  1  0
  9 10  1  0
 10 11  1  0
 11 12  1  0
 12 13  1  0
 13 14  1  0
 14 15  1  0
 15 16  1  0
 16 17  1  0
 17 18  1  0
 18 19  1  0
 19 20  1  0
 20 21  1  0
 21 22  1  0
 22 23  1  0
 23 24  1  0
 24 25  1  0
 25 26  1  0
 26 27  1  0
 27 28  1  0
 28 29  1  0
 29 30  1  0
 30 31  1  0
 31 32  1  0
 32 33  1  0
 33 34  1  0
 34 35  1  0
 35 36  1  0
 36 37  1  0
 37 38  1  0
 38 39  1  0
 39 40  1  0
 40 41  1  0
 41 42  1  0
 42 43  1  0
 43 44  1  0
 44 45  1  0
 45 46  1  0
 46 47  1  0
 47 48  1  0
 48 49  1  0
 49 50  1  0
 50 51  1  0
 51 52  1  0
 52 53  1  0
 53 54  1  0
 54 55  1  0
 55 56  1  0
 56 57  1  0
 57 58  1  0
 58 59  1  0
 59 60  1  0
 60 61  2  0
 61 62  1  0
 62 63  2  0
 63 64  1  0
 64 65  2  0
 65 66  1  0
 66 67  1  0
 67 68  1  0
 68 69  1  0
 69 70  2  0
 70 71  1  0
 71 72  2  0
 72 73  1  0
 73 74  2  0
 74 75  1  0
 75 76  2  0
 76 77  1  0
 77 78  2  0
 78 79  1  0
 79 80  2  0
 80 81  1  0
 81 82  2  0
 82  4  1  0
 70 65  1  0
 76 71  1  0
 82 77  1  0
M  END
>  <Title>  (232) 
idAAGZgen9

$$$$

     RDKit          2D

 38 43  0  0  0  0  0  0  0  0999 V2000
    3.1097   -7.2078    0.0000 C   0  0  0  0  0  0  0  0  0  0  0  0
    2.0490   -6.1471    0.0000 C   0  0  0  0  0  0  0  0  0  0  0  0
    2.7990   -4.8481    0.0000 C   0  0  0  0  0  0  0  0  0  0  0  0
    2.7990   -3.3481    0.0000 C   0  0  0  0  0  0  0  0  0  0  0  0
    2.0490   -2.0490    0.0000 C   0  0  0  0  0  0  0  0  0  0  0  0
    3.1097   -0.9884    0.0000 C   0  0  0  0  0  0  0  0  0  0  0  0
    2.7215    0.4605    0.0000 O   0  0  0  0  0  0  0  0  0  0  0  0
    4.5586   -1.3766    0.0000 N   0  0  0  0  0  0  0  0  0  0  0  0
    5.6192   -0.3159    0.0000 C   0  0  0  0  0  0  0  0  0  0  0  0
    7.0681   -0.7042    0.0000 N   0  0  0  0  0  0  0  0  0  0  0  0
    8.1288    0.3565    0.0000 N   0  0  0  0  0  0  0  0  0  0  0  0
    7.7406    1.8054    0.0000 N   0  0  0  0  0  0  0  0  0  0  0  0
    6.2917    2.1936    0.0000 N   0  0  0  0  0  0  0  0  0  0  0  0
    5.2310    1.1329    0.0000 N   0  0  0  0  0  0  0  0  0  0  0  0
    0.7500   -1.2990    0.0000 C   0  0  0  0  0  0  0  0  0  0  0  0
    1.5000    0.0000    0.0000 C   0  0  0  0  0  0  0  0  0  0  0  0
    0.7500    1.2990    0.0000 C   0  0  0  0  0  0  0  0  0  0  0  0
   -0.7500    1.2990    0.0000 C   0  0  0  0  0  0  0  0  0  0  0  0
   -1.5000    0.0000    0.0000 C   0  0  0  0  0  0  0  0  0  0  0  0
   -0.7500   -1.2990    0.0000 C   0  0  0  0  0  0  0  0  0  0  0  0
   -2.0490   -2.0490    0.0000 C   0  0  0  0  0  0  0  0  0  0  0  0
   -2.7990   -0.7500    0.0000 C   0  0  0  0  0  0  0  0  0  0  0  0
   -4.2990   -0.7500    0.0000 C   0  0  0  0  0  0  0  0  0  0  0  0
   -5.0490   -2.0490    0.0000 C   0  0  0  0  0  0  0  0  0  0  0  0
   -4.2990   -3.3481    0.0000 C   0  0  0  0  0  0  0  0  0  0  0  0
   -2.7990   -3.3481    0.0000 C   0  0  0  0  0  0  0  0  0  0  0  0
   -2.7990   -4.8481    0.0000 C   0  0  0  0  0  0  0  0  0  0  0  0
   -4.2990   -4.8481    0.0000 C   0  0  0  0  0  0  0  0  0  0  0  0
   -5.0490   -6.1471    0.0000 C   0  0  0  0  0  0  0  0  0  0  0  0
   -4.2990   -7.4462    0.0000 C   0  0  0  0  0  0  0  0  0  0  0  0
   -2.7990   -7.4462    0.0000 C   0  0  0  0  0  0  0  0  0  0  0  0
   -2.0490   -6.1471    0.0000 C   0  0  0  0  0  0  0  0  0  0  0  0
   -0.7500   -6.8971    0.0000 C   0  0  0  0  0  0  0  0  0  0  0  0
   -1.5000   -8.1962    0.0000 C   0  0  0  0  0  0  0  0  0  0  0  0
   -0.7500   -9.4952    0.0000 C   0  0  0  0  0  0  0  0  0  0  0  0
    0.7500   -9.4952    0.0000 C   0  0  0  0  0  0  0  0  0  0  0  0
    1.5000   -8.1962    0.0000 C   0  0  0  0  0  0  0  0  0  0  0  0
    0.7500   -6.8971    0.0000 C   0  0  0  0  0  0  0  0  0  0  0  0
  1  2  1  0
  2  3  2  0
  3  4  1  0
  4  5  1  0
  5  6  1  0
  6  7  2  0
  6  8  1  0
  8  9  1  0
  9 10  2  0
 10 11  1  0
 11 12  2  0
 12 13  1  0
 13 14  2  0
  5 15  1  0
 15 16  2  0
 16 17  1  0
 17 18  2  0
 18 19  1  0
 19 20  2  0
 20 21  1  0
 21 22  2  0
 22 23  1  0
 23 24  2  0
 24 25  1  0
 25 26  2  0
 26 27  1  0
 27 28  2  0
 28 29  1  0
 29 30  2  0
 30 31  1  0
 31 32  2  0
 32 33  1  0
 33 34  2  0
 34 35  1  0
 35 36  2  0
 36 37  1  0
 37 38  2  0
 38  2  1  0
 14  9  1  0
 20 15  1  0
 26 21  1  0
 32 27  1  0
 38 33  1  0
M  END
>  <Title>  (233) 
idAAHAgen9

$$$$

     RDKit          2D

 34 34  0  0  0  0  0  0  0  0999 V2000
    9.3901    0.0000    0.0000 C   0  0  0  0  0  0  0  0  0  0  0  0
    7.8901    0.0000    0.0000 C   0  0  0  0  0  0  0  0  0  0  0  0
    7.7475    1.4932    0.0000 C   0  0  0  0  0  0  0  0  0  0  0  0
    7.3249    2.9324    0.0000 C   0  0  0  0  0  0  0  0  0  0  0  0
    6.6376    4.2657    0.0000 C   0  0  0  0  0  0  0  0  0  0  0  0
    5.7103    5.4448    0.0000 C   0  0  0  0  0  0  0  0  0  0  0  0
    4.5767    6.4271    0.0000 C   0  0  0  0  0  0  0  0  0  0  0  0
    3.2777    7.1771    0.0000 C   0  0  0  0  0  0  0  0  0  0  0  0
    1.8602    7.6677    0.0000 C   0  0  0  0  0  0  0  0  0  0  0  0
    0.3754    7.8811    0.0000 C   0  0  0  0  0  0  0  0  0  0  0  0
   -1.1229    7.8098    0.0000 C   0  0  0  0  0  0  0  0  0  0  0  0
   -2.5806    7.4561    0.0000 C   0  0  0  0  0  0  0  0  0  0  0  0
   -3.9450    6.8330    0.0000 C   0  0  0  0  0  0  0  0  0  0  0  0
   -5.1669    5.9629    0.0000 C   0  0  0  0  0  0  0  0  0  0  0  0
   -6.2020    4.8773    0.0000 C   0  0  0  0  0  0  0  0  0  0  0  0
   -7.0130    3.6154    0.0000 C   0  0  0  0  0  0  0  0  0  0  0  0
   -7.5705    2.2229    0.0000 C   0  0  0  0  0  0  0  0  0  0  0  0
   -7.8544    0.7500    0.0000 C   0  0  0  0  0  0  0  0  0  0  0  0
   -7.8544   -0.7500    0.0000 C   0  0  0  0  0  0  0  0  0  0  0  0
   -7.5705   -2.2229    0.0000 C   0  0  0  0  0  0  0  0  0  0  0  0
   -7.0130   -3.6154    0.0000 C   0  0  0  0  0  0  0  0  0  0  0  0
   -6.2020   -4.8773    0.0000 C   0  0  0  0  0  0  0  0  0  0  0  0
   -5.1669   -5.9629    0.0000 C   0  0  0  0  0  0  0  0  0  0  0  0
   -3.9450   -6.8330    0.0000 C   0  0  0  0  0  0  0  0  0  0  0  0
   -2.5806   -7.4561    0.0000 C   0  0  0  0  0  0  0  0  0  0  0  0
   -1.1229   -7.8098    0.0000 C   0  0  0  0  0  0  0  0  0  0  0  0
    0.3754   -7.8811    0.0000 C   0  0  0  0  0  0  0  0  0  0  0  0
    1.8602   -7.6677    0.0000 C   0  0  0  0  0  0  0  0  0  0  0  0
    3.2777   -7.1771    0.0000 C   0  0  0  0  0  0  0  0  0  0  0  0
    4.5767   -6.4271    0.0000 C   0  0  0  0  0  0  0  0  0  0  0  0
    5.7103   -5.4448    0.0000 C   0  0  0  0  0  0  0  0  0  0  0  0
    6.6376   -4.2657    0.0000 C   0  0  0  0  0  0  0  0  0  0  0  0
    7.3249   -2.9324    0.0000 C   0  0  0  0  0  0  0  0  0  0  0  0
    7.7475   -1.4932    0.0000 C   0  0  0  0  0  0  0  0  0  0  0  0
  1  2  1  0
  2  3  1  0
  3  4  1  0
  4  5  1  0
  5  6  1  0
  6  7  1  0
  7  8  1  0
  8  9  1  0
  9 10  1  0
 10 11  1  0
 11 12  1  0
 12 13  1  0
 13 14  1  0
 14 15  1  0
 15 16  1  0
 16 17  1  0
 17 18  1  0
 18 19  1  0
 19 20  1  0
 20 21  1  0
 21 22  1  0
 22 23  1  0
 23 24  1  0
 24 25  1  0
 25 26  1  0
 26 27  1  0
 27 28  1  0
 28 29  1  0
 29 30  1  0
 30 31  1  0
 31 32  1  0
 32 33  1  0
 33 34  1  0
 34  2  1  0
M  END
>  <Title>  (234) 
idAAHBgen9

$$$$

     RDKit          2D

 17 19  0  0  0  0  0  0  0  0999 V2000
    3.6964    6.0835    0.0000 N   0  0  0  0  0  0  0  0  0  0  0  0
    2.6761    4.9840    0.0000 C   0  0  0  0  0  0  0  0  0  0  0  0
    1.6559    3.8844    0.0000 C   0  0  0  0  0  0  0  0  0  0  0  0
    2.0980    2.4510    0.0000 C   0  0  0  0  0  0  0  0  0  0  0  0
    1.0777    1.3515    0.0000 C   0  0  0  0  0  0  0  0  0  0  0  0
    1.7286    0.0000    0.0000 C   0  0  0  0  0  0  0  0  0  0  0  0
    1.0777   -1.3515    0.0000 C   0  0  0  0  0  0  0  0  0  0  0  0
   -0.3846   -1.6852    0.0000 C   0  0  0  0  0  0  0  0  0  0  0  0
   -1.5574   -0.7500    0.0000 C   0  0  0  0  0  0  0  0  0  0  0  0
   -1.5574    0.7500    0.0000 C   0  0  0  0  0  0  0  0  0  0  0  0
   -0.3846    1.6852    0.0000 C   0  0  0  0  0  0  0  0  0  0  0  0
   -0.8268    3.1186    0.0000 C   0  0  0  0  0  0  0  0  0  0  0  0
   -2.2892    3.4524    0.0000 C   0  0  0  0  0  0  0  0  0  0  0  0
   -2.7313    4.8857    0.0000 C   0  0  0  0  0  0  0  0  0  0  0  0
   -1.7110    5.9853    0.0000 C   0  0  0  0  0  0  0  0  0  0  0  0
   -0.2487    5.6515    0.0000 C   0  0  0  0  0  0  0  0  0  0  0  0
    0.1935    4.2182    0.0000 C   0  0  0  0  0  0  0  0  0  0  0  0
  1  2  3  0
  2  3  1  0
  3  4  2  0
  4  5  1  0
  5  6  1  0
  6  7  1  0
  7  8  1  0
  8  9  1  0
  9 10  1  0
 10 11  2  0
 11 12  1  0
 12 13  2  0
 13 14  1  0
 14 15  2  0
 15 16  1  0
 16 17  2  0
 17  3  1  0
 11  5  1  0
 17 12  1  0
M  END
>  <Title>  (235) 
idAAHCgen9

$$$$

     RDKit          2D

 13 13  0  0  0  0  0  0  0  0999 V2000
   12.5260   -1.2990    0.0000 C   0  0  0  0  0  0  0  0  0  0  0  0
   11.7760   -0.0000    0.0000 C   0  0  0  0  0  0  0  0  0  0  0  0
   10.2760   -0.0000    0.0000 C   0  0  0  0  0  0  0  0  0  0  0  0
    8.7760   -0.0000    0.0000 C   0  0  0  0  0  0  0  0  0  0  0  0
    7.2760   -0.0000    0.0000 C   0  0  0  0  0  0  0  0  0  0  0  0
    5.7760   -0.0000    0.0000 C   0  0  0  0  0  0  0  0  0  0  0  0
    4.2760   -0.0000    0.0000 C   0  0  0  0  0  0  0  0  0  0  0  0
    2.7760    0.0000    0.0000 C   0  0  0  0  0  0  0  0  0  0  0  0
    1.2760    0.0000    0.0000 C   0  0  0  0  0  0  0  0  0  0  0  0
    0.3943    1.2135    0.0000 C   0  0  0  0  0  0  0  0  0  0  0  0
   -1.0323    0.7500    0.0000 C   0  0  0  0  0  0  0  0  0  0  0  0
   -1.0323   -0.7500    0.0000 C   0  0  0  0  0  0  0  0  0  0  0  0
    0.3943   -1.2135    0.0000 C   0  0  0  0  0  0  0  0  0  0  0  0
  1  2  2  0
  2  3  1  0
  3  4  3  0
  4  5  1  0
  5  6  3  0
  6  7  1  0
  7  8  3  0
  8  9  1  0
  9 10  2  0
 10 11  1  0
 11 12  1  0
 12 13  2  0
 13  9  1  0
M  END
>  <Title>  (236) 
idAAHDgen9

$$$$

     RDKit          2D

 92 92  0  0  0  0  0  0  0  0999 V2000
   22.5129   -2.5981    0.0000 O   0  0  0  0  0  0  0  0  0  0  0  0
   23.2629   -1.2990    0.0000 C   0  0  0  0  0  0  0  0  0  0  0  0
   24.7629   -1.2990    0.0000 O   0  0  0  0  0  0  0  0  0  0  0  0
   22.5129    0.0000    0.0000 O   0  0  0  0  0  0  0  0  0  0  0  0
   21.0129    0.0000    0.0000 C   0  0  0  0  0  0  0  0  0  0  0  0
   20.9594   -1.4990    0.0000 C   0  0  0  0  0  0  0  0  0  0  0  0
   20.7990   -2.9904    0.0000 C   0  0  0  0  0  0  0  0  0  0  0  0
   20.5327   -4.4666    0.0000 C   0  0  0  0  0  0  0  0  0  0  0  0
   20.1617   -5.9200    0.0000 C   0  0  0  0  0  0  0  0  0  0  0  0
   19.6880   -7.3433    0.0000 C   0  0  0  0  0  0  0  0  0  0  0  0
   19.1140   -8.7291    0.0000 C   0  0  0  0  0  0  0  0  0  0  0  0
   18.4426  -10.0704    0.0000 C   0  0  0  0  0  0  0  0  0  0  0  0
   17.6772  -11.3604    0.0000 C   0  0  0  0  0  0  0  0  0  0  0  0
   16.8217  -12.5926    0.0000 C   0  0  0  0  0  0  0  0  0  0  0  0
   15.8805  -13.7605    0.0000 C   0  0  0  0  0  0  0  0  0  0  0  0
   14.8584  -14.8584    0.0000 C   0  0  0  0  0  0  0  0  0  0  0  0
   13.7605  -15.8805    0.0000 C   0  0  0  0  0  0  0  0  0  0  0  0
   12.5926  -16.8217    0.0000 C   0  0  0  0  0  0  0  0  0  0  0  0
   11.3604  -17.6772    0.0000 C   0  0  0  0  0  0  0  0  0  0  0  0
   10.0704  -18.4426    0.0000 C   0  0  0  0  0  0  0  0  0  0  0  0
    8.7291  -19.1140    0.0000 C   0  0  0  0  0  0  0  0  0  0  0  0
    7.3433  -19.6880    0.0000 C   0  0  0  0  0  0  0  0  0  0  0  0
    5.9200  -20.1617    0.0000 C   0  0  0  0  0  0  0  0  0  0  0  0
    4.4666  -20.5327    0.0000 C   0  0  0  0  0  0  0  0  0  0  0  0
    2.9904  -20.7990    0.0000 C   0  0  0  0  0  0  0  0  0  0  0  0
    1.4990  -20.9594    0.0000 C   0  0  0  0  0  0  0  0  0  0  0  0
   -0.0000  -21.0129    0.0000 C   0  0  0  0  0  0  0  0  0  0  0  0
   -1.4990  -20.9594    0.0000 C   0  0  0  0  0  0  0  0  0  0  0  0
   -2.9904  -20.7990    0.0000 C   0  0  0  0  0  0  0  0  0  0  0  0
   -4.4666  -20.5327    0.0000 C   0  0  0  0  0  0  0  0  0  0  0  0
   -5.9200  -20.1617    0.0000 C   0  0  0  0  0  0  0  0  0  0  0  0
   -7.3433  -19.6880    0.0000 C   0  0  0  0  0  0  0  0  0  0  0  0
   -8.7291  -19.1140    0.0000 C   0  0  0  0  0  0  0  0  0  0  0  0
  -10.0704  -18.4426    0.0000 C   0  0  0  0  0  0  0  0  0  0  0  0
  -11.3604  -17.6772    0.0000 C   0  0  0  0  0  0  0  0  0  0  0  0
  -12.5926  -16.8217    0.0000 C   0  0  0  0  0  0  0  0  0  0  0  0
  -13.7605  -15.8805    0.0000 C   0  0  0  0  0  0  0  0  0  0  0  0
  -14.8584  -14.8584    0.0000 C   0  0  0  0  0  0  0  0  0  0  0  0
  -15.8805  -13.7605    0.0000 C   0  0  0  0  0  0  0  0  0  0  0  0
  -16.8217  -12.5926    0.0000 C   0  0  0  0  0  0  0  0  0  0  0  0
  -17.6772  -11.3604    0.0000 C   0  0  0  0  0  0  0  0  0  0  0  0
  -18.4426  -10.0704    0.0000 C   0  0  0  0  0  0  0  0  0  0  0  0
  -19.1140   -8.7291    0.0000 C   0  0  0  0  0  0  0  0  0  0  0  0
  -19.6880   -7.3433    0.0000 C   0  0  0  0  0  0  0  0  0  0  0  0
  -20.1617   -5.9200    0.0000 C   0  0  0  0  0  0  0  0  0  0  0  0
  -20.5327   -4.4666    0.0000 C   0  0  0  0  0  0  0  0  0  0  0  0
  -20.7990   -2.9904    0.0000 C   0  0  0  0  0  0  0  0  0  0  0  0
  -20.9594   -1.4990    0.0000 C   0  0  0  0  0  0  0  0  0  0  0  0
  -21.0129    0.0000    0.0000 C   0  0  0  0  0  0  0  0  0  0  0  0
  -20.9594    1.4990    0.0000 C   0  0  0  0  0  0  0  0  0  0  0  0
  -20.7990    2.9904    0.0000 C   0  0  0  0  0  0  0  0  0  0  0  0
  -20.5327    4.4666    0.0000 C   0  0  0  0  0  0  0  0  0  0  0  0
  -20.1617    5.9200    0.0000 C   0  0  0  0  0  0  0  0  0  0  0  0
  -19.6880    7.3433    0.0000 C   0  0  0  0  0  0  0  0  0  0  0  0
  -19.1140    8.7291    0.0000 C   0  0  0  0  0  0  0  0  0  0  0  0
  -18.4426   10.0704    0.0000 C   0  0  0  0  0  0  0  0  0  0  0  0
  -17.6772   11.3604    0.0000 C   0  0  0  0  0  0  0  0  0  0  0  0
  -16.8217   12.5926    0.0000 C   0  0  0  0  0  0  0  0  0  0  0  0
  -15.8805   13.7605    0.0000 C   0  0  0  0  0  0  0  0  0  0  0  0
  -14.8584   14.8584    0.0000 C   0  0  0  0  0  0  0  0  0  0  0  0
  -13.7605   15.8805    0.0000 C   0  0  0  0  0  0  0  0  0  0  0  0
  -12.5926   16.8217    0.0000 C   0  0  0  0  0  0  0  0  0  0  0  0
  -11.3604   17.6772    0.0000 C   0  0  0  0  0  0  0  0  0  0  0  0
  -10.0704   18.4426    0.0000 C   0  0  0  0  0  0  0  0  0  0  0  0
   -8.7291   19.1140    0.0000 C   0  0  0  0  0  0  0  0  0  0  0  0
   -7.3433   19.6880    0.0000 C   0  0  0  0  0  0  0  0  0  0  0  0
   -5.9200   20.1617    0.0000 C   0  0  0  0  0  0  0  0  0  0  0  0
   -4.4666   20.5327    0.0000 C   0  0  0  0  0  0  0  0  0  0  0  0
   -2.9904   20.7990    0.0000 C   0  0  0  0  0  0  0  0  0  0  0  0
   -1.4990   20.9594    0.0000 C   0  0  0  0  0  0  0  0  0  0  0  0
    0.0000   21.0129    0.0000 C   0  0  0  0  0  0  0  0  0  0  0  0
    1.4990   20.9594    0.0000 C   0  0  0  0  0  0  0  0  0  0  0  0
    2.9904   20.7990    0.0000 C   0  0  0  0  0  0  0  0  0  0  0  0
    4.4666   20.5327    0.0000 C   0  0  0  0  0  0  0  0  0  0  0  0
    5.9200   20.1617    0.0000 C   0  0  0  0  0  0  0  0  0  0  0  0
    7.3433   19.6880    0.0000 C   0  0  0  0  0  0  0  0  0  0  0  0
    8.7291   19.1140    0.0000 C   0  0  0  0  0  0  0  0  0  0  0  0
   10.0704   18.4426    0.0000 C   0  0  0  0  0  0  0  0  0  0  0  0
   11.3604   17.6772    0.0000 C   0  0  0  0  0  0  0  0  0  0  0  0
   12.5926   16.8217    0.0000 C   0  0  0  0  0  0  0  0  0  0  0  0
   13.7605   15.8805    0.0000 C   0  0  0  0  0  0  0  0  0  0  0  0
   14.8584   14.8584    0.0000 C   0  0  0  0  0  0  0  0  0  0  0  0
   15.8805   13.7605    0.0000 C   0  0  0  0  0  0  0  0  0  0  0  0
   16.8217   12.5926    0.0000 C   0  0  0  0  0  0  0  0  0  0  0  0
   17.6772   11.3604    0.0000 C   0  0  0  0  0  0  0  0  0  0  0  0
   18.4426   10.0704    0.0000 C   0  0  0  0  0  0  0  0  0  0  0  0
   19.1140    8.7291    0.0000 C   0  0  0  0  0  0  0  0  0  0  0  0
   19.6880    7.3433    0.0000 C   0  0  0  0  0  0  0  0  0  0  0  0
   20.1617    5.9200    0.0000 C   0  0  0  0  0  0  0  0  0  0  0  0
   20.5327    4.4666    0.0000 C   0  0  0  0  0  0  0  0  0  0  0  0
   20.7990    2.9904    0.0000 C   0  0  0  0  0  0  0  0  0  0  0  0
   20.9594    1.4990    0.0000 C   0  0  0  0  0  0  0  0  0  0  0  0
  1  2  2  0
  2  3  1  0
  2  4  1  0
  4  5  1  0
  5  6  1  0
  6  7  2  0
  7  8  1  0
  8  9  1  0
  9 10  1  0
 10 11  1  0
 11 12  1  0
 12 13  1  0
 13 14  1  0
 14 15  1  0
 15 16  1  0
 16 17  1  0
 17 18  1  0
 18 19  1  0
 19 20  1  0
 20 21  1  0
 21 22  1  0
 22 23  1  0
 23 24  1  0
 24 25  1  0
 25 26  1  0
 26 27  1  0
 27 28  1  0
 28 29  1  0
 29 30  1  0
 30 31  1  0
 31 32  1  0
 32 33  1  0
 33 34  1  0
 34 35  1  0
 35 36  1  0
 36 37  1  0
 37 38  1  0
 38 39  1  0
 39 40  1  0
 40 41  1  0
 41 42  1  0
 42 43  1  0
 43 44  1  0
 44 45  1  0
 45 46  1  0
 46 47  1  0
 47 48  1  0
 48 49  1  0
 49 50  1  0
 50 51  1  0
 51 52  1  0
 52 53  1  0
 53 54  1  0
 54 55  1  0
 55 56  1  0
 56 57  1  0
 57 58  1  0
 58 59  1  0
 59 60  1  0
 60 61  1  0
 61 62  1  0
 62 63  1  0
 63 64  1  0
 64 65  1  0
 65 66  1  0
 66 67  1  0
 67 68  1  0
 68 69  1  0
 69 70  1  0
 70 71  1  0
 71 72  1  0
 72 73  1  0
 73 74  1  0
 74 75  1  0
 75 76  1  0
 76 77  1  0
 77 78  1  0
 78 79  1  0
 79 80  1  0
 80 81  1  0
 81 82  1  0
 82 83  1  0
 83 84  1  0
 84 85  1  0
 85 86  1  0
 86 87  1  0
 87 88  1  0
 88 89  1  0
 89 90  1  0
 90 91  1  0
 91 92  1  0
 92  5  1  0
M  END
>  <Title>  (237) 
idAAHEgen9

$$$$

     RDKit          2D

 18 19  0  0  0  0  0  0  0  0999 V2000
    2.7760    0.0000    0.0000 C   0  0  0  0  0  0  0  0  0  0  0  0
    1.2760    0.0000    0.0000 C   0  0  0  0  0  0  0  0  0  0  0  0
    0.3943    1.2135    0.0000 C   0  0  0  0  0  0  0  0  0  0  0  0
   -1.0323    0.7500    0.0000 C   0  0  0  0  0  0  0  0  0  0  0  0
   -2.2458    1.6317    0.0000 O   0  0  0  0  0  0  0  0  0  0  0  0
   -1.0323   -0.7500    0.0000 C   0  0  0  0  0  0  0  0  0  0  0  0
   -2.2458   -1.6317    0.0000 O   0  0  0  0  0  0  0  0  0  0  0  0
    0.3943   -1.2135    0.0000 N   0  0  0  0  0  0  0  0  0  0  0  0
    0.8578   -2.6401    0.0000 C   0  0  0  0  0  0  0  0  0  0  0  0
   -0.1459   -3.7548    0.0000 C   0  0  0  0  0  0  0  0  0  0  0  0
    0.3177   -5.1814    0.0000 C   0  0  0  0  0  0  0  0  0  0  0  0
    1.7849   -5.4933    0.0000 O   0  0  0  0  0  0  0  0  0  0  0  0
   -0.6860   -6.2961    0.0000 N   0  0  0  0  0  0  0  0  0  0  0  0
   -0.2225   -7.7227    0.0000 C   0  0  0  0  0  0  0  0  0  0  0  0
    1.2041   -8.1862    0.0000 C   0  0  0  0  0  0  0  0  0  0  0  0
    1.2041   -9.6862    0.0000 C   0  0  0  0  0  0  0  0  0  0  0  0
   -0.2225  -10.1498    0.0000 C   0  0  0  0  0  0  0  0  0  0  0  0
   -1.1042   -8.9362    0.0000 C   0  0  0  0  0  0  0  0  0  0  0  0
  1  2  1  0
  2  3  2  0
  3  4  1  0
  4  5  1  0
  4  6  1  0
  6  7  1  0
  6  8  1  0
  8  9  1  0
  9 10  1  0
 10 11  1  0
 11 12  2  0
 11 13  1  0
 13 14  1  0
 14 15  2  0
 15 16  1  0
 16 17  2  0
 17 18  1  0
  8  2  1  0
 18 14  1  0
M  END
>  <Title>  (238) 
idAAHFgen9

$$$$

     RDKit          2D

  8  7  0  0  0  0  0  0  0  0999 V2000
    0.0000    0.0000    0.0000 C   0  0  0  0  0  0  0  0  0  0  0  0
   -0.0000   -1.5000    0.0000 C   0  0  0  0  0  0  0  0  0  0  0  0
   -0.0000   -3.0000    0.0000 C   0  0  0  0  0  0  0  0  0  0  0  0
   -0.0000   -4.5000    0.0000 C   0  0  0  0  0  0  0  0  0  0  0  0
   -0.0000   -6.0000    0.0000 C   0  0  0  0  0  0  0  0  0  0  0  0
   -0.0000   -7.5000    0.0000 C   0  0  0  0  0  0  0  0  0  0  0  0
   -0.0000   -9.0000    0.0000 C   0  0  0  0  0  0  0  0  0  0  0  0
    1.2990   -9.7500    0.0000 O   0  0  0  0  0  0  0  0  0  0  0  0
  1  2  3  0
  2  3  1  0
  3  4  3  0
  4  5  1  0
  5  6  3  0
  6  7  1  0
  7  8  1  0
M  END
>  <Title>  (239) 
idAAHGgen9

$$$$

     RDKit          2D

 16 17  0  0  0  0  0  0  0  0999 V2000
    1.6910  -10.5537    0.0000 C   0  0  0  0  0  0  0  0  0  0  0  0
    1.8478   -9.0619    0.0000 C   0  0  0  0  0  0  0  0  0  0  0  0
    2.0046   -7.5702    0.0000 C   0  0  0  0  0  0  0  0  0  0  0  0
    3.3037   -6.8202    0.0000 C   0  0  0  0  0  0  0  0  0  0  0  0
    2.9918   -5.3529    0.0000 C   0  0  0  0  0  0  0  0  0  0  0  0
    1.5000   -5.1962    0.0000 C   0  0  0  0  0  0  0  0  0  0  0  0
    0.7500   -3.8971    0.0000 C   0  0  0  0  0  0  0  0  0  0  0  0
   -0.7500   -3.8971    0.0000 O   0  0  0  0  0  0  0  0  0  0  0  0
    1.5000   -2.5981    0.0000 N   0  0  0  0  0  0  0  0  0  0  0  0
    0.7500   -1.2990    0.0000 C   0  0  0  0  0  0  0  0  0  0  0  0
    1.5000    0.0000    0.0000 N   0  0  0  0  0  0  0  0  0  0  0  0
    0.7500    1.2990    0.0000 N   0  0  0  0  0  0  0  0  0  0  0  0
   -0.7500    1.2990    0.0000 N   0  0  0  0  0  0  0  0  0  0  0  0
   -1.5000    0.0000    0.0000 N   0  0  0  0  0  0  0  0  0  0  0  0
   -0.7500   -1.2990    0.0000 N   0  0  0  0  0  0  0  0  0  0  0  0
    0.8899   -6.5665    0.0000 C   0  0  0  0  0  0  0  0  0  0  0  0
  1  2  3  0
  2  3  1  0
  3  4  1  0
  4  5  1  0
  5  6  1  0
  6  7  1  0
  7  8  2  0
  7  9  1  0
  9 10  1  0
 10 11  2  0
 11 12  1  0
 12 13  2  0
 13 14  1  0
 14 15  2  0
  6 16  1  0
 16  3  1  0
 15 10  1  0
M  END
>  <Title>  (240) 
idAAHHgen9

$$$$

     RDKit          2D

124124  0  0  0  0  0  0  0  0999 V2000
   30.8673   -0.0000    0.0000 C   0  0  0  0  0  0  0  0  0  0  0  0
   29.3673    0.0000    0.0000 N   0  0  0  0  0  0  0  0  0  0  0  0
   29.3290    1.4995    0.0000 C   0  0  0  0  0  0  0  0  0  0  0  0
   29.2141    2.9951    0.0000 C   0  0  0  0  0  0  0  0  0  0  0  0
   29.0231    4.4829    0.0000 C   0  0  0  0  0  0  0  0  0  0  0  0
   28.7563    5.9590    0.0000 C   0  0  0  0  0  0  0  0  0  0  0  0
   28.4146    7.4195    0.0000 C   0  0  0  0  0  0  0  0  0  0  0  0
   27.9987    8.8607    0.0000 C   0  0  0  0  0  0  0  0  0  0  0  0
   27.5097   10.2788    0.0000 C   0  0  0  0  0  0  0  0  0  0  0  0
   26.9490   11.6700    0.0000 C   0  0  0  0  0  0  0  0  0  0  0  0
   26.3179   13.0308    0.0000 C   0  0  0  0  0  0  0  0  0  0  0  0
   25.6183   14.3577    0.0000 C   0  0  0  0  0  0  0  0  0  0  0  0
   24.8517   15.6470    0.0000 C   0  0  0  0  0  0  0  0  0  0  0  0
   24.0204   16.8955    0.0000 C   0  0  0  0  0  0  0  0  0  0  0  0
   23.1263   18.1000    0.0000 C   0  0  0  0  0  0  0  0  0  0  0  0
   22.1720   19.2572    0.0000 C   0  0  0  0  0  0  0  0  0  0  0  0
   21.1598   20.3642    0.0000 C   0  0  0  0  0  0  0  0  0  0  0  0
   20.0923   21.4181    0.0000 C   0  0  0  0  0  0  0  0  0  0  0  0
   18.9725   22.4161    0.0000 C   0  0  0  0  0  0  0  0  0  0  0  0
   17.8032   23.3556    0.0000 C   0  0  0  0  0  0  0  0  0  0  0  0
   16.5874   24.2342    0.0000 C   0  0  0  0  0  0  0  0  0  0  0  0
   15.3284   25.0495    0.0000 C   0  0  0  0  0  0  0  0  0  0  0  0
   14.0293   25.7995    0.0000 C   0  0  0  0  0  0  0  0  0  0  0  0
   12.6937   26.4822    0.0000 C   0  0  0  0  0  0  0  0  0  0  0  0
   11.3249   27.0958    0.0000 C   0  0  0  0  0  0  0  0  0  0  0  0
    9.9266   27.6387    0.0000 C   0  0  0  0  0  0  0  0  0  0  0  0
    8.5024   28.1095    0.0000 C   0  0  0  0  0  0  0  0  0  0  0  0
    7.0561   28.5070    0.0000 C   0  0  0  0  0  0  0  0  0  0  0  0
    5.5913   28.8301    0.0000 C   0  0  0  0  0  0  0  0  0  0  0  0
    4.1119   29.0780    0.0000 C   0  0  0  0  0  0  0  0  0  0  0  0
    2.6218   29.2500    0.0000 C   0  0  0  0  0  0  0  0  0  0  0  0
    1.1248   29.3457    0.0000 C   0  0  0  0  0  0  0  0  0  0  0  0
   -0.3750   29.3649    0.0000 C   0  0  0  0  0  0  0  0  0  0  0  0
   -1.8739   29.3074    0.0000 C   0  0  0  0  0  0  0  0  0  0  0  0
   -3.3679   29.1735    0.0000 C   0  0  0  0  0  0  0  0  0  0  0  0
   -4.8532   28.9635    0.0000 C   0  0  0  0  0  0  0  0  0  0  0  0
   -6.3257   28.6779    0.0000 C   0  0  0  0  0  0  0  0  0  0  0  0
   -7.7818   28.3175    0.0000 C   0  0  0  0  0  0  0  0  0  0  0  0
   -9.2175   27.8832    0.0000 C   0  0  0  0  0  0  0  0  0  0  0  0
  -10.6293   27.3762    0.0000 C   0  0  0  0  0  0  0  0  0  0  0  0
  -12.0132   26.7977    0.0000 C   0  0  0  0  0  0  0  0  0  0  0  0
  -13.3659   26.1494    0.0000 C   0  0  0  0  0  0  0  0  0  0  0  0
  -14.6836   25.4328    0.0000 C   0  0  0  0  0  0  0  0  0  0  0  0
  -15.9631   24.6499    0.0000 C   0  0  0  0  0  0  0  0  0  0  0  0
  -17.2009   23.8026    0.0000 C   0  0  0  0  0  0  0  0  0  0  0  0
  -18.3939   22.8933    0.0000 C   0  0  0  0  0  0  0  0  0  0  0  0
  -19.5388   21.9242    0.0000 C   0  0  0  0  0  0  0  0  0  0  0  0
  -20.6328   20.8980    0.0000 C   0  0  0  0  0  0  0  0  0  0  0  0
  -21.6729   19.8172    0.0000 C   0  0  0  0  0  0  0  0  0  0  0  0
  -22.6565   18.6847    0.0000 C   0  0  0  0  0  0  0  0  0  0  0  0
  -23.5810   17.5035    0.0000 C   0  0  0  0  0  0  0  0  0  0  0  0
  -24.4440   16.2766    0.0000 C   0  0  0  0  0  0  0  0  0  0  0  0
  -25.2432   15.0072    0.0000 C   0  0  0  0  0  0  0  0  0  0  0  0
  -25.9766   13.6987    0.0000 C   0  0  0  0  0  0  0  0  0  0  0  0
  -26.6422   12.3545    0.0000 C   0  0  0  0  0  0  0  0  0  0  0  0
  -27.2382   10.9780    0.0000 C   0  0  0  0  0  0  0  0  0  0  0  0
  -27.7632    9.5729    0.0000 C   0  0  0  0  0  0  0  0  0  0  0  0
  -28.2158    8.1428    0.0000 C   0  0  0  0  0  0  0  0  0  0  0  0
  -28.5948    6.6914    0.0000 C   0  0  0  0  0  0  0  0  0  0  0  0
  -28.8992    5.2226    0.0000 C   0  0  0  0  0  0  0  0  0  0  0  0
  -29.1281    3.7402    0.0000 C   0  0  0  0  0  0  0  0  0  0  0  0
  -29.2811    2.2480    0.0000 C   0  0  0  0  0  0  0  0  0  0  0  0
  -29.3577    0.7500    0.0000 C   0  0  0  0  0  0  0  0  0  0  0  0
  -29.3577   -0.7500    0.0000 C   0  0  0  0  0  0  0  0  0  0  0  0
  -29.2811   -2.2480    0.0000 C   0  0  0  0  0  0  0  0  0  0  0  0
  -29.1281   -3.7402    0.0000 C   0  0  0  0  0  0  0  0  0  0  0  0
  -28.8992   -5.2226    0.0000 C   0  0  0  0  0  0  0  0  0  0  0  0
  -28.5948   -6.6914    0.0000 C   0  0  0  0  0  0  0  0  0  0  0  0
  -28.2158   -8.1428    0.0000 C   0  0  0  0  0  0  0  0  0  0  0  0
  -27.7632   -9.5729    0.0000 C   0  0  0  0  0  0  0  0  0  0  0  0
  -27.2382  -10.9780    0.0000 C   0  0  0  0  0  0  0  0  0  0  0  0
  -26.6422  -12.3545    0.0000 C   0  0  0  0  0  0  0  0  0  0  0  0
  -25.9766  -13.6987    0.0000 C   0  0  0  0  0  0  0  0  0  0  0  0
  -25.2432  -15.0072    0.0000 C   0  0  0  0  0  0  0  0  0  0  0  0
  -24.4440  -16.2766    0.0000 C   0  0  0  0  0  0  0  0  0  0  0  0
  -23.5810  -17.5035    0.0000 C   0  0  0  0  0  0  0  0  0  0  0  0
  -22.6565  -18.6847    0.0000 C   0  0  0  0  0  0  0  0  0  0  0  0
  -21.6729  -19.8172    0.0000 C   0  0  0  0  0  0  0  0  0  0  0  0
  -20.6328  -20.8980    0.0000 C   0  0  0  0  0  0  0  0  0  0  0  0
  -19.5388  -21.9242    0.0000 C   0  0  0  0  0  0  0  0  0  0  0  0
  -18.3939  -22.8933    0.0000 C   0  0  0  0  0  0  0  0  0  0  0  0
  -17.2009  -23.8026    0.0000 C   0  0  0  0  0  0  0  0  0  0  0  0
  -15.9631  -24.6499    0.0000 C   0  0  0  0  0  0  0  0  0  0  0  0
  -14.6836  -25.4328    0.0000 C   0  0  0  0  0  0  0  0  0  0  0  0
  -13.3659  -26.1494    0.0000 C   0  0  0  0  0  0  0  0  0  0  0  0
  -12.0132  -26.7977    0.0000 C   0  0  0  0  0  0  0  0  0  0  0  0
  -10.6293  -27.3762    0.0000 C   0  0  0  0  0  0  0  0  0  0  0  0
   -9.2175  -27.8832    0.0000 C   0  0  0  0  0  0  0  0  0  0  0  0
   -7.7818  -28.3175    0.0000 C   0  0  0  0  0  0  0  0  0  0  0  0
   -6.3257  -28.6779    0.0000 C   0  0  0  0  0  0  0  0  0  0  0  0
   -4.8532  -28.9635    0.0000 C   0  0  0  0  0  0  0  0  0  0  0  0
   -3.3679  -29.1735    0.0000 C   0  0  0  0  0  0  0  0  0  0  0  0
   -1.8739  -29.3074    0.0000 C   0  0  0  0  0  0  0  0  0  0  0  0
   -0.3750  -29.3649    0.0000 C   0  0  0  0  0  0  0  0  0  0  0  0
    1.1248  -29.3457    0.0000 C   0  0  0  0  0  0  0  0  0  0  0  0
    2.6218  -29.2500    0.0000 C   0  0  0  0  0  0  0  0  0  0  0  0
    4.1119  -29.0780    0.0000 C   0  0  0  0  0  0  0  0  0  0  0  0
    5.5913  -28.8301    0.0000 C   0  0  0  0  0  0  0  0  0  0  0  0
    7.0561  -28.5070    0.0000 C   0  0  0  0  0  0  0  0  0  0  0  0
    8.5024  -28.1095    0.0000 C   0  0  0  0  0  0  0  0  0  0  0  0
    9.9266  -27.6387    0.0000 C   0  0  0  0  0  0  0  0  0  0  0  0
   11.3249  -27.0958    0.0000 C   0  0  0  0  0  0  0  0  0  0  0  0
   12.6937  -26.4822    0.0000 C   0  0  0  0  0  0  0  0  0  0  0  0
   14.0293  -25.7995    0.0000 C   0  0  0  0  0  0  0  0  0  0  0  0
   15.3284  -25.0495    0.0000 C   0  0  0  0  0  0  0  0  0  0  0  0
   16.5874  -24.2342    0.0000 C   0  0  0  0  0  0  0  0  0  0  0  0
   17.8032  -23.3556    0.0000 C   0  0  0  0  0  0  0  0  0  0  0  0
   18.9725  -22.4161    0.0000 C   0  0  0  0  0  0  0  0  0  0  0  0
   20.0923  -21.4181    0.0000 C   0  0  0  0  0  0  0  0  0  0  0  0
   21.1598  -20.3642    0.0000 C   0  0  0  0  0  0  0  0  0  0  0  0
   22.1720  -19.2572    0.0000 C   0  0  0  0  0  0  0  0  0  0  0  0
   23.1263  -18.1000    0.0000 C   0  0  0  0  0  0  0  0  0  0  0  0
   24.0204  -16.8955    0.0000 C   0  0  0  0  0  0  0  0  0  0  0  0
   24.8517  -15.6470    0.0000 C   0  0  0  0  0  0  0  0  0  0  0  0
   25.6183  -14.3577    0.0000 C   0  0  0  0  0  0  0  0  0  0  0  0
   26.3179  -13.0308    0.0000 C   0  0  0  0  0  0  0  0  0  0  0  0
   26.9490  -11.6700    0.0000 C   0  0  0  0  0  0  0  0  0  0  0  0
   27.5097  -10.2788    0.0000 C   0  0  0  0  0  0  0  0  0  0  0  0
   27.9987   -8.8607    0.0000 C   0  0  0  0  0  0  0  0  0  0  0  0
   28.4146   -7.4195    0.0000 C   0  0  0  0  0  0  0  0  0  0  0  0
   28.7563   -5.9590    0.0000 C   0  0  0  0  0  0  0  0  0  0  0  0
   29.0231   -4.4829    0.0000 C   0  0  0  0  0  0  0  0  0  0  0  0
   29.2141   -2.9951    0.0000 C   0  0  0  0  0  0  0  0  0  0  0  0
   29.3290   -1.4995    0.0000 C   0  0  0  0  0  0  0  0  0  0  0  0
  1  2  1  0
  2  3  1  0
  3  4  2  0
  4  5  1  0
  5  6  1  0
  6  7  1  0
  7  8  1  0
  8  9  1  0
  9 10  1  0
 10 11  1  0
 11 12  1  0
 12 13  1  0
 13 14  1  0
 14 15  1  0
 15 16  1  0
 16 17  1  0
 17 18  1  0
 18 19  1  0
 19 20  1  0
 20 21  1  0
 21 22  1  0
 22 23  1  0
 23 24  1  0
 24 25  1  0
 25 26  1  0
 26 27  1  0
 27 28  1  0
 28 29  1  0
 29 30  1  0
 30 31  1  0
 31 32  1  0
 32 33  1  0
 33 34  1  0
 34 35  1  0
 35 36  1  0
 36 37  1  0
 37 38  1  0
 38 39  1  0
 39 40  1  0
 40 41  1  0
 41 42  1  0
 42 43  1  0
 43 44  1  0
 44 45  1  0
 45 46  1  0
 46 47  1  0
 47 48  1  0
 48 49  1  0
 49 50  1  0
 50 51  1  0
 51 52  1  0
 52 53  1  0
 53 54  1  0
 54 55  1  0
 55 56  1  0
 56 57  1  0
 57 58  1  0
 58 59  1  0
 59 60  1  0
 60 61  1  0
 61 62  1  0
 62 63  1  0
 63 64  1  0
 64 65  1  0
 65 66  1  0
 66 67  1  0
 67 68  1  0
 68 69  1  0
 69 70  1  0
 70 71  1  0
 71 72  1  0
 72 73  1  0
 73 74  1  0
 74 75  1  0
 75 76  1  0
 76 77  1  0
 77 78  1  0
 78 79  1  0
 79 80  1  0
 80 81  1  0
 81 82  1  0
 82 83  1  0
 83 84  1  0
 84 85  1  0
 85 86  1  0
 86 87  1  0
 87 88  1  0
 88 89  1  0
 89 90  1  0
 90 91  1  0
 91 92  1  0
 92 93  1  0
 93 94  1  0
 94 95  1  0
 95 96  1  0
 96 97  1  0
 97 98  1  0
 98 99  1  0
 99100  1  0
100101  1  0
101102  1  0
102103  1  0
103104  1  0
104105  1  0
105106  1  0
106107  1  0
107108  1  0
108109  1  0
109110  1  0
110111  1  0
111112  1  0
112113  1  0
113114  1  0
114115  1  0
115116  1  0
116117  1  0
117118  1  0
118119  1  0
119120  1  0
120121  1  0
121122  1  0
122123  1  0
123124  1  0
124  2  1  0
M  END
>  <Title>  (241) 
idAAHIgen9

$$$$

     RDKit          2D

  7  7  0  0  0  0  0  0  0  0999 V2000
    3.0000    0.0000    0.0000 C   0  0  0  0  0  0  0  0  0  0  0  0
    1.5000    0.0000    0.0000 C   0  0  0  0  0  0  0  0  0  0  0  0
    0.7500   -1.2990    0.0000 C   0  0  0  0  0  0  0  0  0  0  0  0
   -0.7500   -1.2990    0.0000 C   0  0  0  0  0  0  0  0  0  0  0  0
   -1.5000    0.0000    0.0000 C   0  0  0  0  0  0  0  0  0  0  0  0
   -0.7500    1.2990    0.0000 C   0  0  0  0  0  0  0  0  0  0  0  0
    0.7500    1.2990    0.0000 C   0  0  0  0  0  0  0  0  0  0  0  0
  1  2  1  0
  2  3  1  0
  3  4  2  0
  4  5  1  0
  5  6  2  0
  6  7  1  0
  7  2  1  0
M  END
>  <Title>  (242) 
idAAHJgen9

$$$$

     RDKit          2D

 16 17  0  0  0  0  0  0  0  0999 V2000
    4.2760   -2.5981    0.0000 C   0  0  0  0  0  0  0  0  0  0  0  0
    3.5260   -1.2990    0.0000 C   0  0  0  0  0  0  0  0  0  0  0  0
    2.7760    0.0000    0.0000 C   0  0  0  0  0  0  0  0  0  0  0  0
    3.5260    1.2990    0.0000 O   0  0  0  0  0  0  0  0  0  0  0  0
    1.2760    0.0000    0.0000 C   0  0  0  0  0  0  0  0  0  0  0  0
    0.3943    1.2135    0.0000 C   0  0  0  0  0  0  0  0  0  0  0  0
   -1.0323    0.7500    0.0000 C   0  0  0  0  0  0  0  0  0  0  0  0
   -1.0323   -0.7500    0.0000 N   0  0  0  0  0  0  0  0  0  0  0  0
   -2.2458   -1.6317    0.0000 C   0  0  0  0  0  0  0  0  0  0  0  0
   -2.0890   -3.1235    0.0000 O   0  0  0  0  0  0  0  0  0  0  0  0
   -3.6161   -1.0216    0.0000 N   0  0  0  0  0  0  0  0  0  0  0  0
   -4.9152   -1.7716    0.0000 C   0  0  0  0  0  0  0  0  0  0  0  0
   -6.0299   -0.7679    0.0000 C   0  0  0  0  0  0  0  0  0  0  0  0
   -5.4198    0.6024    0.0000 C   0  0  0  0  0  0  0  0  0  0  0  0
   -3.9280    0.4456    0.0000 C   0  0  0  0  0  0  0  0  0  0  0  0
    0.3943   -1.2135    0.0000 C   0  0  0  0  0  0  0  0  0  0  0  0
  1  2  3  0
  2  3  1  0
  3  4  2  0
  3  5  1  0
  5  6  1  0
  6  7  1  0
  7  8  1  0
  8  9  1  0
  9 10  2  0
  9 11  1  0
 11 12  1  0
 12 13  2  0
 13 14  1  0
 14 15  2  0
  8 16  1  0
 16  5  1  0
 15 11  1  0
M  END
>  <Title>  (243) 
idAAHKgen9

$$$$

     RDKit          2D

 14 13  0  0  0  0  0  0  0  0999 V2000
    0.0000    0.0000    0.0000 C   0  0  0  0  0  0  0  0  0  0  0  0
   -0.0000   -1.5000    0.0000 C   0  0  0  0  0  0  0  0  0  0  0  0
   -0.0000   -3.0000    0.0000 C   0  0  0  0  0  0  0  0  0  0  0  0
   -0.0000   -4.5000    0.0000 C   0  0  0  0  0  0  0  0  0  0  0  0
   -0.0000   -6.0000    0.0000 C   0  0  0  0  0  0  0  0  0  0  0  0
   -0.0000   -7.5000    0.0000 C   0  0  0  0  0  0  0  0  0  0  0  0
   -0.0000   -9.0000    0.0000 C   0  0  0  0  0  0  0  0  0  0  0  0
    1.2990   -9.7500    0.0000 C   0  0  0  0  0  0  0  0  0  0  0  0
    1.2990  -11.2500    0.0000 C   0  0  0  0  0  0  0  0  0  0  0  0
    2.5981  -12.0000    0.0000 C   0  0  0  0  0  0  0  0  0  0  0  0
    2.5981  -13.5000    0.0000 C   0  0  0  0  0  0  0  0  0  0  0  0
    3.8971  -14.2500    0.0000 C   0  0  0  0  0  0  0  0  0  0  0  0
    3.8971  -15.7500    0.0000 C   0  0  0  0  0  0  0  0  0  0  0  0
    5.1962  -16.5000    0.0000 C   0  0  0  0  0  0  0  0  0  0  0  0
  1  2  3  0
  2  3  1  0
  3  4  3  0
  4  5  1  0
  5  6  3  0
  6  7  1  0
  7  8  2  3
  8  9  1  0
  9 10  1  0
 10 11  1  0
 11 12  1  0
 12 13  2  3
 13 14  1  0
M  END
>  <Title>  (244) 
idAAHLgen9

$$$$

     RDKit          2D

100102  0  0  0  0  0  0  0  0999 V2000
   -2.3999    0.0907    0.0000 C   0  0  0  0  0  0  0  0  0  0  0  0
   -2.2465   -1.4014    0.0000 C   0  0  0  0  0  0  0  0  0  0  0  0
   -3.7325   -1.6057    0.0000 C   0  0  0  0  0  0  0  0  0  0  0  0
   -5.2012   -1.9108    0.0000 C   0  0  0  0  0  0  0  0  0  0  0  0
   -6.6455   -2.3155    0.0000 C   0  0  0  0  0  0  0  0  0  0  0  0
   -8.0589   -2.8179    0.0000 C   0  0  0  0  0  0  0  0  0  0  0  0
   -9.4347   -3.4155    0.0000 C   0  0  0  0  0  0  0  0  0  0  0  0
  -10.7666   -4.1055    0.0000 C   0  0  0  0  0  0  0  0  0  0  0  0
  -12.0482   -4.8849    0.0000 C   0  0  0  0  0  0  0  0  0  0  0  0
  -13.2737   -5.7499    0.0000 C   0  0  0  0  0  0  0  0  0  0  0  0
  -14.4372   -6.6966    0.0000 C   0  0  0  0  0  0  0  0  0  0  0  0
  -15.5335   -7.7204    0.0000 C   0  0  0  0  0  0  0  0  0  0  0  0
  -16.5573   -8.8167    0.0000 C   0  0  0  0  0  0  0  0  0  0  0  0
  -17.5039   -9.9802    0.0000 C   0  0  0  0  0  0  0  0  0  0  0  0
  -18.3690  -11.2057    0.0000 C   0  0  0  0  0  0  0  0  0  0  0  0
  -19.1483  -12.4873    0.0000 C   0  0  0  0  0  0  0  0  0  0  0  0
  -19.8384  -13.8191    0.0000 C   0  0  0  0  0  0  0  0  0  0  0  0
  -20.4360  -15.1950    0.0000 C   0  0  0  0  0  0  0  0  0  0  0  0
  -20.9384  -16.6083    0.0000 C   0  0  0  0  0  0  0  0  0  0  0  0
  -21.3430  -18.0527    0.0000 C   0  0  0  0  0  0  0  0  0  0  0  0
  -21.6482  -19.5214    0.0000 C   0  0  0  0  0  0  0  0  0  0  0  0
  -21.8525  -21.0074    0.0000 C   0  0  0  0  0  0  0  0  0  0  0  0
  -21.9548  -22.5039    0.0000 C   0  0  0  0  0  0  0  0  0  0  0  0
  -21.9548  -24.0039    0.0000 C   0  0  0  0  0  0  0  0  0  0  0  0
  -21.8525  -25.5004    0.0000 C   0  0  0  0  0  0  0  0  0  0  0  0
  -21.6482  -26.9864    0.0000 C   0  0  0  0  0  0  0  0  0  0  0  0
  -21.3430  -28.4550    0.0000 C   0  0  0  0  0  0  0  0  0  0  0  0
  -20.9384  -29.8994    0.0000 C   0  0  0  0  0  0  0  0  0  0  0  0
  -20.4360  -31.3128    0.0000 C   0  0  0  0  0  0  0  0  0  0  0  0
  -19.8384  -32.6886    0.0000 C   0  0  0  0  0  0  0  0  0  0  0  0
  -19.1483  -34.0205    0.0000 C   0  0  0  0  0  0  0  0  0  0  0  0
  -18.3690  -35.3021    0.0000 C   0  0  0  0  0  0  0  0  0  0  0  0
  -17.5039  -36.5275    0.0000 C   0  0  0  0  0  0  0  0  0  0  0  0
  -16.5573  -37.6911    0.0000 C   0  0  0  0  0  0  0  0  0  0  0  0
  -15.5335  -38.7874    0.0000 C   0  0  0  0  0  0  0  0  0  0  0  0
  -14.4372  -39.8112    0.0000 C   0  0  0  0  0  0  0  0  0  0  0  0
  -13.2737  -40.7578    0.0000 C   0  0  0  0  0  0  0  0  0  0  0  0
  -12.0482  -41.6228    0.0000 C   0  0  0  0  0  0  0  0  0  0  0  0
  -10.7666  -42.4022    0.0000 C   0  0  0  0  0  0  0  0  0  0  0  0
   -9.4347  -43.0923    0.0000 C   0  0  0  0  0  0  0  0  0  0  0  0
   -8.0589  -43.6899    0.0000 C   0  0  0  0  0  0  0  0  0  0  0  0
   -6.6455  -44.1922    0.0000 C   0  0  0  0  0  0  0  0  0  0  0  0
   -5.2012  -44.5969    0.0000 C   0  0  0  0  0  0  0  0  0  0  0  0
   -3.7325  -44.9021    0.0000 C   0  0  0  0  0  0  0  0  0  0  0  0
   -2.2465  -45.1064    0.0000 C   0  0  0  0  0  0  0  0  0  0  0  0
   -0.7500  -45.2087    0.0000 C   0  0  0  0  0  0  0  0  0  0  0  0
    0.7500  -45.2087    0.0000 C   0  0  0  0  0  0  0  0  0  0  0  0
    2.2465  -45.1064    0.0000 C   0  0  0  0  0  0  0  0  0  0  0  0
    3.7325  -44.9021    0.0000 C   0  0  0  0  0  0  0  0  0  0  0  0
    5.2012  -44.5969    0.0000 C   0  0  0  0  0  0  0  0  0  0  0  0
    6.6455  -44.1922    0.0000 C   0  0  0  0  0  0  0  0  0  0  0  0
    8.0589  -43.6899    0.0000 C   0  0  0  0  0  0  0  0  0  0  0  0
    9.4347  -43.0923    0.0000 C   0  0  0  0  0  0  0  0  0  0  0  0
   10.7666  -42.4022    0.0000 C   0  0  0  0  0  0  0  0  0  0  0  0
   12.0482  -41.6228    0.0000 C   0  0  0  0  0  0  0  0  0  0  0  0
   13.2737  -40.7578    0.0000 C   0  0  0  0  0  0  0  0  0  0  0  0
   14.4372  -39.8112    0.0000 C   0  0  0  0  0  0  0  0  0  0  0  0
   15.5335  -38.7874    0.0000 C   0  0  0  0  0  0  0  0  0  0  0  0
   16.5573  -37.6911    0.0000 C   0  0  0  0  0  0  0  0  0  0  0  0
   17.5039  -36.5275    0.0000 C   0  0  0  0  0  0  0  0  0  0  0  0
   18.3690  -35.3021    0.0000 C   0  0  0  0  0  0  0  0  0  0  0  0
   19.1483  -34.0205    0.0000 C   0  0  0  0  0  0  0  0  0  0  0  0
   19.8384  -32.6886    0.0000 C   0  0  0  0  0  0  0  0  0  0  0  0
   20.4360  -31.3128    0.0000 C   0  0  0  0  0  0  0  0  0  0  0  0
   20.9384  -29.8994    0.0000 C   0  0  0  0  0  0  0  0  0  0  0  0
   21.3430  -28.4550    0.0000 C   0  0  0  0  0  0  0  0  0  0  0  0
   21.6482  -26.9864    0.0000 C   0  0  0  0  0  0  0  0  0  0  0  0
   21.8525  -25.5004    0.0000 C   0  0  0  0  0  0  0  0  0  0  0  0
   21.9548  -24.0039    0.0000 C   0  0  0  0  0  0  0  0  0  0  0  0
   21.9548  -22.5039    0.0000 C   0  0  0  0  0  0  0  0  0  0  0  0
   21.8525  -21.0074    0.0000 C   0  0  0  0  0  0  0  0  0  0  0  0
   21.6482  -19.5214    0.0000 C   0  0  0  0  0  0  0  0  0  0  0  0
   21.3430  -18.0527    0.0000 C   0  0  0  0  0  0  0  0  0  0  0  0
   20.9384  -16.6083    0.0000 C   0  0  0  0  0  0  0  0  0  0  0  0
   20.4360  -15.1950    0.0000 C   0  0  0  0  0  0  0  0  0  0  0  0
   19.8384  -13.8191    0.0000 C   0  0  0  0  0  0  0  0  0  0  0  0
   19.1483  -12.4873    0.0000 C   0  0  0  0  0  0  0  0  0  0  0  0
   18.3690  -11.2057    0.0000 C   0  0  0  0  0  0  0  0  0  0  0  0
   17.5039   -9.9802    0.0000 C   0  0  0  0  0  0  0  0  0  0  0  0
   16.5573   -8.8167    0.0000 C   0  0  0  0  0  0  0  0  0  0  0  0
   15.5335   -7.7204    0.0000 C   0  0  0  0  0  0  0  0  0  0  0  0
   14.4372   -6.6966    0.0000 C   0  0  0  0  0  0  0  0  0  0  0  0
   13.2737   -5.7499    0.0000 C   0  0  0  0  0  0  0  0  0  0  0  0
   12.0482   -4.8849    0.0000 C   0  0  0  0  0  0  0  0  0  0  0  0
   10.7666   -4.1055    0.0000 C   0  0  0  0  0  0  0  0  0  0  0  0
    9.4347   -3.4155    0.0000 C   0  0  0  0  0  0  0  0  0  0  0  0
    8.0589   -2.8179    0.0000 C   0  0  0  0  0  0  0  0  0  0  0  0
    6.6455   -2.3155    0.0000 C   0  0  0  0  0  0  0  0  0  0  0  0
    5.2012   -1.9108    0.0000 C   0  0  0  0  0  0  0  0  0  0  0  0
    3.7325   -1.6057    0.0000 C   0  0  0  0  0  0  0  0  0  0  0  0
    3.9975   -3.0821    0.0000 C   0  0  0  0  0  0  0  0  0  0  0  0
    2.6752   -3.7903    0.0000 C   0  0  0  0  0  0  0  0  0  0  0  0
    1.5930   -2.7516    0.0000 C   0  0  0  0  0  0  0  0  0  0  0  0
    2.2465   -1.4014    0.0000 C   0  0  0  0  0  0  0  0  0  0  0  0
    0.7500   -1.2990    0.0000 C   0  0  0  0  0  0  0  0  0  0  0  0
    1.5000    0.0000    0.0000 C   0  0  0  0  0  0  0  0  0  0  0  0
    0.7500    1.2990    0.0000 C   0  0  0  0  0  0  0  0  0  0  0  0
   -0.7500    1.2990    0.0000 C   0  0  0  0  0  0  0  0  0  0  0  0
   -1.5000    0.0000    0.0000 C   0  0  0  0  0  0  0  0  0  0  0  0
   -0.7500   -1.2990    0.0000 C   0  0  0  0  0  0  0  0  0  0  0  0
  1  2  1  0
  2  3  1  0
  3  4  1  0
  4  5  1  0
  5  6  1  0
  6  7  1  0
  7  8  1  0
  8  9  1  0
  9 10  1  0
 10 11  1  0
 11 12  1  0
 12 13  1  0
 13 14  1  0
 14 15  1  0
 15 16  1  0
 16 17  1  0
 17 18  1  0
 18 19  1  0
 19 20  1  0
 20 21  1  0
 21 22  1  0
 22 23  1  0
 23 24  1  0
 24 25  1  0
 25 26  1  0
 26 27  1  0
 27 28  1  0
 28 29  1  0
 29 30  1  0
 30 31  1  0
 31 32  1  0
 32 33  1  0
 33 34  1  0
 34 35  1  0
 35 36  1  0
 36 37  1  0
 37 38  1  0
 38 39  1  0
 39 40  1  0
 40 41  1  0
 41 42  1  0
 42 43  1  0
 43 44  1  0
 44 45  1  0
 45 46  1  0
 46 47  1  0
 47 48  1  0
 48 49  1  0
 49 50  1  0
 50 51  1  0
 51 52  1  0
 52 53  1  0
 53 54  1  0
 54 55  1  0
 55 56  1  0
 56 57  1  0
 57 58  1  0
 58 59  1  0
 59 60  1  0
 60 61  1  0
 61 62  1  0
 62 63  1  0
 63 64  1  0
 64 65  1  0
 65 66  1  0
 66 67  1  0
 67 68  1  0
 68 69  1  0
 69 70  1  0
 70 71  1  0
 71 72  1  0
 72 73  1  0
 73 74  1  0
 74 75  1  0
 75 76  1  0
 76 77  1  0
 77 78  1  0
 78 79  1  0
 79 80  1  0
 80 81  1  0
 81 82  1  0
 82 83  1  0
 83 84  1  0
 84 85  1  0
 85 86  1  0
 86 87  1  0
 87 88  1  0
 88 89  1  0
 89 90  1  0
 90 91  1  0
 91 92  2  0
 92 93  1  0
 93 94  2  0
 94 95  1  0
 95 96  2  0
 96 97  1  0
 97 98  2  0
 98 99  1  0
 99100  2  0
100  2  1  0
 94 90  1  0
100 95  1  0
M  END
>  <Title>  (245) 
idAAHMgen9

$$$$

     RDKit          2D

 88 88  0  0  0  0  0  0  0  0999 V2000
   22.2742   -0.0000    0.0000 C   0  0  0  0  0  0  0  0  0  0  0  0
   20.7742    0.0000    0.0000 C   0  0  0  0  0  0  0  0  0  0  0  0
   20.7201    1.4990    0.0000 C   0  0  0  0  0  0  0  0  0  0  0  0
   20.5579    2.9902    0.0000 C   0  0  0  0  0  0  0  0  0  0  0  0
   20.2885    4.4658    0.0000 C   0  0  0  0  0  0  0  0  0  0  0  0
   19.9134    5.9182    0.0000 C   0  0  0  0  0  0  0  0  0  0  0  0
   19.4345    7.3397    0.0000 C   0  0  0  0  0  0  0  0  0  0  0  0
   18.8542    8.7229    0.0000 C   0  0  0  0  0  0  0  0  0  0  0  0
   18.1756   10.0606    0.0000 C   0  0  0  0  0  0  0  0  0  0  0  0
   17.4023   11.3459    0.0000 C   0  0  0  0  0  0  0  0  0  0  0  0
   16.5382   12.5720    0.0000 C   0  0  0  0  0  0  0  0  0  0  0  0
   15.5879   13.7326    0.0000 C   0  0  0  0  0  0  0  0  0  0  0  0
   14.5564   14.8216    0.0000 C   0  0  0  0  0  0  0  0  0  0  0  0
   13.4490   15.8333    0.0000 C   0  0  0  0  0  0  0  0  0  0  0  0
   12.2714   16.7625    0.0000 C   0  0  0  0  0  0  0  0  0  0  0  0
   11.0299   17.6043    0.0000 C   0  0  0  0  0  0  0  0  0  0  0  0
    9.7308   18.3543    0.0000 C   0  0  0  0  0  0  0  0  0  0  0  0
    8.3811   19.0086    0.0000 C   0  0  0  0  0  0  0  0  0  0  0  0
    6.9876   19.5638    0.0000 C   0  0  0  0  0  0  0  0  0  0  0  0
    5.5577   20.0170    0.0000 C   0  0  0  0  0  0  0  0  0  0  0  0
    4.0988   20.3659    0.0000 C   0  0  0  0  0  0  0  0  0  0  0  0
    2.6186   20.6085    0.0000 C   0  0  0  0  0  0  0  0  0  0  0  0
    1.1247   20.7438    0.0000 C   0  0  0  0  0  0  0  0  0  0  0  0
   -0.3751   20.7708    0.0000 C   0  0  0  0  0  0  0  0  0  0  0  0
   -1.8729   20.6896    0.0000 C   0  0  0  0  0  0  0  0  0  0  0  0
   -3.3609   20.5006    0.0000 C   0  0  0  0  0  0  0  0  0  0  0  0
   -4.8314   20.2046    0.0000 C   0  0  0  0  0  0  0  0  0  0  0  0
   -6.2767   19.8033    0.0000 C   0  0  0  0  0  0  0  0  0  0  0  0
   -7.6893   19.2988    0.0000 C   0  0  0  0  0  0  0  0  0  0  0  0
   -9.0618   18.6936    0.0000 C   0  0  0  0  0  0  0  0  0  0  0  0
  -10.3871   17.9910    0.0000 C   0  0  0  0  0  0  0  0  0  0  0  0
  -11.6582   17.1946    0.0000 C   0  0  0  0  0  0  0  0  0  0  0  0
  -12.8686   16.3086    0.0000 C   0  0  0  0  0  0  0  0  0  0  0  0
  -14.0118   15.3375    0.0000 C   0  0  0  0  0  0  0  0  0  0  0  0
  -15.0820   14.2864    0.0000 C   0  0  0  0  0  0  0  0  0  0  0  0
  -16.0736   13.1609    0.0000 C   0  0  0  0  0  0  0  0  0  0  0  0
  -16.9813   11.9668    0.0000 C   0  0  0  0  0  0  0  0  0  0  0  0
  -17.8006   10.7102    0.0000 C   0  0  0  0  0  0  0  0  0  0  0  0
  -18.5270    9.3979    0.0000 C   0  0  0  0  0  0  0  0  0  0  0  0
  -19.1568    8.0365    0.0000 C   0  0  0  0  0  0  0  0  0  0  0  0
  -19.6868    6.6332    0.0000 C   0  0  0  0  0  0  0  0  0  0  0  0
  -20.1141    5.1954    0.0000 C   0  0  0  0  0  0  0  0  0  0  0  0
  -20.4365    3.7305    0.0000 C   0  0  0  0  0  0  0  0  0  0  0  0
  -20.6525    2.2461    0.0000 C   0  0  0  0  0  0  0  0  0  0  0  0
  -20.7607    0.7500    0.0000 C   0  0  0  0  0  0  0  0  0  0  0  0
  -20.7607   -0.7500    0.0000 C   0  0  0  0  0  0  0  0  0  0  0  0
  -20.6525   -2.2461    0.0000 C   0  0  0  0  0  0  0  0  0  0  0  0
  -20.4365   -3.7305    0.0000 C   0  0  0  0  0  0  0  0  0  0  0  0
  -20.1141   -5.1954    0.0000 C   0  0  0  0  0  0  0  0  0  0  0  0
  -19.6868   -6.6332    0.0000 C   0  0  0  0  0  0  0  0  0  0  0  0
  -19.1568   -8.0365    0.0000 C   0  0  0  0  0  0  0  0  0  0  0  0
  -18.5270   -9.3979    0.0000 C   0  0  0  0  0  0  0  0  0  0  0  0
  -17.8006  -10.7102    0.0000 C   0  0  0  0  0  0  0  0  0  0  0  0
  -16.9813  -11.9668    0.0000 C   0  0  0  0  0  0  0  0  0  0  0  0
  -16.0736  -13.1609    0.0000 C   0  0  0  0  0  0  0  0  0  0  0  0
  -15.0820  -14.2864    0.0000 C   0  0  0  0  0  0  0  0  0  0  0  0
  -14.0118  -15.3375    0.0000 C   0  0  0  0  0  0  0  0  0  0  0  0
  -12.8686  -16.3086    0.0000 C   0  0  0  0  0  0  0  0  0  0  0  0
  -11.6582  -17.1946    0.0000 C   0  0  0  0  0  0  0  0  0  0  0  0
  -10.3871  -17.9910    0.0000 C   0  0  0  0  0  0  0  0  0  0  0  0
   -9.0618  -18.6936    0.0000 C   0  0  0  0  0  0  0  0  0  0  0  0
   -7.6893  -19.2988    0.0000 C   0  0  0  0  0  0  0  0  0  0  0  0
   -6.2767  -19.8033    0.0000 C   0  0  0  0  0  0  0  0  0  0  0  0
   -4.8314  -20.2046    0.0000 C   0  0  0  0  0  0  0  0  0  0  0  0
   -3.3609  -20.5006    0.0000 C   0  0  0  0  0  0  0  0  0  0  0  0
   -1.8729  -20.6896    0.0000 C   0  0  0  0  0  0  0  0  0  0  0  0
   -0.3751  -20.7708    0.0000 C   0  0  0  0  0  0  0  0  0  0  0  0
    1.1247  -20.7438    0.0000 C   0  0  0  0  0  0  0  0  0  0  0  0
    2.6186  -20.6085    0.0000 C   0  0  0  0  0  0  0  0  0  0  0  0
    4.0988  -20.3659    0.0000 C   0  0  0  0  0  0  0  0  0  0  0  0
    5.5577  -20.0170    0.0000 C   0  0  0  0  0  0  0  0  0  0  0  0
    6.9876  -19.5638    0.0000 C   0  0  0  0  0  0  0  0  0  0  0  0
    8.3811  -19.0086    0.0000 C   0  0  0  0  0  0  0  0  0  0  0  0
    9.7308  -18.3543    0.0000 C   0  0  0  0  0  0  0  0  0  0  0  0
   11.0299  -17.6043    0.0000 C   0  0  0  0  0  0  0  0  0  0  0  0
   12.2714  -16.7625    0.0000 C   0  0  0  0  0  0  0  0  0  0  0  0
   13.4490  -15.8333    0.0000 C   0  0  0  0  0  0  0  0  0  0  0  0
   14.5564  -14.8216    0.0000 C   0  0  0  0  0  0  0  0  0  0  0  0
   15.5879  -13.7326    0.0000 C   0  0  0  0  0  0  0  0  0  0  0  0
   16.5382  -12.5720    0.0000 C   0  0  0  0  0  0  0  0  0  0  0  0
   17.4023  -11.3459    0.0000 C   0  0  0  0  0  0  0  0  0  0  0  0
   18.1756  -10.0606    0.0000 C   0  0  0  0  0  0  0  0  0  0  0  0
   18.8542   -8.7229    0.0000 C   0  0  0  0  0  0  0  0  0  0  0  0
   19.4345   -7.3397    0.0000 C   0  0  0  0  0  0  0  0  0  0  0  0
   19.9134   -5.9182    0.0000 C   0  0  0  0  0  0  0  0  0  0  0  0
   20.2885   -4.4658    0.0000 C   0  0  0  0  0  0  0  0  0  0  0  0
   20.5579   -2.9902    0.0000 C   0  0  0  0  0  0  0  0  0  0  0  0
   20.7201   -1.4990    0.0000 C   0  0  0  0  0  0  0  0  0  0  0  0
  1  2  1  0
  2  3  1  0
  3  4  2  0
  4  5  1  0
  5  6  2  0
  6  7  1  0
  7  8  2  0
  8  9  1  0
  9 10  2  0
 10 11  1  0
 11 12  1  0
 12 13  1  0
 13 14  1  0
 14 15  1  0
 15 16  1  0
 16 17  1  0
 17 18  1  0
 18 19  1  0
 19 20  1  0
 20 21  1  0
 21 22  1  0
 22 23  1  0
 23 24  1  0
 24 25  1  0
 25 26  1  0
 26 27  1  0
 27 28  1  0
 28 29  1  0
 29 30  1  0
 30 31  1  0
 31 32  1  0
 32 33  1  0
 33 34  1  0
 34 35  1  0
 35 36  1  0
 36 37  1  0
 37 38  1  0
 38 39  1  0
 39 40  1  0
 40 41  1  0
 41 42  1  0
 42 43  1  0
 43 44  1  0
 44 45  1  0
 45 46  1  0
 46 47  1  0
 47 48  1  0
 48 49  1  0
 49 50  1  0
 50 51  1  0
 51 52  1  0
 52 53  1  0
 53 54  1  0
 54 55  1  0
 55 56  1  0
 56 57  1  0
 57 58  1  0
 58 59  1  0
 59 60  1  0
 60 61  1  0
 61 62  1  0
 62 63  1  0
 63 64  1  0
 64 65  1  0
 65 66  1  0
 66 67  1  0
 67 68  1  0
 68 69  1  0
 69 70  1  0
 70 71  1  0
 71 72  1  0
 72 73  1  0
 73 74  1  0
 74 75  1  0
 75 76  1  0
 76 77  1  0
 77 78  1  0
 78 79  1  0
 79 80  1  0
 80 81  1  0
 81 82  1  0
 82 83  1  0
 83 84  1  0
 84 85  1  0
 85 86  1  0
 86 87  1  0
 87 88  1  0
 88  2  1  0
M  END
>  <Title>  (246) 
idAAHNgen9

$$$$

     RDKit          2D

 15 16  0  0  0  0  0  0  0  0999 V2000
   -1.4863   -8.1450    0.0000 N   0  0  0  0  0  0  0  0  0  0  0  0
   -0.1873   -7.3950    0.0000 C   0  0  0  0  0  0  0  0  0  0  0  0
    1.1118   -6.6450    0.0000 C   0  0  0  0  0  0  0  0  0  0  0  0
    1.5000   -5.1962    0.0000 C   0  0  0  0  0  0  0  0  0  0  0  0
    0.7500   -3.8971    0.0000 C   0  0  0  0  0  0  0  0  0  0  0  0
   -0.7500   -3.8971    0.0000 O   0  0  0  0  0  0  0  0  0  0  0  0
    1.5000   -2.5981    0.0000 N   0  0  0  0  0  0  0  0  0  0  0  0
    0.7500   -1.2990    0.0000 C   0  0  0  0  0  0  0  0  0  0  0  0
    1.5000    0.0000    0.0000 N   0  0  0  0  0  0  0  0  0  0  0  0
    0.7500    1.2990    0.0000 N   0  0  0  0  0  0  0  0  0  0  0  0
   -0.7500    1.2990    0.0000 N   0  0  0  0  0  0  0  0  0  0  0  0
   -1.5000    0.0000    0.0000 N   0  0  0  0  0  0  0  0  0  0  0  0
   -0.7500   -1.2990    0.0000 N   0  0  0  0  0  0  0  0  0  0  0  0
    2.9489   -5.5844    0.0000 C   0  0  0  0  0  0  0  0  0  0  0  0
    2.5607   -7.0333    0.0000 C   0  0  0  0  0  0  0  0  0  0  0  0
  1  2  3  0
  2  3  1  0
  3  4  2  0
  4  5  1  0
  5  6  2  0
  5  7  1  0
  7  8  1  0
  8  9  2  0
  9 10  1  0
 10 11  2  0
 11 12  1  0
 12 13  2  0
  4 14  1  0
 14 15  2  0
 15  3  1  0
 13  8  1  0
M  END
>  <Title>  (247) 
idAAHOgen9

$$$$

     RDKit          2D

 68 78  0  0  0  0  0  0  0  0999 V2000
    6.4958   -4.6081    0.0000 C   0  0  0  0  0  0  0  0  0  0  0  0
    5.0565   -5.0307    0.0000 C   0  0  0  0  0  0  0  0  0  0  0  0
    4.4334   -3.6662    0.0000 C   0  0  0  0  0  0  0  0  0  0  0  0
    3.4511   -2.5326    0.0000 C   0  0  0  0  0  0  0  0  0  0  0  0
    2.1892   -1.7216    0.0000 C   0  0  0  0  0  0  0  0  0  0  0  0
    2.8124   -0.3572    0.0000 C   0  0  0  0  0  0  0  0  0  0  0  0
    1.9423    0.8647    0.0000 O   0  0  0  0  0  0  0  0  0  0  0  0
    4.3056   -0.2146    0.0000 N   0  0  0  0  0  0  0  0  0  0  0  0
    4.9287    1.1498    0.0000 C   0  0  0  0  0  0  0  0  0  0  0  0
    6.4219    1.2924    0.0000 N   0  0  0  0  0  0  0  0  0  0  0  0
    7.0450    2.6569    0.0000 N   0  0  0  0  0  0  0  0  0  0  0  0
    6.1749    3.8787    0.0000 N   0  0  0  0  0  0  0  0  0  0  0  0
    4.6817    3.7362    0.0000 N   0  0  0  0  0  0  0  0  0  0  0  0
    4.0586    2.3717    0.0000 N   0  0  0  0  0  0  0  0  0  0  0  0
    0.7500   -1.2990    0.0000 C   0  0  0  0  0  0  0  0  0  0  0  0
    1.5000    0.0000    0.0000 C   0  0  0  0  0  0  0  0  0  0  0  0
    0.7500    1.2990    0.0000 C   0  0  0  0  0  0  0  0  0  0  0  0
   -0.7500    1.2990    0.0000 C   0  0  0  0  0  0  0  0  0  0  0  0
   -1.5000    0.0000    0.0000 C   0  0  0  0  0  0  0  0  0  0  0  0
   -0.7500   -1.2990    0.0000 C   0  0  0  0  0  0  0  0  0  0  0  0
   -2.1892   -1.7216    0.0000 C   0  0  0  0  0  0  0  0  0  0  0  0
   -2.2606   -0.2233    0.0000 C   0  0  0  0  0  0  0  0  0  0  0  0
   -3.5939    0.4640    0.0000 C   0  0  0  0  0  0  0  0  0  0  0  0
   -4.8557   -0.3470    0.0000 C   0  0  0  0  0  0  0  0  0  0  0  0
   -4.7844   -1.8453    0.0000 C   0  0  0  0  0  0  0  0  0  0  0  0
   -3.4511   -2.5326    0.0000 C   0  0  0  0  0  0  0  0  0  0  0  0
   -4.4334   -3.6662    0.0000 C   0  0  0  0  0  0  0  0  0  0  0  0
   -5.3035   -2.4444    0.0000 C   0  0  0  0  0  0  0  0  0  0  0  0
   -6.7967   -2.5869    0.0000 C   0  0  0  0  0  0  0  0  0  0  0  0
   -7.4198   -3.9514    0.0000 C   0  0  0  0  0  0  0  0  0  0  0  0
   -6.5497   -5.1733    0.0000 C   0  0  0  0  0  0  0  0  0  0  0  0
   -5.0565   -5.0307    0.0000 C   0  0  0  0  0  0  0  0  0  0  0  0
   -5.2700   -6.5154    0.0000 C   0  0  0  0  0  0  0  0  0  0  0  0
   -6.6626   -5.9579    0.0000 C   0  0  0  0  0  0  0  0  0  0  0  0
   -7.8416   -6.8851    0.0000 C   0  0  0  0  0  0  0  0  0  0  0  0
   -7.6282   -8.3699    0.0000 C   0  0  0  0  0  0  0  0  0  0  0  0
   -6.2356   -8.9274    0.0000 C   0  0  0  0  0  0  0  0  0  0  0  0
   -5.0565   -8.0001    0.0000 C   0  0  0  0  0  0  0  0  0  0  0  0
   -4.4334   -9.3646    0.0000 C   0  0  0  0  0  0  0  0  0  0  0  0
   -5.9063   -9.6485    0.0000 C   0  0  0  0  0  0  0  0  0  0  0  0
   -6.3969  -11.0660    0.0000 C   0  0  0  0  0  0  0  0  0  0  0  0
   -5.4146  -12.1996    0.0000 C   0  0  0  0  0  0  0  0  0  0  0  0
   -3.9417  -11.9157    0.0000 C   0  0  0  0  0  0  0  0  0  0  0  0
   -3.4511  -10.4982    0.0000 C   0  0  0  0  0  0  0  0  0  0  0  0
   -2.1892  -11.3092    0.0000 C   0  0  0  0  0  0  0  0  0  0  0  0
   -3.2748  -12.3443    0.0000 C   0  0  0  0  0  0  0  0  0  0  0  0
   -2.9212  -13.8020    0.0000 C   0  0  0  0  0  0  0  0  0  0  0  0
   -1.4820  -14.2246    0.0000 C   0  0  0  0  0  0  0  0  0  0  0  0
   -0.3964  -13.1895    0.0000 C   0  0  0  0  0  0  0  0  0  0  0  0
   -0.7500  -11.7318    0.0000 C   0  0  0  0  0  0  0  0  0  0  0  0
    0.7500  -11.7318    0.0000 C   0  0  0  0  0  0  0  0  0  0  0  0
    0.3964  -13.1895    0.0000 C   0  0  0  0  0  0  0  0  0  0  0  0
    1.4820  -14.2246    0.0000 C   0  0  0  0  0  0  0  0  0  0  0  0
    2.9212  -13.8020    0.0000 C   0  0  0  0  0  0  0  0  0  0  0  0
    3.2748  -12.3443    0.0000 C   0  0  0  0  0  0  0  0  0  0  0  0
    2.1892  -11.3092    0.0000 C   0  0  0  0  0  0  0  0  0  0  0  0
    3.4511  -10.4982    0.0000 C   0  0  0  0  0  0  0  0  0  0  0  0
    3.9417  -11.9157    0.0000 C   0  0  0  0  0  0  0  0  0  0  0  0
    5.4146  -12.1996    0.0000 C   0  0  0  0  0  0  0  0  0  0  0  0
    6.3969  -11.0660    0.0000 C   0  0  0  0  0  0  0  0  0  0  0  0
    5.9063   -9.6485    0.0000 C   0  0  0  0  0  0  0  0  0  0  0  0
    4.4334   -9.3646    0.0000 C   0  0  0  0  0  0  0  0  0  0  0  0
    5.0565   -8.0001    0.0000 C   0  0  0  0  0  0  0  0  0  0  0  0
    6.2356   -8.9274    0.0000 C   0  0  0  0  0  0  0  0  0  0  0  0
    7.6282   -8.3699    0.0000 C   0  0  0  0  0  0  0  0  0  0  0  0
    7.8416   -6.8851    0.0000 C   0  0  0  0  0  0  0  0  0  0  0  0
    6.6626   -5.9579    0.0000 C   0  0  0  0  0  0  0  0  0  0  0  0
    5.2700   -6.5154    0.0000 C   0  0  0  0  0  0  0  0  0  0  0  0
  1  2  1  0
  2  3  1  0
  3  4  2  0
  4  5  1  0
  5  6  1  0
  6  7  2  0
  6  8  1  0
  8  9  1  0
  9 10  2  0
 10 11  1  0
 11 12  2  0
 12 13  1  0
 13 14  2  0
  5 15  1  0
 15 16  2  0
 16 17  1  0
 17 18  2  0
 18 19  1  0
 19 20  2  0
 20 21  1  0
 21 22  2  0
 22 23  1  0
 23 24  2  0
 24 25  1  0
 25 26  2  0
 26 27  1  0
 27 28  2  0
 28 29  1  0
 29 30  2  0
 30 31  1  0
 31 32  2  0
 32 33  1  0
 33 34  2  0
 34 35  1  0
 35 36  2  0
 36 37  1  0
 37 38  2  0
 38 39  1  0
 39 40  2  0
 40 41  1  0
 41 42  2  0
 42 43  1  0
 43 44  2  0
 44 45  1  0
 45 46  2  0
 46 47  1  0
 47 48  2  0
 48 49  1  0
 49 50  2  0
 50 51  1  0
 51 52  2  0
 52 53  1  0
 53 54  2  0
 54 55  1  0
 55 56  2  0
 56 57  1  0
 57 58  2  0
 58 59  1  0
 59 60  2  0
 60 61  1  0
 61 62  2  0
 62 63  1  0
 63 64  2  0
 64 65  1  0
 65 66  2  0
 66 67  1  0
 67 68  2  0
 68  2  1  0
 14  9  1  0
 20 15  1  0
 26 21  1  0
 32 27  1  0
 38 33  1  0
 44 39  1  0
 50 45  1  0
 56 51  1  0
 62 57  1  0
 68 63  1  0
M  END
>  <Title>  (248) 
idAAHPgen9

$$$$

     RDKit          2D

120121  0  0  0  0  0  0  0  0999 V2000
  122.2500  -68.8490    0.0000 C   0  0  0  0  0  0  0  0  0  0  0  0
  120.7500  -68.8490    0.0000 C   0  0  0  0  0  0  0  0  0  0  0  0
  120.0000  -67.5500    0.0000 C   0  0  0  0  0  0  0  0  0  0  0  0
  118.5000  -67.5500    0.0000 C   0  0  0  0  0  0  0  0  0  0  0  0
  117.7500  -66.2509    0.0000 C   0  0  0  0  0  0  0  0  0  0  0  0
  116.2500  -66.2509    0.0000 C   0  0  0  0  0  0  0  0  0  0  0  0
  115.5000  -64.9519    0.0000 C   0  0  0  0  0  0  0  0  0  0  0  0
  114.0000  -64.9519    0.0000 C   0  0  0  0  0  0  0  0  0  0  0  0
  113.2500  -63.6529    0.0000 C   0  0  0  0  0  0  0  0  0  0  0  0
  111.7500  -63.6529    0.0000 C   0  0  0  0  0  0  0  0  0  0  0  0
  111.0000  -62.3538    0.0000 C   0  0  0  0  0  0  0  0  0  0  0  0
  109.5000  -62.3538    0.0000 C   0  0  0  0  0  0  0  0  0  0  0  0
  108.7500  -61.0548    0.0000 C   0  0  0  0  0  0  0  0  0  0  0  0
  107.2500  -61.0548    0.0000 C   0  0  0  0  0  0  0  0  0  0  0  0
  106.5000  -59.7558    0.0000 C   0  0  0  0  0  0  0  0  0  0  0  0
  105.0000  -59.7558    0.0000 C   0  0  0  0  0  0  0  0  0  0  0  0
  104.2500  -58.4567    0.0000 C   0  0  0  0  0  0  0  0  0  0  0  0
  102.7500  -58.4567    0.0000 C   0  0  0  0  0  0  0  0  0  0  0  0
  102.0000  -57.1577    0.0000 C   0  0  0  0  0  0  0  0  0  0  0  0
  100.5000  -57.1577    0.0000 C   0  0  0  0  0  0  0  0  0  0  0  0
   99.7500  -55.8586    0.0000 C   0  0  0  0  0  0  0  0  0  0  0  0
   98.2500  -55.8586    0.0000 C   0  0  0  0  0  0  0  0  0  0  0  0
   97.5000  -54.5596    0.0000 C   0  0  0  0  0  0  0  0  0  0  0  0
   96.0000  -54.5596    0.0000 C   0  0  0  0  0  0  0  0  0  0  0  0
   95.2500  -53.2606    0.0000 C   0  0  0  0  0  0  0  0  0  0  0  0
   93.7500  -53.2606    0.0000 C   0  0  0  0  0  0  0  0  0  0  0  0
   93.0000  -51.9615    0.0000 C   0  0  0  0  0  0  0  0  0  0  0  0
   91.5000  -51.9615    0.0000 C   0  0  0  0  0  0  0  0  0  0  0  0
   90.7500  -50.6625    0.0000 C   0  0  0  0  0  0  0  0  0  0  0  0
   89.2500  -50.6625    0.0000 C   0  0  0  0  0  0  0  0  0  0  0  0
   88.5000  -49.3634    0.0000 C   0  0  0  0  0  0  0  0  0  0  0  0
   87.0000  -49.3634    0.0000 C   0  0  0  0  0  0  0  0  0  0  0  0
   86.2500  -48.0644    0.0000 C   0  0  0  0  0  0  0  0  0  0  0  0
   84.7500  -48.0644    0.0000 C   0  0  0  0  0  0  0  0  0  0  0  0
   84.0000  -46.7654    0.0000 C   0  0  0  0  0  0  0  0  0  0  0  0
   82.5000  -46.7654    0.0000 C   0  0  0  0  0  0  0  0  0  0  0  0
   81.7500  -45.4663    0.0000 C   0  0  0  0  0  0  0  0  0  0  0  0
   80.2500  -45.4663    0.0000 C   0  0  0  0  0  0  0  0  0  0  0  0
   79.5000  -44.1673    0.0000 C   0  0  0  0  0  0  0  0  0  0  0  0
   78.0000  -44.1673    0.0000 C   0  0  0  0  0  0  0  0  0  0  0  0
   77.2500  -42.8683    0.0000 C   0  0  0  0  0  0  0  0  0  0  0  0
   75.7500  -42.8683    0.0000 C   0  0  0  0  0  0  0  0  0  0  0  0
   75.0000  -41.5692    0.0000 C   0  0  0  0  0  0  0  0  0  0  0  0
   73.5000  -41.5692    0.0000 C   0  0  0  0  0  0  0  0  0  0  0  0
   72.7500  -40.2702    0.0000 C   0  0  0  0  0  0  0  0  0  0  0  0
   71.2500  -40.2702    0.0000 C   0  0  0  0  0  0  0  0  0  0  0  0
   70.5000  -38.9711    0.0000 C   0  0  0  0  0  0  0  0  0  0  0  0
   69.0000  -38.9711    0.0000 C   0  0  0  0  0  0  0  0  0  0  0  0
   68.2500  -37.6721    0.0000 C   0  0  0  0  0  0  0  0  0  0  0  0
   66.7500  -37.6721    0.0000 C   0  0  0  0  0  0  0  0  0  0  0  0
   66.0000  -36.3731    0.0000 C   0  0  0  0  0  0  0  0  0  0  0  0
   64.5000  -36.3731    0.0000 C   0  0  0  0  0  0  0  0  0  0  0  0
   63.7500  -35.0740    0.0000 C   0  0  0  0  0  0  0  0  0  0  0  0
   62.2500  -35.0740    0.0000 C   0  0  0  0  0  0  0  0  0  0  0  0
   61.5000  -33.7750    0.0000 C   0  0  0  0  0  0  0  0  0  0  0  0
   60.0000  -33.7750    0.0000 C   0  0  0  0  0  0  0  0  0  0  0  0
   59.2500  -32.4760    0.0000 C   0  0  0  0  0  0  0  0  0  0  0  0
   57.7500  -32.4760    0.0000 C   0  0  0  0  0  0  0  0  0  0  0  0
   57.0000  -31.1769    0.0000 C   0  0  0  0  0  0  0  0  0  0  0  0
   55.5000  -31.1769    0.0000 C   0  0  0  0  0  0  0  0  0  0  0  0
   54.7500  -29.8779    0.0000 C   0  0  0  0  0  0  0  0  0  0  0  0
   53.2500  -29.8779    0.0000 C   0  0  0  0  0  0  0  0  0  0  0  0
   52.5000  -28.5788    0.0000 C   0  0  0  0  0  0  0  0  0  0  0  0
   51.0000  -28.5788    0.0000 C   0  0  0  0  0  0  0  0  0  0  0  0
   50.2500  -27.2798    0.0000 C   0  0  0  0  0  0  0  0  0  0  0  0
   48.7500  -27.2798    0.0000 C   0  0  0  0  0  0  0  0  0  0  0  0
   48.0000  -25.9808    0.0000 C   0  0  0  0  0  0  0  0  0  0  0  0
   46.5000  -25.9808    0.0000 C   0  0  0  0  0  0  0  0  0  0  0  0
   45.7500  -24.6817    0.0000 C   0  0  0  0  0  0  0  0  0  0  0  0
   44.2500  -24.6817    0.0000 C   0  0  0  0  0  0  0  0  0  0  0  0
   43.5000  -23.3827    0.0000 C   0  0  0  0  0  0  0  0  0  0  0  0
   42.0000  -23.3827    0.0000 C   0  0  0  0  0  0  0  0  0  0  0  0
   41.2500  -22.0836    0.0000 C   0  0  0  0  0  0  0  0  0  0  0  0
   39.7500  -22.0836    0.0000 C   0  0  0  0  0  0  0  0  0  0  0  0
   39.0000  -20.7846    0.0000 C   0  0  0  0  0  0  0  0  0  0  0  0
   37.5000  -20.7846    0.0000 C   0  0  0  0  0  0  0  0  0  0  0  0
   36.7500  -19.4856    0.0000 C   0  0  0  0  0  0  0  0  0  0  0  0
   35.2500  -19.4856    0.0000 C   0  0  0  0  0  0  0  0  0  0  0  0
   34.5000  -18.1865    0.0000 C   0  0  0  0  0  0  0  0  0  0  0  0
   33.0000  -18.1865    0.0000 C   0  0  0  0  0  0  0  0  0  0  0  0
   32.2500  -16.8875    0.0000 C   0  0  0  0  0  0  0  0  0  0  0  0
   30.7500  -16.8875    0.0000 C   0  0  0  0  0  0  0  0  0  0  0  0
   30.0000  -15.5885    0.0000 C   0  0  0  0  0  0  0  0  0  0  0  0
   28.5000  -15.5885    0.0000 C   0  0  0  0  0  0  0  0  0  0  0  0
   27.7500  -14.2894    0.0000 C   0  0  0  0  0  0  0  0  0  0  0  0
   26.2500  -14.2894    0.0000 C   0  0  0  0  0  0  0  0  0  0  0  0
   25.5000  -12.9904    0.0000 C   0  0  0  0  0  0  0  0  0  0  0  0
   24.0000  -12.9904    0.0000 C   0  0  0  0  0  0  0  0  0  0  0  0
   23.2500  -11.6913    0.0000 C   0  0  0  0  0  0  0  0  0  0  0  0
   21.7500  -11.6913    0.0000 C   0  0  0  0  0  0  0  0  0  0  0  0
   21.0000  -10.3923    0.0000 C   0  0  0  0  0  0  0  0  0  0  0  0
   19.5000  -10.3923    0.0000 C   0  0  0  0  0  0  0  0  0  0  0  0
   18.7500   -9.0933    0.0000 C   0  0  0  0  0  0  0  0  0  0  0  0
   17.2500   -9.0933    0.0000 C   0  0  0  0  0  0  0  0  0  0  0  0
   16.5000   -7.7942    0.0000 C   0  0  0  0  0  0  0  0  0  0  0  0
   15.0000   -7.7942    0.0000 C   0  0  0  0  0  0  0  0  0  0  0  0
   14.2500   -6.4952    0.0000 C   0  0  0  0  0  0  0  0  0  0  0  0
   12.7500   -6.4952    0.0000 C   0  0  0  0  0  0  0  0  0  0  0  0
   12.0000   -5.1962    0.0000 C   0  0  0  0  0  0  0  0  0  0  0  0
   10.5000   -5.1962    0.0000 C   0  0  0  0  0  0  0  0  0  0  0  0
    9.7500   -3.8971    0.0000 C   0  0  0  0  0  0  0  0  0  0  0  0
    8.2500   -3.8971    0.0000 C   0  0  0  0  0  0  0  0  0  0  0  0
    7.5000   -2.5981    0.0000 C   0  0  0  0  0  0  0  0  0  0  0  0
    6.0000   -2.5981    0.0000 C   0  0  0  0  0  0  0  0  0  0  0  0
    5.2500   -1.2990    0.0000 C   0  0  0  0  0  0  0  0  0  0  0  0
    3.7500   -1.2990    0.0000 C   0  0  0  0  0  0  0  0  0  0  0  0
    3.0000    0.0000    0.0000 C   0  0  0  0  0  0  0  0  0  0  0  0
    1.5000    0.0000    0.0000 C   0  0  0  0  0  0  0  0  0  0  0  0
    0.7500   -1.2990    0.0000 C   0  0  0  0  0  0  0  0  0  0  0  0
   -0.7500   -1.2990    0.0000 C   0  0  0  0  0  0  0  0  0  0  0  0
   -1.5000    0.0000    0.0000 C   0  0  0  0  0  0  0  0  0  0  0  0
   -0.7500    1.2990    0.0000 C   0  0  0  0  0  0  0  0  0  0  0  0
    0.7500    1.2990    0.0000 C   0  0  0  0  0  0  0  0  0  0  0  0
    1.5000    2.5981    0.0000 C   0  0  0  0  0  0  0  0  0  0  0  0
    3.0000    2.5981    0.0000 C   0  0  0  0  0  0  0  0  0  0  0  0
    3.7500    3.8971    0.0000 C   0  0  0  0  0  0  0  0  0  0  0  0
    3.0000    5.1962    0.0000 C   0  0  0  0  0  0  0  0  0  0  0  0
    1.5000    5.1962    0.0000 C   0  0  0  0  0  0  0  0  0  0  0  0
    0.7500    3.8971    0.0000 C   0  0  0  0  0  0  0  0  0  0  0  0
   -0.7500    3.8971    0.0000 C   0  0  0  0  0  0  0  0  0  0  0  0
  1  2  1  0
  2  3  1  0
  3  4  1  0
  4  5  1  0
  5  6  1  0
  6  7  1  0
  7  8  1  0
  8  9  1  0
  9 10  1  0
 10 11  1  0
 11 12  1  0
 12 13  1  0
 13 14  1  0
 14 15  1  0
 15 16  1  0
 16 17  1  0
 17 18  1  0
 18 19  1  0
 19 20  1  0
 20 21  1  0
 21 22  1  0
 22 23  1  0
 23 24  1  0
 24 25  1  0
 25 26  1  0
 26 27  1  0
 27 28  1  0
 28 29  1  0
 29 30  1  0
 30 31  1  0
 31 32  1  0
 32 33  1  0
 33 34  1  0
 34 35  1  0
 35 36  1  0
 36 37  1  0
 37 38  1  0
 38 39  1  0
 39 40  1  0
 40 41  1  0
 41 42  1  0
 42 43  1  0
 43 44  1  0
 44 45  1  0
 45 46  1  0
 46 47  1  0
 47 48  1  0
 48 49  1  0
 49 50  1  0
 50 51  1  0
 51 52  1  0
 52 53  1  0
 53 54  1  0
 54 55  1  0
 55 56  1  0
 56 57  1  0
 57 58  1  0
 58 59  1  0
 59 60  1  0
 60 61  1  0
 61 62  1  0
 62 63  1  0
 63 64  1  0
 64 65  1  0
 65 66  1  0
 66 67  1  0
 67 68  1  0
 68 69  1  0
 69 70  1  0
 70 71  1  0
 71 72  1  0
 72 73  1  0
 73 74  1  0
 74 75  1  0
 75 76  1  0
 76 77  1  0
 77 78  1  0
 78 79  1  0
 79 80  1  0
 80 81  1  0
 81 82  1  0
 82 83  1  0
 83 84  1  0
 84 85  1  0
 85 86  1  0
 86 87  1  0
 87 88  1  0
 88 89  1  0
 89 90  1  0
 90 91  1  0
 91 92  1  0
 92 93  1  0
 93 94  1  0
 94 95  1  0
 95 96  1  0
 96 97  1  0
 97 98  1  0
 98 99  1  0
 99100  1  0
100101  1  0
101102  1  0
102103  1  0
103104  1  0
104105  1  0
105106  1  0
106107  1  0
107108  1  0
108109  2  0
109110  1  0
110111  2  0
111112  1  0
112113  2  0
113114  1  0
114115  1  0
115116  1  0
116117  1  0
117118  1  0
118119  2  0
119120  1  0
113108  1  0
119114  1  0
M  END
>  <Title>  (249) 
idAAHQgen9

$$$$

     RDKit          2D

 64 74  0  0  0  0  0  0  0  0999 V2000
    7.1840   -7.9416    0.0000 C   0  0  0  0  0  0  0  0  0  0  0  0
    5.6968   -7.7459    0.0000 C   0  0  0  0  0  0  0  0  0  0  0  0
    5.6968   -6.2459    0.0000 C   0  0  0  0  0  0  0  0  0  0  0  0
    5.3086   -4.7970    0.0000 C   0  0  0  0  0  0  0  0  0  0  0  0
    4.5586   -3.4979    0.0000 C   0  0  0  0  0  0  0  0  0  0  0  0
    3.4979   -2.4373    0.0000 C   0  0  0  0  0  0  0  0  0  0  0  0
    4.6126   -1.4336    0.0000 C   0  0  0  0  0  0  0  0  0  0  0  0
    4.0025   -0.0633    0.0000 C   0  0  0  0  0  0  0  0  0  0  0  0
    2.5108   -0.2200    0.0000 C   0  0  0  0  0  0  0  0  0  0  0  0
    2.1989   -1.6873    0.0000 C   0  0  0  0  0  0  0  0  0  0  0  0
    0.7500   -1.2990    0.0000 C   0  0  0  0  0  0  0  0  0  0  0  0
    1.5000    0.0000    0.0000 C   0  0  0  0  0  0  0  0  0  0  0  0
    0.7500    1.2990    0.0000 C   0  0  0  0  0  0  0  0  0  0  0  0
   -0.7500    1.2990    0.0000 C   0  0  0  0  0  0  0  0  0  0  0  0
   -1.5000    0.0000    0.0000 C   0  0  0  0  0  0  0  0  0  0  0  0
   -0.7500   -1.2990    0.0000 C   0  0  0  0  0  0  0  0  0  0  0  0
   -2.1989   -1.6873    0.0000 C   0  0  0  0  0  0  0  0  0  0  0  0
   -2.1989   -0.1873    0.0000 C   0  0  0  0  0  0  0  0  0  0  0  0
   -3.4979    0.5627    0.0000 C   0  0  0  0  0  0  0  0  0  0  0  0
   -4.7970   -0.1873    0.0000 C   0  0  0  0  0  0  0  0  0  0  0  0
   -4.7970   -1.6873    0.0000 C   0  0  0  0  0  0  0  0  0  0  0  0
   -3.4979   -2.4373    0.0000 C   0  0  0  0  0  0  0  0  0  0  0  0
   -4.5586   -3.4979    0.0000 C   0  0  0  0  0  0  0  0  0  0  0  0
   -5.3086   -2.1989    0.0000 C   0  0  0  0  0  0  0  0  0  0  0  0
   -6.8086   -2.1989    0.0000 C   0  0  0  0  0  0  0  0  0  0  0  0
   -7.5586   -3.4979    0.0000 C   0  0  0  0  0  0  0  0  0  0  0  0
   -6.8086   -4.7970    0.0000 C   0  0  0  0  0  0  0  0  0  0  0  0
   -5.3086   -4.7970    0.0000 C   0  0  0  0  0  0  0  0  0  0  0  0
   -5.6968   -6.2459    0.0000 C   0  0  0  0  0  0  0  0  0  0  0  0
   -6.9959   -5.4959    0.0000 C   0  0  0  0  0  0  0  0  0  0  0  0
   -8.2949   -6.2459    0.0000 C   0  0  0  0  0  0  0  0  0  0  0  0
   -8.2949   -7.7459    0.0000 C   0  0  0  0  0  0  0  0  0  0  0  0
   -6.9959   -8.4959    0.0000 C   0  0  0  0  0  0  0  0  0  0  0  0
   -5.6968   -7.7459    0.0000 C   0  0  0  0  0  0  0  0  0  0  0  0
   -5.3086   -9.1947    0.0000 C   0  0  0  0  0  0  0  0  0  0  0  0
   -6.8086   -9.1947    0.0000 C   0  0  0  0  0  0  0  0  0  0  0  0
   -7.5586  -10.4938    0.0000 C   0  0  0  0  0  0  0  0  0  0  0  0
   -6.8086  -11.7928    0.0000 C   0  0  0  0  0  0  0  0  0  0  0  0
   -5.3086  -11.7928    0.0000 C   0  0  0  0  0  0  0  0  0  0  0  0
   -4.5586  -10.4938    0.0000 C   0  0  0  0  0  0  0  0  0  0  0  0
   -3.4979  -11.5544    0.0000 C   0  0  0  0  0  0  0  0  0  0  0  0
   -4.7970  -12.3044    0.0000 C   0  0  0  0  0  0  0  0  0  0  0  0
   -4.7970  -13.8044    0.0000 C   0  0  0  0  0  0  0  0  0  0  0  0
   -3.4979  -14.5544    0.0000 C   0  0  0  0  0  0  0  0  0  0  0  0
   -2.1989  -13.8044    0.0000 C   0  0  0  0  0  0  0  0  0  0  0  0
   -2.1989  -12.3044    0.0000 C   0  0  0  0  0  0  0  0  0  0  0  0
   -0.7500  -12.6927    0.0000 C   0  0  0  0  0  0  0  0  0  0  0  0
   -1.5000  -13.9917    0.0000 C   0  0  0  0  0  0  0  0  0  0  0  0
   -0.7500  -15.2907    0.0000 C   0  0  0  0  0  0  0  0  0  0  0  0
    0.7500  -15.2907    0.0000 C   0  0  0  0  0  0  0  0  0  0  0  0
    1.5000  -13.9917    0.0000 C   0  0  0  0  0  0  0  0  0  0  0  0
    0.7500  -12.6927    0.0000 C   0  0  0  0  0  0  0  0  0  0  0  0
    2.1989  -12.3044    0.0000 C   0  0  0  0  0  0  0  0  0  0  0  0
    2.1989  -13.8044    0.0000 C   0  0  0  0  0  0  0  0  0  0  0  0
    3.4979  -14.5544    0.0000 C   0  0  0  0  0  0  0  0  0  0  0  0
    4.7970  -13.8044    0.0000 C   0  0  0  0  0  0  0  0  0  0  0  0
    4.7970  -12.3044    0.0000 C   0  0  0  0  0  0  0  0  0  0  0  0
    3.4979  -11.5544    0.0000 C   0  0  0  0  0  0  0  0  0  0  0  0
    4.5586  -10.4938    0.0000 C   0  0  0  0  0  0  0  0  0  0  0  0
    5.3086  -11.7928    0.0000 C   0  0  0  0  0  0  0  0  0  0  0  0
    6.8086  -11.7928    0.0000 C   0  0  0  0  0  0  0  0  0  0  0  0
    7.5586  -10.4938    0.0000 C   0  0  0  0  0  0  0  0  0  0  0  0
    6.8086   -9.1947    0.0000 C   0  0  0  0  0  0  0  0  0  0  0  0
    5.3086   -9.1947    0.0000 C   0  0  0  0  0  0  0  0  0  0  0  0
  1  2  1  0
  2  3  2  0
  3  4  1  0
  4  5  1  0
  5  6  1  0
  6  7  1  0
  7  8  2  0
  8  9  1  0
  9 10  2  0
 10 11  1  0
 11 12  2  0
 12 13  1  0
 13 14  2  0
 14 15  1  0
 15 16  2  0
 16 17  1  0
 17 18  2  0
 18 19  1  0
 19 20  2  0
 20 21  1  0
 21 22  2  0
 22 23  1  0
 23 24  2  0
 24 25  1  0
 25 26  2  0
 26 27  1  0
 27 28  2  0
 28 29  1  0
 29 30  2  0
 30 31  1  0
 31 32  2  0
 32 33  1  0
 33 34  2  0
 34 35  1  0
 35 36  2  0
 36 37  1  0
 37 38  2  0
 38 39  1  0
 39 40  2  0
 40 41  1  0
 41 42  2  0
 42 43  1  0
 43 44  2  0
 44 45  1  0
 45 46  2  0
 46 47  1  0
 47 48  2  0
 48 49  1  0
 49 50  2  0
 50 51  1  0
 51 52  2  0
 52 53  1  0
 53 54  2  0
 54 55  1  0
 55 56  2  0
 56 57  1  0
 57 58  2  0
 58 59  1  0
 59 60  2  0
 60 61  1  0
 61 62  2  0
 62 63  1  0
 63 64  2  0
 64  2  1  0
 10  6  1  0
 16 11  1  0
 22 17  1  0
 28 23  1  0
 34 29  1  0
 40 35  1  0
 46 41  1  0
 52 47  1  0
 58 53  1  0
 64 59  1  0
M  END
>  <Title>  (250) 
idAAHRgen9

$$$$

     RDKit          2D

  7  7  0  0  0  0  0  0  0  0999 V2000
    3.0000    0.0000    0.0000 O   0  0  0  0  0  0  0  0  0  0  0  0
    1.5000    0.0000    0.0000 C   0  0  0  0  0  0  0  0  0  0  0  0
    0.7500   -1.2990    0.0000 C   0  0  0  0  0  0  0  0  0  0  0  0
   -0.7500   -1.2990    0.0000 C   0  0  0  0  0  0  0  0  0  0  0  0
   -1.5000    0.0000    0.0000 C   0  0  0  0  0  0  0  0  0  0  0  0
   -0.7500    1.2990    0.0000 C   0  0  0  0  0  0  0  0  0  0  0  0
    0.7500    1.2990    0.0000 C   0  0  0  0  0  0  0  0  0  0  0  0
  1  2  1  0
  2  3  2  0
  3  4  1  0
  4  5  2  0
  5  6  1  0
  6  7  2  0
  7  2  1  0
M  END
>  <Title>  (251) 
idAAHSgen9

$$$$

     RDKit          2D

 38 43  0  0  0  0  0  0  0  0999 V2000
    3.1097   -7.2078    0.0000 C   0  0  0  0  0  0  0  0  0  0  0  0
    2.0490   -6.1471    0.0000 C   0  0  0  0  0  0  0  0  0  0  0  0
    2.7990   -4.8481    0.0000 C   0  0  0  0  0  0  0  0  0  0  0  0
    2.7990   -3.3481    0.0000 C   0  0  0  0  0  0  0  0  0  0  0  0
    2.0490   -2.0490    0.0000 C   0  0  0  0  0  0  0  0  0  0  0  0
    3.1097   -0.9884    0.0000 C   0  0  0  0  0  0  0  0  0  0  0  0
    2.7215    0.4605    0.0000 O   0  0  0  0  0  0  0  0  0  0  0  0
    4.5586   -1.3766    0.0000 N   0  0  0  0  0  0  0  0  0  0  0  0
    5.6192   -0.3159    0.0000 C   0  0  0  0  0  0  0  0  0  0  0  0
    7.0681   -0.7042    0.0000 N   0  0  0  0  0  0  0  0  0  0  0  0
    8.1288    0.3565    0.0000 N   0  0  0  0  0  0  0  0  0  0  0  0
    7.7406    1.8054    0.0000 N   0  0  0  0  0  0  0  0  0  0  0  0
    6.2917    2.1936    0.0000 N   0  0  0  0  0  0  0  0  0  0  0  0
    5.2310    1.1329    0.0000 N   0  0  0  0  0  0  0  0  0  0  0  0
    0.7500   -1.2990    0.0000 C   0  0  0  0  0  0  0  0  0  0  0  0
    1.5000    0.0000    0.0000 C   0  0  0  0  0  0  0  0  0  0  0  0
    0.7500    1.2990    0.0000 C   0  0  0  0  0  0  0  0  0  0  0  0
   -0.7500    1.2990    0.0000 C   0  0  0  0  0  0  0  0  0  0  0  0
   -1.5000    0.0000    0.0000 C   0  0  0  0  0  0  0  0  0  0  0  0
   -0.7500   -1.2990    0.0000 C   0  0  0  0  0  0  0  0  0  0  0  0
   -2.0490   -2.0490    0.0000 C   0  0  0  0  0  0  0  0  0  0  0  0
   -2.7990   -0.7500    0.0000 C   0  0  0  0  0  0  0  0  0  0  0  0
   -4.2990   -0.7500    0.0000 C   0  0  0  0  0  0  0  0  0  0  0  0
   -5.0490   -2.0490    0.0000 C   0  0  0  0  0  0  0  0  0  0  0  0
   -4.2990   -3.3481    0.0000 C   0  0  0  0  0  0  0  0  0  0  0  0
   -2.7990   -3.3481    0.0000 C   0  0  0  0  0  0  0  0  0  0  0  0
   -2.7990   -4.8481    0.0000 C   0  0  0  0  0  0  0  0  0  0  0  0
   -4.2990   -4.8481    0.0000 C   0  0  0  0  0  0  0  0  0  0  0  0
   -5.0490   -6.1471    0.0000 C   0  0  0  0  0  0  0  0  0  0  0  0
   -4.2990   -7.4462    0.0000 C   0  0  0  0  0  0  0  0  0  0  0  0
   -2.7990   -7.4462    0.0000 C   0  0  0  0  0  0  0  0  0  0  0  0
   -2.0490   -6.1471    0.0000 C   0  0  0  0  0  0  0  0  0  0  0  0
   -0.7500   -6.8971    0.0000 C   0  0  0  0  0  0  0  0  0  0  0  0
   -1.5000   -8.1962    0.0000 C   0  0  0  0  0  0  0  0  0  0  0  0
   -0.7500   -9.4952    0.0000 C   0  0  0  0  0  0  0  0  0  0  0  0
    0.7500   -9.4952    0.0000 C   0  0  0  0  0  0  0  0  0  0  0  0
    1.5000   -8.1962    0.0000 C   0  0  0  0  0  0  0  0  0  0  0  0
    0.7500   -6.8971    0.0000 C   0  0  0  0  0  0  0  0  0  0  0  0
  1  2  1  0
  2  3  2  0
  3  4  1  0
  4  5  2  0
  5  6  1  0
  6  7  2  0
  6  8  1  0
  8  9  1  0
  9 10  2  0
 10 11  1  0
 11 12  2  0
 12 13  1  0
 13 14  2  0
  5 15  1  0
 15 16  2  0
 16 17  1  0
 17 18  2  0
 18 19  1  0
 19 20  2  0
 20 21  1  0
 21 22  2  0
 22 23  1  0
 23 24  2  0
 24 25  1  0
 25 26  2  0
 26 27  1  0
 27 28  2  0
 28 29  1  0
 29 30  2  0
 30 31  1  0
 31 32  2  0
 32 33  1  0
 33 34  2  0
 34 35  1  0
 35 36  2  0
 36 37  1  0
 37 38  2  0
 38  2  1  0
 14  9  1  0
 20 15  1  0
 26 21  1  0
 32 27  1  0
 38 33  1  0
M  END
>  <Title>  (252) 
idAAHTgen9

$$$$

     RDKit          2D

 21 23  0  0  0  0  0  0  0  0999 V2000
    3.0000    0.0000    0.0000 C   0  0  0  0  0  0  0  0  0  0  0  0
    1.5000    0.0000    0.0000 C   0  0  0  0  0  0  0  0  0  0  0  0
    0.7500   -1.2990    0.0000 C   0  0  0  0  0  0  0  0  0  0  0  0
   -0.7500   -1.2990    0.0000 C   0  0  0  0  0  0  0  0  0  0  0  0
   -1.5000    0.0000    0.0000 C   0  0  0  0  0  0  0  0  0  0  0  0
   -3.0000    0.0000    0.0000 C   0  0  0  0  0  0  0  0  0  0  0  0
   -3.7500   -1.2990    0.0000 O   0  0  0  0  0  0  0  0  0  0  0  0
   -3.7500    1.2990    0.0000 N   0  0  0  0  0  0  0  0  0  0  0  0
   -5.2500    1.2990    0.0000 C   0  0  0  0  0  0  0  0  0  0  0  0
   -6.1317    0.0855    0.0000 N   0  0  0  0  0  0  0  0  0  0  0  0
   -7.5583    0.5490    0.0000 N   0  0  0  0  0  0  0  0  0  0  0  0
   -7.5583    2.0490    0.0000 N   0  0  0  0  0  0  0  0  0  0  0  0
   -6.1317    2.5126    0.0000 N   0  0  0  0  0  0  0  0  0  0  0  0
   -5.6682    3.9391    0.0000 C   0  0  0  0  0  0  0  0  0  0  0  0
   -4.2009    4.2510    0.0000 C   0  0  0  0  0  0  0  0  0  0  0  0
   -3.7374    5.6776    0.0000 C   0  0  0  0  0  0  0  0  0  0  0  0
   -4.7411    6.7923    0.0000 C   0  0  0  0  0  0  0  0  0  0  0  0
   -6.2083    6.4805    0.0000 C   0  0  0  0  0  0  0  0  0  0  0  0
   -6.6718    5.0539    0.0000 C   0  0  0  0  0  0  0  0  0  0  0  0
   -0.7500    1.2990    0.0000 C   0  0  0  0  0  0  0  0  0  0  0  0
    0.7500    1.2990    0.0000 C   0  0  0  0  0  0  0  0  0  0  0  0
  1  2  1  0
  2  3  2  0
  3  4  1  0
  4  5  1  0
  5  6  1  0
  6  7  2  0
  6  8  1  0
  8  9  1  0
  9 10  2  0
 10 11  1  0
 11 12  2  0
 12 13  1  0
 13 14  1  0
 14 15  2  0
 15 16  1  0
 16 17  2  0
 17 18  1  0
 18 19  2  0
  5 20  1  0
 20 21  2  0
 21  2  1  0
 13  9  1  0
 19 14  1  0
M  END
>  <Title>  (253) 
idAAHUgen9

$$$$

     RDKit          2D

118119  0  0  0  0  0  0  0  0999 V2000
   -2.3737    0.1115    0.0000 C   0  0  0  0  0  0  0  0  0  0  0  0
   -2.2476   -1.3831    0.0000 C   0  0  0  0  0  0  0  0  0  0  0  0
   -3.7382   -1.5511    0.0000 C   0  0  0  0  0  0  0  0  0  0  0  0
   -5.2170   -1.8023    0.0000 C   0  0  0  0  0  0  0  0  0  0  0  0
   -6.6794   -2.1361    0.0000 C   0  0  0  0  0  0  0  0  0  0  0  0
   -8.1208   -2.5514    0.0000 C   0  0  0  0  0  0  0  0  0  0  0  0
   -9.5366   -3.0468    0.0000 C   0  0  0  0  0  0  0  0  0  0  0  0
  -10.9224   -3.6208    0.0000 C   0  0  0  0  0  0  0  0  0  0  0  0
  -12.2739   -4.2717    0.0000 C   0  0  0  0  0  0  0  0  0  0  0  0
  -13.5867   -4.9972    0.0000 C   0  0  0  0  0  0  0  0  0  0  0  0
  -14.8568   -5.7953    0.0000 C   0  0  0  0  0  0  0  0  0  0  0  0
  -16.0801   -6.6633    0.0000 C   0  0  0  0  0  0  0  0  0  0  0  0
  -17.2529   -7.5985    0.0000 C   0  0  0  0  0  0  0  0  0  0  0  0
  -18.3714   -8.5980    0.0000 C   0  0  0  0  0  0  0  0  0  0  0  0
  -19.4320   -9.6587    0.0000 C   0  0  0  0  0  0  0  0  0  0  0  0
  -20.4315  -10.7772    0.0000 C   0  0  0  0  0  0  0  0  0  0  0  0
  -21.3668  -11.9499    0.0000 C   0  0  0  0  0  0  0  0  0  0  0  0
  -22.2348  -13.1733    0.0000 C   0  0  0  0  0  0  0  0  0  0  0  0
  -23.0328  -14.4433    0.0000 C   0  0  0  0  0  0  0  0  0  0  0  0
  -23.7584  -15.7562    0.0000 C   0  0  0  0  0  0  0  0  0  0  0  0
  -24.4092  -17.1076    0.0000 C   0  0  0  0  0  0  0  0  0  0  0  0
  -24.9833  -18.4934    0.0000 C   0  0  0  0  0  0  0  0  0  0  0  0
  -25.4787  -19.9093    0.0000 C   0  0  0  0  0  0  0  0  0  0  0  0
  -25.8939  -21.3506    0.0000 C   0  0  0  0  0  0  0  0  0  0  0  0
  -26.2277  -22.8130    0.0000 C   0  0  0  0  0  0  0  0  0  0  0  0
  -26.4790  -24.2918    0.0000 C   0  0  0  0  0  0  0  0  0  0  0  0
  -26.6469  -25.7824    0.0000 C   0  0  0  0  0  0  0  0  0  0  0  0
  -26.7310  -27.2801    0.0000 C   0  0  0  0  0  0  0  0  0  0  0  0
  -26.7310  -28.7801    0.0000 C   0  0  0  0  0  0  0  0  0  0  0  0
  -26.6469  -30.2777    0.0000 C   0  0  0  0  0  0  0  0  0  0  0  0
  -26.4790  -31.7683    0.0000 C   0  0  0  0  0  0  0  0  0  0  0  0
  -26.2277  -33.2471    0.0000 C   0  0  0  0  0  0  0  0  0  0  0  0
  -25.8939  -34.7095    0.0000 C   0  0  0  0  0  0  0  0  0  0  0  0
  -25.4787  -36.1508    0.0000 C   0  0  0  0  0  0  0  0  0  0  0  0
  -24.9833  -37.5667    0.0000 C   0  0  0  0  0  0  0  0  0  0  0  0
  -24.4092  -38.9525    0.0000 C   0  0  0  0  0  0  0  0  0  0  0  0
  -23.7584  -40.3039    0.0000 C   0  0  0  0  0  0  0  0  0  0  0  0
  -23.0328  -41.6168    0.0000 C   0  0  0  0  0  0  0  0  0  0  0  0
  -22.2348  -42.8869    0.0000 C   0  0  0  0  0  0  0  0  0  0  0  0
  -21.3668  -44.1102    0.0000 C   0  0  0  0  0  0  0  0  0  0  0  0
  -20.4315  -45.2829    0.0000 C   0  0  0  0  0  0  0  0  0  0  0  0
  -19.4320  -46.4014    0.0000 C   0  0  0  0  0  0  0  0  0  0  0  0
  -18.3714  -47.4621    0.0000 C   0  0  0  0  0  0  0  0  0  0  0  0
  -17.2529  -48.4616    0.0000 C   0  0  0  0  0  0  0  0  0  0  0  0
  -16.0801  -49.3968    0.0000 C   0  0  0  0  0  0  0  0  0  0  0  0
  -14.8568  -50.2648    0.0000 C   0  0  0  0  0  0  0  0  0  0  0  0
  -13.5867  -51.0629    0.0000 C   0  0  0  0  0  0  0  0  0  0  0  0
  -12.2739  -51.7885    0.0000 C   0  0  0  0  0  0  0  0  0  0  0  0
  -10.9224  -52.4393    0.0000 C   0  0  0  0  0  0  0  0  0  0  0  0
   -9.5366  -53.0133    0.0000 C   0  0  0  0  0  0  0  0  0  0  0  0
   -8.1208  -53.5087    0.0000 C   0  0  0  0  0  0  0  0  0  0  0  0
   -6.6794  -53.9240    0.0000 C   0  0  0  0  0  0  0  0  0  0  0  0
   -5.2170  -54.2578    0.0000 C   0  0  0  0  0  0  0  0  0  0  0  0
   -3.7382  -54.5090    0.0000 C   0  0  0  0  0  0  0  0  0  0  0  0
   -2.2476  -54.6770    0.0000 C   0  0  0  0  0  0  0  0  0  0  0  0
   -0.7500  -54.7611    0.0000 C   0  0  0  0  0  0  0  0  0  0  0  0
    0.7500  -54.7611    0.0000 C   0  0  0  0  0  0  0  0  0  0  0  0
    2.2476  -54.6770    0.0000 C   0  0  0  0  0  0  0  0  0  0  0  0
    3.7382  -54.5090    0.0000 C   0  0  0  0  0  0  0  0  0  0  0  0
    5.2170  -54.2578    0.0000 C   0  0  0  0  0  0  0  0  0  0  0  0
    6.6794  -53.9240    0.0000 C   0  0  0  0  0  0  0  0  0  0  0  0
    8.1208  -53.5087    0.0000 C   0  0  0  0  0  0  0  0  0  0  0  0
    9.5366  -53.0133    0.0000 C   0  0  0  0  0  0  0  0  0  0  0  0
   10.9224  -52.4393    0.0000 C   0  0  0  0  0  0  0  0  0  0  0  0
   12.2739  -51.7885    0.0000 C   0  0  0  0  0  0  0  0  0  0  0  0
   13.5867  -51.0629    0.0000 C   0  0  0  0  0  0  0  0  0  0  0  0
   14.8568  -50.2648    0.0000 C   0  0  0  0  0  0  0  0  0  0  0  0
   16.0801  -49.3968    0.0000 C   0  0  0  0  0  0  0  0  0  0  0  0
   17.2529  -48.4616    0.0000 C   0  0  0  0  0  0  0  0  0  0  0  0
   18.3714  -47.4621    0.0000 C   0  0  0  0  0  0  0  0  0  0  0  0
   19.4320  -46.4014    0.0000 C   0  0  0  0  0  0  0  0  0  0  0  0
   20.4315  -45.2829    0.0000 C   0  0  0  0  0  0  0  0  0  0  0  0
   21.3668  -44.1102    0.0000 C   0  0  0  0  0  0  0  0  0  0  0  0
   22.2348  -42.8869    0.0000 C   0  0  0  0  0  0  0  0  0  0  0  0
   23.0328  -41.6168    0.0000 C   0  0  0  0  0  0  0  0  0  0  0  0
   23.7584  -40.3039    0.0000 C   0  0  0  0  0  0  0  0  0  0  0  0
   24.4092  -38.9525    0.0000 C   0  0  0  0  0  0  0  0  0  0  0  0
   24.9833  -37.5667    0.0000 C   0  0  0  0  0  0  0  0  0  0  0  0
   25.4787  -36.1508    0.0000 C   0  0  0  0  0  0  0  0  0  0  0  0
   25.8939  -34.7095    0.0000 C   0  0  0  0  0  0  0  0  0  0  0  0
   26.2277  -33.2471    0.0000 C   0  0  0  0  0  0  0  0  0  0  0  0
   26.4790  -31.7683    0.0000 C   0  0  0  0  0  0  0  0  0  0  0  0
   26.6469  -30.2777    0.0000 C   0  0  0  0  0  0  0  0  0  0  0  0
   26.7310  -28.7801    0.0000 C   0  0  0  0  0  0  0  0  0  0  0  0
   26.7310  -27.2801    0.0000 C   0  0  0  0  0  0  0  0  0  0  0  0
   26.6469  -25.7824    0.0000 C   0  0  0  0  0  0  0  0  0  0  0  0
   26.4790  -24.2918    0.0000 C   0  0  0  0  0  0  0  0  0  0  0  0
   26.2277  -22.8130    0.0000 C   0  0  0  0  0  0  0  0  0  0  0  0
   25.8939  -21.3506    0.0000 C   0  0  0  0  0  0  0  0  0  0  0  0
   25.4787  -19.9093    0.0000 C   0  0  0  0  0  0  0  0  0  0  0  0
   24.9833  -18.4934    0.0000 C   0  0  0  0  0  0  0  0  0  0  0  0
   24.4092  -17.1076    0.0000 C   0  0  0  0  0  0  0  0  0  0  0  0
   23.7584  -15.7562    0.0000 C   0  0  0  0  0  0  0  0  0  0  0  0
   23.0328  -14.4433    0.0000 C   0  0  0  0  0  0  0  0  0  0  0  0
   22.2348  -13.1733    0.0000 C   0  0  0  0  0  0  0  0  0  0  0  0
   21.3668  -11.9499    0.0000 C   0  0  0  0  0  0  0  0  0  0  0  0
   20.4315  -10.7772    0.0000 C   0  0  0  0  0  0  0  0  0  0  0  0
   19.4320   -9.6587    0.0000 C   0  0  0  0  0  0  0  0  0  0  0  0
   18.3714   -8.5980    0.0000 C   0  0  0  0  0  0  0  0  0  0  0  0
   17.2529   -7.5985    0.0000 C   0  0  0  0  0  0  0  0  0  0  0  0
   16.0801   -6.6633    0.0000 C   0  0  0  0  0  0  0  0  0  0  0  0
   14.8568   -5.7953    0.0000 C   0  0  0  0  0  0  0  0  0  0  0  0
   13.5867   -4.9972    0.0000 C   0  0  0  0  0  0  0  0  0  0  0  0
   12.2739   -4.2717    0.0000 C   0  0  0  0  0  0  0  0  0  0  0  0
   10.9224   -3.6208    0.0000 C   0  0  0  0  0  0  0  0  0  0  0  0
    9.5366   -3.0468    0.0000 C   0  0  0  0  0  0  0  0  0  0  0  0
    8.1208   -2.5514    0.0000 C   0  0  0  0  0  0  0  0  0  0  0  0
    6.6794   -2.1361    0.0000 C   0  0  0  0  0  0  0  0  0  0  0  0
    5.2170   -1.8023    0.0000 C   0  0  0  0  0  0  0  0  0  0  0  0
    3.7382   -1.5511    0.0000 C   0  0  0  0  0  0  0  0  0  0  0  0
    2.2476   -1.3831    0.0000 C   0  0  0  0  0  0  0  0  0  0  0  0
    2.3737    0.1115    0.0000 C   0  0  0  0  0  0  0  0  0  0  0  0
    0.7500   -1.2990    0.0000 C   0  0  0  0  0  0  0  0  0  0  0  0
    1.5000    0.0000    0.0000 C   0  0  0  0  0  0  0  0  0  0  0  0
    0.7500    1.2990    0.0000 C   0  0  0  0  0  0  0  0  0  0  0  0
   -0.7500    1.2990    0.0000 C   0  0  0  0  0  0  0  0  0  0  0  0
   -1.5000    0.0000    0.0000 C   0  0  0  0  0  0  0  0  0  0  0  0
   -0.7500   -1.2990    0.0000 C   0  0  0  0  0  0  0  0  0  0  0  0
  1  2  1  0
  2  3  1  0
  3  4  1  0
  4  5  1  0
  5  6  1  0
  6  7  1  0
  7  8  1  0
  8  9  1  0
  9 10  1  0
 10 11  1  0
 11 12  1  0
 12 13  1  0
 13 14  1  0
 14 15  1  0
 15 16  1  0
 16 17  1  0
 17 18  1  0
 18 19  1  0
 19 20  1  0
 20 21  1  0
 21 22  1  0
 22 23  1  0
 23 24  1  0
 24 25  1  0
 25 26  1  0
 26 27  1  0
 27 28  1  0
 28 29  1  0
 29 30  1  0
 30 31  1  0
 31 32  1  0
 32 33  1  0
 33 34  1  0
 34 35  1  0
 35 36  1  0
 36 37  1  0
 37 38  1  0
 38 39  1  0
 39 40  1  0
 40 41  1  0
 41 42  1  0
 42 43  1  0
 43 44  1  0
 44 45  1  0
 45 46  1  0
 46 47  1  0
 47 48  1  0
 48 49  1  0
 49 50  1  0
 50 51  1  0
 51 52  1  0
 52 53  1  0
 53 54  1  0
 54 55  1  0
 55 56  1  0
 56 57  1  0
 57 58  1  0
 58 59  1  0
 59 60  1  0
 60 61  1  0
 61 62  1  0
 62 63  1  0
 63 64  1  0
 64 65  1  0
 65 66  1  0
 66 67  1  0
 67 68  1  0
 68 69  1  0
 69 70  1  0
 70 71  1  0
 71 72  1  0
 72 73  1  0
 73 74  1  0
 74 75  1  0
 75 76  1  0
 76 77  1  0
 77 78  1  0
 78 79  1  0
 79 80  1  0
 80 81  1  0
 81 82  1  0
 82 83  1  0
 83 84  1  0
 84 85  1  0
 85 86  1  0
 86 87  1  0
 87 88  1  0
 88 89  1  0
 89 90  1  0
 90 91  1  0
 91 92  1  0
 92 93  1  0
 93 94  1  0
 94 95  1  0
 95 96  1  0
 96 97  1  0
 97 98  1  0
 98 99  1  0
 99100  1  0
100101  1  0
101102  1  0
102103  1  0
103104  1  0
104105  1  0
105106  1  0
106107  1  0
107108  1  0
108109  1  0
109110  1  0
110111  1  0
111112  1  0
111113  1  0
113114  2  0
114115  1  0
115116  2  0
116117  1  0
117118  2  0
118  2  1  0
118113  1  0
M  END
>  <Title>  (254) 
idAAHVgen9

$$$$

     RDKit          2D

  9  9  0  0  0  0  0  0  0  0999 V2000
    4.7286   -0.0000    0.0000 N   0  0  0  0  0  0  0  0  0  0  0  0
    3.2286   -0.0000    0.0000 C   0  0  0  0  0  0  0  0  0  0  0  0
    1.7286    0.0000    0.0000 C   0  0  0  0  0  0  0  0  0  0  0  0
    1.0777    1.3515    0.0000 C   0  0  0  0  0  0  0  0  0  0  0  0
   -0.3846    1.6852    0.0000 C   0  0  0  0  0  0  0  0  0  0  0  0
   -1.5574    0.7500    0.0000 C   0  0  0  0  0  0  0  0  0  0  0  0
   -1.5574   -0.7500    0.0000 C   0  0  0  0  0  0  0  0  0  0  0  0
   -0.3846   -1.6852    0.0000 C   0  0  0  0  0  0  0  0  0  0  0  0
    1.0777   -1.3515    0.0000 C   0  0  0  0  0  0  0  0  0  0  0  0
  1  2  3  0
  2  3  1  0
  3  4  2  0
  4  5  1  0
  5  6  1  0
  6  7  1  0
  7  8  1  0
  8  9  1  0
  9  3  1  0
M  END
>  <Title>  (255) 
idAAHWgen9

$$$$

     RDKit          2D

 55 60  0  0  0  0  0  0  0  0999 V2000
  -14.8075  -18.7395    0.0000 C   0  0  0  0  0  0  0  0  0  0  0  0
  -13.6043  -17.8437    0.0000 C   0  0  0  0  0  0  0  0  0  0  0  0
  -12.4011  -16.9480    0.0000 C   0  0  0  0  0  0  0  0  0  0  0  0
  -11.1979  -16.0522    0.0000 C   0  0  0  0  0  0  0  0  0  0  0  0
   -9.9947  -15.1565    0.0000 C   0  0  0  0  0  0  0  0  0  0  0  0
   -8.7915  -14.2608    0.0000 C   0  0  0  0  0  0  0  0  0  0  0  0
   -7.5884  -13.3650    0.0000 C   0  0  0  0  0  0  0  0  0  0  0  0
   -6.3852  -12.4693    0.0000 C   0  0  0  0  0  0  0  0  0  0  0  0
   -5.1820  -11.5735    0.0000 C   0  0  0  0  0  0  0  0  0  0  0  0
   -4.1526  -12.6646    0.0000 C   0  0  0  0  0  0  0  0  0  0  0  0
   -2.8994  -13.4889    0.0000 C   0  0  0  0  0  0  0  0  0  0  0  0
   -1.4899  -14.0019    0.0000 C   0  0  0  0  0  0  0  0  0  0  0  0
    0.0000  -14.1760    0.0000 C   0  0  0  0  0  0  0  0  0  0  0  0
    1.4899  -14.0019    0.0000 C   0  0  0  0  0  0  0  0  0  0  0  0
    2.8994  -13.4889    0.0000 C   0  0  0  0  0  0  0  0  0  0  0  0
    4.1526  -12.6646    0.0000 C   0  0  0  0  0  0  0  0  0  0  0  0
    5.1820  -11.5735    0.0000 C   0  0  0  0  0  0  0  0  0  0  0  0
    5.9320  -10.2745    0.0000 C   0  0  0  0  0  0  0  0  0  0  0  0
    6.3622   -8.8375    0.0000 C   0  0  0  0  0  0  0  0  0  0  0  0
    6.4494   -7.3401    0.0000 C   0  0  0  0  0  0  0  0  0  0  0  0
    6.1889   -5.8629    0.0000 C   0  0  0  0  0  0  0  0  0  0  0  0
    5.5948   -4.4855    0.0000 C   0  0  0  0  0  0  0  0  0  0  0  0
    4.6991   -3.2823    0.0000 C   0  0  0  0  0  0  0  0  0  0  0  0
    3.5500   -2.3182    0.0000 C   0  0  0  0  0  0  0  0  0  0  0  0
    2.2096   -1.6450    0.0000 C   0  0  0  0  0  0  0  0  0  0  0  0
    0.7500   -1.2990    0.0000 C   0  0  0  0  0  0  0  0  0  0  0  0
    1.5000    0.0000    0.0000 C   0  0  0  0  0  0  0  0  0  0  0  0
    0.7500    1.2990    0.0000 C   0  0  0  0  0  0  0  0  0  0  0  0
   -0.7500    1.2990    0.0000 C   0  0  0  0  0  0  0  0  0  0  0  0
   -1.5000    0.0000    0.0000 C   0  0  0  0  0  0  0  0  0  0  0  0
   -0.7500   -1.2990    0.0000 C   0  0  0  0  0  0  0  0  0  0  0  0
   -2.2096   -1.6450    0.0000 C   0  0  0  0  0  0  0  0  0  0  0  0
   -2.7479   -0.4617    0.0000 C   0  0  0  0  0  0  0  0  0  0  0  0
   -3.4163   -0.0221    0.0000 C   0  0  0  0  0  0  0  0  0  0  0  0
   -4.1312   -0.3811    0.0000 C   0  0  0  0  0  0  0  0  0  0  0  0
   -4.1777   -1.1797    0.0000 C   0  0  0  0  0  0  0  0  0  0  0  0
   -3.5500   -2.3182    0.0000 C   0  0  0  0  0  0  0  0  0  0  0  0
   -4.6991   -3.2823    0.0000 C   0  0  0  0  0  0  0  0  0  0  0  0
   -5.2932   -1.9050    0.0000 C   0  0  0  0  0  0  0  0  0  0  0  0
   -6.7831   -1.7309    0.0000 C   0  0  0  0  0  0  0  0  0  0  0  0
   -7.6788   -2.9341    0.0000 C   0  0  0  0  0  0  0  0  0  0  0  0
   -7.0847   -4.3114    0.0000 C   0  0  0  0  0  0  0  0  0  0  0  0
   -5.5948   -4.4855    0.0000 C   0  0  0  0  0  0  0  0  0  0  0  0
   -6.1889   -5.8629    0.0000 C   0  0  0  0  0  0  0  0  0  0  0  0
   -7.4596   -5.5880    0.0000 C   0  0  0  0  0  0  0  0  0  0  0  0
   -8.2113   -5.8617    0.0000 C   0  0  0  0  0  0  0  0  0  0  0  0
   -8.3502   -6.6495    0.0000 C   0  0  0  0  0  0  0  0  0  0  0  0
   -7.7374   -7.1637    0.0000 C   0  0  0  0  0  0  0  0  0  0  0  0
   -6.4494   -7.3401    0.0000 C   0  0  0  0  0  0  0  0  0  0  0  0
   -6.3622   -8.8375    0.0000 C   0  0  0  0  0  0  0  0  0  0  0  0
   -7.8218   -8.4916    0.0000 C   0  0  0  0  0  0  0  0  0  0  0  0
   -8.8511   -9.5827    0.0000 C   0  0  0  0  0  0  0  0  0  0  0  0
   -8.4209  -11.0196    0.0000 C   0  0  0  0  0  0  0  0  0  0  0  0
   -6.9614  -11.3656    0.0000 C   0  0  0  0  0  0  0  0  0  0  0  0
   -5.9320  -10.2745    0.0000 C   0  0  0  0  0  0  0  0  0  0  0  0
  1  2  3  0
  2  3  1  0
  3  4  3  0
  4  5  1  0
  5  6  3  0
  6  7  1  0
  7  8  3  0
  8  9  1  0
  9 10  2  0
 10 11  1  0
 11 12  1  0
 12 13  1  0
 13 14  1  0
 14 15  1  0
 15 16  1  0
 16 17  1  0
 17 18  1  0
 18 19  1  0
 19 20  1  0
 20 21  1  0
 21 22  1  0
 22 23  1  0
 23 24  1  0
 24 25  1  0
 25 26  1  0
 26 27  2  0
 27 28  1  0
 28 29  2  0
 29 30  1  0
 30 31  2  0
 31 32  1  0
 32 33  2  0
 33 34  1  0
 34 35  2  0
 35 36  1  0
 36 37  2  0
 37 38  1  0
 38 39  2  0
 39 40  1  0
 40 41  2  0
 41 42  1  0
 42 43  2  0
 43 44  1  0
 44 45  2  0
 45 46  1  0
 46 47  2  0
 47 48  1  0
 48 49  2  0
 49 50  1  0
 50 51  2  0
 51 52  1  0
 52 53  2  0
 53 54  1  0
 54 55  2  0
 55  9  1  0
 31 26  1  0
 37 32  1  0
 43 38  1  0
 49 44  1  0
 55 50  1  0
M  END
>  <Title>  (256) 
idAAHXgen9

$$$$

     RDKit          2D

125125  0  0  0  0  0  0  0  0999 V2000
   31.1060    0.0000    0.0000 C   0  0  0  0  0  0  0  0  0  0  0  0
   29.6060    0.0000    0.0000 C   0  0  0  0  0  0  0  0  0  0  0  0
   29.5680   -1.4995    0.0000 C   0  0  0  0  0  0  0  0  0  0  0  0
   29.4541   -2.9952    0.0000 C   0  0  0  0  0  0  0  0  0  0  0  0
   29.2646   -4.4832    0.0000 C   0  0  0  0  0  0  0  0  0  0  0  0
   29.0000   -5.9596    0.0000 C   0  0  0  0  0  0  0  0  0  0  0  0
   28.6609   -7.4208    0.0000 C   0  0  0  0  0  0  0  0  0  0  0  0
   28.2482   -8.8629    0.0000 C   0  0  0  0  0  0  0  0  0  0  0  0
   27.7631  -10.2823    0.0000 C   0  0  0  0  0  0  0  0  0  0  0  0
   27.2067  -11.6753    0.0000 C   0  0  0  0  0  0  0  0  0  0  0  0
   26.5804  -13.0383    0.0000 C   0  0  0  0  0  0  0  0  0  0  0  0
   25.8859  -14.3678    0.0000 C   0  0  0  0  0  0  0  0  0  0  0  0
   25.1250  -15.6605    0.0000 C   0  0  0  0  0  0  0  0  0  0  0  0
   24.2995  -16.9130    0.0000 C   0  0  0  0  0  0  0  0  0  0  0  0
   23.4117  -18.1220    0.0000 C   0  0  0  0  0  0  0  0  0  0  0  0
   22.4638  -19.2845    0.0000 C   0  0  0  0  0  0  0  0  0  0  0  0
   21.4582  -20.3975    0.0000 C   0  0  0  0  0  0  0  0  0  0  0  0
   20.3975  -21.4582    0.0000 C   0  0  0  0  0  0  0  0  0  0  0  0
   19.2845  -22.4638    0.0000 C   0  0  0  0  0  0  0  0  0  0  0  0
   18.1220  -23.4117    0.0000 C   0  0  0  0  0  0  0  0  0  0  0  0
   16.9130  -24.2995    0.0000 C   0  0  0  0  0  0  0  0  0  0  0  0
   15.6605  -25.1250    0.0000 C   0  0  0  0  0  0  0  0  0  0  0  0
   14.3678  -25.8859    0.0000 C   0  0  0  0  0  0  0  0  0  0  0  0
   13.0383  -26.5804    0.0000 C   0  0  0  0  0  0  0  0  0  0  0  0
   11.6753  -27.2067    0.0000 C   0  0  0  0  0  0  0  0  0  0  0  0
   10.2823  -27.7631    0.0000 C   0  0  0  0  0  0  0  0  0  0  0  0
    8.8629  -28.2482    0.0000 C   0  0  0  0  0  0  0  0  0  0  0  0
    7.4208  -28.6609    0.0000 C   0  0  0  0  0  0  0  0  0  0  0  0
    5.9596  -29.0000    0.0000 C   0  0  0  0  0  0  0  0  0  0  0  0
    4.4832  -29.2646    0.0000 C   0  0  0  0  0  0  0  0  0  0  0  0
    2.9952  -29.4541    0.0000 C   0  0  0  0  0  0  0  0  0  0  0  0
    1.4995  -29.5680    0.0000 C   0  0  0  0  0  0  0  0  0  0  0  0
   -0.0000  -29.6060    0.0000 C   0  0  0  0  0  0  0  0  0  0  0  0
   -1.4995  -29.5680    0.0000 C   0  0  0  0  0  0  0  0  0  0  0  0
   -2.9952  -29.4541    0.0000 C   0  0  0  0  0  0  0  0  0  0  0  0
   -4.4832  -29.2646    0.0000 C   0  0  0  0  0  0  0  0  0  0  0  0
   -5.9596  -29.0000    0.0000 C   0  0  0  0  0  0  0  0  0  0  0  0
   -7.4208  -28.6609    0.0000 C   0  0  0  0  0  0  0  0  0  0  0  0
   -8.8629  -28.2482    0.0000 C   0  0  0  0  0  0  0  0  0  0  0  0
  -10.2823  -27.7631    0.0000 C   0  0  0  0  0  0  0  0  0  0  0  0
  -11.6753  -27.2067    0.0000 C   0  0  0  0  0  0  0  0  0  0  0  0
  -13.0383  -26.5804    0.0000 C   0  0  0  0  0  0  0  0  0  0  0  0
  -14.3678  -25.8859    0.0000 C   0  0  0  0  0  0  0  0  0  0  0  0
  -15.6605  -25.1250    0.0000 C   0  0  0  0  0  0  0  0  0  0  0  0
  -16.9130  -24.2995    0.0000 C   0  0  0  0  0  0  0  0  0  0  0  0
  -18.1220  -23.4117    0.0000 C   0  0  0  0  0  0  0  0  0  0  0  0
  -19.2845  -22.4638    0.0000 C   0  0  0  0  0  0  0  0  0  0  0  0
  -20.3975  -21.4582    0.0000 C   0  0  0  0  0  0  0  0  0  0  0  0
  -21.4582  -20.3975    0.0000 C   0  0  0  0  0  0  0  0  0  0  0  0
  -22.4638  -19.2845    0.0000 C   0  0  0  0  0  0  0  0  0  0  0  0
  -23.4117  -18.1220    0.0000 C   0  0  0  0  0  0  0  0  0  0  0  0
  -24.2995  -16.9130    0.0000 C   0  0  0  0  0  0  0  0  0  0  0  0
  -25.1250  -15.6605    0.0000 C   0  0  0  0  0  0  0  0  0  0  0  0
  -25.8859  -14.3678    0.0000 C   0  0  0  0  0  0  0  0  0  0  0  0
  -26.5804  -13.0383    0.0000 C   0  0  0  0  0  0  0  0  0  0  0  0
  -27.2067  -11.6753    0.0000 C   0  0  0  0  0  0  0  0  0  0  0  0
  -27.7631  -10.2823    0.0000 C   0  0  0  0  0  0  0  0  0  0  0  0
  -28.2482   -8.8629    0.0000 C   0  0  0  0  0  0  0  0  0  0  0  0
  -28.6609   -7.4208    0.0000 C   0  0  0  0  0  0  0  0  0  0  0  0
  -29.0000   -5.9596    0.0000 C   0  0  0  0  0  0  0  0  0  0  0  0
  -29.2646   -4.4832    0.0000 C   0  0  0  0  0  0  0  0  0  0  0  0
  -29.4541   -2.9952    0.0000 C   0  0  0  0  0  0  0  0  0  0  0  0
  -29.5680   -1.4995    0.0000 C   0  0  0  0  0  0  0  0  0  0  0  0
  -29.6060    0.0000    0.0000 C   0  0  0  0  0  0  0  0  0  0  0  0
  -29.5680    1.4995    0.0000 C   0  0  0  0  0  0  0  0  0  0  0  0
  -29.4541    2.9952    0.0000 C   0  0  0  0  0  0  0  0  0  0  0  0
  -29.2646    4.4832    0.0000 C   0  0  0  0  0  0  0  0  0  0  0  0
  -29.0000    5.9596    0.0000 C   0  0  0  0  0  0  0  0  0  0  0  0
  -28.6609    7.4208    0.0000 C   0  0  0  0  0  0  0  0  0  0  0  0
  -28.2482    8.8629    0.0000 C   0  0  0  0  0  0  0  0  0  0  0  0
  -27.7631   10.2823    0.0000 C   0  0  0  0  0  0  0  0  0  0  0  0
  -27.2067   11.6753    0.0000 C   0  0  0  0  0  0  0  0  0  0  0  0
  -26.5804   13.0383    0.0000 C   0  0  0  0  0  0  0  0  0  0  0  0
  -25.8859   14.3678    0.0000 C   0  0  0  0  0  0  0  0  0  0  0  0
  -25.1250   15.6605    0.0000 C   0  0  0  0  0  0  0  0  0  0  0  0
  -24.2995   16.9130    0.0000 C   0  0  0  0  0  0  0  0  0  0  0  0
  -23.4117   18.1220    0.0000 C   0  0  0  0  0  0  0  0  0  0  0  0
  -22.4638   19.2845    0.0000 C   0  0  0  0  0  0  0  0  0  0  0  0
  -21.4582   20.3975    0.0000 C   0  0  0  0  0  0  0  0  0  0  0  0
  -20.3975   21.4582    0.0000 C   0  0  0  0  0  0  0  0  0  0  0  0
  -19.2845   22.4638    0.0000 C   0  0  0  0  0  0  0  0  0  0  0  0
  -18.1220   23.4117    0.0000 C   0  0  0  0  0  0  0  0  0  0  0  0
  -16.9130   24.2995    0.0000 C   0  0  0  0  0  0  0  0  0  0  0  0
  -15.6605   25.1250    0.0000 C   0  0  0  0  0  0  0  0  0  0  0  0
  -14.3678   25.8859    0.0000 C   0  0  0  0  0  0  0  0  0  0  0  0
  -13.0383   26.5804    0.0000 C   0  0  0  0  0  0  0  0  0  0  0  0
  -11.6753   27.2067    0.0000 C   0  0  0  0  0  0  0  0  0  0  0  0
  -10.2823   27.7631    0.0000 C   0  0  0  0  0  0  0  0  0  0  0  0
   -8.8629   28.2482    0.0000 C   0  0  0  0  0  0  0  0  0  0  0  0
   -7.4208   28.6609    0.0000 C   0  0  0  0  0  0  0  0  0  0  0  0
   -5.9596   29.0000    0.0000 C   0  0  0  0  0  0  0  0  0  0  0  0
   -4.4832   29.2646    0.0000 C   0  0  0  0  0  0  0  0  0  0  0  0
   -2.9952   29.4541    0.0000 C   0  0  0  0  0  0  0  0  0  0  0  0
   -1.4995   29.5680    0.0000 C   0  0  0  0  0  0  0  0  0  0  0  0
    0.0000   29.6060    0.0000 C   0  0  0  0  0  0  0  0  0  0  0  0
    1.4995   29.5680    0.0000 C   0  0  0  0  0  0  0  0  0  0  0  0
    2.9952   29.4541    0.0000 C   0  0  0  0  0  0  0  0  0  0  0  0
    4.4832   29.2646    0.0000 C   0  0  0  0  0  0  0  0  0  0  0  0
    5.9596   29.0000    0.0000 C   0  0  0  0  0  0  0  0  0  0  0  0
    7.4208   28.6609    0.0000 C   0  0  0  0  0  0  0  0  0  0  0  0
    8.8629   28.2482    0.0000 C   0  0  0  0  0  0  0  0  0  0  0  0
   10.2823   27.7631    0.0000 C   0  0  0  0  0  0  0  0  0  0  0  0
   11.6753   27.2067    0.0000 C   0  0  0  0  0  0  0  0  0  0  0  0
   13.0383   26.5804    0.0000 C   0  0  0  0  0  0  0  0  0  0  0  0
   14.3678   25.8859    0.0000 C   0  0  0  0  0  0  0  0  0  0  0  0
   15.6605   25.1250    0.0000 C   0  0  0  0  0  0  0  0  0  0  0  0
   16.9130   24.2995    0.0000 C   0  0  0  0  0  0  0  0  0  0  0  0
   18.1220   23.4117    0.0000 C   0  0  0  0  0  0  0  0  0  0  0  0
   19.2845   22.4638    0.0000 C   0  0  0  0  0  0  0  0  0  0  0  0
   20.3975   21.4582    0.0000 C   0  0  0  0  0  0  0  0  0  0  0  0
   21.4582   20.3975    0.0000 C   0  0  0  0  0  0  0  0  0  0  0  0
   22.4638   19.2845    0.0000 C   0  0  0  0  0  0  0  0  0  0  0  0
   23.4117   18.1220    0.0000 C   0  0  0  0  0  0  0  0  0  0  0  0
   24.2995   16.9130    0.0000 C   0  0  0  0  0  0  0  0  0  0  0  0
   25.1250   15.6605    0.0000 C   0  0  0  0  0  0  0  0  0  0  0  0
   25.8859   14.3678    0.0000 C   0  0  0  0  0  0  0  0  0  0  0  0
   26.5804   13.0383    0.0000 C   0  0  0  0  0  0  0  0  0  0  0  0
   27.2067   11.6753    0.0000 C   0  0  0  0  0  0  0  0  0  0  0  0
   27.7631   10.2823    0.0000 C   0  0  0  0  0  0  0  0  0  0  0  0
   28.2482    8.8629    0.0000 C   0  0  0  0  0  0  0  0  0  0  0  0
   28.6609    7.4208    0.0000 C   0  0  0  0  0  0  0  0  0  0  0  0
   29.0000    5.9596    0.0000 C   0  0  0  0  0  0  0  0  0  0  0  0
   29.2646    4.4832    0.0000 C   0  0  0  0  0  0  0  0  0  0  0  0
   29.4541    2.9952    0.0000 C   0  0  0  0  0  0  0  0  0  0  0  0
   29.5680    1.4995    0.0000 C   0  0  0  0  0  0  0  0  0  0  0  0
  1  2  1  0
  2  3  1  0
  3  4  1  0
  4  5  1  0
  5  6  1  0
  6  7  1  0
  7  8  1  0
  8  9  1  0
  9 10  1  0
 10 11  1  0
 11 12  1  0
 12 13  1  0
 13 14  1  0
 14 15  1  0
 15 16  1  0
 16 17  1  0
 17 18  1  0
 18 19  1  0
 19 20  1  0
 20 21  1  0
 21 22  1  0
 22 23  1  0
 23 24  1  0
 24 25  1  0
 25 26  1  0
 26 27  1  0
 27 28  1  0
 28 29  1  0
 29 30  1  0
 30 31  1  0
 31 32  1  0
 32 33  1  0
 33 34  1  0
 34 35  1  0
 35 36  1  0
 36 37  1  0
 37 38  1  0
 38 39  1  0
 39 40  1  0
 40 41  1  0
 41 42  1  0
 42 43  1  0
 43 44  1  0
 44 45  1  0
 45 46  1  0
 46 47  1  0
 47 48  1  0
 48 49  1  0
 49 50  1  0
 50 51  1  0
 51 52  1  0
 52 53  1  0
 53 54  1  0
 54 55  1  0
 55 56  1  0
 56 57  1  0
 57 58  1  0
 58 59  1  0
 59 60  1  0
 60 61  1  0
 61 62  1  0
 62 63  1  0
 63 64  1  0
 64 65  1  0
 65 66  1  0
 66 67  1  0
 67 68  1  0
 68 69  1  0
 69 70  1  0
 70 71  1  0
 71 72  1  0
 72 73  1  0
 73 74  1  0
 74 75  1  0
 75 76  1  0
 76 77  1  0
 77 78  1  0
 78 79  1  0
 79 80  1  0
 80 81  1  0
 81 82  1  0
 82 83  1  0
 83 84  1  0
 84 85  1  0
 85 86  1  0
 86 87  1  0
 87 88  1  0
 88 89  1  0
 89 90  1  0
 90 91  1  0
 91 92  1  0
 92 93  1  0
 93 94  1  0
 94 95  1  0
 95 96  1  0
 96 97  1  0
 97 98  1  0
 98 99  1  0
 99100  1  0
100101  1  0
101102  1  0
102103  1  0
103104  1  0
104105  1  0
105106  1  0
106107  1  0
107108  1  0
108109  1  0
109110  1  0
110111  1  0
111112  1  0
112113  1  0
113114  1  0
114115  1  0
115116  1  0
116117  1  0
117118  1  0
118119  1  0
119120  1  0
120121  1  0
121122  1  0
122123  1  0
123124  1  0
124125  1  0
125  2  1  0
M  END
>  <Title>  (257) 
idAAHYgen9

$$$$

     RDKit          2D

 13 13  0  0  0  0  0  0  0  0999 V2000
   10.5000    0.0000    0.0000 C   0  0  0  0  0  0  0  0  0  0  0  0
    9.0000    0.0000    0.0000 C   0  0  0  0  0  0  0  0  0  0  0  0
    7.5000    0.0000    0.0000 C   0  0  0  0  0  0  0  0  0  0  0  0
    6.0000    0.0000    0.0000 C   0  0  0  0  0  0  0  0  0  0  0  0
    4.5000    0.0000    0.0000 C   0  0  0  0  0  0  0  0  0  0  0  0
    3.0000    0.0000    0.0000 C   0  0  0  0  0  0  0  0  0  0  0  0
    1.5000    0.0000    0.0000 C   0  0  0  0  0  0  0  0  0  0  0  0
    0.7500   -1.2990    0.0000 C   0  0  0  0  0  0  0  0  0  0  0  0
   -0.7500   -1.2990    0.0000 C   0  0  0  0  0  0  0  0  0  0  0  0
   -1.5000    0.0000    0.0000 C   0  0  0  0  0  0  0  0  0  0  0  0
   -0.7500    1.2990    0.0000 C   0  0  0  0  0  0  0  0  0  0  0  0
    0.7500    1.2990    0.0000 C   0  0  0  0  0  0  0  0  0  0  0  0
    1.5000    2.5981    0.0000 C   0  0  0  0  0  0  0  0  0  0  0  0
  1  2  3  0
  2  3  1  0
  3  4  3  0
  4  5  1  0
  5  6  3  0
  6  7  1  0
  7  8  2  0
  8  9  1  0
  9 10  2  0
 10 11  1  0
 11 12  2  0
 12 13  1  0
 12  7  1  0
M  END
>  <Title>  (258) 
idAAHZgen9

$$$$

     RDKit          2D

  9  9  0  0  0  0  0  0  0  0999 V2000
    3.0000    0.0000    0.0000 C   0  0  0  0  0  0  0  0  0  0  0  0
    1.5000    0.0000    0.0000 C   0  0  0  0  0  0  0  0  0  0  0  0
    0.7500   -1.2990    0.0000 C   0  0  0  0  0  0  0  0  0  0  0  0
   -0.7500   -1.2990    0.0000 C   0  0  0  0  0  0  0  0  0  0  0  0
   -1.5000    0.0000    0.0000 C   0  0  0  0  0  0  0  0  0  0  0  0
   -3.0000    0.0000    0.0000 C   0  0  0  0  0  0  0  0  0  0  0  0
   -4.5000    0.0000    0.0000 N   0  0  0  0  0  0  0  0  0  0  0  0
   -0.7500    1.2990    0.0000 C   0  0  0  0  0  0  0  0  0  0  0  0
    0.7500    1.2990    0.0000 C   0  0  0  0  0  0  0  0  0  0  0  0
  1  2  1  0
  2  3  1  0
  3  4  2  0
  4  5  1  0
  5  6  1  0
  6  7  3  0
  5  8  1  0
  8  9  2  0
  9  2  1  0
M  END
>  <Title>  (259) 
idAAIAgen9

$$$$

     RDKit          2D

 62 71  0  0  0  0  0  0  0  0999 V2000
    6.2168   -5.0497    0.0000 C   0  0  0  0  0  0  0  0  0  0  0  0
    4.7353   -5.2844    0.0000 C   0  0  0  0  0  0  0  0  0  0  0  0
    4.2718   -3.8578    0.0000 C   0  0  0  0  0  0  0  0  0  0  0  0
    3.3901   -2.6442    0.0000 C   0  0  0  0  0  0  0  0  0  0  0  0
    2.1766   -1.7626    0.0000 C   0  0  0  0  0  0  0  0  0  0  0  0
    2.8576   -0.4261    0.0000 C   0  0  0  0  0  0  0  0  0  0  0  0
    2.0406    0.8320    0.0000 O   0  0  0  0  0  0  0  0  0  0  0  0
    4.3555   -0.3475    0.0000 N   0  0  0  0  0  0  0  0  0  0  0  0
    5.0365    0.9890    0.0000 C   0  0  0  0  0  0  0  0  0  0  0  0
    6.5344    1.0675    0.0000 N   0  0  0  0  0  0  0  0  0  0  0  0
    7.2154    2.4040    0.0000 N   0  0  0  0  0  0  0  0  0  0  0  0
    6.3985    3.6620    0.0000 N   0  0  0  0  0  0  0  0  0  0  0  0
    4.9005    3.5835    0.0000 N   0  0  0  0  0  0  0  0  0  0  0  0
    4.2195    2.2470    0.0000 N   0  0  0  0  0  0  0  0  0  0  0  0
    0.7500   -1.2990    0.0000 C   0  0  0  0  0  0  0  0  0  0  0  0
    1.5000    0.0000    0.0000 C   0  0  0  0  0  0  0  0  0  0  0  0
    0.7500    1.2990    0.0000 C   0  0  0  0  0  0  0  0  0  0  0  0
   -0.7500    1.2990    0.0000 C   0  0  0  0  0  0  0  0  0  0  0  0
   -1.5000    0.0000    0.0000 C   0  0  0  0  0  0  0  0  0  0  0  0
   -0.7500   -1.2990    0.0000 C   0  0  0  0  0  0  0  0  0  0  0  0
   -2.1766   -1.7626    0.0000 C   0  0  0  0  0  0  0  0  0  0  0  0
   -2.3334   -0.2708    0.0000 C   0  0  0  0  0  0  0  0  0  0  0  0
   -3.7037    0.3393    0.0000 C   0  0  0  0  0  0  0  0  0  0  0  0
   -4.9172   -0.5424    0.0000 C   0  0  0  0  0  0  0  0  0  0  0  0
   -4.7604   -2.0341    0.0000 C   0  0  0  0  0  0  0  0  0  0  0  0
   -3.3901   -2.6442    0.0000 C   0  0  0  0  0  0  0  0  0  0  0  0
   -4.2718   -3.8578    0.0000 C   0  0  0  0  0  0  0  0  0  0  0  0
   -5.2755   -2.7430    0.0000 C   0  0  0  0  0  0  0  0  0  0  0  0
   -6.7427   -3.0549    0.0000 C   0  0  0  0  0  0  0  0  0  0  0  0
   -7.2062   -4.4815    0.0000 C   0  0  0  0  0  0  0  0  0  0  0  0
   -6.2025   -5.5962    0.0000 C   0  0  0  0  0  0  0  0  0  0  0  0
   -4.7353   -5.2844    0.0000 C   0  0  0  0  0  0  0  0  0  0  0  0
   -4.7353   -6.7844    0.0000 C   0  0  0  0  0  0  0  0  0  0  0  0
   -6.2025   -6.4725    0.0000 C   0  0  0  0  0  0  0  0  0  0  0  0
   -7.2062   -7.5872    0.0000 C   0  0  0  0  0  0  0  0  0  0  0  0
   -6.7427   -9.0138    0.0000 C   0  0  0  0  0  0  0  0  0  0  0  0
   -5.2755   -9.3257    0.0000 C   0  0  0  0  0  0  0  0  0  0  0  0
   -4.2718   -8.2109    0.0000 C   0  0  0  0  0  0  0  0  0  0  0  0
   -3.3901   -9.4245    0.0000 C   0  0  0  0  0  0  0  0  0  0  0  0
   -4.7604  -10.0346    0.0000 C   0  0  0  0  0  0  0  0  0  0  0  0
   -4.9172  -11.5263    0.0000 C   0  0  0  0  0  0  0  0  0  0  0  0
   -3.7037  -12.4080    0.0000 C   0  0  0  0  0  0  0  0  0  0  0  0
   -2.3334  -11.7979    0.0000 C   0  0  0  0  0  0  0  0  0  0  0  0
   -2.1766  -10.3061    0.0000 C   0  0  0  0  0  0  0  0  0  0  0  0
   -0.7500  -10.7697    0.0000 C   0  0  0  0  0  0  0  0  0  0  0  0
   -1.5000  -12.0687    0.0000 C   0  0  0  0  0  0  0  0  0  0  0  0
   -0.7500  -13.3677    0.0000 C   0  0  0  0  0  0  0  0  0  0  0  0
    0.7500  -13.3677    0.0000 C   0  0  0  0  0  0  0  0  0  0  0  0
    1.5000  -12.0687    0.0000 C   0  0  0  0  0  0  0  0  0  0  0  0
    0.7500  -10.7697    0.0000 C   0  0  0  0  0  0  0  0  0  0  0  0
    2.1766  -10.3061    0.0000 C   0  0  0  0  0  0  0  0  0  0  0  0
    2.3334  -11.7979    0.0000 C   0  0  0  0  0  0  0  0  0  0  0  0
    3.7037  -12.4080    0.0000 C   0  0  0  0  0  0  0  0  0  0  0  0
    4.9172  -11.5263    0.0000 C   0  0  0  0  0  0  0  0  0  0  0  0
    4.7604  -10.0346    0.0000 C   0  0  0  0  0  0  0  0  0  0  0  0
    3.3901   -9.4245    0.0000 C   0  0  0  0  0  0  0  0  0  0  0  0
    4.2718   -8.2109    0.0000 C   0  0  0  0  0  0  0  0  0  0  0  0
    5.2755   -9.3257    0.0000 C   0  0  0  0  0  0  0  0  0  0  0  0
    6.7427   -9.0138    0.0000 C   0  0  0  0  0  0  0  0  0  0  0  0
    7.2062   -7.5872    0.0000 C   0  0  0  0  0  0  0  0  0  0  0  0
    6.2025   -6.4725    0.0000 C   0  0  0  0  0  0  0  0  0  0  0  0
    4.7353   -6.7844    0.0000 C   0  0  0  0  0  0  0  0  0  0  0  0
  1  2  1  0
  2  3  2  0
  3  4  1  0
  4  5  2  0
  5  6  1  0
  6  7  2  0
  6  8  1  0
  8  9  1  0
  9 10  2  0
 10 11  1  0
 11 12  2  0
 12 13  1  0
 13 14  2  0
  5 15  1  0
 15 16  2  0
 16 17  1  0
 17 18  2  0
 18 19  1  0
 19 20  2  0
 20 21  1  0
 21 22  2  0
 22 23  1  0
 23 24  2  0
 24 25  1  0
 25 26  2  0
 26 27  1  0
 27 28  2  0
 28 29  1  0
 29 30  2  0
 30 31  1  0
 31 32  2  0
 32 33  1  0
 33 34  2  0
 34 35  1  0
 35 36  2  0
 36 37  1  0
 37 38  2  0
 38 39  1  0
 39 40  2  0
 40 41  1  0
 41 42  2  0
 42 43  1  0
 43 44  2  0
 44 45  1  0
 45 46  2  0
 46 47  1  0
 47 48  2  0
 48 49  1  0
 49 50  2  0
 50 51  1  0
 51 52  2  0
 52 53  1  0
 53 54  2  0
 54 55  1  0
 55 56  2  0
 56 57  1  0
 57 58  2  0
 58 59  1  0
 59 60  2  0
 60 61  1  0
 61 62  2  0
 62  2  1  0
 14  9  1  0
 20 15  1  0
 26 21  1  0
 32 27  1  0
 38 33  1  0
 44 39  1  0
 50 45  1  0
 56 51  1  0
 62 57  1  0
M  END
>  <Title>  (260) 
idAAIBgen9

$$$$

     RDKit          2D

 12 12  0  0  0  0  0  0  0  0999 V2000
    5.2500   -1.2990    0.0000 C   0  0  0  0  0  0  0  0  0  0  0  0
    3.7500   -1.2990    0.0000 C   0  0  0  0  0  0  0  0  0  0  0  0
    3.0000    0.0000    0.0000 C   0  0  0  0  0  0  0  0  0  0  0  0
    1.5000    0.0000    0.0000 C   0  0  0  0  0  0  0  0  0  0  0  0
    0.7500   -1.2990    0.0000 C   0  0  0  0  0  0  0  0  0  0  0  0
   -0.7500   -1.2990    0.0000 C   0  0  0  0  0  0  0  0  0  0  0  0
   -1.5000    0.0000    0.0000 C   0  0  0  0  0  0  0  0  0  0  0  0
   -3.0000    0.0000    0.0000 C   0  0  0  0  0  0  0  0  0  0  0  0
   -4.5000    0.0000    0.0000 N   0  0  0  0  0  0  0  0  0  0  0  0
   -0.7500    1.2990    0.0000 C   0  0  0  0  0  0  0  0  0  0  0  0
    0.7500    1.2990    0.0000 C   0  0  0  0  0  0  0  0  0  0  0  0
    1.5000    2.5981    0.0000 O   0  0  0  0  0  0  0  0  0  0  0  0
  1  2  1  0
  2  3  1  0
  3  4  1  0
  4  5  1  0
  5  6  1  0
  6  7  1  0
  7  8  1  0
  8  9  3  0
  7 10  1  0
 10 11  2  0
 11 12  1  0
 11  4  1  0
M  END
>  <Title>  (261) 
idAAICgen9

$$$$

     RDKit          2D

 10 10  0  0  0  0  0  0  0  0999 V2000
    3.0000   -2.5981    0.0000 O   0  0  0  0  0  0  0  0  0  0  0  0
    3.7500   -1.2990    0.0000 C   0  0  0  0  0  0  0  0  0  0  0  0
    5.2500   -1.2990    0.0000 O   0  0  0  0  0  0  0  0  0  0  0  0
    3.0000    0.0000    0.0000 O   0  0  0  0  0  0  0  0  0  0  0  0
    1.5000    0.0000    0.0000 C   0  0  0  0  0  0  0  0  0  0  0  0
    0.7500   -1.2990    0.0000 C   0  0  0  0  0  0  0  0  0  0  0  0
   -0.7500   -1.2990    0.0000 C   0  0  0  0  0  0  0  0  0  0  0  0
   -1.5000    0.0000    0.0000 C   0  0  0  0  0  0  0  0  0  0  0  0
   -0.7500    1.2990    0.0000 C   0  0  0  0  0  0  0  0  0  0  0  0
    0.7500    1.2990    0.0000 C   0  0  0  0  0  0  0  0  0  0  0  0
  1  2  2  0
  2  3  1  0
  2  4  1  0
  4  5  1  0
  5  6  1  0
  6  7  2  0
  7  8  1  0
  8  9  2  0
  9 10  1  0
 10  5  1  0
M  END
>  <Title>  (262) 
idAAIDgen9

$$$$

     RDKit          2D

 18 19  0  0  0  0  0  0  0  0999 V2000
    8.5607  -14.8275    0.0000 C   0  0  0  0  0  0  0  0  0  0  0  0
    7.8107  -13.5285    0.0000 C   0  0  0  0  0  0  0  0  0  0  0  0
    7.0607  -12.2294    0.0000 C   0  0  0  0  0  0  0  0  0  0  0  0
    6.3107  -10.9304    0.0000 C   0  0  0  0  0  0  0  0  0  0  0  0
    5.5607   -9.6313    0.0000 C   0  0  0  0  0  0  0  0  0  0  0  0
    4.8107   -8.3323    0.0000 C   0  0  0  0  0  0  0  0  0  0  0  0
    4.0607   -7.0333    0.0000 C   0  0  0  0  0  0  0  0  0  0  0  0
    3.3107   -5.7342    0.0000 C   0  0  0  0  0  0  0  0  0  0  0  0
    2.5607   -4.4352    0.0000 C   0  0  0  0  0  0  0  0  0  0  0  0
    1.1118   -4.0470    0.0000 C   0  0  0  0  0  0  0  0  0  0  0  0
    1.5000   -2.5981    0.0000 C   0  0  0  0  0  0  0  0  0  0  0  0
    0.7500   -1.2990    0.0000 C   0  0  0  0  0  0  0  0  0  0  0  0
    1.5000    0.0000    0.0000 C   0  0  0  0  0  0  0  0  0  0  0  0
    0.7500    1.2990    0.0000 C   0  0  0  0  0  0  0  0  0  0  0  0
   -0.7500    1.2990    0.0000 C   0  0  0  0  0  0  0  0  0  0  0  0
   -1.5000    0.0000    0.0000 C   0  0  0  0  0  0  0  0  0  0  0  0
   -0.7500   -1.2990    0.0000 C   0  0  0  0  0  0  0  0  0  0  0  0
    2.9489   -2.9863    0.0000 C   0  0  0  0  0  0  0  0  0  0  0  0
  1  2  3  0
  2  3  1  0
  3  4  3  0
  4  5  1  0
  5  6  3  0
  6  7  1  0
  7  8  3  0
  8  9  1  0
  9 10  2  0
 10 11  1  0
 11 12  1  0
 12 13  2  0
 13 14  1  0
 14 15  2  0
 15 16  1  0
 16 17  2  0
 11 18  2  0
 18  9  1  0
 17 12  1  0
M  END
>  <Title>  (263) 
idAAIEgen9

$$$$

     RDKit          2D

 24 26  0  0  0  0  0  0  0  0999 V2000
   12.5064   -0.1148    0.0000 C   0  0  0  0  0  0  0  0  0  0  0  0
   11.0392   -0.4266    0.0000 C   0  0  0  0  0  0  0  0  0  0  0  0
   10.5757   -1.8532    0.0000 O   0  0  0  0  0  0  0  0  0  0  0  0
   10.0355    0.6881    0.0000 C   0  0  0  0  0  0  0  0  0  0  0  0
   10.4990    2.1147    0.0000 O   0  0  0  0  0  0  0  0  0  0  0  0
    8.5683    0.3762    0.0000 C   0  0  0  0  0  0  0  0  0  0  0  0
    7.4536    1.3799    0.0000 C   0  0  0  0  0  0  0  0  0  0  0  0
    6.1545    0.6299    0.0000 C   0  0  0  0  0  0  0  0  0  0  0  0
    6.4664   -0.8373    0.0000 C   0  0  0  0  0  0  0  0  0  0  0  0
    5.4627   -1.9520    0.0000 C   0  0  0  0  0  0  0  0  0  0  0  0
    5.9262   -3.3786    0.0000 O   0  0  0  0  0  0  0  0  0  0  0  0
    3.9955   -1.6402    0.0000 N   0  0  0  0  0  0  0  0  0  0  0  0
    2.9918   -2.7549    0.0000 C   0  0  0  0  0  0  0  0  0  0  0  0
    3.3037   -4.2221    0.0000 N   0  0  0  0  0  0  0  0  0  0  0  0
    2.0046   -4.9721    0.0000 N   0  0  0  0  0  0  0  0  0  0  0  0
    0.8899   -3.9684    0.0000 N   0  0  0  0  0  0  0  0  0  0  0  0
    1.5000   -2.5981    0.0000 N   0  0  0  0  0  0  0  0  0  0  0  0
    0.7500   -1.2990    0.0000 C   0  0  0  0  0  0  0  0  0  0  0  0
    1.5000    0.0000    0.0000 C   0  0  0  0  0  0  0  0  0  0  0  0
    0.7500    1.2990    0.0000 C   0  0  0  0  0  0  0  0  0  0  0  0
   -0.7500    1.2990    0.0000 C   0  0  0  0  0  0  0  0  0  0  0  0
   -1.5000    0.0000    0.0000 C   0  0  0  0  0  0  0  0  0  0  0  0
   -0.7500   -1.2990    0.0000 C   0  0  0  0  0  0  0  0  0  0  0  0
    7.9582   -0.9941    0.0000 C   0  0  0  0  0  0  0  0  0  0  0  0
  1  2  1  0
  2  3  2  0
  2  4  1  0
  4  5  2  0
  4  6  1  0
  6  7  1  0
  7  8  1  0
  8  9  1  0
  9 10  1  0
 10 11  2  0
 10 12  1  0
 12 13  1  0
 13 14  2  0
 14 15  1  0
 15 16  2  0
 16 17  1  0
 17 18  1  0
 18 19  2  0
 19 20  1  0
 20 21  2  0
 21 22  1  0
 22 23  2  0
  9 24  1  0
 24  6  1  0
 17 13  1  0
 23 18  1  0
M  END
>  <Title>  (264) 
idAAIFgen9

$$$$

     RDKit          2D

 16 16  0  0  0  0  0  0  0  0999 V2000
   16.0607    0.0000    0.0000 C   0  0  0  0  0  0  0  0  0  0  0  0
   14.5607    0.0000    0.0000 C   0  0  0  0  0  0  0  0  0  0  0  0
   13.0607    0.0000    0.0000 C   0  0  0  0  0  0  0  0  0  0  0  0
   11.5607    0.0000    0.0000 C   0  0  0  0  0  0  0  0  0  0  0  0
   10.0607    0.0000    0.0000 C   0  0  0  0  0  0  0  0  0  0  0  0
    8.5607    0.0000    0.0000 C   0  0  0  0  0  0  0  0  0  0  0  0
    7.0607    0.0000    0.0000 C   0  0  0  0  0  0  0  0  0  0  0  0
    5.5607    0.0000    0.0000 C   0  0  0  0  0  0  0  0  0  0  0  0
    4.0607    0.0000    0.0000 C   0  0  0  0  0  0  0  0  0  0  0  0
    2.5607    0.0000    0.0000 C   0  0  0  0  0  0  0  0  0  0  0  0
    1.0607    0.0000    0.0000 C   0  0  0  0  0  0  0  0  0  0  0  0
   -0.0000   -1.0607    0.0000 C   0  0  0  0  0  0  0  0  0  0  0  0
   -0.0000   -2.5607    0.0000 C   0  0  0  0  0  0  0  0  0  0  0  0
   -0.0000   -4.0607    0.0000 N   0  0  0  0  0  0  0  0  0  0  0  0
   -1.0607    0.0000    0.0000 C   0  0  0  0  0  0  0  0  0  0  0  0
    0.0000    1.0607    0.0000 C   0  0  0  0  0  0  0  0  0  0  0  0
  1  2  3  0
  2  3  1  0
  3  4  3  0
  4  5  1  0
  5  6  3  0
  6  7  1  0
  7  8  3  0
  8  9  1  0
  9 10  3  0
 10 11  1  0
 11 12  2  0
 12 13  1  0
 13 14  3  0
 12 15  1  0
 15 16  2  0
 16 11  1  0
M  END
>  <Title>  (265) 
idAAIGgen9

$$$$

     RDKit          2D

112113  0  0  0  0  0  0  0  0999 V2000
   25.6159   -0.0000    0.0000 C   0  0  0  0  0  0  0  0  0  0  0  0
   24.1159    0.0000    0.0000 C   0  0  0  0  0  0  0  0  0  0  0  0
   24.0692    1.4993    0.0000 C   0  0  0  0  0  0  0  0  0  0  0  0
   23.9294    2.9927    0.0000 C   0  0  0  0  0  0  0  0  0  0  0  0
   23.6971    4.4746    0.0000 C   0  0  0  0  0  0  0  0  0  0  0  0
   23.3731    5.9392    0.0000 C   0  0  0  0  0  0  0  0  0  0  0  0
   22.9586    7.3808    0.0000 C   0  0  0  0  0  0  0  0  0  0  0  0
   22.4553    8.7939    0.0000 C   0  0  0  0  0  0  0  0  0  0  0  0
   21.8652   10.1729    0.0000 C   0  0  0  0  0  0  0  0  0  0  0  0
   21.1904   11.5126    0.0000 C   0  0  0  0  0  0  0  0  0  0  0  0
   20.4337   12.8077    0.0000 C   0  0  0  0  0  0  0  0  0  0  0  0
   19.5979   14.0533    0.0000 C   0  0  0  0  0  0  0  0  0  0  0  0
   18.6863   15.2445    0.0000 C   0  0  0  0  0  0  0  0  0  0  0  0
   17.7025   16.3767    0.0000 C   0  0  0  0  0  0  0  0  0  0  0  0
   16.6501   17.4456    0.0000 C   0  0  0  0  0  0  0  0  0  0  0  0
   15.5333   18.4470    0.0000 C   0  0  0  0  0  0  0  0  0  0  0  0
   14.3564   19.3770    0.0000 C   0  0  0  0  0  0  0  0  0  0  0  0
   13.1240   20.2321    0.0000 C   0  0  0  0  0  0  0  0  0  0  0  0
   11.8407   21.0088    0.0000 C   0  0  0  0  0  0  0  0  0  0  0  0
   10.5117   21.7043    0.0000 C   0  0  0  0  0  0  0  0  0  0  0  0
    9.1420   22.3159    0.0000 C   0  0  0  0  0  0  0  0  0  0  0  0
    7.7370   22.8411    0.0000 C   0  0  0  0  0  0  0  0  0  0  0  0
    6.3020   23.2779    0.0000 C   0  0  0  0  0  0  0  0  0  0  0  0
    4.8426   23.6246    0.0000 C   0  0  0  0  0  0  0  0  0  0  0  0
    3.3645   23.8800    0.0000 C   0  0  0  0  0  0  0  0  0  0  0  0
    1.8734   24.0430    0.0000 C   0  0  0  0  0  0  0  0  0  0  0  0
    0.3750   24.1129    0.0000 C   0  0  0  0  0  0  0  0  0  0  0  0
   -1.1248   24.0896    0.0000 C   0  0  0  0  0  0  0  0  0  0  0  0
   -2.6202   23.9731    0.0000 C   0  0  0  0  0  0  0  0  0  0  0  0
   -4.1056   23.7638    0.0000 C   0  0  0  0  0  0  0  0  0  0  0  0
   -5.5750   23.4626    0.0000 C   0  0  0  0  0  0  0  0  0  0  0  0
   -7.0229   23.0706    0.0000 C   0  0  0  0  0  0  0  0  0  0  0  0
   -8.4436   22.5894    0.0000 C   0  0  0  0  0  0  0  0  0  0  0  0
   -9.8316   22.0208    0.0000 C   0  0  0  0  0  0  0  0  0  0  0  0
  -11.1816   21.3669    0.0000 C   0  0  0  0  0  0  0  0  0  0  0  0
  -12.4884   20.6304    0.0000 C   0  0  0  0  0  0  0  0  0  0  0  0
  -13.7468   19.8141    0.0000 C   0  0  0  0  0  0  0  0  0  0  0  0
  -14.9521   18.9212    0.0000 C   0  0  0  0  0  0  0  0  0  0  0  0
  -16.0995   17.9550    0.0000 C   0  0  0  0  0  0  0  0  0  0  0  0
  -17.1846   16.9194    0.0000 C   0  0  0  0  0  0  0  0  0  0  0  0
  -18.2032   15.8183    0.0000 C   0  0  0  0  0  0  0  0  0  0  0  0
  -19.1514   14.6560    0.0000 C   0  0  0  0  0  0  0  0  0  0  0  0
  -20.0255   13.4370    0.0000 C   0  0  0  0  0  0  0  0  0  0  0  0
  -20.8222   12.1660    0.0000 C   0  0  0  0  0  0  0  0  0  0  0  0
  -21.5382   10.8480    0.0000 C   0  0  0  0  0  0  0  0  0  0  0  0
  -22.1710    9.4880    0.0000 C   0  0  0  0  0  0  0  0  0  0  0  0
  -22.7180    8.0913    0.0000 C   0  0  0  0  0  0  0  0  0  0  0  0
  -23.1771    6.6633    0.0000 C   0  0  0  0  0  0  0  0  0  0  0  0
  -23.5465    5.2095    0.0000 C   0  0  0  0  0  0  0  0  0  0  0  0
  -23.8248    3.7355    0.0000 C   0  0  0  0  0  0  0  0  0  0  0  0
  -24.0109    2.2471    0.0000 C   0  0  0  0  0  0  0  0  0  0  0  0
  -24.1042    0.7500    0.0000 C   0  0  0  0  0  0  0  0  0  0  0  0
  -24.1042   -0.7500    0.0000 C   0  0  0  0  0  0  0  0  0  0  0  0
  -24.0109   -2.2471    0.0000 C   0  0  0  0  0  0  0  0  0  0  0  0
  -23.8248   -3.7355    0.0000 C   0  0  0  0  0  0  0  0  0  0  0  0
  -23.5465   -5.2095    0.0000 C   0  0  0  0  0  0  0  0  0  0  0  0
  -23.1771   -6.6633    0.0000 C   0  0  0  0  0  0  0  0  0  0  0  0
  -22.7180   -8.0913    0.0000 C   0  0  0  0  0  0  0  0  0  0  0  0
  -22.1710   -9.4880    0.0000 C   0  0  0  0  0  0  0  0  0  0  0  0
  -21.5382  -10.8480    0.0000 C   0  0  0  0  0  0  0  0  0  0  0  0
  -20.8222  -12.1660    0.0000 C   0  0  0  0  0  0  0  0  0  0  0  0
  -20.0255  -13.4370    0.0000 C   0  0  0  0  0  0  0  0  0  0  0  0
  -19.1514  -14.6560    0.0000 C   0  0  0  0  0  0  0  0  0  0  0  0
  -18.2032  -15.8183    0.0000 C   0  0  0  0  0  0  0  0  0  0  0  0
  -17.1846  -16.9194    0.0000 C   0  0  0  0  0  0  0  0  0  0  0  0
  -16.0995  -17.9550    0.0000 C   0  0  0  0  0  0  0  0  0  0  0  0
  -14.9521  -18.9212    0.0000 C   0  0  0  0  0  0  0  0  0  0  0  0
  -13.7468  -19.8141    0.0000 C   0  0  0  0  0  0  0  0  0  0  0  0
  -12.4884  -20.6304    0.0000 C   0  0  0  0  0  0  0  0  0  0  0  0
  -11.1816  -21.3669    0.0000 C   0  0  0  0  0  0  0  0  0  0  0  0
   -9.8316  -22.0208    0.0000 C   0  0  0  0  0  0  0  0  0  0  0  0
   -8.4436  -22.5894    0.0000 C   0  0  0  0  0  0  0  0  0  0  0  0
   -7.0229  -23.0706    0.0000 C   0  0  0  0  0  0  0  0  0  0  0  0
   -5.5750  -23.4626    0.0000 C   0  0  0  0  0  0  0  0  0  0  0  0
   -4.1056  -23.7638    0.0000 C   0  0  0  0  0  0  0  0  0  0  0  0
   -2.6202  -23.9731    0.0000 C   0  0  0  0  0  0  0  0  0  0  0  0
   -1.1248  -24.0896    0.0000 C   0  0  0  0  0  0  0  0  0  0  0  0
    0.3750  -24.1129    0.0000 C   0  0  0  0  0  0  0  0  0  0  0  0
    1.8734  -24.0430    0.0000 C   0  0  0  0  0  0  0  0  0  0  0  0
    3.3645  -23.8800    0.0000 C   0  0  0  0  0  0  0  0  0  0  0  0
    4.8426  -23.6246    0.0000 C   0  0  0  0  0  0  0  0  0  0  0  0
    6.3020  -23.2779    0.0000 C   0  0  0  0  0  0  0  0  0  0  0  0
    7.7370  -22.8411    0.0000 C   0  0  0  0  0  0  0  0  0  0  0  0
    9.1420  -22.3159    0.0000 C   0  0  0  0  0  0  0  0  0  0  0  0
   10.5117  -21.7043    0.0000 C   0  0  0  0  0  0  0  0  0  0  0  0
   11.8407  -21.0088    0.0000 C   0  0  0  0  0  0  0  0  0  0  0  0
   13.1240  -20.2321    0.0000 C   0  0  0  0  0  0  0  0  0  0  0  0
   14.3564  -19.3770    0.0000 C   0  0  0  0  0  0  0  0  0  0  0  0
   15.5333  -18.4470    0.0000 C   0  0  0  0  0  0  0  0  0  0  0  0
   16.6501  -17.4456    0.0000 C   0  0  0  0  0  0  0  0  0  0  0  0
   17.7025  -16.3767    0.0000 C   0  0  0  0  0  0  0  0  0  0  0  0
   18.6863  -15.2445    0.0000 C   0  0  0  0  0  0  0  0  0  0  0  0
   19.5979  -14.0533    0.0000 C   0  0  0  0  0  0  0  0  0  0  0  0
   20.4337  -12.8077    0.0000 C   0  0  0  0  0  0  0  0  0  0  0  0
   21.1904  -11.5126    0.0000 C   0  0  0  0  0  0  0  0  0  0  0  0
   21.8652  -10.1729    0.0000 C   0  0  0  0  0  0  0  0  0  0  0  0
   22.4553   -8.7939    0.0000 C   0  0  0  0  0  0  0  0  0  0  0  0
   22.9586   -7.3808    0.0000 C   0  0  0  0  0  0  0  0  0  0  0  0
   23.3731   -5.9392    0.0000 C   0  0  0  0  0  0  0  0  0  0  0  0
   23.6971   -4.4746    0.0000 C   0  0  0  0  0  0  0  0  0  0  0  0
   25.1710   -4.7530    0.0000 C   0  0  0  0  0  0  0  0  0  0  0  0
   23.9294   -2.9927    0.0000 C   0  0  0  0  0  0  0  0  0  0  0  0
   25.4178   -3.1789    0.0000 C   0  0  0  0  0  0  0  0  0  0  0  0
   26.3233   -1.9830    0.0000 O   0  0  0  0  0  0  0  0  0  0  0  0
   26.0008   -4.5610    0.0000 N   0  0  0  0  0  0  0  0  0  0  0  0
   27.4892   -4.7471    0.0000 C   0  0  0  0  0  0  0  0  0  0  0  0
   28.0722   -6.1292    0.0000 N   0  0  0  0  0  0  0  0  0  0  0  0
   29.5606   -6.3153    0.0000 N   0  0  0  0  0  0  0  0  0  0  0  0
   30.4661   -5.1194    0.0000 N   0  0  0  0  0  0  0  0  0  0  0  0
   29.8831   -3.7373    0.0000 N   0  0  0  0  0  0  0  0  0  0  0  0
   28.3947   -3.5512    0.0000 N   0  0  0  0  0  0  0  0  0  0  0  0
   24.0692   -1.4993    0.0000 C   0  0  0  0  0  0  0  0  0  0  0  0
  1  2  1  0
  2  3  1  0
  3  4  1  0
  4  5  1  0
  5  6  1  0
  6  7  1  0
  7  8  1  0
  8  9  1  0
  9 10  1  0
 10 11  1  0
 11 12  1  0
 12 13  1  0
 13 14  1  0
 14 15  1  0
 15 16  1  0
 16 17  1  0
 17 18  1  0
 18 19  1  0
 19 20  1  0
 20 21  1  0
 21 22  1  0
 22 23  1  0
 23 24  1  0
 24 25  1  0
 25 26  1  0
 26 27  1  0
 27 28  1  0
 28 29  1  0
 29 30  1  0
 30 31  1  0
 31 32  1  0
 32 33  1  0
 33 34  1  0
 34 35  1  0
 35 36  1  0
 36 37  1  0
 37 38  1  0
 38 39  1  0
 39 40  1  0
 40 41  1  0
 41 42  1  0
 42 43  1  0
 43 44  1  0
 44 45  1  0
 45 46  1  0
 46 47  1  0
 47 48  1  0
 48 49  1  0
 49 50  1  0
 50 51  1  0
 51 52  1  0
 52 53  1  0
 53 54  1  0
 54 55  1  0
 55 56  1  0
 56 57  1  0
 57 58  1  0
 58 59  1  0
 59 60  1  0
 60 61  1  0
 61 62  1  0
 62 63  1  0
 63 64  1  0
 64 65  1  0
 65 66  1  0
 66 67  1  0
 67 68  1  0
 68 69  1  0
 69 70  1  0
 70 71  1  0
 71 72  1  0
 72 73  1  0
 73 74  1  0
 74 75  1  0
 75 76  1  0
 76 77  1  0
 77 78  1  0
 78 79  1  0
 79 80  1  0
 80 81  1  0
 81 82  1  0
 82 83  1  0
 83 84  1  0
 84 85  1  0
 85 86  1  0
 86 87  1  0
 87 88  1  0
 88 89  1  0
 89 90  1  0
 90 91  1  0
 91 92  1  0
 92 93  1  0
 93 94  1  0
 94 95  1  0
 95 96  1  0
 96 97  1  0
 97 98  1  0
 98 99  1  0
 99100  1  0
100101  1  0
100102  1  0
102103  1  0
103104  2  0
103105  1  0
105106  1  0
106107  2  0
107108  1  0
108109  2  0
109110  1  0
110111  2  0
102112  1  0
112  2  1  0
111106  1  0
M  END
>  <Title>  (266) 
idAAIHgen9

$$$$

     RDKit          2D

  6  6  0  0  0  0  0  0  0  0999 V2000
    2.7760    0.0000    0.0000 O   0  0  0  0  0  0  0  0  0  0  0  0
    1.2760    0.0000    0.0000 C   0  0  0  0  0  0  0  0  0  0  0  0
    0.3943    1.2135    0.0000 C   0  0  0  0  0  0  0  0  0  0  0  0
   -1.0323    0.7500    0.0000 C   0  0  0  0  0  0  0  0  0  0  0  0
   -1.0323   -0.7500    0.0000 C   0  0  0  0  0  0  0  0  0  0  0  0
    0.3943   -1.2135    0.0000 C   0  0  0  0  0  0  0  0  0  0  0  0
  1  2  1  0
  2  3  2  0
  3  4  1  0
  4  5  1  0
  5  6  1  0
  6  2  1  0
M  END
>  <Title>  (267) 
idAAIIgen9

$$$$

     RDKit          2D

 19 20  0  0  0  0  0  0  0  0999 V2000
    7.0607  -14.8275    0.0000 C   0  0  0  0  0  0  0  0  0  0  0  0
    6.3107  -13.5285    0.0000 C   0  0  0  0  0  0  0  0  0  0  0  0
    5.5607  -12.2294    0.0000 C   0  0  0  0  0  0  0  0  0  0  0  0
    4.8107  -10.9304    0.0000 C   0  0  0  0  0  0  0  0  0  0  0  0
    4.0607   -9.6313    0.0000 C   0  0  0  0  0  0  0  0  0  0  0  0
    3.3107   -8.3323    0.0000 C   0  0  0  0  0  0  0  0  0  0  0  0
    2.5607   -7.0333    0.0000 C   0  0  0  0  0  0  0  0  0  0  0  0
    1.1118   -6.6450    0.0000 C   0  0  0  0  0  0  0  0  0  0  0  0
    1.5000   -5.1962    0.0000 C   0  0  0  0  0  0  0  0  0  0  0  0
    0.7500   -3.8971    0.0000 C   0  0  0  0  0  0  0  0  0  0  0  0
   -0.7500   -3.8971    0.0000 O   0  0  0  0  0  0  0  0  0  0  0  0
    1.5000   -2.5981    0.0000 N   0  0  0  0  0  0  0  0  0  0  0  0
    0.7500   -1.2990    0.0000 C   0  0  0  0  0  0  0  0  0  0  0  0
    1.5000    0.0000    0.0000 N   0  0  0  0  0  0  0  0  0  0  0  0
    0.7500    1.2990    0.0000 N   0  0  0  0  0  0  0  0  0  0  0  0
   -0.7500    1.2990    0.0000 N   0  0  0  0  0  0  0  0  0  0  0  0
   -1.5000    0.0000    0.0000 N   0  0  0  0  0  0  0  0  0  0  0  0
   -0.7500   -1.2990    0.0000 N   0  0  0  0  0  0  0  0  0  0  0  0
    2.9489   -5.5844    0.0000 C   0  0  0  0  0  0  0  0  0  0  0  0
  1  2  3  0
  2  3  1  0
  3  4  3  0
  4  5  1  0
  5  6  3  0
  6  7  1  0
  7  8  2  0
  8  9  1  0
  9 10  1  0
 10 11  2  0
 10 12  1  0
 12 13  1  0
 13 14  2  0
 14 15  1  0
 15 16  2  0
 16 17  1  0
 17 18  2  0
  9 19  1  0
 19  7  1  0
 18 13  1  0
M  END
>  <Title>  (268) 
idAAIJgen9

$$$$

     RDKit          2D

 14 14  0  0  0  0  0  0  0  0999 V2000
   10.9598   -0.0000    0.0000 C   0  0  0  0  0  0  0  0  0  0  0  0
    9.4598   -0.0000    0.0000 C   0  0  0  0  0  0  0  0  0  0  0  0
    7.9598   -0.0000    0.0000 C   0  0  0  0  0  0  0  0  0  0  0  0
    6.4598   -0.0000    0.0000 C   0  0  0  0  0  0  0  0  0  0  0  0
    4.9598   -0.0000    0.0000 C   0  0  0  0  0  0  0  0  0  0  0  0
    3.4598   -0.0000    0.0000 C   0  0  0  0  0  0  0  0  0  0  0  0
    1.9598    0.0000    0.0000 C   0  0  0  0  0  0  0  0  0  0  0  0
    1.3858   -1.3858    0.0000 C   0  0  0  0  0  0  0  0  0  0  0  0
   -0.0000   -1.9598    0.0000 C   0  0  0  0  0  0  0  0  0  0  0  0
   -1.3858   -1.3858    0.0000 C   0  0  0  0  0  0  0  0  0  0  0  0
   -1.9598    0.0000    0.0000 C   0  0  0  0  0  0  0  0  0  0  0  0
   -1.3858    1.3858    0.0000 C   0  0  0  0  0  0  0  0  0  0  0  0
    0.0000    1.9598    0.0000 C   0  0  0  0  0  0  0  0  0  0  0  0
    1.3858    1.3858    0.0000 C   0  0  0  0  0  0  0  0  0  0  0  0
  1  2  3  0
  2  3  1  0
  3  4  3  0
  4  5  1  0
  5  6  3  0
  6  7  1  0
  7  8  2  0
  8  9  1  0
  9 10  1  0
 10 11  1  0
 11 12  1  0
 12 13  1  0
 13 14  3  0
 14  7  1  0
M  END
>  <Title>  (269) 
idAAIKgen9

$$$$

     RDKit          2D

127126  0  0  0  0  0  0  0  0999 V2000
    0.0000    0.0000    0.0000 C   0  0  0  0  0  0  0  0  0  0  0  0
    1.2990    0.7500    0.0000 C   0  0  0  0  0  0  0  0  0  0  0  0
    2.5981    1.5000    0.0000 C   0  0  0  0  0  0  0  0  0  0  0  0
    3.8971    2.2500    0.0000 C   0  0  0  0  0  0  0  0  0  0  0  0
    5.1962    1.5000    0.0000 C   0  0  0  0  0  0  0  0  0  0  0  0
    6.4952    2.2500    0.0000 C   0  0  0  0  0  0  0  0  0  0  0  0
    7.7942    1.5000    0.0000 C   0  0  0  0  0  0  0  0  0  0  0  0
    9.0933    2.2500    0.0000 C   0  0  0  0  0  0  0  0  0  0  0  0
   10.3923    1.5000    0.0000 C   0  0  0  0  0  0  0  0  0  0  0  0
   11.6913    2.2500    0.0000 C   0  0  0  0  0  0  0  0  0  0  0  0
   12.9904    1.5000    0.0000 C   0  0  0  0  0  0  0  0  0  0  0  0
   14.2894    2.2500    0.0000 C   0  0  0  0  0  0  0  0  0  0  0  0
   15.5885    1.5000    0.0000 C   0  0  0  0  0  0  0  0  0  0  0  0
   16.8875    2.2500    0.0000 C   0  0  0  0  0  0  0  0  0  0  0  0
   18.1865    1.5000    0.0000 C   0  0  0  0  0  0  0  0  0  0  0  0
   19.4856    2.2500    0.0000 C   0  0  0  0  0  0  0  0  0  0  0  0
   20.7846    1.5000    0.0000 C   0  0  0  0  0  0  0  0  0  0  0  0
   22.0836    2.2500    0.0000 C   0  0  0  0  0  0  0  0  0  0  0  0
   23.3827    1.5000    0.0000 C   0  0  0  0  0  0  0  0  0  0  0  0
   24.6817    2.2500    0.0000 C   0  0  0  0  0  0  0  0  0  0  0  0
   25.9808    1.5000    0.0000 C   0  0  0  0  0  0  0  0  0  0  0  0
   27.2798    2.2500    0.0000 C   0  0  0  0  0  0  0  0  0  0  0  0
   28.5788    1.5000    0.0000 C   0  0  0  0  0  0  0  0  0  0  0  0
   29.8779    2.2500    0.0000 C   0  0  0  0  0  0  0  0  0  0  0  0
   31.1769    1.5000    0.0000 C   0  0  0  0  0  0  0  0  0  0  0  0
   32.4760    2.2500    0.0000 C   0  0  0  0  0  0  0  0  0  0  0  0
   33.7750    1.5000    0.0000 C   0  0  0  0  0  0  0  0  0  0  0  0
   35.0740    2.2500    0.0000 C   0  0  0  0  0  0  0  0  0  0  0  0
   36.3731    1.5000    0.0000 C   0  0  0  0  0  0  0  0  0  0  0  0
   37.6721    2.2500    0.0000 C   0  0  0  0  0  0  0  0  0  0  0  0
   38.9711    1.5000    0.0000 C   0  0  0  0  0  0  0  0  0  0  0  0
   40.2702    2.2500    0.0000 C   0  0  0  0  0  0  0  0  0  0  0  0
   41.5692    1.5000    0.0000 C   0  0  0  0  0  0  0  0  0  0  0  0
   42.8683    2.2500    0.0000 C   0  0  0  0  0  0  0  0  0  0  0  0
   44.1673    1.5000    0.0000 C   0  0  0  0  0  0  0  0  0  0  0  0
   45.4663    2.2500    0.0000 C   0  0  0  0  0  0  0  0  0  0  0  0
   46.7654    1.5000    0.0000 C   0  0  0  0  0  0  0  0  0  0  0  0
   48.0644    2.2500    0.0000 C   0  0  0  0  0  0  0  0  0  0  0  0
   49.3634    1.5000    0.0000 C   0  0  0  0  0  0  0  0  0  0  0  0
   50.6625    2.2500    0.0000 C   0  0  0  0  0  0  0  0  0  0  0  0
   51.9615    1.5000    0.0000 C   0  0  0  0  0  0  0  0  0  0  0  0
   53.2606    2.2500    0.0000 C   0  0  0  0  0  0  0  0  0  0  0  0
   54.5596    1.5000    0.0000 C   0  0  0  0  0  0  0  0  0  0  0  0
   55.8586    2.2500    0.0000 C   0  0  0  0  0  0  0  0  0  0  0  0
   57.1577    1.5000    0.0000 C   0  0  0  0  0  0  0  0  0  0  0  0
   58.4567    2.2500    0.0000 C   0  0  0  0  0  0  0  0  0  0  0  0
   59.7558    1.5000    0.0000 C   0  0  0  0  0  0  0  0  0  0  0  0
   61.0548    2.2500    0.0000 C   0  0  0  0  0  0  0  0  0  0  0  0
   62.3538    1.5000    0.0000 C   0  0  0  0  0  0  0  0  0  0  0  0
   63.6529    2.2500    0.0000 C   0  0  0  0  0  0  0  0  0  0  0  0
   64.9519    1.5000    0.0000 C   0  0  0  0  0  0  0  0  0  0  0  0
   66.2509    2.2500    0.0000 C   0  0  0  0  0  0  0  0  0  0  0  0
   67.5500    1.5000    0.0000 C   0  0  0  0  0  0  0  0  0  0  0  0
   68.8490    2.2500    0.0000 C   0  0  0  0  0  0  0  0  0  0  0  0
   70.1481    1.5000    0.0000 C   0  0  0  0  0  0  0  0  0  0  0  0
   71.4471    2.2500    0.0000 C   0  0  0  0  0  0  0  0  0  0  0  0
   72.7461    1.5000    0.0000 C   0  0  0  0  0  0  0  0  0  0  0  0
   74.0452    2.2500    0.0000 C   0  0  0  0  0  0  0  0  0  0  0  0
   75.3442    1.5000    0.0000 C   0  0  0  0  0  0  0  0  0  0  0  0
   76.6432    2.2500    0.0000 C   0  0  0  0  0  0  0  0  0  0  0  0
   77.9423    1.5000    0.0000 C   0  0  0  0  0  0  0  0  0  0  0  0
   79.2413    2.2500    0.0000 C   0  0  0  0  0  0  0  0  0  0  0  0
   80.5404    1.5000    0.0000 C   0  0  0  0  0  0  0  0  0  0  0  0
   81.8394    2.2500    0.0000 C   0  0  0  0  0  0  0  0  0  0  0  0
   83.1384    1.5000    0.0000 C   0  0  0  0  0  0  0  0  0  0  0  0
   84.4375    2.2500    0.0000 C   0  0  0  0  0  0  0  0  0  0  0  0
   85.7365    1.5000    0.0000 C   0  0  0  0  0  0  0  0  0  0  0  0
   87.0356    2.2500    0.0000 C   0  0  0  0  0  0  0  0  0  0  0  0
   88.3346    1.5000    0.0000 C   0  0  0  0  0  0  0  0  0  0  0  0
   89.6336    2.2500    0.0000 C   0  0  0  0  0  0  0  0  0  0  0  0
   90.9327    1.5000    0.0000 C   0  0  0  0  0  0  0  0  0  0  0  0
   92.2317    2.2500    0.0000 C   0  0  0  0  0  0  0  0  0  0  0  0
   93.5307    1.5000    0.0000 C   0  0  0  0  0  0  0  0  0  0  0  0
   94.8298    2.2500    0.0000 C   0  0  0  0  0  0  0  0  0  0  0  0
   96.1288    1.5000    0.0000 C   0  0  0  0  0  0  0  0  0  0  0  0
   97.4279    2.2500    0.0000 C   0  0  0  0  0  0  0  0  0  0  0  0
   98.7269    1.5000    0.0000 C   0  0  0  0  0  0  0  0  0  0  0  0
  100.0259    2.2500    0.0000 C   0  0  0  0  0  0  0  0  0  0  0  0
  101.3250    1.5000    0.0000 C   0  0  0  0  0  0  0  0  0  0  0  0
  102.6240    2.2500    0.0000 C   0  0  0  0  0  0  0  0  0  0  0  0
  103.9230    1.5000    0.0000 C   0  0  0  0  0  0  0  0  0  0  0  0
  105.2221    2.2500    0.0000 C   0  0  0  0  0  0  0  0  0  0  0  0
  106.5211    1.5000    0.0000 C   0  0  0  0  0  0  0  0  0  0  0  0
  107.8202    2.2500    0.0000 C   0  0  0  0  0  0  0  0  0  0  0  0
  109.1192    1.5000    0.0000 C   0  0  0  0  0  0  0  0  0  0  0  0
  110.4182    2.2500    0.0000 C   0  0  0  0  0  0  0  0  0  0  0  0
  111.7173    1.5000    0.0000 C   0  0  0  0  0  0  0  0  0  0  0  0
  113.0163    2.2500    0.0000 C   0  0  0  0  0  0  0  0  0  0  0  0
  114.3154    1.5000    0.0000 C   0  0  0  0  0  0  0  0  0  0  0  0
  115.6144    2.2500    0.0000 C   0  0  0  0  0  0  0  0  0  0  0  0
  116.9134    1.5000    0.0000 C   0  0  0  0  0  0  0  0  0  0  0  0
  118.2125    2.2500    0.0000 C   0  0  0  0  0  0  0  0  0  0  0  0
  119.5115    1.5000    0.0000 C   0  0  0  0  0  0  0  0  0  0  0  0
  120.8105    2.2500    0.0000 C   0  0  0  0  0  0  0  0  0  0  0  0
  122.1096    1.5000    0.0000 C   0  0  0  0  0  0  0  0  0  0  0  0
  123.4086    2.2500    0.0000 C   0  0  0  0  0  0  0  0  0  0  0  0
  124.7077    1.5000    0.0000 C   0  0  0  0  0  0  0  0  0  0  0  0
  126.0067    2.2500    0.0000 C   0  0  0  0  0  0  0  0  0  0  0  0
  127.3057    1.5000    0.0000 C   0  0  0  0  0  0  0  0  0  0  0  0
  128.6048    2.2500    0.0000 C   0  0  0  0  0  0  0  0  0  0  0  0
  129.9038    1.5000    0.0000 C   0  0  0  0  0  0  0  0  0  0  0  0
  131.2028    2.2500    0.0000 C   0  0  0  0  0  0  0  0  0  0  0  0
  132.5019    1.5000    0.0000 C   0  0  0  0  0  0  0  0  0  0  0  0
  133.8009    2.2500    0.0000 C   0  0  0  0  0  0  0  0  0  0  0  0
  135.1000    1.5000    0.0000 C   0  0  0  0  0  0  0  0  0  0  0  0
  136.3990    2.2500    0.0000 C   0  0  0  0  0  0  0  0  0  0  0  0
  137.6980    1.5000    0.0000 C   0  0  0  0  0  0  0  0  0  0  0  0
  138.9971    2.2500    0.0000 C   0  0  0  0  0  0  0  0  0  0  0  0
  140.2961    1.5000    0.0000 C   0  0  0  0  0  0  0  0  0  0  0  0
  141.5952    2.2500    0.0000 C   0  0  0  0  0  0  0  0  0  0  0  0
  142.8942    1.5000    0.0000 C   0  0  0  0  0  0  0  0  0  0  0  0
  144.1932    2.2500    0.0000 C   0  0  0  0  0  0  0  0  0  0  0  0
  145.4923    1.5000    0.0000 C   0  0  0  0  0  0  0  0  0  0  0  0
  146.7913    2.2500    0.0000 C   0  0  0  0  0  0  0  0  0  0  0  0
  148.0903    1.5000    0.0000 C   0  0  0  0  0  0  0  0  0  0  0  0
  149.3894    2.2500    0.0000 C   0  0  0  0  0  0  0  0  0  0  0  0
  150.6884    1.5000    0.0000 C   0  0  0  0  0  0  0  0  0  0  0  0
  151.9875    2.2500    0.0000 C   0  0  0  0  0  0  0  0  0  0  0  0
  153.2865    1.5000    0.0000 C   0  0  0  0  0  0  0  0  0  0  0  0
  154.5855    2.2500    0.0000 C   0  0  0  0  0  0  0  0  0  0  0  0
  155.8846    1.5000    0.0000 C   0  0  0  0  0  0  0  0  0  0  0  0
  157.1836    2.2500    0.0000 C   0  0  0  0  0  0  0  0  0  0  0  0
  158.4826    1.5000    0.0000 C   0  0  0  0  0  0  0  0  0  0  0  0
  159.7817    2.2500    0.0000 C   0  0  0  0  0  0  0  0  0  0  0  0
  161.0807    1.5000    0.0000 C   0  0  0  0  0  0  0  0  0  0  0  0
  162.3798    2.2500    0.0000 C   0  0  0  0  0  0  0  0  0  0  0  0
  163.6788    1.5000    0.0000 C   0  0  0  0  0  0  0  0  0  0  0  0
  1  2  1  0
  2  3  3  0
  3  4  1  0
  4  5  1  0
  5  6  1  0
  6  7  1  0
  7  8  1  0
  8  9  1  0
  9 10  1  0
 10 11  1  0
 11 12  1  0
 12 13  1  0
 13 14  1  0
 14 15  1  0
 15 16  1  0
 16 17  1  0
 17 18  1  0
 18 19  1  0
 19 20  1  0
 20 21  1  0
 21 22  1  0
 22 23  1  0
 23 24  1  0
 24 25  1  0
 25 26  1  0
 26 27  1  0
 27 28  1  0
 28 29  1  0
 29 30  1  0
 30 31  1  0
 31 32  1  0
 32 33  1  0
 33 34  1  0
 34 35  1  0
 35 36  1  0
 36 37  1  0
 37 38  1  0
 38 39  1  0
 39 40  1  0
 40 41  1  0
 41 42  1  0
 42 43  1  0
 43 44  1  0
 44 45  1  0
 45 46  1  0
 46 47  1  0
 47 48  1  0
 48 49  1  0
 49 50  1  0
 50 51  1  0
 51 52  1  0
 52 53  1  0
 53 54  1  0
 54 55  1  0
 55 56  1  0
 56 57  1  0
 57 58  1  0
 58 59  1  0
 59 60  1  0
 60 61  1  0
 61 62  1  0
 62 63  1  0
 63 64  1  0
 64 65  1  0
 65 66  1  0
 66 67  1  0
 67 68  1  0
 68 69  1  0
 69 70  1  0
 70 71  1  0
 71 72  1  0
 72 73  1  0
 73 74  1  0
 74 75  1  0
 75 76  1  0
 76 77  1  0
 77 78  1  0
 78 79  1  0
 79 80  1  0
 80 81  1  0
 81 82  1  0
 82 83  1  0
 83 84  1  0
 84 85  1  0
 85 86  1  0
 86 87  1  0
 87 88  1  0
 88 89  1  0
 89 90  1  0
 90 91  1  0
 91 92  1  0
 92 93  1  0
 93 94  1  0
 94 95  1  0
 95 96  1  0
 96 97  1  0
 97 98  1  0
 98 99  1  0
 99100  1  0
100101  1  0
101102  1  0
102103  1  0
103104  1  0
104105  1  0
105106  1  0
106107  1  0
107108  1  0
108109  1  0
109110  1  0
110111  1  0
111112  1  0
112113  1  0
113114  1  0
114115  1  0
115116  1  0
116117  1  0
117118  1  0
118119  1  0
119120  1  0
120121  1  0
121122  1  0
122123  1  0
123124  1  0
124125  1  0
125126  1  0
126127  1  0
M  END
>  <Title>  (270) 
idAAILgen9

$$$$

     RDKit          2D

 17 17  0  0  0  0  0  0  0  0999 V2000
   18.5260   -1.2990    0.0000 C   0  0  0  0  0  0  0  0  0  0  0  0
   17.7760   -0.0000    0.0000 C   0  0  0  0  0  0  0  0  0  0  0  0
   16.2760   -0.0000    0.0000 C   0  0  0  0  0  0  0  0  0  0  0  0
   14.7760   -0.0000    0.0000 C   0  0  0  0  0  0  0  0  0  0  0  0
   13.2760   -0.0000    0.0000 C   0  0  0  0  0  0  0  0  0  0  0  0
   11.7760   -0.0000    0.0000 C   0  0  0  0  0  0  0  0  0  0  0  0
   10.2760   -0.0000    0.0000 C   0  0  0  0  0  0  0  0  0  0  0  0
    8.7760   -0.0000    0.0000 C   0  0  0  0  0  0  0  0  0  0  0  0
    7.2760   -0.0000    0.0000 C   0  0  0  0  0  0  0  0  0  0  0  0
    5.7760   -0.0000    0.0000 C   0  0  0  0  0  0  0  0  0  0  0  0
    4.2760   -0.0000    0.0000 C   0  0  0  0  0  0  0  0  0  0  0  0
    2.7760    0.0000    0.0000 C   0  0  0  0  0  0  0  0  0  0  0  0
    1.2760    0.0000    0.0000 C   0  0  0  0  0  0  0  0  0  0  0  0
    0.3943    1.2135    0.0000 C   0  0  0  0  0  0  0  0  0  0  0  0
   -1.0323    0.7500    0.0000 C   0  0  0  0  0  0  0  0  0  0  0  0
   -1.0323   -0.7500    0.0000 C   0  0  0  0  0  0  0  0  0  0  0  0
    0.3943   -1.2135    0.0000 C   0  0  0  0  0  0  0  0  0  0  0  0
  1  2  2  0
  2  3  1  0
  3  4  3  0
  4  5  1  0
  5  6  3  0
  6  7  1  0
  7  8  3  0
  8  9  1  0
  9 10  3  0
 10 11  1  0
 11 12  3  0
 12 13  1  0
 13 14  2  0
 14 15  1  0
 15 16  2  0
 16 17  1  0
 17 13  1  0
M  END
>  <Title>  (271) 
idAAIMgen9

$$$$

     RDKit          2D

  6  6  0  0  0  0  0  0  0  0999 V2000
    2.7760    0.0000    0.0000 C   0  0  0  0  0  0  0  0  0  0  0  0
    1.2760    0.0000    0.0000 N   0  0  0  0  0  0  0  0  0  0  0  0
    0.3943    1.2135    0.0000 C   0  0  0  0  0  0  0  0  0  0  0  0
   -1.0323    0.7500    0.0000 C   0  0  0  0  0  0  0  0  0  0  0  0
   -1.0323   -0.7500    0.0000 C   0  0  0  0  0  0  0  0  0  0  0  0
    0.3943   -1.2135    0.0000 C   0  0  0  0  0  0  0  0  0  0  0  0
  1  2  1  0
  2  3  1  0
  3  4  2  0
  4  5  1  0
  5  6  2  0
  6  2  1  0
M  END
>  <Title>  (272) 
idAAINgen9

$$$$

     RDKit          2D

 56 64  0  0  0  0  0  0  0  0999 V2000
    3.7201  -10.5731    0.0000 C   0  0  0  0  0  0  0  0  0  0  0  0
    2.7988   -9.3894    0.0000 C   0  0  0  0  0  0  0  0  0  0  0  0
    3.8147   -8.2858    0.0000 C   0  0  0  0  0  0  0  0  0  0  0  0
    4.4172   -6.9121    0.0000 C   0  0  0  0  0  0  0  0  0  0  0  0
    4.5411   -5.4173    0.0000 C   0  0  0  0  0  0  0  0  0  0  0  0
    6.0360   -5.2934    0.0000 C   0  0  0  0  0  0  0  0  0  0  0  0
    6.6761   -3.9369    0.0000 O   0  0  0  0  0  0  0  0  0  0  0  0
    6.8907   -6.5261    0.0000 N   0  0  0  0  0  0  0  0  0  0  0  0
    8.3856   -6.4022    0.0000 C   0  0  0  0  0  0  0  0  0  0  0  0
    9.2403   -7.6349    0.0000 N   0  0  0  0  0  0  0  0  0  0  0  0
   10.7351   -7.5110    0.0000 N   0  0  0  0  0  0  0  0  0  0  0  0
   11.3753   -6.1544    0.0000 N   0  0  0  0  0  0  0  0  0  0  0  0
   10.5206   -4.9218    0.0000 N   0  0  0  0  0  0  0  0  0  0  0  0
    9.0257   -5.0456    0.0000 N   0  0  0  0  0  0  0  0  0  0  0  0
    4.1729   -3.9632    0.0000 C   0  0  0  0  0  0  0  0  0  0  0  0
    3.3524   -2.7074    0.0000 C   0  0  0  0  0  0  0  0  0  0  0  0
    4.5944   -1.8663    0.0000 C   0  0  0  0  0  0  0  0  0  0  0  0
    4.1783   -0.4252    0.0000 C   0  0  0  0  0  0  0  0  0  0  0  0
    2.6792   -0.3756    0.0000 C   0  0  0  0  0  0  0  0  0  0  0  0
    2.1687   -1.7861    0.0000 C   0  0  0  0  0  0  0  0  0  0  0  0
    0.7500   -1.2990    0.0000 C   0  0  0  0  0  0  0  0  0  0  0  0
    1.5000    0.0000    0.0000 C   0  0  0  0  0  0  0  0  0  0  0  0
    0.7500    1.2990    0.0000 C   0  0  0  0  0  0  0  0  0  0  0  0
   -0.7500    1.2990    0.0000 C   0  0  0  0  0  0  0  0  0  0  0  0
   -1.5000    0.0000    0.0000 C   0  0  0  0  0  0  0  0  0  0  0  0
   -0.7500   -1.2990    0.0000 C   0  0  0  0  0  0  0  0  0  0  0  0
   -2.1687   -1.7861    0.0000 C   0  0  0  0  0  0  0  0  0  0  0  0
   -2.3748   -0.3003    0.0000 C   0  0  0  0  0  0  0  0  0  0  0  0
   -3.7645    0.2642    0.0000 C   0  0  0  0  0  0  0  0  0  0  0  0
   -4.9482   -0.6572    0.0000 C   0  0  0  0  0  0  0  0  0  0  0  0
   -4.7422   -2.1429    0.0000 C   0  0  0  0  0  0  0  0  0  0  0  0
   -3.3524   -2.7074    0.0000 C   0  0  0  0  0  0  0  0  0  0  0  0
   -4.1729   -3.9632    0.0000 C   0  0  0  0  0  0  0  0  0  0  0  0
   -5.2480   -2.9172    0.0000 C   0  0  0  0  0  0  0  0  0  0  0  0
   -6.6914   -3.3254    0.0000 C   0  0  0  0  0  0  0  0  0  0  0  0
   -7.0597   -4.7795    0.0000 C   0  0  0  0  0  0  0  0  0  0  0  0
   -5.9845   -5.8254    0.0000 C   0  0  0  0  0  0  0  0  0  0  0  0
   -4.5411   -5.4173    0.0000 C   0  0  0  0  0  0  0  0  0  0  0  0
   -4.4172   -6.9121    0.0000 C   0  0  0  0  0  0  0  0  0  0  0  0
   -5.9081   -6.7471    0.0000 C   0  0  0  0  0  0  0  0  0  0  0  0
   -6.7965   -7.9558    0.0000 C   0  0  0  0  0  0  0  0  0  0  0  0
   -6.1939   -9.3294    0.0000 C   0  0  0  0  0  0  0  0  0  0  0  0
   -4.7030   -9.4944    0.0000 C   0  0  0  0  0  0  0  0  0  0  0  0
   -3.8147   -8.2858    0.0000 C   0  0  0  0  0  0  0  0  0  0  0  0
   -2.7988   -9.3894    0.0000 C   0  0  0  0  0  0  0  0  0  0  0  0
   -4.0766  -10.1749    0.0000 C   0  0  0  0  0  0  0  0  0  0  0  0
   -4.0353  -11.6743    0.0000 C   0  0  0  0  0  0  0  0  0  0  0  0
   -2.7161  -12.3882    0.0000 C   0  0  0  0  0  0  0  0  0  0  0  0
   -1.4382  -11.6027    0.0000 C   0  0  0  0  0  0  0  0  0  0  0  0
   -1.4795  -10.1033    0.0000 C   0  0  0  0  0  0  0  0  0  0  0  0
   -0.0000  -10.3502    0.0000 C   0  0  0  0  0  0  0  0  0  0  0  0
   -0.5260  -11.7550    0.0000 C   0  0  0  0  0  0  0  0  0  0  0  0
    0.4276  -12.9128    0.0000 C   0  0  0  0  0  0  0  0  0  0  0  0
    1.9072  -12.6659    0.0000 C   0  0  0  0  0  0  0  0  0  0  0  0
    2.4331  -11.2612    0.0000 C   0  0  0  0  0  0  0  0  0  0  0  0
    1.4795  -10.1033    0.0000 C   0  0  0  0  0  0  0  0  0  0  0  0
  1  2  1  0
  2  3  1  0
  3  4  1  0
  4  5  1  0
  5  6  1  0
  6  7  2  0
  6  8  1  0
  8  9  1  0
  9 10  2  0
 10 11  1  0
 11 12  2  0
 12 13  1  0
 13 14  2  0
  5 15  1  0
 15 16  2  0
 16 17  1  0
 17 18  2  0
 18 19  1  0
 19 20  2  0
 20 21  1  0
 21 22  2  0
 22 23  1  0
 23 24  2  0
 24 25  1  0
 25 26  2  0
 26 27  1  0
 27 28  2  0
 28 29  1  0
 29 30  2  0
 30 31  1  0
 31 32  2  0
 32 33  1  0
 33 34  2  0
 34 35  1  0
 35 36  2  0
 36 37  1  0
 37 38  2  0
 38 39  1  0
 39 40  2  0
 40 41  1  0
 41 42  2  0
 42 43  1  0
 43 44  2  0
 44 45  1  0
 45 46  2  0
 46 47  1  0
 47 48  2  0
 48 49  1  0
 49 50  2  0
 50 51  1  0
 51 52  2  0
 52 53  1  0
 53 54  2  0
 54 55  1  0
 55 56  2  0
 56  2  1  0
 14  9  1  0
 20 16  1  0
 26 21  1  0
 32 27  1  0
 38 33  1  0
 44 39  1  0
 50 45  1  0
 56 51  1  0
M  END
>  <Title>  (273) 
idAAIOgen9

$$$$

     RDKit          2D

 15 16  0  0  0  0  0  0  0  0999 V2000
    3.0000   -2.5981    0.0000 O   0  0  0  0  0  0  0  0  0  0  0  0
    3.7500   -1.2990    0.0000 C   0  0  0  0  0  0  0  0  0  0  0  0
    5.2500   -1.2990    0.0000 O   0  0  0  0  0  0  0  0  0  0  0  0
    3.0000    0.0000    0.0000 O   0  0  0  0  0  0  0  0  0  0  0  0
    1.5000    0.0000    0.0000 C   0  0  0  0  0  0  0  0  0  0  0  0
    0.7500   -1.2990    0.0000 C   0  0  0  0  0  0  0  0  0  0  0  0
   -0.7500   -1.2990    0.0000 C   0  0  0  0  0  0  0  0  0  0  0  0
   -1.5000    0.0000    0.0000 C   0  0  0  0  0  0  0  0  0  0  0  0
   -0.7500    1.2990    0.0000 C   0  0  0  0  0  0  0  0  0  0  0  0
    0.7500    1.2990    0.0000 C   0  0  0  0  0  0  0  0  0  0  0  0
    1.5000    2.5981    0.0000 C   0  0  0  0  0  0  0  0  0  0  0  0
    0.8899    3.9684    0.0000 C   0  0  0  0  0  0  0  0  0  0  0  0
    2.0046    4.9721    0.0000 C   0  0  0  0  0  0  0  0  0  0  0  0
    3.3037    4.2221    0.0000 C   0  0  0  0  0  0  0  0  0  0  0  0
    2.9918    2.7549    0.0000 C   0  0  0  0  0  0  0  0  0  0  0  0
  1  2  2  0
  2  3  1  0
  2  4  1  0
  4  5  1  0
  5  6  1  0
  6  7  2  0
  7  8  1  0
  8  9  1  0
  9 10  2  0
 10 11  1  0
 11 12  2  0
 12 13  1  0
 13 14  2  0
 14 15  1  0
 10  5  1  0
 15 11  1  0
M  END
>  <Title>  (274) 
idAAIPgen9

$$$$

     RDKit          2D

 22 24  0  0  0  0  0  0  0  0999 V2000
   -3.1965   -1.7857    0.0000 C   0  0  0  0  0  0  0  0  0  0  0  0
   -1.8107   -2.3597    0.0000 C   0  0  0  0  0  0  0  0  0  0  0  0
   -1.8107   -3.8597    0.0000 C   0  0  0  0  0  0  0  0  0  0  0  0
   -0.7500   -4.9204    0.0000 C   0  0  0  0  0  0  0  0  0  0  0  0
    0.7500   -4.9204    0.0000 C   0  0  0  0  0  0  0  0  0  0  0  0
    1.8107   -3.8597    0.0000 C   0  0  0  0  0  0  0  0  0  0  0  0
    1.8107   -2.3597    0.0000 C   0  0  0  0  0  0  0  0  0  0  0  0
    3.1965   -1.7857    0.0000 C   0  0  0  0  0  0  0  0  0  0  0  0
    3.3923   -0.2985    0.0000 O   0  0  0  0  0  0  0  0  0  0  0  0
    4.3865   -2.6988    0.0000 N   0  0  0  0  0  0  0  0  0  0  0  0
    5.7723   -2.1248    0.0000 C   0  0  0  0  0  0  0  0  0  0  0  0
    6.9624   -3.0379    0.0000 N   0  0  0  0  0  0  0  0  0  0  0  0
    8.3482   -2.4639    0.0000 N   0  0  0  0  0  0  0  0  0  0  0  0
    8.5440   -0.9767    0.0000 N   0  0  0  0  0  0  0  0  0  0  0  0
    7.3539   -0.0636    0.0000 N   0  0  0  0  0  0  0  0  0  0  0  0
    5.9681   -0.6376    0.0000 N   0  0  0  0  0  0  0  0  0  0  0  0
    0.7500   -1.2990    0.0000 C   0  0  0  0  0  0  0  0  0  0  0  0
    1.5000    0.0000    0.0000 C   0  0  0  0  0  0  0  0  0  0  0  0
    0.7500    1.2990    0.0000 C   0  0  0  0  0  0  0  0  0  0  0  0
   -0.7500    1.2990    0.0000 C   0  0  0  0  0  0  0  0  0  0  0  0
   -1.5000    0.0000    0.0000 C   0  0  0  0  0  0  0  0  0  0  0  0
   -0.7500   -1.2990    0.0000 C   0  0  0  0  0  0  0  0  0  0  0  0
  1  2  1  0
  2  3  2  0
  3  4  1  0
  4  5  1  0
  5  6  1  0
  6  7  1  0
  7  8  1  0
  8  9  2  0
  8 10  1  0
 10 11  1  0
 11 12  2  0
 12 13  1  0
 13 14  2  0
 14 15  1  0
 15 16  2  0
  7 17  1  0
 17 18  2  0
 18 19  1  0
 19 20  2  0
 20 21  1  0
 21 22  2  0
 22  2  1  0
 16 11  1  0
 22 17  1  0
M  END
>  <Title>  (275) 
idAAIQgen9

$$$$

     RDKit          2D

 15 15  0  0  0  0  0  0  0  0999 V2000
   13.2760   -0.0000    0.0000 C   0  0  0  0  0  0  0  0  0  0  0  0
   11.7760   -0.0000    0.0000 C   0  0  0  0  0  0  0  0  0  0  0  0
   10.2760   -0.0000    0.0000 C   0  0  0  0  0  0  0  0  0  0  0  0
    8.7760   -0.0000    0.0000 C   0  0  0  0  0  0  0  0  0  0  0  0
    7.2760   -0.0000    0.0000 C   0  0  0  0  0  0  0  0  0  0  0  0
    5.7760   -0.0000    0.0000 C   0  0  0  0  0  0  0  0  0  0  0  0
    4.2760   -0.0000    0.0000 C   0  0  0  0  0  0  0  0  0  0  0  0
    2.7760    0.0000    0.0000 C   0  0  0  0  0  0  0  0  0  0  0  0
    1.2760    0.0000    0.0000 C   0  0  0  0  0  0  0  0  0  0  0  0
    0.3943    1.2135    0.0000 C   0  0  0  0  0  0  0  0  0  0  0  0
   -1.0323    0.7500    0.0000 C   0  0  0  0  0  0  0  0  0  0  0  0
   -2.2458    1.6317    0.0000 C   0  0  0  0  0  0  0  0  0  0  0  0
   -3.4593    2.5134    0.0000 N   0  0  0  0  0  0  0  0  0  0  0  0
   -1.0323   -0.7500    0.0000 C   0  0  0  0  0  0  0  0  0  0  0  0
    0.3943   -1.2135    0.0000 C   0  0  0  0  0  0  0  0  0  0  0  0
  1  2  3  0
  2  3  1  0
  3  4  3  0
  4  5  1  0
  5  6  3  0
  6  7  1  0
  7  8  3  0
  8  9  1  0
  9 10  2  0
 10 11  1  0
 11 12  1  0
 12 13  3  0
 11 14  1  0
 14 15  2  0
 15  9  1  0
M  END
>  <Title>  (276) 
idAAIRgen9

$$$$

     RDKit          2D

 49 56  0  0  0  0  0  0  0  0999 V2000
    5.6894   -2.9233    0.0000 C   0  0  0  0  0  0  0  0  0  0  0  0
    5.0793   -4.2937    0.0000 C   0  0  0  0  0  0  0  0  0  0  0  0
    5.9610   -5.5072    0.0000 N   0  0  0  0  0  0  0  0  0  0  0  0
    7.4528   -5.3504    0.0000 C   0  0  0  0  0  0  0  0  0  0  0  0
    8.3345   -6.5639    0.0000 N   0  0  0  0  0  0  0  0  0  0  0  0
    9.8262   -6.4071    0.0000 N   0  0  0  0  0  0  0  0  0  0  0  0
   10.4363   -5.0368    0.0000 N   0  0  0  0  0  0  0  0  0  0  0  0
    9.5547   -3.8233    0.0000 N   0  0  0  0  0  0  0  0  0  0  0  0
    8.0629   -3.9801    0.0000 N   0  0  0  0  0  0  0  0  0  0  0  0
    3.5875   -4.4504    0.0000 C   0  0  0  0  0  0  0  0  0  0  0  0
    3.1240   -3.0239    0.0000 C   0  0  0  0  0  0  0  0  0  0  0  0
    2.1203   -1.9091    0.0000 C   0  0  0  0  0  0  0  0  0  0  0  0
    3.0020   -0.6956    0.0000 C   0  0  0  0  0  0  0  0  0  0  0  0
    0.7500   -1.2990    0.0000 C   0  0  0  0  0  0  0  0  0  0  0  0
    1.5000    0.0000    0.0000 C   0  0  0  0  0  0  0  0  0  0  0  0
    0.7500    1.2990    0.0000 C   0  0  0  0  0  0  0  0  0  0  0  0
   -0.7500    1.2990    0.0000 C   0  0  0  0  0  0  0  0  0  0  0  0
   -1.5000    0.0000    0.0000 C   0  0  0  0  0  0  0  0  0  0  0  0
   -0.7500   -1.2990    0.0000 C   0  0  0  0  0  0  0  0  0  0  0  0
   -2.1203   -1.9091    0.0000 C   0  0  0  0  0  0  0  0  0  0  0  0
   -2.5838   -0.4826    0.0000 C   0  0  0  0  0  0  0  0  0  0  0  0
   -4.0511   -0.1707    0.0000 C   0  0  0  0  0  0  0  0  0  0  0  0
   -5.0548   -1.2854    0.0000 C   0  0  0  0  0  0  0  0  0  0  0  0
   -4.5912   -2.7120    0.0000 C   0  0  0  0  0  0  0  0  0  0  0  0
   -3.1240   -3.0239    0.0000 C   0  0  0  0  0  0  0  0  0  0  0  0
   -3.5875   -4.4504    0.0000 C   0  0  0  0  0  0  0  0  0  0  0  0
   -4.9579   -3.8403    0.0000 C   0  0  0  0  0  0  0  0  0  0  0  0
   -6.1714   -4.7220    0.0000 C   0  0  0  0  0  0  0  0  0  0  0  0
   -6.0146   -6.2138    0.0000 C   0  0  0  0  0  0  0  0  0  0  0  0
   -4.6443   -6.8239    0.0000 C   0  0  0  0  0  0  0  0  0  0  0  0
   -3.4307   -5.9422    0.0000 C   0  0  0  0  0  0  0  0  0  0  0  0
   -2.6807   -7.2413    0.0000 C   0  0  0  0  0  0  0  0  0  0  0  0
   -4.0511   -7.8514    0.0000 C   0  0  0  0  0  0  0  0  0  0  0  0
   -4.2079   -9.3432    0.0000 C   0  0  0  0  0  0  0  0  0  0  0  0
   -2.9943  -10.2248    0.0000 C   0  0  0  0  0  0  0  0  0  0  0  0
   -1.6240   -9.6147    0.0000 C   0  0  0  0  0  0  0  0  0  0  0  0
   -1.4672   -8.1229    0.0000 C   0  0  0  0  0  0  0  0  0  0  0  0
   -0.0000   -8.4348    0.0000 C   0  0  0  0  0  0  0  0  0  0  0  0
   -0.4635   -9.8614    0.0000 C   0  0  0  0  0  0  0  0  0  0  0  0
    0.5402  -10.9761    0.0000 C   0  0  0  0  0  0  0  0  0  0  0  0
    2.0074  -10.6642    0.0000 C   0  0  0  0  0  0  0  0  0  0  0  0
    2.4709   -9.2377    0.0000 C   0  0  0  0  0  0  0  0  0  0  0  0
    1.4672   -8.1229    0.0000 C   0  0  0  0  0  0  0  0  0  0  0  0
    2.6807   -7.2413    0.0000 C   0  0  0  0  0  0  0  0  0  0  0  0
    3.4307   -8.5403    0.0000 C   0  0  0  0  0  0  0  0  0  0  0  0
    4.9307   -8.5403    0.0000 C   0  0  0  0  0  0  0  0  0  0  0  0
    5.6807   -7.2413    0.0000 C   0  0  0  0  0  0  0  0  0  0  0  0
    4.9307   -5.9422    0.0000 C   0  0  0  0  0  0  0  0  0  0  0  0
    3.4307   -5.9422    0.0000 C   0  0  0  0  0  0  0  0  0  0  0  0
  1  2  2  0
  2  3  1  0
  3  4  1  0
  4  5  2  0
  5  6  1  0
  6  7  2  0
  7  8  1  0
  8  9  2  0
  2 10  1  0
 10 11  1  0
 11 12  2  0
 12 13  1  0
 12 14  1  0
 14 15  2  0
 15 16  1  0
 16 17  2  0
 17 18  1  0
 18 19  2  0
 19 20  1  0
 20 21  2  0
 21 22  1  0
 22 23  2  0
 23 24  1  0
 24 25  2  0
 25 26  1  0
 26 27  2  0
 27 28  1  0
 28 29  2  0
 29 30  1  0
 30 31  2  0
 31 32  1  0
 32 33  2  0
 33 34  1  0
 34 35  2  0
 35 36  1  0
 36 37  2  0
 37 38  1  0
 38 39  2  0
 39 40  1  0
 40 41  2  0
 41 42  1  0
 42 43  2  0
 43 44  1  0
 44 45  2  0
 45 46  1  0
 46 47  2  0
 47 48  1  0
 48 49  2  0
  9  4  1  0
 49 10  1  0
 19 14  1  0
 25 20  1  0
 31 26  1  0
 37 32  1  0
 43 38  1  0
 49 44  1  0
M  END
>  <Title>  (277) 
idAAISgen9

$$$$

     RDKit          2D

 22 24  0  0  0  0  0  0  0  0999 V2000
    3.0000    2.5981    0.0000 C   0  0  0  0  0  0  0  0  0  0  0  0
    1.5000    2.5981    0.0000 C   0  0  0  0  0  0  0  0  0  0  0  0
    0.7500    3.8971    0.0000 C   0  0  0  0  0  0  0  0  0  0  0  0
   -0.7500    3.8971    0.0000 C   0  0  0  0  0  0  0  0  0  0  0  0
   -1.5000    2.5981    0.0000 C   0  0  0  0  0  0  0  0  0  0  0  0
   -3.0000    2.5981    0.0000 C   0  0  0  0  0  0  0  0  0  0  0  0
   -3.7500    3.8971    0.0000 O   0  0  0  0  0  0  0  0  0  0  0  0
   -3.7500    1.2990    0.0000 N   0  0  0  0  0  0  0  0  0  0  0  0
   -5.2500    1.2990    0.0000 C   0  0  0  0  0  0  0  0  0  0  0  0
   -6.0000    2.5981    0.0000 C   0  0  0  0  0  0  0  0  0  0  0  0
   -7.5000    2.5981    0.0000 N   0  0  0  0  0  0  0  0  0  0  0  0
   -8.2500    1.2990    0.0000 N   0  0  0  0  0  0  0  0  0  0  0  0
   -7.5000    0.0000    0.0000 N   0  0  0  0  0  0  0  0  0  0  0  0
   -6.0000    0.0000    0.0000 N   0  0  0  0  0  0  0  0  0  0  0  0
   -5.2500   -1.2990    0.0000 C   0  0  0  0  0  0  0  0  0  0  0  0
   -6.0000   -2.5981    0.0000 C   0  0  0  0  0  0  0  0  0  0  0  0
   -5.2500   -3.8971    0.0000 C   0  0  0  0  0  0  0  0  0  0  0  0
   -3.7500   -3.8971    0.0000 C   0  0  0  0  0  0  0  0  0  0  0  0
   -3.0000   -2.5981    0.0000 C   0  0  0  0  0  0  0  0  0  0  0  0
   -3.7500   -1.2990    0.0000 C   0  0  0  0  0  0  0  0  0  0  0  0
   -0.7500    1.2990    0.0000 C   0  0  0  0  0  0  0  0  0  0  0  0
    0.7500    1.2990    0.0000 C   0  0  0  0  0  0  0  0  0  0  0  0
  1  2  1  0
  2  3  1  0
  3  4  1  0
  4  5  1  0
  5  6  1  0
  6  7  2  0
  6  8  1  0
  8  9  1  0
  9 10  1  0
 10 11  1  0
 11 12  1  0
 12 13  2  0
 13 14  1  0
 14 15  1  0
 15 16  2  0
 16 17  1  0
 17 18  2  0
 18 19  1  0
 19 20  2  0
  5 21  1  0
 21 22  1  0
 22  2  1  0
 14  9  1  0
 20 15  1  0
M  END
>  <Title>  (278) 
idAAITgen9

$$$$

     RDKit          2D

  5  5  0  0  0  0  0  0  0  0999 V2000
    1.2760    0.0000    0.0000 C   0  0  0  0  0  0  0  0  0  0  0  0
    0.3943    1.2135    0.0000 C   0  0  0  0  0  0  0  0  0  0  0  0
   -1.0323    0.7500    0.0000 C   0  0  0  0  0  0  0  0  0  0  0  0
   -1.0323   -0.7500    0.0000 C   0  0  0  0  0  0  0  0  0  0  0  0
    0.3943   -1.2135    0.0000 C   0  0  0  0  0  0  0  0  0  0  0  0
  1  2  1  0
  2  3  1  0
  3  4  1  0
  4  5  1  0
  5  1  1  0
M  END
>  <Title>  (279) 
idAAIUgen9

$$$$

     RDKit          2D

 10 10  0  0  0  0  0  0  0  0999 V2000
    3.0000   -2.5981    0.0000 O   0  0  0  0  0  0  0  0  0  0  0  0
    3.7500   -1.2990    0.0000 C   0  0  0  0  0  0  0  0  0  0  0  0
    5.2500   -1.2990    0.0000 O   0  0  0  0  0  0  0  0  0  0  0  0
    3.0000    0.0000    0.0000 O   0  0  0  0  0  0  0  0  0  0  0  0
    1.5000    0.0000    0.0000 C   0  0  0  0  0  0  0  0  0  0  0  0
    0.7500   -1.2990    0.0000 C   0  0  0  0  0  0  0  0  0  0  0  0
   -0.7500   -1.2990    0.0000 C   0  0  0  0  0  0  0  0  0  0  0  0
   -1.5000    0.0000    0.0000 C   0  0  0  0  0  0  0  0  0  0  0  0
   -0.7500    1.2990    0.0000 C   0  0  0  0  0  0  0  0  0  0  0  0
    0.7500    1.2990    0.0000 C   0  0  0  0  0  0  0  0  0  0  0  0
  1  2  2  0
  2  3  1  0
  2  4  1  0
  4  5  1  0
  5  6  1  0
  6  7  2  0
  7  8  1  0
  8  9  1  0
  9 10  2  0
 10  5  1  0
M  END
>  <Title>  (280) 
idAAIVgen9

$$$$

     RDKit          2D

 45 51  0  0  0  0  0  0  0  0999 V2000
    3.7955   -8.2450    0.0000 C   0  0  0  0  0  0  0  0  0  0  0  0
    2.6807   -7.2413    0.0000 C   0  0  0  0  0  0  0  0  0  0  0  0
    3.4307   -5.9422    0.0000 C   0  0  0  0  0  0  0  0  0  0  0  0
    3.5875   -4.4504    0.0000 C   0  0  0  0  0  0  0  0  0  0  0  0
    3.1240   -3.0239    0.0000 C   0  0  0  0  0  0  0  0  0  0  0  0
    2.1203   -1.9091    0.0000 C   0  0  0  0  0  0  0  0  0  0  0  0
    3.0020   -0.6956    0.0000 C   0  0  0  0  0  0  0  0  0  0  0  0
    2.3919    0.6747    0.0000 O   0  0  0  0  0  0  0  0  0  0  0  0
    4.4938   -0.8524    0.0000 O   0  0  0  0  0  0  0  0  0  0  0  0
    5.3755    0.3611    0.0000 C   0  0  0  0  0  0  0  0  0  0  0  0
    6.8672    0.2043    0.0000 N   0  0  0  0  0  0  0  0  0  0  0  0
    7.7489    1.4178    0.0000 N   0  0  0  0  0  0  0  0  0  0  0  0
    7.1388    2.7882    0.0000 N   0  0  0  0  0  0  0  0  0  0  0  0
    5.6470    2.9450    0.0000 N   0  0  0  0  0  0  0  0  0  0  0  0
    4.7654    1.7314    0.0000 N   0  0  0  0  0  0  0  0  0  0  0  0
    0.7500   -1.2990    0.0000 C   0  0  0  0  0  0  0  0  0  0  0  0
    1.5000    0.0000    0.0000 C   0  0  0  0  0  0  0  0  0  0  0  0
    0.7500    1.2990    0.0000 C   0  0  0  0  0  0  0  0  0  0  0  0
   -0.7500    1.2990    0.0000 C   0  0  0  0  0  0  0  0  0  0  0  0
   -1.5000    0.0000    0.0000 C   0  0  0  0  0  0  0  0  0  0  0  0
   -0.7500   -1.2990    0.0000 C   0  0  0  0  0  0  0  0  0  0  0  0
   -2.1203   -1.9091    0.0000 C   0  0  0  0  0  0  0  0  0  0  0  0
   -2.5838   -0.4826    0.0000 C   0  0  0  0  0  0  0  0  0  0  0  0
   -4.0511   -0.1707    0.0000 C   0  0  0  0  0  0  0  0  0  0  0  0
   -5.0548   -1.2854    0.0000 C   0  0  0  0  0  0  0  0  0  0  0  0
   -4.5912   -2.7120    0.0000 C   0  0  0  0  0  0  0  0  0  0  0  0
   -3.1240   -3.0239    0.0000 C   0  0  0  0  0  0  0  0  0  0  0  0
   -3.5875   -4.4504    0.0000 C   0  0  0  0  0  0  0  0  0  0  0  0
   -4.9579   -3.8403    0.0000 C   0  0  0  0  0  0  0  0  0  0  0  0
   -6.1714   -4.7220    0.0000 C   0  0  0  0  0  0  0  0  0  0  0  0
   -6.0146   -6.2138    0.0000 C   0  0  0  0  0  0  0  0  0  0  0  0
   -4.6443   -6.8239    0.0000 C   0  0  0  0  0  0  0  0  0  0  0  0
   -3.4307   -5.9422    0.0000 C   0  0  0  0  0  0  0  0  0  0  0  0
   -2.6807   -7.2413    0.0000 C   0  0  0  0  0  0  0  0  0  0  0  0
   -4.0511   -7.8514    0.0000 C   0  0  0  0  0  0  0  0  0  0  0  0
   -4.2079   -9.3432    0.0000 C   0  0  0  0  0  0  0  0  0  0  0  0
   -2.9943  -10.2248    0.0000 C   0  0  0  0  0  0  0  0  0  0  0  0
   -1.6240   -9.6147    0.0000 C   0  0  0  0  0  0  0  0  0  0  0  0
   -1.4672   -8.1229    0.0000 C   0  0  0  0  0  0  0  0  0  0  0  0
   -0.0000   -8.4348    0.0000 C   0  0  0  0  0  0  0  0  0  0  0  0
   -0.4635   -9.8614    0.0000 C   0  0  0  0  0  0  0  0  0  0  0  0
    0.5402  -10.9761    0.0000 C   0  0  0  0  0  0  0  0  0  0  0  0
    2.0074  -10.6642    0.0000 C   0  0  0  0  0  0  0  0  0  0  0  0
    2.4709   -9.2377    0.0000 C   0  0  0  0  0  0  0  0  0  0  0  0
    1.4672   -8.1229    0.0000 C   0  0  0  0  0  0  0  0  0  0  0  0
  1  2  1  0
  2  3  2  0
  3  4  1  0
  4  5  1  0
  5  6  1  0
  6  7  1  0
  7  8  2  0
  7  9  1  0
  9 10  1  0
 10 11  2  0
 11 12  1  0
 12 13  2  0
 13 14  1  0
 14 15  2  0
  6 16  1  0
 16 17  2  0
 17 18  1  0
 18 19  2  0
 19 20  1  0
 20 21  2  0
 21 22  1  0
 22 23  2  0
 23 24  1  0
 24 25  2  0
 25 26  1  0
 26 27  2  0
 27 28  1  0
 28 29  2  0
 29 30  1  0
 30 31  2  0
 31 32  1  0
 32 33  2  0
 33 34  1  0
 34 35  2  0
 35 36  1  0
 36 37  2  0
 37 38  1  0
 38 39  2  0
 39 40  1  0
 40 41  2  0
 41 42  1  0
 42 43  2  0
 43 44  1  0
 44 45  2  0
 45  2  1  0
 15 10  1  0
 21 16  1  0
 27 22  1  0
 33 28  1  0
 39 34  1  0
 45 40  1  0
M  END
>  <Title>  (281) 
idAAIWgen9

$$$$

     RDKit          2D

  6  6  0  0  0  0  0  0  0  0999 V2000
    1.5000    0.0000    0.0000 C   0  0  0  0  0  0  0  0  0  0  0  0
    0.7500   -1.2990    0.0000 C   0  0  0  0  0  0  0  0  0  0  0  0
   -0.7500   -1.2990    0.0000 C   0  0  0  0  0  0  0  0  0  0  0  0
   -1.5000    0.0000    0.0000 C   0  0  0  0  0  0  0  0  0  0  0  0
   -0.7500    1.2990    0.0000 C   0  0  0  0  0  0  0  0  0  0  0  0
    0.7500    1.2990    0.0000 C   0  0  0  0  0  0  0  0  0  0  0  0
  1  2  2  0
  2  3  1  0
  3  4  1  0
  4  5  1  0
  5  6  1  0
  6  1  1  0
M  END
>  <Title>  (282) 
idAAIXgen9

$$$$

     RDKit          2D

 17 18  0  0  0  0  0  0  0  0999 V2000
    8.2046    8.3859    0.0000 C   0  0  0  0  0  0  0  0  0  0  0  0
    7.3877    7.1279    0.0000 C   0  0  0  0  0  0  0  0  0  0  0  0
    5.8897    7.2064    0.0000 C   0  0  0  0  0  0  0  0  0  0  0  0
    5.0728    5.9484    0.0000 C   0  0  0  0  0  0  0  0  0  0  0  0
    3.8147    6.7654    0.0000 C   0  0  0  0  0  0  0  0  0  0  0  0
    6.3308    5.1315    0.0000 C   0  0  0  0  0  0  0  0  0  0  0  0
    5.5138    3.8735    0.0000 C   0  0  0  0  0  0  0  0  0  0  0  0
    4.2558    4.6904    0.0000 C   0  0  0  0  0  0  0  0  0  0  0  0
    2.7886    4.3786    0.0000 C   0  0  0  0  0  0  0  0  0  0  0  0
    2.3250    2.9520    0.0000 C   0  0  0  0  0  0  0  0  0  0  0  0
    3.3287    1.8373    0.0000 O   0  0  0  0  0  0  0  0  0  0  0  0
    0.8578    2.6401    0.0000 N   0  0  0  0  0  0  0  0  0  0  0  0
    0.3943    1.2135    0.0000 C   0  0  0  0  0  0  0  0  0  0  0  0
    1.2760    0.0000    0.0000 C   0  0  0  0  0  0  0  0  0  0  0  0
    0.3943   -1.2135    0.0000 C   0  0  0  0  0  0  0  0  0  0  0  0
   -1.0323   -0.7500    0.0000 C   0  0  0  0  0  0  0  0  0  0  0  0
   -1.0323    0.7500    0.0000 C   0  0  0  0  0  0  0  0  0  0  0  0
  1  2  1  0
  2  3  1  0
  3  4  1  0
  4  5  1  0
  4  6  1  0
  6  7  1  0
  7  8  1  0
  8  9  1  0
  9 10  1  0
 10 11  2  0
 10 12  1  0
 12 13  1  0
 13 14  2  0
 14 15  1  0
 15 16  2  0
 16 17  1  0
  8  4  1  0
 17 13  1  0
M  END
>  <Title>  (283) 
idAAIYgen9

$$$$

     RDKit          2D

 15 16  0  0  0  0  0  0  0  0999 V2000
   -0.5773   -6.8783    0.0000 C   0  0  0  0  0  0  0  0  0  0  0  0
    0.8899   -6.5665    0.0000 C   0  0  0  0  0  0  0  0  0  0  0  0
    2.0046   -7.5702    0.0000 C   0  0  0  0  0  0  0  0  0  0  0  0
    3.3037   -6.8202    0.0000 C   0  0  0  0  0  0  0  0  0  0  0  0
    2.9918   -5.3529    0.0000 C   0  0  0  0  0  0  0  0  0  0  0  0
    1.5000   -5.1962    0.0000 C   0  0  0  0  0  0  0  0  0  0  0  0
    0.7500   -3.8971    0.0000 C   0  0  0  0  0  0  0  0  0  0  0  0
   -0.7500   -3.8971    0.0000 O   0  0  0  0  0  0  0  0  0  0  0  0
    1.5000   -2.5981    0.0000 N   0  0  0  0  0  0  0  0  0  0  0  0
    0.7500   -1.2990    0.0000 C   0  0  0  0  0  0  0  0  0  0  0  0
    1.5000    0.0000    0.0000 N   0  0  0  0  0  0  0  0  0  0  0  0
    0.7500    1.2990    0.0000 N   0  0  0  0  0  0  0  0  0  0  0  0
   -0.7500    1.2990    0.0000 N   0  0  0  0  0  0  0  0  0  0  0  0
   -1.5000    0.0000    0.0000 N   0  0  0  0  0  0  0  0  0  0  0  0
   -0.7500   -1.2990    0.0000 N   0  0  0  0  0  0  0  0  0  0  0  0
  1  2  1  0
  2  3  2  0
  3  4  1  0
  4  5  2  0
  5  6  1  0
  6  7  1  0
  7  8  2  0
  7  9  1  0
  9 10  1  0
 10 11  2  0
 11 12  1  0
 12 13  2  0
 13 14  1  0
 14 15  2  0
  6  2  1  0
 15 10  1  0
M  END
>  <Title>  (284) 
idAAIZgen9

$$$$

     RDKit          2D

 17 18  0  0  0  0  0  0  0  0999 V2000
    3.0000    0.0000    0.0000 C   0  0  0  0  0  0  0  0  0  0  0  0
    1.5000    0.0000    0.0000 C   0  0  0  0  0  0  0  0  0  0  0  0
    0.7500   -1.2990    0.0000 C   0  0  0  0  0  0  0  0  0  0  0  0
   -0.7500   -1.2990    0.0000 C   0  0  0  0  0  0  0  0  0  0  0  0
   -1.5000    0.0000    0.0000 C   0  0  0  0  0  0  0  0  0  0  0  0
   -0.7500    1.2990    0.0000 C   0  0  0  0  0  0  0  0  0  0  0  0
    0.7500    1.2990    0.0000 C   0  0  0  0  0  0  0  0  0  0  0  0
    1.5000    2.5981    0.0000 C   0  0  0  0  0  0  0  0  0  0  0  0
    3.0000    2.5981    0.0000 C   0  0  0  0  0  0  0  0  0  0  0  0
    3.7500    3.8971    0.0000 C   0  0  0  0  0  0  0  0  0  0  0  0
    5.2500    3.8971    0.0000 C   0  0  0  0  0  0  0  0  0  0  0  0
    6.1317    5.1106    0.0000 O   0  0  0  0  0  0  0  0  0  0  0  0
    7.5583    4.6471    0.0000 C   0  0  0  0  0  0  0  0  0  0  0  0
    7.5583    3.1471    0.0000 C   0  0  0  0  0  0  0  0  0  0  0  0
    8.7718    2.2654    0.0000 O   0  0  0  0  0  0  0  0  0  0  0  0
    6.1317    2.6836    0.0000 C   0  0  0  0  0  0  0  0  0  0  0  0
    5.6682    1.2570    0.0000 O   0  0  0  0  0  0  0  0  0  0  0  0
  1  2  1  0
  2  3  2  0
  3  4  1  0
  4  5  2  0
  5  6  1  0
  6  7  1  0
  7  8  1  0
  8  9  2  3
  9 10  1  0
 10 11  2  3
 11 12  1  0
 12 13  1  0
 13 14  1  0
 14 15  1  0
 14 16  1  0
 16 17  1  0
  7  2  1  0
 16 11  1  0
M  END
>  <Title>  (285) 
idAAJAgen9

$$$$

     RDKit          2D

  7  7  0  0  0  0  0  0  0  0999 V2000
    2.3660   -2.5981    0.0000 O   0  0  0  0  0  0  0  0  0  0  0  0
    3.1160   -1.2990    0.0000 C   0  0  0  0  0  0  0  0  0  0  0  0
    4.6160   -1.2990    0.0000 O   0  0  0  0  0  0  0  0  0  0  0  0
    2.3660    0.0000    0.0000 O   0  0  0  0  0  0  0  0  0  0  0  0
    0.8660    0.0000    0.0000 C   0  0  0  0  0  0  0  0  0  0  0  0
   -0.4330    0.7500    0.0000 C   0  0  0  0  0  0  0  0  0  0  0  0
   -0.4330   -0.7500    0.0000 C   0  0  0  0  0  0  0  0  0  0  0  0
  1  2  2  0
  2  3  1  0
  2  4  1  0
  4  5  1  0
  5  6  1  0
  6  7  1  0
  7  5  1  0
M  END
>  <Title>  (286) 
idAAJBgen9

$$$$

     RDKit          2D

 92 92  0  0  0  0  0  0  0  0999 V2000
   23.2290   -0.0000    0.0000 C   0  0  0  0  0  0  0  0  0  0  0  0
   21.7290    0.0000    0.0000 C   0  0  0  0  0  0  0  0  0  0  0  0
   21.6772    1.4991    0.0000 C   0  0  0  0  0  0  0  0  0  0  0  0
   21.5221    2.9911    0.0000 C   0  0  0  0  0  0  0  0  0  0  0  0
   21.2645    4.4688    0.0000 C   0  0  0  0  0  0  0  0  0  0  0  0
   20.9055    5.9252    0.0000 C   0  0  0  0  0  0  0  0  0  0  0  0
   20.4469    7.3534    0.0000 C   0  0  0  0  0  0  0  0  0  0  0  0
   19.8909    8.7465    0.0000 C   0  0  0  0  0  0  0  0  0  0  0  0
   19.2400   10.0980    0.0000 C   0  0  0  0  0  0  0  0  0  0  0  0
   18.4975   11.4013    0.0000 C   0  0  0  0  0  0  0  0  0  0  0  0
   17.6669   12.6503    0.0000 C   0  0  0  0  0  0  0  0  0  0  0  0
   16.7520   13.8390    0.0000 C   0  0  0  0  0  0  0  0  0  0  0  0
   15.7573   14.9618    0.0000 C   0  0  0  0  0  0  0  0  0  0  0  0
   14.6876   16.0132    0.0000 C   0  0  0  0  0  0  0  0  0  0  0  0
   13.5478   16.9884    0.0000 C   0  0  0  0  0  0  0  0  0  0  0  0
   12.3435   17.8826    0.0000 C   0  0  0  0  0  0  0  0  0  0  0  0
   11.0803   18.6916    0.0000 C   0  0  0  0  0  0  0  0  0  0  0  0
    9.7644   19.4115    0.0000 C   0  0  0  0  0  0  0  0  0  0  0  0
    8.4019   20.0389    0.0000 C   0  0  0  0  0  0  0  0  0  0  0  0
    6.9993   20.5708    0.0000 C   0  0  0  0  0  0  0  0  0  0  0  0
    5.5635   21.0047    0.0000 C   0  0  0  0  0  0  0  0  0  0  0  0
    4.1011   21.3384    0.0000 C   0  0  0  0  0  0  0  0  0  0  0  0
    2.6191   21.5705    0.0000 C   0  0  0  0  0  0  0  0  0  0  0  0
    1.1247   21.6998    0.0000 C   0  0  0  0  0  0  0  0  0  0  0  0
   -0.3751   21.7257    0.0000 C   0  0  0  0  0  0  0  0  0  0  0  0
   -1.8730   21.6481    0.0000 C   0  0  0  0  0  0  0  0  0  0  0  0
   -3.3621   21.4673    0.0000 C   0  0  0  0  0  0  0  0  0  0  0  0
   -4.8351   21.1842    0.0000 C   0  0  0  0  0  0  0  0  0  0  0  0
   -6.2851   20.8001    0.0000 C   0  0  0  0  0  0  0  0  0  0  0  0
   -7.7052   20.3169    0.0000 C   0  0  0  0  0  0  0  0  0  0  0  0
   -9.0885   19.7369    0.0000 C   0  0  0  0  0  0  0  0  0  0  0  0
  -10.4285   19.0629    0.0000 C   0  0  0  0  0  0  0  0  0  0  0  0
  -11.7189   18.2980    0.0000 C   0  0  0  0  0  0  0  0  0  0  0  0
  -12.9533   17.4459    0.0000 C   0  0  0  0  0  0  0  0  0  0  0  0
  -14.1261   16.5106    0.0000 C   0  0  0  0  0  0  0  0  0  0  0  0
  -15.2315   15.4967    0.0000 C   0  0  0  0  0  0  0  0  0  0  0  0
  -16.2644   14.4090    0.0000 C   0  0  0  0  0  0  0  0  0  0  0  0
  -17.2197   13.2525    0.0000 C   0  0  0  0  0  0  0  0  0  0  0  0
  -18.0930   12.0330    0.0000 C   0  0  0  0  0  0  0  0  0  0  0  0
  -18.8800   10.7560    0.0000 C   0  0  0  0  0  0  0  0  0  0  0  0
  -19.5771    9.4278    0.0000 C   0  0  0  0  0  0  0  0  0  0  0  0
  -20.1809    8.0547    0.0000 C   0  0  0  0  0  0  0  0  0  0  0  0
  -20.6885    6.6432    0.0000 C   0  0  0  0  0  0  0  0  0  0  0  0
  -21.0976    5.2001    0.0000 C   0  0  0  0  0  0  0  0  0  0  0  0
  -21.4061    3.7321    0.0000 C   0  0  0  0  0  0  0  0  0  0  0  0
  -21.6125    2.2464    0.0000 C   0  0  0  0  0  0  0  0  0  0  0  0
  -21.7160    0.7500    0.0000 C   0  0  0  0  0  0  0  0  0  0  0  0
  -21.7160   -0.7500    0.0000 C   0  0  0  0  0  0  0  0  0  0  0  0
  -21.6125   -2.2464    0.0000 C   0  0  0  0  0  0  0  0  0  0  0  0
  -21.4061   -3.7321    0.0000 C   0  0  0  0  0  0  0  0  0  0  0  0
  -21.0976   -5.2001    0.0000 C   0  0  0  0  0  0  0  0  0  0  0  0
  -20.6885   -6.6432    0.0000 C   0  0  0  0  0  0  0  0  0  0  0  0
  -20.1809   -8.0547    0.0000 C   0  0  0  0  0  0  0  0  0  0  0  0
  -19.5771   -9.4278    0.0000 C   0  0  0  0  0  0  0  0  0  0  0  0
  -18.8800  -10.7560    0.0000 C   0  0  0  0  0  0  0  0  0  0  0  0
  -18.0930  -12.0330    0.0000 C   0  0  0  0  0  0  0  0  0  0  0  0
  -17.2197  -13.2525    0.0000 C   0  0  0  0  0  0  0  0  0  0  0  0
  -16.2644  -14.4090    0.0000 C   0  0  0  0  0  0  0  0  0  0  0  0
  -15.2315  -15.4967    0.0000 C   0  0  0  0  0  0  0  0  0  0  0  0
  -14.1261  -16.5106    0.0000 C   0  0  0  0  0  0  0  0  0  0  0  0
  -12.9533  -17.4459    0.0000 C   0  0  0  0  0  0  0  0  0  0  0  0
  -11.7189  -18.2980    0.0000 C   0  0  0  0  0  0  0  0  0  0  0  0
  -10.4285  -19.0629    0.0000 C   0  0  0  0  0  0  0  0  0  0  0  0
   -9.0885  -19.7369    0.0000 C   0  0  0  0  0  0  0  0  0  0  0  0
   -7.7052  -20.3169    0.0000 C   0  0  0  0  0  0  0  0  0  0  0  0
   -6.2851  -20.8001    0.0000 C   0  0  0  0  0  0  0  0  0  0  0  0
   -4.8351  -21.1842    0.0000 C   0  0  0  0  0  0  0  0  0  0  0  0
   -3.3621  -21.4673    0.0000 C   0  0  0  0  0  0  0  0  0  0  0  0
   -1.8730  -21.6481    0.0000 C   0  0  0  0  0  0  0  0  0  0  0  0
   -0.3751  -21.7257    0.0000 C   0  0  0  0  0  0  0  0  0  0  0  0
    1.1247  -21.6998    0.0000 C   0  0  0  0  0  0  0  0  0  0  0  0
    2.6191  -21.5705    0.0000 C   0  0  0  0  0  0  0  0  0  0  0  0
    4.1011  -21.3384    0.0000 C   0  0  0  0  0  0  0  0  0  0  0  0
    5.5635  -21.0047    0.0000 C   0  0  0  0  0  0  0  0  0  0  0  0
    6.9993  -20.5708    0.0000 C   0  0  0  0  0  0  0  0  0  0  0  0
    8.4019  -20.0389    0.0000 C   0  0  0  0  0  0  0  0  0  0  0  0
    9.7644  -19.4115    0.0000 C   0  0  0  0  0  0  0  0  0  0  0  0
   11.0803  -18.6916    0.0000 C   0  0  0  0  0  0  0  0  0  0  0  0
   12.3435  -17.8826    0.0000 C   0  0  0  0  0  0  0  0  0  0  0  0
   13.5478  -16.9884    0.0000 C   0  0  0  0  0  0  0  0  0  0  0  0
   14.6876  -16.0132    0.0000 C   0  0  0  0  0  0  0  0  0  0  0  0
   15.7573  -14.9618    0.0000 C   0  0  0  0  0  0  0  0  0  0  0  0
   16.7520  -13.8390    0.0000 C   0  0  0  0  0  0  0  0  0  0  0  0
   17.6669  -12.6503    0.0000 C   0  0  0  0  0  0  0  0  0  0  0  0
   18.4975  -11.4013    0.0000 C   0  0  0  0  0  0  0  0  0  0  0  0
   19.2400  -10.0980    0.0000 C   0  0  0  0  0  0  0  0  0  0  0  0
   19.8909   -8.7465    0.0000 C   0  0  0  0  0  0  0  0  0  0  0  0
   20.4469   -7.3534    0.0000 C   0  0  0  0  0  0  0  0  0  0  0  0
   20.9055   -5.9252    0.0000 C   0  0  0  0  0  0  0  0  0  0  0  0
   21.2645   -4.4688    0.0000 C   0  0  0  0  0  0  0  0  0  0  0  0
   21.5221   -2.9911    0.0000 C   0  0  0  0  0  0  0  0  0  0  0  0
   21.6772   -1.4991    0.0000 C   0  0  0  0  0  0  0  0  0  0  0  0
  1  2  1  0
  2  3  1  0
  3  4  2  0
  4  5  1  0
  5  6  2  0
  6  7  1  0
  7  8  2  0
  8  9  1  0
  9 10  2  0
 10 11  1  0
 11 12  2  0
 12 13  1  0
 13 14  2  0
 14 15  1  0
 15 16  2  0
 16 17  1  0
 17 18  2  0
 18 19  1  0
 19 20  2  0
 20 21  1  0
 21 22  1  0
 22 23  1  0
 23 24  1  0
 24 25  1  0
 25 26  1  0
 26 27  1  0
 27 28  1  0
 28 29  1  0
 29 30  1  0
 30 31  1  0
 31 32  1  0
 32 33  1  0
 33 34  1  0
 34 35  1  0
 35 36  1  0
 36 37  1  0
 37 38  1  0
 38 39  1  0
 39 40  1  0
 40 41  1  0
 41 42  1  0
 42 43  1  0
 43 44  1  0
 44 45  1  0
 45 46  1  0
 46 47  1  0
 47 48  1  0
 48 49  1  0
 49 50  1  0
 50 51  1  0
 51 52  1  0
 52 53  1  0
 53 54  1  0
 54 55  1  0
 55 56  1  0
 56 57  1  0
 57 58  1  0
 58 59  1  0
 59 60  1  0
 60 61  1  0
 61 62  1  0
 62 63  1  0
 63 64  1  0
 64 65  1  0
 65 66  1  0
 66 67  1  0
 67 68  1  0
 68 69  1  0
 69 70  1  0
 70 71  1  0
 71 72  1  0
 72 73  1  0
 73 74  1  0
 74 75  1  0
 75 76  1  0
 76 77  1  0
 77 78  1  0
 78 79  1  0
 79 80  1  0
 80 81  1  0
 81 82  1  0
 82 83  1  0
 83 84  1  0
 84 85  1  0
 85 86  1  0
 86 87  1  0
 87 88  1  0
 88 89  1  0
 89 90  1  0
 90 91  1  0
 91 92  1  0
 92  2  1  0
M  END
>  <Title>  (287) 
idAAJCgen9

$$$$

     RDKit          2D

  7  7  0  0  0  0  0  0  0  0999 V2000
    4.2760   -0.0000    0.0000 C   0  0  0  0  0  0  0  0  0  0  0  0
    2.7760    0.0000    0.0000 C   0  0  0  0  0  0  0  0  0  0  0  0
    1.2760    0.0000    0.0000 C   0  0  0  0  0  0  0  0  0  0  0  0
    0.3943    1.2135    0.0000 C   0  0  0  0  0  0  0  0  0  0  0  0
   -1.0323    0.7500    0.0000 C   0  0  0  0  0  0  0  0  0  0  0  0
   -1.0323   -0.7500    0.0000 C   0  0  0  0  0  0  0  0  0  0  0  0
    0.3943   -1.2135    0.0000 C   0  0  0  0  0  0  0  0  0  0  0  0
  1  2  3  0
  2  3  1  0
  3  4  2  0
  4  5  1  0
  5  6  1  0
  6  7  2  0
  7  3  1  0
M  END
>  <Title>  (288) 
idAAJDgen9

$$$$

     RDKit          2D

 20 22  0  0  0  0  0  0  0  0999 V2000
    3.0000    0.0000    0.0000 C   0  0  0  0  0  0  0  0  0  0  0  0
    1.5000    0.0000    0.0000 C   0  0  0  0  0  0  0  0  0  0  0  0
    0.7500   -1.2990    0.0000 C   0  0  0  0  0  0  0  0  0  0  0  0
   -0.7500   -1.2990    0.0000 C   0  0  0  0  0  0  0  0  0  0  0  0
   -1.5000    0.0000    0.0000 C   0  0  0  0  0  0  0  0  0  0  0  0
   -3.0000    0.0000    0.0000 C   0  0  0  0  0  0  0  0  0  0  0  0
   -3.7500   -1.2990    0.0000 O   0  0  0  0  0  0  0  0  0  0  0  0
   -3.7500    1.2990    0.0000 N   0  0  0  0  0  0  0  0  0  0  0  0
   -5.2500    1.2990    0.0000 C   0  0  0  0  0  0  0  0  0  0  0  0
   -6.1317    0.0855    0.0000 N   0  0  0  0  0  0  0  0  0  0  0  0
   -7.5583    0.5490    0.0000 N   0  0  0  0  0  0  0  0  0  0  0  0
   -7.5583    2.0490    0.0000 N   0  0  0  0  0  0  0  0  0  0  0  0
   -6.1317    2.5126    0.0000 N   0  0  0  0  0  0  0  0  0  0  0  0
   -5.6682    3.9391    0.0000 N   0  0  0  0  0  0  0  0  0  0  0  0
   -6.5498    5.1527    0.0000 C   0  0  0  0  0  0  0  0  0  0  0  0
   -5.6682    6.3662    0.0000 C   0  0  0  0  0  0  0  0  0  0  0  0
   -4.2416    5.9027    0.0000 C   0  0  0  0  0  0  0  0  0  0  0  0
   -4.2416    4.4027    0.0000 C   0  0  0  0  0  0  0  0  0  0  0  0
   -0.7500    1.2990    0.0000 C   0  0  0  0  0  0  0  0  0  0  0  0
    0.7500    1.2990    0.0000 C   0  0  0  0  0  0  0  0  0  0  0  0
  1  2  1  0
  2  3  1  0
  3  4  1  0
  4  5  1  0
  5  6  1  0
  6  7  2  0
  6  8  1  0
  8  9  1  0
  9 10  2  0
 10 11  1  0
 11 12  2  0
 12 13  1  0
 13 14  1  0
 14 15  1  0
 15 16  1  0
 16 17  1  0
 17 18  1  0
  5 19  1  0
 19 20  1  0
 20  2  1  0
 13  9  1  0
 18 14  1  0
M  END
>  <Title>  (289) 
idAAJEgen9

$$$$

     RDKit          2D

 87 87  0  0  0  0  0  0  0  0999 V2000
   22.0356    0.0000    0.0000 C   0  0  0  0  0  0  0  0  0  0  0  0
   20.5356    0.0000    0.0000 C   0  0  0  0  0  0  0  0  0  0  0  0
   20.4808   -1.4990    0.0000 C   0  0  0  0  0  0  0  0  0  0  0  0
   20.3167   -2.9900    0.0000 C   0  0  0  0  0  0  0  0  0  0  0  0
   20.0443   -4.4650    0.0000 C   0  0  0  0  0  0  0  0  0  0  0  0
   19.6649   -5.9163    0.0000 C   0  0  0  0  0  0  0  0  0  0  0  0
   19.1805   -7.3359    0.0000 C   0  0  0  0  0  0  0  0  0  0  0  0
   18.5939   -8.7165    0.0000 C   0  0  0  0  0  0  0  0  0  0  0  0
   17.9080  -10.0505    0.0000 C   0  0  0  0  0  0  0  0  0  0  0  0
   17.1266  -11.3309    0.0000 C   0  0  0  0  0  0  0  0  0  0  0  0
   16.2538  -12.5508    0.0000 C   0  0  0  0  0  0  0  0  0  0  0  0
   15.2943  -13.7038    0.0000 C   0  0  0  0  0  0  0  0  0  0  0  0
   14.2532  -14.7836    0.0000 C   0  0  0  0  0  0  0  0  0  0  0  0
   13.1360  -15.7846    0.0000 C   0  0  0  0  0  0  0  0  0  0  0  0
   11.9488  -16.7014    0.0000 C   0  0  0  0  0  0  0  0  0  0  0  0
   10.6978  -17.5290    0.0000 C   0  0  0  0  0  0  0  0  0  0  0  0
    9.3897  -18.2631    0.0000 C   0  0  0  0  0  0  0  0  0  0  0  0
    8.0316  -18.8998    0.0000 C   0  0  0  0  0  0  0  0  0  0  0  0
    6.6305  -19.4357    0.0000 C   0  0  0  0  0  0  0  0  0  0  0  0
    5.1941  -19.8678    0.0000 C   0  0  0  0  0  0  0  0  0  0  0  0
    3.7300  -20.1940    0.0000 C   0  0  0  0  0  0  0  0  0  0  0  0
    2.2460  -20.4124    0.0000 C   0  0  0  0  0  0  0  0  0  0  0  0
    0.7500  -20.5219    0.0000 C   0  0  0  0  0  0  0  0  0  0  0  0
   -0.7500  -20.5219    0.0000 C   0  0  0  0  0  0  0  0  0  0  0  0
   -2.2460  -20.4124    0.0000 C   0  0  0  0  0  0  0  0  0  0  0  0
   -3.7300  -20.1940    0.0000 C   0  0  0  0  0  0  0  0  0  0  0  0
   -5.1941  -19.8678    0.0000 C   0  0  0  0  0  0  0  0  0  0  0  0
   -6.6305  -19.4357    0.0000 C   0  0  0  0  0  0  0  0  0  0  0  0
   -8.0316  -18.8998    0.0000 C   0  0  0  0  0  0  0  0  0  0  0  0
   -9.3897  -18.2631    0.0000 C   0  0  0  0  0  0  0  0  0  0  0  0
  -10.6978  -17.5290    0.0000 C   0  0  0  0  0  0  0  0  0  0  0  0
  -11.9488  -16.7014    0.0000 C   0  0  0  0  0  0  0  0  0  0  0  0
  -13.1360  -15.7846    0.0000 C   0  0  0  0  0  0  0  0  0  0  0  0
  -14.2532  -14.7836    0.0000 C   0  0  0  0  0  0  0  0  0  0  0  0
  -15.2943  -13.7038    0.0000 C   0  0  0  0  0  0  0  0  0  0  0  0
  -16.2538  -12.5508    0.0000 C   0  0  0  0  0  0  0  0  0  0  0  0
  -17.1266  -11.3309    0.0000 C   0  0  0  0  0  0  0  0  0  0  0  0
  -17.9080  -10.0505    0.0000 C   0  0  0  0  0  0  0  0  0  0  0  0
  -18.5939   -8.7165    0.0000 C   0  0  0  0  0  0  0  0  0  0  0  0
  -19.1805   -7.3359    0.0000 C   0  0  0  0  0  0  0  0  0  0  0  0
  -19.6649   -5.9163    0.0000 C   0  0  0  0  0  0  0  0  0  0  0  0
  -20.0443   -4.4650    0.0000 C   0  0  0  0  0  0  0  0  0  0  0  0
  -20.3167   -2.9900    0.0000 C   0  0  0  0  0  0  0  0  0  0  0  0
  -20.4808   -1.4990    0.0000 C   0  0  0  0  0  0  0  0  0  0  0  0
  -20.5356    0.0000    0.0000 C   0  0  0  0  0  0  0  0  0  0  0  0
  -20.4808    1.4990    0.0000 C   0  0  0  0  0  0  0  0  0  0  0  0
  -20.3167    2.9900    0.0000 C   0  0  0  0  0  0  0  0  0  0  0  0
  -20.0443    4.4650    0.0000 C   0  0  0  0  0  0  0  0  0  0  0  0
  -19.6649    5.9163    0.0000 C   0  0  0  0  0  0  0  0  0  0  0  0
  -19.1805    7.3359    0.0000 C   0  0  0  0  0  0  0  0  0  0  0  0
  -18.5939    8.7165    0.0000 C   0  0  0  0  0  0  0  0  0  0  0  0
  -17.9080   10.0505    0.0000 C   0  0  0  0  0  0  0  0  0  0  0  0
  -17.1266   11.3309    0.0000 C   0  0  0  0  0  0  0  0  0  0  0  0
  -16.2538   12.5508    0.0000 C   0  0  0  0  0  0  0  0  0  0  0  0
  -15.2943   13.7038    0.0000 C   0  0  0  0  0  0  0  0  0  0  0  0
  -14.2532   14.7836    0.0000 C   0  0  0  0  0  0  0  0  0  0  0  0
  -13.1360   15.7846    0.0000 C   0  0  0  0  0  0  0  0  0  0  0  0
  -11.9488   16.7014    0.0000 C   0  0  0  0  0  0  0  0  0  0  0  0
  -10.6978   17.5290    0.0000 C   0  0  0  0  0  0  0  0  0  0  0  0
   -9.3897   18.2631    0.0000 C   0  0  0  0  0  0  0  0  0  0  0  0
   -8.0316   18.8998    0.0000 C   0  0  0  0  0  0  0  0  0  0  0  0
   -6.6305   19.4357    0.0000 C   0  0  0  0  0  0  0  0  0  0  0  0
   -5.1941   19.8678    0.0000 C   0  0  0  0  0  0  0  0  0  0  0  0
   -3.7300   20.1940    0.0000 C   0  0  0  0  0  0  0  0  0  0  0  0
   -2.2460   20.4124    0.0000 C   0  0  0  0  0  0  0  0  0  0  0  0
   -0.7500   20.5219    0.0000 C   0  0  0  0  0  0  0  0  0  0  0  0
    0.7500   20.5219    0.0000 C   0  0  0  0  0  0  0  0  0  0  0  0
    2.2460   20.4124    0.0000 C   0  0  0  0  0  0  0  0  0  0  0  0
    3.7300   20.1940    0.0000 C   0  0  0  0  0  0  0  0  0  0  0  0
    5.1941   19.8678    0.0000 C   0  0  0  0  0  0  0  0  0  0  0  0
    6.6305   19.4357    0.0000 C   0  0  0  0  0  0  0  0  0  0  0  0
    8.0316   18.8998    0.0000 C   0  0  0  0  0  0  0  0  0  0  0  0
    9.3897   18.2631    0.0000 C   0  0  0  0  0  0  0  0  0  0  0  0
   10.6978   17.5290    0.0000 C   0  0  0  0  0  0  0  0  0  0  0  0
   11.9488   16.7014    0.0000 C   0  0  0  0  0  0  0  0  0  0  0  0
   13.1360   15.7846    0.0000 C   0  0  0  0  0  0  0  0  0  0  0  0
   14.2532   14.7836    0.0000 C   0  0  0  0  0  0  0  0  0  0  0  0
   15.2943   13.7038    0.0000 C   0  0  0  0  0  0  0  0  0  0  0  0
   16.2538   12.5508    0.0000 C   0  0  0  0  0  0  0  0  0  0  0  0
   17.1266   11.3309    0.0000 C   0  0  0  0  0  0  0  0  0  0  0  0
   17.9080   10.0505    0.0000 C   0  0  0  0  0  0  0  0  0  0  0  0
   18.5939    8.7165    0.0000 C   0  0  0  0  0  0  0  0  0  0  0  0
   19.1805    7.3359    0.0000 C   0  0  0  0  0  0  0  0  0  0  0  0
   19.6649    5.9163    0.0000 C   0  0  0  0  0  0  0  0  0  0  0  0
   20.0443    4.4650    0.0000 C   0  0  0  0  0  0  0  0  0  0  0  0
   20.3167    2.9900    0.0000 C   0  0  0  0  0  0  0  0  0  0  0  0
   20.4808    1.4990    0.0000 C   0  0  0  0  0  0  0  0  0  0  0  0
  1  2  1  0
  2  3  1  0
  3  4  1  0
  4  5  1  0
  5  6  1  0
  6  7  1  0
  7  8  1  0
  8  9  1  0
  9 10  1  0
 10 11  1  0
 11 12  1  0
 12 13  1  0
 13 14  1  0
 14 15  1  0
 15 16  1  0
 16 17  1  0
 17 18  1  0
 18 19  1  0
 19 20  1  0
 20 21  1  0
 21 22  1  0
 22 23  1  0
 23 24  1  0
 24 25  1  0
 25 26  1  0
 26 27  1  0
 27 28  1  0
 28 29  1  0
 29 30  1  0
 30 31  1  0
 31 32  1  0
 32 33  1  0
 33 34  1  0
 34 35  1  0
 35 36  1  0
 36 37  1  0
 37 38  1  0
 38 39  1  0
 39 40  1  0
 40 41  1  0
 41 42  1  0
 42 43  1  0
 43 44  1  0
 44 45  1  0
 45 46  1  0
 46 47  1  0
 47 48  1  0
 48 49  1  0
 49 50  1  0
 50 51  1  0
 51 52  1  0
 52 53  1  0
 53 54  1  0
 54 55  1  0
 55 56  1  0
 56 57  1  0
 57 58  1  0
 58 59  1  0
 59 60  1  0
 60 61  1  0
 61 62  1  0
 62 63  1  0
 63 64  1  0
 64 65  1  0
 65 66  1  0
 66 67  1  0
 67 68  1  0
 68 69  1  0
 69 70  1  0
 70 71  1  0
 71 72  1  0
 72 73  1  0
 73 74  1  0
 74 75  1  0
 75 76  1  0
 76 77  1  0
 77 78  1  0
 78 79  1  0
 79 80  1  0
 80 81  1  0
 81 82  1  0
 82 83  1  0
 83 84  1  0
 84 85  1  0
 85 86  1  0
 86 87  1  0
 87  2  1  0
M  END
>  <Title>  (290) 
idAAJFgen9

$$$$

     RDKit          2D

 45 51  0  0  0  0  0  0  0  0999 V2000
    3.7955   -8.2450    0.0000 C   0  0  0  0  0  0  0  0  0  0  0  0
    2.6807   -7.2413    0.0000 C   0  0  0  0  0  0  0  0  0  0  0  0
    3.4307   -5.9422    0.0000 C   0  0  0  0  0  0  0  0  0  0  0  0
    3.5875   -4.4504    0.0000 C   0  0  0  0  0  0  0  0  0  0  0  0
    3.1240   -3.0239    0.0000 C   0  0  0  0  0  0  0  0  0  0  0  0
    2.1203   -1.9091    0.0000 C   0  0  0  0  0  0  0  0  0  0  0  0
    3.0020   -0.6956    0.0000 C   0  0  0  0  0  0  0  0  0  0  0  0
    2.3919    0.6747    0.0000 O   0  0  0  0  0  0  0  0  0  0  0  0
    4.4938   -0.8524    0.0000 N   0  0  0  0  0  0  0  0  0  0  0  0
    5.3755    0.3611    0.0000 C   0  0  0  0  0  0  0  0  0  0  0  0
    6.8672    0.2043    0.0000 N   0  0  0  0  0  0  0  0  0  0  0  0
    7.7489    1.4178    0.0000 N   0  0  0  0  0  0  0  0  0  0  0  0
    7.1388    2.7882    0.0000 N   0  0  0  0  0  0  0  0  0  0  0  0
    5.6470    2.9450    0.0000 N   0  0  0  0  0  0  0  0  0  0  0  0
    4.7654    1.7314    0.0000 N   0  0  0  0  0  0  0  0  0  0  0  0
    0.7500   -1.2990    0.0000 C   0  0  0  0  0  0  0  0  0  0  0  0
    1.5000    0.0000    0.0000 C   0  0  0  0  0  0  0  0  0  0  0  0
    0.7500    1.2990    0.0000 C   0  0  0  0  0  0  0  0  0  0  0  0
   -0.7500    1.2990    0.0000 C   0  0  0  0  0  0  0  0  0  0  0  0
   -1.5000    0.0000    0.0000 C   0  0  0  0  0  0  0  0  0  0  0  0
   -0.7500   -1.2990    0.0000 C   0  0  0  0  0  0  0  0  0  0  0  0
   -2.1203   -1.9091    0.0000 C   0  0  0  0  0  0  0  0  0  0  0  0
   -2.5838   -0.4826    0.0000 C   0  0  0  0  0  0  0  0  0  0  0  0
   -4.0511   -0.1707    0.0000 C   0  0  0  0  0  0  0  0  0  0  0  0
   -5.0548   -1.2854    0.0000 C   0  0  0  0  0  0  0  0  0  0  0  0
   -4.5912   -2.7120    0.0000 C   0  0  0  0  0  0  0  0  0  0  0  0
   -3.1240   -3.0239    0.0000 C   0  0  0  0  0  0  0  0  0  0  0  0
   -3.5875   -4.4504    0.0000 C   0  0  0  0  0  0  0  0  0  0  0  0
   -4.9579   -3.8403    0.0000 C   0  0  0  0  0  0  0  0  0  0  0  0
   -6.1714   -4.7220    0.0000 C   0  0  0  0  0  0  0  0  0  0  0  0
   -6.0146   -6.2138    0.0000 C   0  0  0  0  0  0  0  0  0  0  0  0
   -4.6443   -6.8239    0.0000 C   0  0  0  0  0  0  0  0  0  0  0  0
   -3.4307   -5.9422    0.0000 C   0  0  0  0  0  0  0  0  0  0  0  0
   -2.6807   -7.2413    0.0000 C   0  0  0  0  0  0  0  0  0  0  0  0
   -4.0511   -7.8514    0.0000 C   0  0  0  0  0  0  0  0  0  0  0  0
   -4.2079   -9.3432    0.0000 C   0  0  0  0  0  0  0  0  0  0  0  0
   -2.9943  -10.2248    0.0000 C   0  0  0  0  0  0  0  0  0  0  0  0
   -1.6240   -9.6147    0.0000 C   0  0  0  0  0  0  0  0  0  0  0  0
   -1.4672   -8.1229    0.0000 C   0  0  0  0  0  0  0  0  0  0  0  0
   -0.0000   -8.4348    0.0000 C   0  0  0  0  0  0  0  0  0  0  0  0
   -0.4635   -9.8614    0.0000 C   0  0  0  0  0  0  0  0  0  0  0  0
    0.5402  -10.9761    0.0000 C   0  0  0  0  0  0  0  0  0  0  0  0
    2.0074  -10.6642    0.0000 C   0  0  0  0  0  0  0  0  0  0  0  0
    2.4709   -9.2377    0.0000 C   0  0  0  0  0  0  0  0  0  0  0  0
    1.4672   -8.1229    0.0000 C   0  0  0  0  0  0  0  0  0  0  0  0
  1  2  1  0
  2  3  2  0
  3  4  1  0
  4  5  1  0
  5  6  1  0
  6  7  1  0
  7  8  2  0
  7  9  1  0
  9 10  1  0
 10 11  2  0
 11 12  1  0
 12 13  2  0
 13 14  1  0
 14 15  2  0
  6 16  1  0
 16 17  2  0
 17 18  1  0
 18 19  2  0
 19 20  1  0
 20 21  2  0
 21 22  1  0
 22 23  2  0
 23 24  1  0
 24 25  2  0
 25 26  1  0
 26 27  2  0
 27 28  1  0
 28 29  2  0
 29 30  1  0
 30 31  2  0
 31 32  1  0
 32 33  2  0
 33 34  1  0
 34 35  2  0
 35 36  1  0
 36 37  2  0
 37 38  1  0
 38 39  2  0
 39 40  1  0
 40 41  2  0
 41 42  1  0
 42 43  2  0
 43 44  1  0
 44 45  2  0
 45  2  1  0
 15 10  1  0
 21 16  1  0
 27 22  1  0
 33 28  1  0
 39 34  1  0
 45 40  1  0
M  END
>  <Title>  (291) 
idAAJGgen9

$$$$

     RDKit          2D

 17 18  0  0  0  0  0  0  0  0999 V2000
    3.2286   -0.0000    0.0000 C   0  0  0  0  0  0  0  0  0  0  0  0
    1.7286    0.0000    0.0000 C   0  0  0  0  0  0  0  0  0  0  0  0
    1.0777    1.3515    0.0000 C   0  0  0  0  0  0  0  0  0  0  0  0
   -0.3846    1.6852    0.0000 C   0  0  0  0  0  0  0  0  0  0  0  0
   -1.5574    0.7500    0.0000 C   0  0  0  0  0  0  0  0  0  0  0  0
   -1.5574   -0.7500    0.0000 C   0  0  0  0  0  0  0  0  0  0  0  0
   -0.3846   -1.6852    0.0000 C   0  0  0  0  0  0  0  0  0  0  0  0
   -0.7184   -3.1476    0.0000 C   0  0  0  0  0  0  0  0  0  0  0  0
    0.3812   -4.1679    0.0000 O   0  0  0  0  0  0  0  0  0  0  0  0
   -2.1518   -3.5898    0.0000 N   0  0  0  0  0  0  0  0  0  0  0  0
   -2.4856   -5.0522    0.0000 C   0  0  0  0  0  0  0  0  0  0  0  0
   -3.9189   -5.4943    0.0000 N   0  0  0  0  0  0  0  0  0  0  0  0
   -4.2527   -6.9567    0.0000 N   0  0  0  0  0  0  0  0  0  0  0  0
   -3.1531   -7.9769    0.0000 N   0  0  0  0  0  0  0  0  0  0  0  0
   -1.7198   -7.5348    0.0000 N   0  0  0  0  0  0  0  0  0  0  0  0
   -1.3860   -6.0724    0.0000 N   0  0  0  0  0  0  0  0  0  0  0  0
    1.0777   -1.3515    0.0000 C   0  0  0  0  0  0  0  0  0  0  0  0
  1  2  1  0
  2  3  2  0
  3  4  1  0
  4  5  1  0
  5  6  1  0
  6  7  1  0
  7  8  1  0
  8  9  2  0
  8 10  1  0
 10 11  1  0
 11 12  2  0
 12 13  1  0
 13 14  2  0
 14 15  1  0
 15 16  2  0
  7 17  1  0
 17  2  1  0
 16 11  1  0
M  END
>  <Title>  (292) 
idAAJHgen9

$$$$

     RDKit          2D

  9  9  0  0  0  0  0  0  0  0999 V2000
    4.2716    2.0377    0.0000 C   0  0  0  0  0  0  0  0  0  0  0  0
    3.3074    0.8886    0.0000 C   0  0  0  0  0  0  0  0  0  0  0  0
    1.8302    1.1491    0.0000 C   0  0  0  0  0  0  0  0  0  0  0  0
    0.8660    0.0000    0.0000 C   0  0  0  0  0  0  0  0  0  0  0  0
    1.8302   -1.1491    0.0000 O   0  0  0  0  0  0  0  0  0  0  0  0
   -0.4330    0.7500    0.0000 C   0  0  0  0  0  0  0  0  0  0  0  0
   -1.1830    2.0490    0.0000 O   0  0  0  0  0  0  0  0  0  0  0  0
   -0.4330   -0.7500    0.0000 C   0  0  0  0  0  0  0  0  0  0  0  0
   -1.1830   -2.0490    0.0000 O   0  0  0  0  0  0  0  0  0  0  0  0
  1  2  1  0
  2  3  1  0
  3  4  1  0
  4  5  1  0
  4  6  1  0
  6  7  1  0
  6  8  1  0
  8  9  1  0
  8  4  1  0
M  END
>  <Title>  (293) 
idAAJIgen9

$$$$

     RDKit          2D

  7  6  0  0  0  0  0  0  0  0999 V2000
    0.0000    0.0000    0.0000 C   0  0  0  0  0  0  0  0  0  0  0  0
    1.2990    0.7500    0.0000 C   0  0  0  0  0  0  0  0  0  0  0  0
    2.5981   -0.0000    0.0000 C   0  0  0  0  0  0  0  0  0  0  0  0
    3.8971    0.7500    0.0000 C   0  0  0  0  0  0  0  0  0  0  0  0
    5.1962   -0.0000    0.0000 C   0  0  0  0  0  0  0  0  0  0  0  0
    3.8971    2.2500    0.0000 C   0  0  0  0  0  0  0  0  0  0  0  0
    5.1962    3.0000    0.0000 C   0  0  0  0  0  0  0  0  0  0  0  0
  1  2  1  0
  2  3  2  3
  3  4  1  0
  4  5  1  0
  4  6  1  0
  6  7  1  0
M  END
>  <Title>  (294) 
idAAJJgen9

$$$$

     RDKit          2D

 19 19  0  0  0  0  0  0  0  0999 V2000
   19.2760   -0.0000    0.0000 C   0  0  0  0  0  0  0  0  0  0  0  0
   17.7760   -0.0000    0.0000 C   0  0  0  0  0  0  0  0  0  0  0  0
   16.2760   -0.0000    0.0000 C   0  0  0  0  0  0  0  0  0  0  0  0
   14.7760   -0.0000    0.0000 C   0  0  0  0  0  0  0  0  0  0  0  0
   13.2760   -0.0000    0.0000 C   0  0  0  0  0  0  0  0  0  0  0  0
   11.7760   -0.0000    0.0000 C   0  0  0  0  0  0  0  0  0  0  0  0
   10.2760   -0.0000    0.0000 C   0  0  0  0  0  0  0  0  0  0  0  0
    8.7760   -0.0000    0.0000 C   0  0  0  0  0  0  0  0  0  0  0  0
    7.2760   -0.0000    0.0000 C   0  0  0  0  0  0  0  0  0  0  0  0
    5.7760   -0.0000    0.0000 C   0  0  0  0  0  0  0  0  0  0  0  0
    4.2760   -0.0000    0.0000 C   0  0  0  0  0  0  0  0  0  0  0  0
    2.7760    0.0000    0.0000 C   0  0  0  0  0  0  0  0  0  0  0  0
    1.2760    0.0000    0.0000 C   0  0  0  0  0  0  0  0  0  0  0  0
    0.3943    1.2135    0.0000 C   0  0  0  0  0  0  0  0  0  0  0  0
   -1.0323    0.7500    0.0000 C   0  0  0  0  0  0  0  0  0  0  0  0
   -1.0323   -0.7500    0.0000 C   0  0  0  0  0  0  0  0  0  0  0  0
   -2.2458   -1.6317    0.0000 O   0  0  0  0  0  0  0  0  0  0  0  0
    0.3943   -1.2135    0.0000 C   0  0  0  0  0  0  0  0  0  0  0  0
    0.8578   -2.6401    0.0000 O   0  0  0  0  0  0  0  0  0  0  0  0
  1  2  3  0
  2  3  1  0
  3  4  3  0
  4  5  1  0
  5  6  3  0
  6  7  1  0
  7  8  3  0
  8  9  1  0
  9 10  3  0
 10 11  1  0
 11 12  3  0
 12 13  1  0
 13 14  2  0
 14 15  1  0
 15 16  2  0
 16 17  1  0
 16 18  1  0
 18 19  1  0
 18 13  1  0
M  END
>  <Title>  (295) 
idAAJKgen9

$$$$

     RDKit          2D

112114  0  0  0  0  0  0  0  0999 V2000
  106.5000  -59.7558    0.0000 C   0  0  0  0  0  0  0  0  0  0  0  0
  105.0000  -59.7558    0.0000 C   0  0  0  0  0  0  0  0  0  0  0  0
  104.2500  -58.4567    0.0000 C   0  0  0  0  0  0  0  0  0  0  0  0
  102.7500  -58.4567    0.0000 C   0  0  0  0  0  0  0  0  0  0  0  0
  102.0000  -57.1577    0.0000 C   0  0  0  0  0  0  0  0  0  0  0  0
  100.5000  -57.1577    0.0000 C   0  0  0  0  0  0  0  0  0  0  0  0
   99.7500  -55.8586    0.0000 C   0  0  0  0  0  0  0  0  0  0  0  0
   98.2500  -55.8586    0.0000 C   0  0  0  0  0  0  0  0  0  0  0  0
   97.5000  -54.5596    0.0000 C   0  0  0  0  0  0  0  0  0  0  0  0
   96.0000  -54.5596    0.0000 C   0  0  0  0  0  0  0  0  0  0  0  0
   95.2500  -53.2606    0.0000 C   0  0  0  0  0  0  0  0  0  0  0  0
   93.7500  -53.2606    0.0000 C   0  0  0  0  0  0  0  0  0  0  0  0
   93.0000  -51.9615    0.0000 C   0  0  0  0  0  0  0  0  0  0  0  0
   91.5000  -51.9615    0.0000 C   0  0  0  0  0  0  0  0  0  0  0  0
   90.7500  -50.6625    0.0000 C   0  0  0  0  0  0  0  0  0  0  0  0
   89.2500  -50.6625    0.0000 C   0  0  0  0  0  0  0  0  0  0  0  0
   88.5000  -49.3634    0.0000 C   0  0  0  0  0  0  0  0  0  0  0  0
   87.0000  -49.3634    0.0000 C   0  0  0  0  0  0  0  0  0  0  0  0
   86.2500  -48.0644    0.0000 C   0  0  0  0  0  0  0  0  0  0  0  0
   84.7500  -48.0644    0.0000 C   0  0  0  0  0  0  0  0  0  0  0  0
   84.0000  -46.7654    0.0000 C   0  0  0  0  0  0  0  0  0  0  0  0
   82.5000  -46.7654    0.0000 C   0  0  0  0  0  0  0  0  0  0  0  0
   81.7500  -45.4663    0.0000 C   0  0  0  0  0  0  0  0  0  0  0  0
   80.2500  -45.4663    0.0000 C   0  0  0  0  0  0  0  0  0  0  0  0
   79.5000  -44.1673    0.0000 C   0  0  0  0  0  0  0  0  0  0  0  0
   78.0000  -44.1673    0.0000 C   0  0  0  0  0  0  0  0  0  0  0  0
   77.2500  -42.8683    0.0000 C   0  0  0  0  0  0  0  0  0  0  0  0
   75.7500  -42.8683    0.0000 C   0  0  0  0  0  0  0  0  0  0  0  0
   75.0000  -41.5692    0.0000 C   0  0  0  0  0  0  0  0  0  0  0  0
   73.5000  -41.5692    0.0000 C   0  0  0  0  0  0  0  0  0  0  0  0
   72.7500  -40.2702    0.0000 C   0  0  0  0  0  0  0  0  0  0  0  0
   71.2500  -40.2702    0.0000 C   0  0  0  0  0  0  0  0  0  0  0  0
   70.5000  -38.9711    0.0000 C   0  0  0  0  0  0  0  0  0  0  0  0
   69.0000  -38.9711    0.0000 C   0  0  0  0  0  0  0  0  0  0  0  0
   68.2500  -37.6721    0.0000 C   0  0  0  0  0  0  0  0  0  0  0  0
   66.7500  -37.6721    0.0000 C   0  0  0  0  0  0  0  0  0  0  0  0
   66.0000  -36.3731    0.0000 C   0  0  0  0  0  0  0  0  0  0  0  0
   64.5000  -36.3731    0.0000 C   0  0  0  0  0  0  0  0  0  0  0  0
   63.7500  -35.0740    0.0000 C   0  0  0  0  0  0  0  0  0  0  0  0
   62.2500  -35.0740    0.0000 C   0  0  0  0  0  0  0  0  0  0  0  0
   61.5000  -33.7750    0.0000 C   0  0  0  0  0  0  0  0  0  0  0  0
   60.0000  -33.7750    0.0000 C   0  0  0  0  0  0  0  0  0  0  0  0
   59.2500  -32.4760    0.0000 C   0  0  0  0  0  0  0  0  0  0  0  0
   57.7500  -32.4760    0.0000 C   0  0  0  0  0  0  0  0  0  0  0  0
   57.0000  -31.1769    0.0000 C   0  0  0  0  0  0  0  0  0  0  0  0
   55.5000  -31.1769    0.0000 C   0  0  0  0  0  0  0  0  0  0  0  0
   54.7500  -29.8779    0.0000 C   0  0  0  0  0  0  0  0  0  0  0  0
   53.2500  -29.8779    0.0000 C   0  0  0  0  0  0  0  0  0  0  0  0
   52.5000  -28.5788    0.0000 C   0  0  0  0  0  0  0  0  0  0  0  0
   51.0000  -28.5788    0.0000 C   0  0  0  0  0  0  0  0  0  0  0  0
   50.2500  -27.2798    0.0000 C   0  0  0  0  0  0  0  0  0  0  0  0
   48.7500  -27.2798    0.0000 C   0  0  0  0  0  0  0  0  0  0  0  0
   48.0000  -25.9808    0.0000 C   0  0  0  0  0  0  0  0  0  0  0  0
   46.5000  -25.9808    0.0000 C   0  0  0  0  0  0  0  0  0  0  0  0
   45.7500  -24.6817    0.0000 C   0  0  0  0  0  0  0  0  0  0  0  0
   44.2500  -24.6817    0.0000 C   0  0  0  0  0  0  0  0  0  0  0  0
   43.5000  -23.3827    0.0000 C   0  0  0  0  0  0  0  0  0  0  0  0
   42.0000  -23.3827    0.0000 C   0  0  0  0  0  0  0  0  0  0  0  0
   41.2500  -22.0836    0.0000 C   0  0  0  0  0  0  0  0  0  0  0  0
   39.7500  -22.0836    0.0000 C   0  0  0  0  0  0  0  0  0  0  0  0
   39.0000  -20.7846    0.0000 C   0  0  0  0  0  0  0  0  0  0  0  0
   37.5000  -20.7846    0.0000 C   0  0  0  0  0  0  0  0  0  0  0  0
   36.7500  -19.4856    0.0000 C   0  0  0  0  0  0  0  0  0  0  0  0
   35.2500  -19.4856    0.0000 C   0  0  0  0  0  0  0  0  0  0  0  0
   34.5000  -18.1865    0.0000 C   0  0  0  0  0  0  0  0  0  0  0  0
   33.0000  -18.1865    0.0000 C   0  0  0  0  0  0  0  0  0  0  0  0
   32.2500  -16.8875    0.0000 C   0  0  0  0  0  0  0  0  0  0  0  0
   30.7500  -16.8875    0.0000 C   0  0  0  0  0  0  0  0  0  0  0  0
   30.0000  -15.5885    0.0000 C   0  0  0  0  0  0  0  0  0  0  0  0
   28.5000  -15.5885    0.0000 C   0  0  0  0  0  0  0  0  0  0  0  0
   27.7500  -14.2894    0.0000 C   0  0  0  0  0  0  0  0  0  0  0  0
   26.2500  -14.2894    0.0000 C   0  0  0  0  0  0  0  0  0  0  0  0
   25.5000  -12.9904    0.0000 C   0  0  0  0  0  0  0  0  0  0  0  0
   24.0000  -12.9904    0.0000 C   0  0  0  0  0  0  0  0  0  0  0  0
   23.2500  -11.6913    0.0000 C   0  0  0  0  0  0  0  0  0  0  0  0
   21.7500  -11.6913    0.0000 C   0  0  0  0  0  0  0  0  0  0  0  0
   21.0000  -10.3923    0.0000 C   0  0  0  0  0  0  0  0  0  0  0  0
   19.5000  -10.3923    0.0000 C   0  0  0  0  0  0  0  0  0  0  0  0
   18.7500   -9.0933    0.0000 C   0  0  0  0  0  0  0  0  0  0  0  0
   17.2500   -9.0933    0.0000 C   0  0  0  0  0  0  0  0  0  0  0  0
   16.5000   -7.7942    0.0000 C   0  0  0  0  0  0  0  0  0  0  0  0
   15.0000   -7.7942    0.0000 C   0  0  0  0  0  0  0  0  0  0  0  0
   14.2500   -6.4952    0.0000 C   0  0  0  0  0  0  0  0  0  0  0  0
   12.7500   -6.4952    0.0000 C   0  0  0  0  0  0  0  0  0  0  0  0
   12.0000   -5.1962    0.0000 C   0  0  0  0  0  0  0  0  0  0  0  0
   10.5000   -5.1962    0.0000 C   0  0  0  0  0  0  0  0  0  0  0  0
    9.7500   -3.8971    0.0000 C   0  0  0  0  0  0  0  0  0  0  0  0
    8.2500   -3.8971    0.0000 C   0  0  0  0  0  0  0  0  0  0  0  0
    7.5000   -2.5981    0.0000 C   0  0  0  0  0  0  0  0  0  0  0  0
    6.0000   -2.5981    0.0000 C   0  0  0  0  0  0  0  0  0  0  0  0
    5.2500   -1.2990    0.0000 C   0  0  0  0  0  0  0  0  0  0  0  0
    3.7500   -1.2990    0.0000 C   0  0  0  0  0  0  0  0  0  0  0  0
    3.0000    0.0000    0.0000 C   0  0  0  0  0  0  0  0  0  0  0  0
    1.5000    0.0000    0.0000 C   0  0  0  0  0  0  0  0  0  0  0  0
    0.7500   -1.2990    0.0000 C   0  0  0  0  0  0  0  0  0  0  0  0
   -0.7500   -1.2990    0.0000 C   0  0  0  0  0  0  0  0  0  0  0  0
   -1.5000    0.0000    0.0000 C   0  0  0  0  0  0  0  0  0  0  0  0
   -0.7500    1.2990    0.0000 C   0  0  0  0  0  0  0  0  0  0  0  0
    0.7500    1.2990    0.0000 C   0  0  0  0  0  0  0  0  0  0  0  0
    1.5000    2.5981    0.0000 C   0  0  0  0  0  0  0  0  0  0  0  0
    3.0000    2.5981    0.0000 C   0  0  0  0  0  0  0  0  0  0  0  0
    3.7500    3.8971    0.0000 C   0  0  0  0  0  0  0  0  0  0  0  0
    3.0000    5.1962    0.0000 C   0  0  0  0  0  0  0  0  0  0  0  0
    1.5000    5.1962    0.0000 C   0  0  0  0  0  0  0  0  0  0  0  0
    0.7500    3.8971    0.0000 C   0  0  0  0  0  0  0  0  0  0  0  0
   -0.7500    3.8971    0.0000 C   0  0  0  0  0  0  0  0  0  0  0  0
   -1.5000    2.5981    0.0000 C   0  0  0  0  0  0  0  0  0  0  0  0
   -3.0000    2.5981    0.0000 C   0  0  0  0  0  0  0  0  0  0  0  0
   -3.7500    3.8971    0.0000 C   0  0  0  0  0  0  0  0  0  0  0  0
   -3.0000    5.1962    0.0000 C   0  0  0  0  0  0  0  0  0  0  0  0
   -1.5000    5.1962    0.0000 C   0  0  0  0  0  0  0  0  0  0  0  0
   -0.7500    6.4952    0.0000 C   0  0  0  0  0  0  0  0  0  0  0  0
  1  2  1  0
  2  3  2  3
  3  4  1  0
  4  5  1  0
  5  6  1  0
  6  7  1  0
  7  8  1  0
  8  9  1  0
  9 10  1  0
 10 11  1  0
 11 12  1  0
 12 13  1  0
 13 14  1  0
 14 15  1  0
 15 16  1  0
 16 17  1  0
 17 18  1  0
 18 19  1  0
 19 20  1  0
 20 21  1  0
 21 22  1  0
 22 23  1  0
 23 24  1  0
 24 25  1  0
 25 26  1  0
 26 27  1  0
 27 28  1  0
 28 29  1  0
 29 30  1  0
 30 31  1  0
 31 32  1  0
 32 33  1  0
 33 34  1  0
 34 35  1  0
 35 36  1  0
 36 37  1  0
 37 38  1  0
 38 39  1  0
 39 40  1  0
 40 41  1  0
 41 42  1  0
 42 43  1  0
 43 44  1  0
 44 45  1  0
 45 46  1  0
 46 47  1  0
 47 48  1  0
 48 49  1  0
 49 50  1  0
 50 51  1  0
 51 52  1  0
 52 53  1  0
 53 54  1  0
 54 55  1  0
 55 56  1  0
 56 57  1  0
 57 58  1  0
 58 59  1  0
 59 60  1  0
 60 61  1  0
 61 62  1  0
 62 63  1  0
 63 64  1  0
 64 65  1  0
 65 66  1  0
 66 67  1  0
 67 68  1  0
 68 69  1  0
 69 70  1  0
 70 71  1  0
 71 72  1  0
 72 73  1  0
 73 74  1  0
 74 75  1  0
 75 76  1  0
 76 77  1  0
 77 78  1  0
 78 79  1  0
 79 80  1  0
 80 81  1  0
 81 82  1  0
 82 83  1  0
 83 84  1  0
 84 85  1  0
 85 86  1  0
 86 87  1  0
 87 88  1  0
 88 89  1  0
 89 90  1  0
 90 91  1  0
 91 92  1  0
 92 93  1  0
 93 94  1  0
 94 95  2  0
 95 96  1  0
 96 97  2  0
 97 98  1  0
 98 99  2  0
 99100  1  0
100101  2  0
101102  1  0
102103  2  0
103104  1  0
104105  2  0
105106  1  0
106107  2  0
107108  1  0
108109  2  0
109110  1  0
110111  2  0
111112  1  0
 99 94  1  0
105100  1  0
111106  1  0
M  END
>  <Title>  (296) 
idAAJLgen9

$$$$

     RDKit          2D

107110  0  0  0  0  0  0  0  0999 V2000
   -8.6060   -1.3865    0.0000 C   0  0  0  0  0  0  0  0  0  0  0  0
   -8.0669   -2.7863    0.0000 C   0  0  0  0  0  0  0  0  0  0  0  0
   -9.4479   -3.3719    0.0000 C   0  0  0  0  0  0  0  0  0  0  0  0
  -10.7867   -4.0484    0.0000 C   0  0  0  0  0  0  0  0  0  0  0  0
  -12.0773   -4.8128    0.0000 C   0  0  0  0  0  0  0  0  0  0  0  0
  -13.3139   -5.6617    0.0000 C   0  0  0  0  0  0  0  0  0  0  0  0
  -14.4911   -6.5913    0.0000 C   0  0  0  0  0  0  0  0  0  0  0  0
  -15.6036   -7.5975    0.0000 C   0  0  0  0  0  0  0  0  0  0  0  0
  -16.6464   -8.6757    0.0000 C   0  0  0  0  0  0  0  0  0  0  0  0
  -17.6148   -9.8212    0.0000 C   0  0  0  0  0  0  0  0  0  0  0  0
  -18.5046  -11.0288    0.0000 C   0  0  0  0  0  0  0  0  0  0  0  0
  -19.3117  -12.2932    0.0000 C   0  0  0  0  0  0  0  0  0  0  0  0
  -20.0326  -13.6086    0.0000 C   0  0  0  0  0  0  0  0  0  0  0  0
  -20.6640  -14.9692    0.0000 C   0  0  0  0  0  0  0  0  0  0  0  0
  -21.2031  -16.3690    0.0000 C   0  0  0  0  0  0  0  0  0  0  0  0
  -21.6475  -17.8017    0.0000 C   0  0  0  0  0  0  0  0  0  0  0  0
  -21.9953  -19.2608    0.0000 C   0  0  0  0  0  0  0  0  0  0  0  0
  -22.2448  -20.7399    0.0000 C   0  0  0  0  0  0  0  0  0  0  0  0
  -22.3949  -22.2324    0.0000 C   0  0  0  0  0  0  0  0  0  0  0  0
  -22.4450  -23.7315    0.0000 C   0  0  0  0  0  0  0  0  0  0  0  0
  -22.3949  -25.2307    0.0000 C   0  0  0  0  0  0  0  0  0  0  0  0
  -22.2448  -26.7232    0.0000 C   0  0  0  0  0  0  0  0  0  0  0  0
  -21.9953  -28.2023    0.0000 C   0  0  0  0  0  0  0  0  0  0  0  0
  -21.6475  -29.6614    0.0000 C   0  0  0  0  0  0  0  0  0  0  0  0
  -21.2031  -31.0941    0.0000 C   0  0  0  0  0  0  0  0  0  0  0  0
  -20.6640  -32.4938    0.0000 C   0  0  0  0  0  0  0  0  0  0  0  0
  -20.0326  -33.8545    0.0000 C   0  0  0  0  0  0  0  0  0  0  0  0
  -19.3117  -35.1699    0.0000 C   0  0  0  0  0  0  0  0  0  0  0  0
  -18.5046  -36.4342    0.0000 C   0  0  0  0  0  0  0  0  0  0  0  0
  -17.6148  -37.6418    0.0000 C   0  0  0  0  0  0  0  0  0  0  0  0
  -16.6464  -38.7873    0.0000 C   0  0  0  0  0  0  0  0  0  0  0  0
  -15.6036  -39.8655    0.0000 C   0  0  0  0  0  0  0  0  0  0  0  0
  -14.4911  -40.8717    0.0000 C   0  0  0  0  0  0  0  0  0  0  0  0
  -13.3139  -41.8013    0.0000 C   0  0  0  0  0  0  0  0  0  0  0  0
  -12.0773  -42.6503    0.0000 C   0  0  0  0  0  0  0  0  0  0  0  0
  -10.7867  -43.4147    0.0000 C   0  0  0  0  0  0  0  0  0  0  0  0
   -9.4479  -44.0912    0.0000 C   0  0  0  0  0  0  0  0  0  0  0  0
   -8.0669  -44.6768    0.0000 C   0  0  0  0  0  0  0  0  0  0  0  0
   -6.6499  -45.1688    0.0000 C   0  0  0  0  0  0  0  0  0  0  0  0
   -5.2032  -45.5651    0.0000 C   0  0  0  0  0  0  0  0  0  0  0  0
   -3.7333  -45.8639    0.0000 C   0  0  0  0  0  0  0  0  0  0  0  0
   -2.2467  -46.0638    0.0000 C   0  0  0  0  0  0  0  0  0  0  0  0
   -0.7500  -46.1640    0.0000 C   0  0  0  0  0  0  0  0  0  0  0  0
    0.7500  -46.1640    0.0000 C   0  0  0  0  0  0  0  0  0  0  0  0
    2.2467  -46.0638    0.0000 C   0  0  0  0  0  0  0  0  0  0  0  0
    3.7333  -45.8639    0.0000 C   0  0  0  0  0  0  0  0  0  0  0  0
    5.2032  -45.5651    0.0000 C   0  0  0  0  0  0  0  0  0  0  0  0
    6.6499  -45.1688    0.0000 C   0  0  0  0  0  0  0  0  0  0  0  0
    8.0669  -44.6768    0.0000 C   0  0  0  0  0  0  0  0  0  0  0  0
    9.4479  -44.0912    0.0000 C   0  0  0  0  0  0  0  0  0  0  0  0
   10.7867  -43.4147    0.0000 C   0  0  0  0  0  0  0  0  0  0  0  0
   12.0773  -42.6503    0.0000 C   0  0  0  0  0  0  0  0  0  0  0  0
   13.3139  -41.8013    0.0000 C   0  0  0  0  0  0  0  0  0  0  0  0
   14.4911  -40.8717    0.0000 C   0  0  0  0  0  0  0  0  0  0  0  0
   15.6036  -39.8655    0.0000 C   0  0  0  0  0  0  0  0  0  0  0  0
   16.6464  -38.7873    0.0000 C   0  0  0  0  0  0  0  0  0  0  0  0
   17.6148  -37.6418    0.0000 C   0  0  0  0  0  0  0  0  0  0  0  0
   18.5046  -36.4342    0.0000 C   0  0  0  0  0  0  0  0  0  0  0  0
   19.3117  -35.1699    0.0000 C   0  0  0  0  0  0  0  0  0  0  0  0
   20.0326  -33.8545    0.0000 C   0  0  0  0  0  0  0  0  0  0  0  0
   20.6640  -32.4938    0.0000 C   0  0  0  0  0  0  0  0  0  0  0  0
   21.2031  -31.0941    0.0000 C   0  0  0  0  0  0  0  0  0  0  0  0
   21.6475  -29.6614    0.0000 C   0  0  0  0  0  0  0  0  0  0  0  0
   21.9953  -28.2023    0.0000 C   0  0  0  0  0  0  0  0  0  0  0  0
   22.2448  -26.7232    0.0000 C   0  0  0  0  0  0  0  0  0  0  0  0
   22.3949  -25.2307    0.0000 C   0  0  0  0  0  0  0  0  0  0  0  0
   22.4450  -23.7315    0.0000 C   0  0  0  0  0  0  0  0  0  0  0  0
   22.3949  -22.2324    0.0000 C   0  0  0  0  0  0  0  0  0  0  0  0
   22.2448  -20.7399    0.0000 C   0  0  0  0  0  0  0  0  0  0  0  0
   21.9953  -19.2608    0.0000 C   0  0  0  0  0  0  0  0  0  0  0  0
   21.6475  -17.8017    0.0000 C   0  0  0  0  0  0  0  0  0  0  0  0
   21.2031  -16.3690    0.0000 C   0  0  0  0  0  0  0  0  0  0  0  0
   20.6640  -14.9692    0.0000 C   0  0  0  0  0  0  0  0  0  0  0  0
   20.0326  -13.6086    0.0000 C   0  0  0  0  0  0  0  0  0  0  0  0
   19.3117  -12.2932    0.0000 C   0  0  0  0  0  0  0  0  0  0  0  0
   18.5046  -11.0288    0.0000 C   0  0  0  0  0  0  0  0  0  0  0  0
   17.6148   -9.8212    0.0000 C   0  0  0  0  0  0  0  0  0  0  0  0
   16.6464   -8.6757    0.0000 C   0  0  0  0  0  0  0  0  0  0  0  0
   15.6036   -7.5975    0.0000 C   0  0  0  0  0  0  0  0  0  0  0  0
   14.4911   -6.5913    0.0000 C   0  0  0  0  0  0  0  0  0  0  0  0
   13.3139   -5.6617    0.0000 C   0  0  0  0  0  0  0  0  0  0  0  0
   12.0773   -4.8128    0.0000 C   0  0  0  0  0  0  0  0  0  0  0  0
   10.7867   -4.0484    0.0000 C   0  0  0  0  0  0  0  0  0  0  0  0
    9.4479   -3.3719    0.0000 C   0  0  0  0  0  0  0  0  0  0  0  0
    8.0669   -2.7863    0.0000 C   0  0  0  0  0  0  0  0  0  0  0  0
    6.6499   -2.2942    0.0000 C   0  0  0  0  0  0  0  0  0  0  0  0
    5.2032   -1.8979    0.0000 C   0  0  0  0  0  0  0  0  0  0  0  0
    3.7333   -1.5992    0.0000 C   0  0  0  0  0  0  0  0  0  0  0  0
    2.2467   -1.3992    0.0000 C   0  0  0  0  0  0  0  0  0  0  0  0
    0.7500   -1.2990    0.0000 C   0  0  0  0  0  0  0  0  0  0  0  0
    1.5000    0.0000    0.0000 C   0  0  0  0  0  0  0  0  0  0  0  0
    0.7500    1.2990    0.0000 C   0  0  0  0  0  0  0  0  0  0  0  0
   -0.7500    1.2990    0.0000 C   0  0  0  0  0  0  0  0  0  0  0  0
   -1.5000    0.0000    0.0000 C   0  0  0  0  0  0  0  0  0  0  0  0
   -0.7500   -1.2990    0.0000 C   0  0  0  0  0  0  0  0  0  0  0  0
   -2.2467   -1.3992    0.0000 C   0  0  0  0  0  0  0  0  0  0  0  0
   -1.3302   -2.5867    0.0000 C   0  0  0  0  0  0  0  0  0  0  0  0
   -1.9004   -3.9741    0.0000 C   0  0  0  0  0  0  0  0  0  0  0  0
   -3.3870   -4.1741    0.0000 C   0  0  0  0  0  0  0  0  0  0  0  0
   -4.3034   -2.9866    0.0000 C   0  0  0  0  0  0  0  0  0  0  0  0
   -3.7333   -1.5992    0.0000 C   0  0  0  0  0  0  0  0  0  0  0  0
   -5.2032   -1.8979    0.0000 C   0  0  0  0  0  0  0  0  0  0  0  0
   -4.8231   -0.4469    0.0000 C   0  0  0  0  0  0  0  0  0  0  0  0
   -5.8896    0.6078    0.0000 C   0  0  0  0  0  0  0  0  0  0  0  0
   -7.3363    0.2115    0.0000 C   0  0  0  0  0  0  0  0  0  0  0  0
   -7.7165   -1.2395    0.0000 C   0  0  0  0  0  0  0  0  0  0  0  0
   -6.6499   -2.2942    0.0000 C   0  0  0  0  0  0  0  0  0  0  0  0
  1  2  1  0
  2  3  1  0
  3  4  1  0
  4  5  1  0
  5  6  1  0
  6  7  1  0
  7  8  1  0
  8  9  1  0
  9 10  1  0
 10 11  1  0
 11 12  1  0
 12 13  1  0
 13 14  1  0
 14 15  1  0
 15 16  1  0
 16 17  1  0
 17 18  1  0
 18 19  1  0
 19 20  1  0
 20 21  1  0
 21 22  1  0
 22 23  1  0
 23 24  1  0
 24 25  1  0
 25 26  1  0
 26 27  1  0
 27 28  1  0
 28 29  1  0
 29 30  1  0
 30 31  1  0
 31 32  1  0
 32 33  1  0
 33 34  1  0
 34 35  1  0
 35 36  1  0
 36 37  1  0
 37 38  1  0
 38 39  1  0
 39 40  1  0
 40 41  1  0
 41 42  1  0
 42 43  1  0
 43 44  1  0
 44 45  1  0
 45 46  1  0
 46 47  1  0
 47 48  1  0
 48 49  1  0
 49 50  1  0
 50 51  1  0
 51 52  1  0
 52 53  1  0
 53 54  1  0
 54 55  1  0
 55 56  1  0
 56 57  1  0
 57 58  1  0
 58 59  1  0
 59 60  1  0
 60 61  1  0
 61 62  1  0
 62 63  1  0
 63 64  1  0
 64 65  1  0
 65 66  1  0
 66 67  1  0
 67 68  1  0
 68 69  1  0
 69 70  1  0
 70 71  1  0
 71 72  1  0
 72 73  1  0
 73 74  1  0
 74 75  1  0
 75 76  1  0
 76 77  1  0
 77 78  1  0
 78 79  1  0
 79 80  1  0
 80 81  1  0
 81 82  1  0
 82 83  1  0
 83 84  1  0
 84 85  1  0
 85 86  1  0
 86 87  1  0
 87 88  1  0
 88 89  1  0
 89 90  1  0
 90 91  2  0
 91 92  1  0
 92 93  2  0
 93 94  1  0
 94 95  2  0
 95 96  1  0
 96 97  2  0
 97 98  1  0
 98 99  2  0
 99100  1  0
100101  2  0
101102  1  0
102103  2  0
103104  1  0
104105  2  0
105106  1  0
106107  2  0
107  2  1  0
 95 90  1  0
101 96  1  0
107102  1  0
M  END
>  <Title>  (297) 
idAAJMgen9

$$$$

     RDKit          2D

117117  0  0  0  0  0  0  0  0999 V2000
   28.9576    0.0000    0.0000 C   0  0  0  0  0  0  0  0  0  0  0  0
   27.4576    0.0000    0.0000 C   0  0  0  0  0  0  0  0  0  0  0  0
   27.4167    1.4994    0.0000 C   0  0  0  0  0  0  0  0  0  0  0  0
   27.2939    2.9944    0.0000 C   0  0  0  0  0  0  0  0  0  0  0  0
   27.0896    4.4804    0.0000 C   0  0  0  0  0  0  0  0  0  0  0  0
   26.8045    5.9531    0.0000 C   0  0  0  0  0  0  0  0  0  0  0  0
   26.4394    7.4080    0.0000 C   0  0  0  0  0  0  0  0  0  0  0  0
   25.9954    8.8408    0.0000 C   0  0  0  0  0  0  0  0  0  0  0  0
   25.4739   10.2472    0.0000 C   0  0  0  0  0  0  0  0  0  0  0  0
   24.8763   11.6230    0.0000 C   0  0  0  0  0  0  0  0  0  0  0  0
   24.2044   12.9641    0.0000 C   0  0  0  0  0  0  0  0  0  0  0  0
   23.4603   14.2666    0.0000 C   0  0  0  0  0  0  0  0  0  0  0  0
   22.6463   15.5264    0.0000 C   0  0  0  0  0  0  0  0  0  0  0  0
   21.7646   16.7399    0.0000 C   0  0  0  0  0  0  0  0  0  0  0  0
   20.8179   17.9035    0.0000 C   0  0  0  0  0  0  0  0  0  0  0  0
   19.8092   19.0136    0.0000 C   0  0  0  0  0  0  0  0  0  0  0  0
   18.7413   20.0670    0.0000 C   0  0  0  0  0  0  0  0  0  0  0  0
   17.6175   21.0605    0.0000 C   0  0  0  0  0  0  0  0  0  0  0  0
   16.4411   21.9912    0.0000 C   0  0  0  0  0  0  0  0  0  0  0  0
   15.2156   22.8562    0.0000 C   0  0  0  0  0  0  0  0  0  0  0  0
   13.9448   23.6530    0.0000 C   0  0  0  0  0  0  0  0  0  0  0  0
   12.6323   24.3792    0.0000 C   0  0  0  0  0  0  0  0  0  0  0  0
   11.2821   25.0327    0.0000 C   0  0  0  0  0  0  0  0  0  0  0  0
    9.8983   25.6115    0.0000 C   0  0  0  0  0  0  0  0  0  0  0  0
    8.4849   26.1138    0.0000 C   0  0  0  0  0  0  0  0  0  0  0  0
    7.0462   26.5382    0.0000 C   0  0  0  0  0  0  0  0  0  0  0  0
    5.5864   26.8833    0.0000 C   0  0  0  0  0  0  0  0  0  0  0  0
    4.1100   27.1483    0.0000 C   0  0  0  0  0  0  0  0  0  0  0  0
    2.6213   27.3322    0.0000 C   0  0  0  0  0  0  0  0  0  0  0  0
    1.1248   27.4346    0.0000 C   0  0  0  0  0  0  0  0  0  0  0  0
   -0.3750   27.4551    0.0000 C   0  0  0  0  0  0  0  0  0  0  0  0
   -1.8738   27.3936    0.0000 C   0  0  0  0  0  0  0  0  0  0  0  0
   -3.3669   27.2504    0.0000 C   0  0  0  0  0  0  0  0  0  0  0  0
   -4.8500   27.0259    0.0000 C   0  0  0  0  0  0  0  0  0  0  0  0
   -6.3187   26.7207    0.0000 C   0  0  0  0  0  0  0  0  0  0  0  0
   -7.7684   26.3358    0.0000 C   0  0  0  0  0  0  0  0  0  0  0  0
   -9.1950   25.8723    0.0000 C   0  0  0  0  0  0  0  0  0  0  0  0
  -10.5941   25.3315    0.0000 C   0  0  0  0  0  0  0  0  0  0  0  0
  -11.9617   24.7152    0.0000 C   0  0  0  0  0  0  0  0  0  0  0  0
  -13.2935   24.0251    0.0000 C   0  0  0  0  0  0  0  0  0  0  0  0
  -14.5857   23.2633    0.0000 C   0  0  0  0  0  0  0  0  0  0  0  0
  -15.8343   22.4321    0.0000 C   0  0  0  0  0  0  0  0  0  0  0  0
  -17.0357   21.5339    0.0000 C   0  0  0  0  0  0  0  0  0  0  0  0
  -18.1862   20.5715    0.0000 C   0  0  0  0  0  0  0  0  0  0  0  0
  -19.2824   19.5476    0.0000 C   0  0  0  0  0  0  0  0  0  0  0  0
  -20.3211   18.4655    0.0000 C   0  0  0  0  0  0  0  0  0  0  0  0
  -21.2992   17.3282    0.0000 C   0  0  0  0  0  0  0  0  0  0  0  0
  -22.2137   16.1392    0.0000 C   0  0  0  0  0  0  0  0  0  0  0  0
  -23.0619   14.9020    0.0000 C   0  0  0  0  0  0  0  0  0  0  0  0
  -23.8413   13.6204    0.0000 C   0  0  0  0  0  0  0  0  0  0  0  0
  -24.5495   12.2981    0.0000 C   0  0  0  0  0  0  0  0  0  0  0  0
  -25.1845   10.9392    0.0000 C   0  0  0  0  0  0  0  0  0  0  0  0
  -25.7443    9.5475    0.0000 C   0  0  0  0  0  0  0  0  0  0  0  0
  -26.2272    8.1274    0.0000 C   0  0  0  0  0  0  0  0  0  0  0  0
  -26.6319    6.6830    0.0000 C   0  0  0  0  0  0  0  0  0  0  0  0
  -26.9571    5.2187    0.0000 C   0  0  0  0  0  0  0  0  0  0  0  0
  -27.2019    3.7388    0.0000 C   0  0  0  0  0  0  0  0  0  0  0  0
  -27.3655    2.2478    0.0000 C   0  0  0  0  0  0  0  0  0  0  0  0
  -27.4474    0.7500    0.0000 C   0  0  0  0  0  0  0  0  0  0  0  0
  -27.4474   -0.7500    0.0000 C   0  0  0  0  0  0  0  0  0  0  0  0
  -27.3655   -2.2478    0.0000 C   0  0  0  0  0  0  0  0  0  0  0  0
  -27.2019   -3.7388    0.0000 C   0  0  0  0  0  0  0  0  0  0  0  0
  -26.9571   -5.2187    0.0000 C   0  0  0  0  0  0  0  0  0  0  0  0
  -26.6319   -6.6830    0.0000 C   0  0  0  0  0  0  0  0  0  0  0  0
  -26.2272   -8.1274    0.0000 C   0  0  0  0  0  0  0  0  0  0  0  0
  -25.7443   -9.5475    0.0000 C   0  0  0  0  0  0  0  0  0  0  0  0
  -25.1845  -10.9392    0.0000 C   0  0  0  0  0  0  0  0  0  0  0  0
  -24.5495  -12.2981    0.0000 C   0  0  0  0  0  0  0  0  0  0  0  0
  -23.8413  -13.6204    0.0000 C   0  0  0  0  0  0  0  0  0  0  0  0
  -23.0619  -14.9020    0.0000 C   0  0  0  0  0  0  0  0  0  0  0  0
  -22.2137  -16.1392    0.0000 C   0  0  0  0  0  0  0  0  0  0  0  0
  -21.2992  -17.3282    0.0000 C   0  0  0  0  0  0  0  0  0  0  0  0
  -20.3211  -18.4655    0.0000 C   0  0  0  0  0  0  0  0  0  0  0  0
  -19.2824  -19.5476    0.0000 C   0  0  0  0  0  0  0  0  0  0  0  0
  -18.1862  -20.5715    0.0000 C   0  0  0  0  0  0  0  0  0  0  0  0
  -17.0357  -21.5339    0.0000 C   0  0  0  0  0  0  0  0  0  0  0  0
  -15.8343  -22.4321    0.0000 C   0  0  0  0  0  0  0  0  0  0  0  0
  -14.5857  -23.2633    0.0000 C   0  0  0  0  0  0  0  0  0  0  0  0
  -13.2935  -24.0251    0.0000 C   0  0  0  0  0  0  0  0  0  0  0  0
  -11.9617  -24.7152    0.0000 C   0  0  0  0  0  0  0  0  0  0  0  0
  -10.5941  -25.3315    0.0000 C   0  0  0  0  0  0  0  0  0  0  0  0
   -9.1950  -25.8723    0.0000 C   0  0  0  0  0  0  0  0  0  0  0  0
   -7.7684  -26.3358    0.0000 C   0  0  0  0  0  0  0  0  0  0  0  0
   -6.3187  -26.7207    0.0000 C   0  0  0  0  0  0  0  0  0  0  0  0
   -4.8500  -27.0259    0.0000 C   0  0  0  0  0  0  0  0  0  0  0  0
   -3.3669  -27.2504    0.0000 C   0  0  0  0  0  0  0  0  0  0  0  0
   -1.8738  -27.3936    0.0000 C   0  0  0  0  0  0  0  0  0  0  0  0
   -0.3750  -27.4551    0.0000 C   0  0  0  0  0  0  0  0  0  0  0  0
    1.1248  -27.4346    0.0000 C   0  0  0  0  0  0  0  0  0  0  0  0
    2.6213  -27.3322    0.0000 C   0  0  0  0  0  0  0  0  0  0  0  0
    4.1100  -27.1483    0.0000 C   0  0  0  0  0  0  0  0  0  0  0  0
    5.5864  -26.8833    0.0000 C   0  0  0  0  0  0  0  0  0  0  0  0
    7.0462  -26.5382    0.0000 C   0  0  0  0  0  0  0  0  0  0  0  0
    8.4849  -26.1138    0.0000 C   0  0  0  0  0  0  0  0  0  0  0  0
    9.8983  -25.6115    0.0000 C   0  0  0  0  0  0  0  0  0  0  0  0
   11.2821  -25.0327    0.0000 C   0  0  0  0  0  0  0  0  0  0  0  0
   12.6323  -24.3792    0.0000 C   0  0  0  0  0  0  0  0  0  0  0  0
   13.9448  -23.6530    0.0000 C   0  0  0  0  0  0  0  0  0  0  0  0
   15.2156  -22.8562    0.0000 C   0  0  0  0  0  0  0  0  0  0  0  0
   16.4411  -21.9912    0.0000 C   0  0  0  0  0  0  0  0  0  0  0  0
   17.6175  -21.0605    0.0000 C   0  0  0  0  0  0  0  0  0  0  0  0
   18.7413  -20.0670    0.0000 C   0  0  0  0  0  0  0  0  0  0  0  0
   19.8092  -19.0136    0.0000 C   0  0  0  0  0  0  0  0  0  0  0  0
   20.8179  -17.9035    0.0000 C   0  0  0  0  0  0  0  0  0  0  0  0
   21.7646  -16.7399    0.0000 C   0  0  0  0  0  0  0  0  0  0  0  0
   22.6463  -15.5264    0.0000 C   0  0  0  0  0  0  0  0  0  0  0  0
   23.4603  -14.2666    0.0000 C   0  0  0  0  0  0  0  0  0  0  0  0
   24.2044  -12.9641    0.0000 C   0  0  0  0  0  0  0  0  0  0  0  0
   24.8763  -11.6230    0.0000 C   0  0  0  0  0  0  0  0  0  0  0  0
   25.4739  -10.2472    0.0000 C   0  0  0  0  0  0  0  0  0  0  0  0
   25.9954   -8.8408    0.0000 C   0  0  0  0  0  0  0  0  0  0  0  0
   26.4394   -7.4080    0.0000 C   0  0  0  0  0  0  0  0  0  0  0  0
   26.8045   -5.9531    0.0000 C   0  0  0  0  0  0  0  0  0  0  0  0
   27.0896   -4.4804    0.0000 C   0  0  0  0  0  0  0  0  0  0  0  0
   27.2939   -2.9944    0.0000 C   0  0  0  0  0  0  0  0  0  0  0  0
   27.4167   -1.4994    0.0000 C   0  0  0  0  0  0  0  0  0  0  0  0
   28.9144   -1.5814    0.0000 C   0  0  0  0  0  0  0  0  0  0  0  0
  1  2  1  0
  2  3  2  0
  3  4  1  0
  4  5  2  0
  5  6  1  0
  6  7  2  0
  7  8  1  0
  8  9  2  0
  9 10  1  0
 10 11  2  0
 11 12  1  0
 12 13  2  0
 13 14  1  0
 14 15  2  0
 15 16  1  0
 16 17  2  0
 17 18  1  0
 18 19  1  0
 19 20  1  0
 20 21  1  0
 21 22  1  0
 22 23  1  0
 23 24  1  0
 24 25  1  0
 25 26  1  0
 26 27  1  0
 27 28  1  0
 28 29  1  0
 29 30  1  0
 30 31  1  0
 31 32  1  0
 32 33  1  0
 33 34  1  0
 34 35  1  0
 35 36  1  0
 36 37  1  0
 37 38  1  0
 38 39  1  0
 39 40  1  0
 40 41  1  0
 41 42  1  0
 42 43  1  0
 43 44  1  0
 44 45  1  0
 45 46  1  0
 46 47  1  0
 47 48  1  0
 48 49  1  0
 49 50  1  0
 50 51  1  0
 51 52  1  0
 52 53  1  0
 53 54  1  0
 54 55  1  0
 55 56  1  0
 56 57  1  0
 57 58  1  0
 58 59  1  0
 59 60  1  0
 60 61  1  0
 61 62  1  0
 62 63  1  0
 63 64  1  0
 64 65  1  0
 65 66  1  0
 66 67  1  0
 67 68  1  0
 68 69  1  0
 69 70  1  0
 70 71  1  0
 71 72  1  0
 72 73  1  0
 73 74  1  0
 74 75  1  0
 75 76  1  0
 76 77  1  0
 77 78  1  0
 78 79  1  0
 79 80  1  0
 80 81  1  0
 81 82  1  0
 82 83  1  0
 83 84  1  0
 84 85  1  0
 85 86  1  0
 86 87  1  0
 87 88  1  0
 88 89  1  0
 89 90  1  0
 90 91  1  0
 91 92  1  0
 92 93  1  0
 93 94  1  0
 94 95  1  0
 95 96  1  0
 96 97  1  0
 97 98  1  0
 98 99  1  0
 99100  1  0
100101  1  0
101102  1  0
102103  1  0
103104  1  0
104105  1  0
105106  1  0
106107  1  0
107108  1  0
108109  1  0
109110  1  0
110111  1  0
111112  1  0
112113  1  0
113114  1  0
114115  2  0
115116  1  0
116117  1  0
116  2  1  0
M  END
>  <Title>  (298) 
idAAJNgen9

$$$$

     RDKit          2D

114114  0  0  0  0  0  0  0  0999 V2000
   28.4802    0.0000    0.0000 C   0  0  0  0  0  0  0  0  0  0  0  0
   26.9802    0.0000    0.0000 C   0  0  0  0  0  0  0  0  0  0  0  0
   26.9385    1.4994    0.0000 C   0  0  0  0  0  0  0  0  0  0  0  0
   26.8136    2.9942    0.0000 C   0  0  0  0  0  0  0  0  0  0  0  0
   26.6057    4.4797    0.0000 C   0  0  0  0  0  0  0  0  0  0  0  0
   26.3157    5.9514    0.0000 C   0  0  0  0  0  0  0  0  0  0  0  0
   25.9442    7.4047    0.0000 C   0  0  0  0  0  0  0  0  0  0  0  0
   25.4926    8.8351    0.0000 C   0  0  0  0  0  0  0  0  0  0  0  0
   24.9622   10.2382    0.0000 C   0  0  0  0  0  0  0  0  0  0  0  0
   24.3547   11.6096    0.0000 C   0  0  0  0  0  0  0  0  0  0  0  0
   23.6718   12.9452    0.0000 C   0  0  0  0  0  0  0  0  0  0  0  0
   22.9158   14.2408    0.0000 C   0  0  0  0  0  0  0  0  0  0  0  0
   22.0890   15.4923    0.0000 C   0  0  0  0  0  0  0  0  0  0  0  0
   21.1938   16.6959    0.0000 C   0  0  0  0  0  0  0  0  0  0  0  0
   20.2332   17.8480    0.0000 C   0  0  0  0  0  0  0  0  0  0  0  0
   19.2100   18.9449    0.0000 C   0  0  0  0  0  0  0  0  0  0  0  0
   18.1275   19.9832    0.0000 C   0  0  0  0  0  0  0  0  0  0  0  0
   16.9889   20.9597    0.0000 C   0  0  0  0  0  0  0  0  0  0  0  0
   15.7978   21.8715    0.0000 C   0  0  0  0  0  0  0  0  0  0  0  0
   14.5579   22.7156    0.0000 C   0  0  0  0  0  0  0  0  0  0  0  0
   13.2730   23.4896    0.0000 C   0  0  0  0  0  0  0  0  0  0  0  0
   11.9471   24.1909    0.0000 C   0  0  0  0  0  0  0  0  0  0  0  0
   10.5842   24.8175    0.0000 C   0  0  0  0  0  0  0  0  0  0  0  0
    9.1886   25.3674    0.0000 C   0  0  0  0  0  0  0  0  0  0  0  0
    7.7646   25.8388    0.0000 C   0  0  0  0  0  0  0  0  0  0  0  0
    6.3166   26.2304    0.0000 C   0  0  0  0  0  0  0  0  0  0  0  0
    4.8491   26.5409    0.0000 C   0  0  0  0  0  0  0  0  0  0  0  0
    3.3666   26.7694    0.0000 C   0  0  0  0  0  0  0  0  0  0  0  0
    1.8737   26.9151    0.0000 C   0  0  0  0  0  0  0  0  0  0  0  0
    0.3750   26.9776    0.0000 C   0  0  0  0  0  0  0  0  0  0  0  0
   -1.1248   26.9568    0.0000 C   0  0  0  0  0  0  0  0  0  0  0  0
   -2.6212   26.8526    0.0000 C   0  0  0  0  0  0  0  0  0  0  0  0
   -4.1095   26.6654    0.0000 C   0  0  0  0  0  0  0  0  0  0  0  0
   -5.5850   26.3958    0.0000 C   0  0  0  0  0  0  0  0  0  0  0  0
   -7.0434   26.0447    0.0000 C   0  0  0  0  0  0  0  0  0  0  0  0
   -8.4799   25.6130    0.0000 C   0  0  0  0  0  0  0  0  0  0  0  0
   -9.8902   25.1021    0.0000 C   0  0  0  0  0  0  0  0  0  0  0  0
  -11.2700   24.5137    0.0000 C   0  0  0  0  0  0  0  0  0  0  0  0
  -12.6149   23.8495    0.0000 C   0  0  0  0  0  0  0  0  0  0  0  0
  -13.9208   23.1115    0.0000 C   0  0  0  0  0  0  0  0  0  0  0  0
  -15.1837   22.3022    0.0000 C   0  0  0  0  0  0  0  0  0  0  0  0
  -16.3997   21.4239    0.0000 C   0  0  0  0  0  0  0  0  0  0  0  0
  -17.5650   20.4794    0.0000 C   0  0  0  0  0  0  0  0  0  0  0  0
  -18.6760   19.4715    0.0000 C   0  0  0  0  0  0  0  0  0  0  0  0
  -19.7293   18.4035    0.0000 C   0  0  0  0  0  0  0  0  0  0  0  0
  -20.7215   17.2786    0.0000 C   0  0  0  0  0  0  0  0  0  0  0  0
  -21.6498   16.1003    0.0000 C   0  0  0  0  0  0  0  0  0  0  0  0
  -22.5111   14.8723    0.0000 C   0  0  0  0  0  0  0  0  0  0  0  0
  -23.3028   13.5982    0.0000 C   0  0  0  0  0  0  0  0  0  0  0  0
  -24.0225   12.2822    0.0000 C   0  0  0  0  0  0  0  0  0  0  0  0
  -24.6680   10.9281    0.0000 C   0  0  0  0  0  0  0  0  0  0  0  0
  -25.2372    9.5403    0.0000 C   0  0  0  0  0  0  0  0  0  0  0  0
  -25.7284    8.1230    0.0000 C   0  0  0  0  0  0  0  0  0  0  0  0
  -26.1401    6.6806    0.0000 C   0  0  0  0  0  0  0  0  0  0  0  0
  -26.4709    5.2176    0.0000 C   0  0  0  0  0  0  0  0  0  0  0  0
  -26.7200    3.7384    0.0000 C   0  0  0  0  0  0  0  0  0  0  0  0
  -26.8864    2.2477    0.0000 C   0  0  0  0  0  0  0  0  0  0  0  0
  -26.9698    0.7500    0.0000 C   0  0  0  0  0  0  0  0  0  0  0  0
  -26.9698   -0.7500    0.0000 C   0  0  0  0  0  0  0  0  0  0  0  0
  -26.8864   -2.2477    0.0000 C   0  0  0  0  0  0  0  0  0  0  0  0
  -26.7200   -3.7384    0.0000 C   0  0  0  0  0  0  0  0  0  0  0  0
  -26.4709   -5.2176    0.0000 C   0  0  0  0  0  0  0  0  0  0  0  0
  -26.1401   -6.6806    0.0000 C   0  0  0  0  0  0  0  0  0  0  0  0
  -25.7284   -8.1230    0.0000 C   0  0  0  0  0  0  0  0  0  0  0  0
  -25.2372   -9.5403    0.0000 C   0  0  0  0  0  0  0  0  0  0  0  0
  -24.6680  -10.9281    0.0000 C   0  0  0  0  0  0  0  0  0  0  0  0
  -24.0225  -12.2822    0.0000 C   0  0  0  0  0  0  0  0  0  0  0  0
  -23.3028  -13.5982    0.0000 C   0  0  0  0  0  0  0  0  0  0  0  0
  -22.5111  -14.8723    0.0000 C   0  0  0  0  0  0  0  0  0  0  0  0
  -21.6498  -16.1003    0.0000 C   0  0  0  0  0  0  0  0  0  0  0  0
  -20.7215  -17.2786    0.0000 C   0  0  0  0  0  0  0  0  0  0  0  0
  -19.7293  -18.4035    0.0000 C   0  0  0  0  0  0  0  0  0  0  0  0
  -18.6760  -19.4715    0.0000 C   0  0  0  0  0  0  0  0  0  0  0  0
  -17.5650  -20.4794    0.0000 C   0  0  0  0  0  0  0  0  0  0  0  0
  -16.3997  -21.4239    0.0000 C   0  0  0  0  0  0  0  0  0  0  0  0
  -15.1837  -22.3022    0.0000 C   0  0  0  0  0  0  0  0  0  0  0  0
  -13.9208  -23.1115    0.0000 C   0  0  0  0  0  0  0  0  0  0  0  0
  -12.6149  -23.8495    0.0000 C   0  0  0  0  0  0  0  0  0  0  0  0
  -11.2700  -24.5137    0.0000 C   0  0  0  0  0  0  0  0  0  0  0  0
   -9.8902  -25.1021    0.0000 C   0  0  0  0  0  0  0  0  0  0  0  0
   -8.4799  -25.6130    0.0000 C   0  0  0  0  0  0  0  0  0  0  0  0
   -7.0434  -26.0447    0.0000 C   0  0  0  0  0  0  0  0  0  0  0  0
   -5.5850  -26.3958    0.0000 C   0  0  0  0  0  0  0  0  0  0  0  0
   -4.1095  -26.6654    0.0000 C   0  0  0  0  0  0  0  0  0  0  0  0
   -2.6212  -26.8526    0.0000 C   0  0  0  0  0  0  0  0  0  0  0  0
   -1.1248  -26.9568    0.0000 C   0  0  0  0  0  0  0  0  0  0  0  0
    0.3750  -26.9776    0.0000 C   0  0  0  0  0  0  0  0  0  0  0  0
    1.8737  -26.9151    0.0000 C   0  0  0  0  0  0  0  0  0  0  0  0
    3.3666  -26.7694    0.0000 C   0  0  0  0  0  0  0  0  0  0  0  0
    4.8491  -26.5409    0.0000 C   0  0  0  0  0  0  0  0  0  0  0  0
    6.3166  -26.2304    0.0000 C   0  0  0  0  0  0  0  0  0  0  0  0
    7.7646  -25.8388    0.0000 C   0  0  0  0  0  0  0  0  0  0  0  0
    9.1886  -25.3674    0.0000 C   0  0  0  0  0  0  0  0  0  0  0  0
   10.5842  -24.8175    0.0000 C   0  0  0  0  0  0  0  0  0  0  0  0
   11.9471  -24.1909    0.0000 C   0  0  0  0  0  0  0  0  0  0  0  0
   13.2730  -23.4896    0.0000 C   0  0  0  0  0  0  0  0  0  0  0  0
   14.5579  -22.7156    0.0000 C   0  0  0  0  0  0  0  0  0  0  0  0
   15.7978  -21.8715    0.0000 C   0  0  0  0  0  0  0  0  0  0  0  0
   16.9889  -20.9597    0.0000 C   0  0  0  0  0  0  0  0  0  0  0  0
   18.1275  -19.9832    0.0000 C   0  0  0  0  0  0  0  0  0  0  0  0
   19.2100  -18.9449    0.0000 C   0  0  0  0  0  0  0  0  0  0  0  0
   20.2332  -17.8480    0.0000 C   0  0  0  0  0  0  0  0  0  0  0  0
   21.1938  -16.6959    0.0000 C   0  0  0  0  0  0  0  0  0  0  0  0
   22.0890  -15.4923    0.0000 C   0  0  0  0  0  0  0  0  0  0  0  0
   22.9158  -14.2408    0.0000 C   0  0  0  0  0  0  0  0  0  0  0  0
   23.6718  -12.9452    0.0000 C   0  0  0  0  0  0  0  0  0  0  0  0
   24.3547  -11.6096    0.0000 C   0  0  0  0  0  0  0  0  0  0  0  0
   24.9622  -10.2382    0.0000 C   0  0  0  0  0  0  0  0  0  0  0  0
   25.4926   -8.8351    0.0000 C   0  0  0  0  0  0  0  0  0  0  0  0
   25.9442   -7.4047    0.0000 C   0  0  0  0  0  0  0  0  0  0  0  0
   26.3157   -5.9514    0.0000 C   0  0  0  0  0  0  0  0  0  0  0  0
   26.6057   -4.4797    0.0000 C   0  0  0  0  0  0  0  0  0  0  0  0
   26.8136   -2.9942    0.0000 C   0  0  0  0  0  0  0  0  0  0  0  0
   26.9385   -1.4994    0.0000 C   0  0  0  0  0  0  0  0  0  0  0  0
  1  2  1  0
  2  3  1  0
  3  4  2  0
  4  5  1  0
  5  6  2  0
  6  7  1  0
  7  8  2  0
  8  9  1  0
  9 10  2  0
 10 11  1  0
 11 12  1  0
 12 13  1  0
 13 14  1  0
 14 15  1  0
 15 16  1  0
 16 17  1  0
 17 18  1  0
 18 19  1  0
 19 20  1  0
 20 21  1  0
 21 22  1  0
 22 23  1  0
 23 24  1  0
 24 25  1  0
 25 26  1  0
 26 27  1  0
 27 28  1  0
 28 29  1  0
 29 30  1  0
 30 31  1  0
 31 32  1  0
 32 33  1  0
 33 34  1  0
 34 35  1  0
 35 36  1  0
 36 37  1  0
 37 38  1  0
 38 39  1  0
 39 40  1  0
 40 41  1  0
 41 42  1  0
 42 43  1  0
 43 44  1  0
 44 45  1  0
 45 46  1  0
 46 47  1  0
 47 48  1  0
 48 49  1  0
 49 50  1  0
 50 51  1  0
 51 52  1  0
 52 53  1  0
 53 54  1  0
 54 55  1  0
 55 56  1  0
 56 57  1  0
 57 58  1  0
 58 59  1  0
 59 60  1  0
 60 61  1  0
 61 62  1  0
 62 63  1  0
 63 64  1  0
 64 65  1  0
 65 66  1  0
 66 67  1  0
 67 68  1  0
 68 69  1  0
 69 70  1  0
 70 71  1  0
 71 72  1  0
 72 73  1  0
 73 74  1  0
 74 75  1  0
 75 76  1  0
 76 77  1  0
 77 78  1  0
 78 79  1  0
 79 80  1  0
 80 81  1  0
 81 82  1  0
 82 83  1  0
 83 84  1  0
 84 85  1  0
 85 86  1  0
 86 87  1  0
 87 88  1  0
 88 89  1  0
 89 90  1  0
 90 91  1  0
 91 92  1  0
 92 93  1  0
 93 94  1  0
 94 95  1  0
 95 96  1  0
 96 97  1  0
 97 98  1  0
 98 99  1  0
 99100  1  0
100101  1  0
101102  1  0
102103  1  0
103104  1  0
104105  1  0
105106  1  0
106107  1  0
107108  1  0
108109  1  0
109110  1  0
110111  1  0
111112  1  0
112113  1  0
113114  1  0
114  2  1  0
M  END
>  <Title>  (299) 
idAAJOgen9

$$$$

     RDKit          2D

 75 75  0  0  0  0  0  0  0  0999 V2000
   19.1715    0.0000    0.0000 C   0  0  0  0  0  0  0  0  0  0  0  0
   17.6715    0.0000    0.0000 C   0  0  0  0  0  0  0  0  0  0  0  0
   17.6078   -1.4986    0.0000 C   0  0  0  0  0  0  0  0  0  0  0  0
   17.4173   -2.9865    0.0000 C   0  0  0  0  0  0  0  0  0  0  0  0
   17.1013   -4.4528    0.0000 C   0  0  0  0  0  0  0  0  0  0  0  0
   16.6621   -5.8871    0.0000 C   0  0  0  0  0  0  0  0  0  0  0  0
   16.1028   -7.2789    0.0000 C   0  0  0  0  0  0  0  0  0  0  0  0
   15.4275   -8.6183    0.0000 C   0  0  0  0  0  0  0  0  0  0  0  0
   14.6410   -9.8956    0.0000 C   0  0  0  0  0  0  0  0  0  0  0  0
   13.7491  -11.1016    0.0000 C   0  0  0  0  0  0  0  0  0  0  0  0
   12.7581  -12.2276    0.0000 C   0  0  0  0  0  0  0  0  0  0  0  0
   11.6751  -13.2655    0.0000 C   0  0  0  0  0  0  0  0  0  0  0  0
   10.5081  -14.2078    0.0000 C   0  0  0  0  0  0  0  0  0  0  0  0
    9.2653  -15.0478    0.0000 C   0  0  0  0  0  0  0  0  0  0  0  0
    7.9558  -15.7793    0.0000 C   0  0  0  0  0  0  0  0  0  0  0  0
    6.5889  -16.3972    0.0000 C   0  0  0  0  0  0  0  0  0  0  0  0
    5.1746  -16.8969    0.0000 C   0  0  0  0  0  0  0  0  0  0  0  0
    3.7230  -17.2749    0.0000 C   0  0  0  0  0  0  0  0  0  0  0  0
    2.2446  -17.5284    0.0000 C   0  0  0  0  0  0  0  0  0  0  0  0
    0.7500  -17.6556    0.0000 C   0  0  0  0  0  0  0  0  0  0  0  0
   -0.7500  -17.6556    0.0000 C   0  0  0  0  0  0  0  0  0  0  0  0
   -2.2446  -17.5284    0.0000 C   0  0  0  0  0  0  0  0  0  0  0  0
   -3.7230  -17.2749    0.0000 C   0  0  0  0  0  0  0  0  0  0  0  0
   -5.1746  -16.8969    0.0000 C   0  0  0  0  0  0  0  0  0  0  0  0
   -6.5889  -16.3972    0.0000 C   0  0  0  0  0  0  0  0  0  0  0  0
   -7.9558  -15.7793    0.0000 C   0  0  0  0  0  0  0  0  0  0  0  0
   -9.2653  -15.0478    0.0000 C   0  0  0  0  0  0  0  0  0  0  0  0
  -10.5081  -14.2078    0.0000 C   0  0  0  0  0  0  0  0  0  0  0  0
  -11.6751  -13.2655    0.0000 C   0  0  0  0  0  0  0  0  0  0  0  0
  -12.7581  -12.2276    0.0000 C   0  0  0  0  0  0  0  0  0  0  0  0
  -13.7491  -11.1016    0.0000 C   0  0  0  0  0  0  0  0  0  0  0  0
  -14.6410   -9.8956    0.0000 C   0  0  0  0  0  0  0  0  0  0  0  0
  -15.4275   -8.6183    0.0000 C   0  0  0  0  0  0  0  0  0  0  0  0
  -16.1028   -7.2789    0.0000 C   0  0  0  0  0  0  0  0  0  0  0  0
  -16.6621   -5.8871    0.0000 C   0  0  0  0  0  0  0  0  0  0  0  0
  -17.1013   -4.4528    0.0000 C   0  0  0  0  0  0  0  0  0  0  0  0
  -17.4173   -2.9865    0.0000 C   0  0  0  0  0  0  0  0  0  0  0  0
  -17.6078   -1.4986    0.0000 C   0  0  0  0  0  0  0  0  0  0  0  0
  -17.6715    0.0000    0.0000 C   0  0  0  0  0  0  0  0  0  0  0  0
  -17.6078    1.4986    0.0000 C   0  0  0  0  0  0  0  0  0  0  0  0
  -17.4173    2.9865    0.0000 C   0  0  0  0  0  0  0  0  0  0  0  0
  -17.1013    4.4528    0.0000 C   0  0  0  0  0  0  0  0  0  0  0  0
  -16.6621    5.8871    0.0000 C   0  0  0  0  0  0  0  0  0  0  0  0
  -16.1028    7.2789    0.0000 C   0  0  0  0  0  0  0  0  0  0  0  0
  -15.4275    8.6183    0.0000 C   0  0  0  0  0  0  0  0  0  0  0  0
  -14.6410    9.8956    0.0000 C   0  0  0  0  0  0  0  0  0  0  0  0
  -13.7491   11.1016    0.0000 C   0  0  0  0  0  0  0  0  0  0  0  0
  -12.7581   12.2276    0.0000 C   0  0  0  0  0  0  0  0  0  0  0  0
  -11.6751   13.2655    0.0000 C   0  0  0  0  0  0  0  0  0  0  0  0
  -10.5081   14.2078    0.0000 C   0  0  0  0  0  0  0  0  0  0  0  0
   -9.2653   15.0478    0.0000 C   0  0  0  0  0  0  0  0  0  0  0  0
   -7.9558   15.7793    0.0000 C   0  0  0  0  0  0  0  0  0  0  0  0
   -6.5889   16.3972    0.0000 C   0  0  0  0  0  0  0  0  0  0  0  0
   -5.1746   16.8969    0.0000 C   0  0  0  0  0  0  0  0  0  0  0  0
   -3.7230   17.2749    0.0000 C   0  0  0  0  0  0  0  0  0  0  0  0
   -2.2446   17.5284    0.0000 C   0  0  0  0  0  0  0  0  0  0  0  0
   -0.7500   17.6556    0.0000 C   0  0  0  0  0  0  0  0  0  0  0  0
    0.7500   17.6556    0.0000 C   0  0  0  0  0  0  0  0  0  0  0  0
    2.2446   17.5284    0.0000 C   0  0  0  0  0  0  0  0  0  0  0  0
    3.7230   17.2749    0.0000 C   0  0  0  0  0  0  0  0  0  0  0  0
    5.1746   16.8969    0.0000 C   0  0  0  0  0  0  0  0  0  0  0  0
    6.5889   16.3972    0.0000 C   0  0  0  0  0  0  0  0  0  0  0  0
    7.9558   15.7793    0.0000 C   0  0  0  0  0  0  0  0  0  0  0  0
    9.2653   15.0478    0.0000 C   0  0  0  0  0  0  0  0  0  0  0  0
   10.5081   14.2078    0.0000 C   0  0  0  0  0  0  0  0  0  0  0  0
   11.6751   13.2655    0.0000 C   0  0  0  0  0  0  0  0  0  0  0  0
   12.7581   12.2276    0.0000 C   0  0  0  0  0  0  0  0  0  0  0  0
   13.7491   11.1016    0.0000 C   0  0  0  0  0  0  0  0  0  0  0  0
   14.6410    9.8956    0.0000 C   0  0  0  0  0  0  0  0  0  0  0  0
   15.4275    8.6183    0.0000 C   0  0  0  0  0  0  0  0  0  0  0  0
   16.1028    7.2789    0.0000 C   0  0  0  0  0  0  0  0  0  0  0  0
   16.6621    5.8871    0.0000 C   0  0  0  0  0  0  0  0  0  0  0  0
   17.1013    4.4528    0.0000 C   0  0  0  0  0  0  0  0  0  0  0  0
   17.4173    2.9865    0.0000 C   0  0  0  0  0  0  0  0  0  0  0  0
   17.6078    1.4986    0.0000 C   0  0  0  0  0  0  0  0  0  0  0  0
  1  2  1  0
  2  3  1  0
  3  4  1  0
  4  5  1  0
  5  6  1  0
  6  7  1  0
  7  8  1  0
  8  9  1  0
  9 10  1  0
 10 11  1  0
 11 12  1  0
 12 13  1  0
 13 14  1  0
 14 15  1  0
 15 16  1  0
 16 17  1  0
 17 18  1  0
 18 19  1  0
 19 20  1  0
 20 21  1  0
 21 22  1  0
 22 23  1  0
 23 24  1  0
 24 25  1  0
 25 26  1  0
 26 27  1  0
 27 28  1  0
 28 29  1  0
 29 30  1  0
 30 31  1  0
 31 32  1  0
 32 33  1  0
 33 34  1  0
 34 35  1  0
 35 36  1  0
 36 37  1  0
 37 38  1  0
 38 39  1  0
 39 40  1  0
 40 41  1  0
 41 42  1  0
 42 43  1  0
 43 44  1  0
 44 45  1  0
 45 46  1  0
 46 47  1  0
 47 48  1  0
 48 49  1  0
 49 50  1  0
 50 51  1  0
 51 52  1  0
 52 53  1  0
 53 54  1  0
 54 55  1  0
 55 56  1  0
 56 57  1  0
 57 58  1  0
 58 59  1  0
 59 60  1  0
 60 61  1  0
 61 62  1  0
 62 63  1  0
 63 64  1  0
 64 65  1  0
 65 66  1  0
 66 67  1  0
 67 68  1  0
 68 69  1  0
 69 70  1  0
 70 71  1  0
 71 72  1  0
 72 73  1  0
 73 74  1  0
 74 75  1  0
 75  2  1  0
M  END
>  <Title>  (300) 
idAAJPgen9

$$$$

     RDKit          2D

 13 13  0  0  0  0  0  0  0  0999 V2000
   12.5260   -1.2990    0.0000 C   0  0  0  0  0  0  0  0  0  0  0  0
   11.7760   -0.0000    0.0000 C   0  0  0  0  0  0  0  0  0  0  0  0
   10.2760   -0.0000    0.0000 C   0  0  0  0  0  0  0  0  0  0  0  0
    8.7760   -0.0000    0.0000 C   0  0  0  0  0  0  0  0  0  0  0  0
    7.2760   -0.0000    0.0000 C   0  0  0  0  0  0  0  0  0  0  0  0
    5.7760   -0.0000    0.0000 C   0  0  0  0  0  0  0  0  0  0  0  0
    4.2760   -0.0000    0.0000 C   0  0  0  0  0  0  0  0  0  0  0  0
    2.7760    0.0000    0.0000 C   0  0  0  0  0  0  0  0  0  0  0  0
    1.2760    0.0000    0.0000 C   0  0  0  0  0  0  0  0  0  0  0  0
    0.3943    1.2135    0.0000 C   0  0  0  0  0  0  0  0  0  0  0  0
   -1.0323    0.7500    0.0000 C   0  0  0  0  0  0  0  0  0  0  0  0
   -1.0323   -0.7500    0.0000 C   0  0  0  0  0  0  0  0  0  0  0  0
    0.3943   -1.2135    0.0000 C   0  0  0  0  0  0  0  0  0  0  0  0
  1  2  2  0
  2  3  1  0
  3  4  3  0
  4  5  1  0
  5  6  3  0
  6  7  1  0
  7  8  3  0
  8  9  1  0
  9 10  2  0
 10 11  1  0
 11 12  2  0
 12 13  1  0
 13  9  1  0
M  END
>  <Title>  (301) 
idAAJQgen9

$$$$

     RDKit          2D

123123  0  0  0  0  0  0  0  0999 V2000
  129.9786   74.0452    0.0000 C   0  0  0  0  0  0  0  0  0  0  0  0
  129.2286   72.7461    0.0000 C   0  0  0  0  0  0  0  0  0  0  0  0
  127.7286   72.7461    0.0000 C   0  0  0  0  0  0  0  0  0  0  0  0
  126.9786   71.4471    0.0000 C   0  0  0  0  0  0  0  0  0  0  0  0
  125.4786   71.4471    0.0000 C   0  0  0  0  0  0  0  0  0  0  0  0
  124.7286   70.1481    0.0000 C   0  0  0  0  0  0  0  0  0  0  0  0
  123.2286   70.1481    0.0000 C   0  0  0  0  0  0  0  0  0  0  0  0
  122.4786   68.8490    0.0000 C   0  0  0  0  0  0  0  0  0  0  0  0
  120.9786   68.8490    0.0000 C   0  0  0  0  0  0  0  0  0  0  0  0
  120.2286   67.5500    0.0000 C   0  0  0  0  0  0  0  0  0  0  0  0
  118.7286   67.5500    0.0000 C   0  0  0  0  0  0  0  0  0  0  0  0
  117.9786   66.2509    0.0000 C   0  0  0  0  0  0  0  0  0  0  0  0
  116.4786   66.2509    0.0000 C   0  0  0  0  0  0  0  0  0  0  0  0
  115.7286   64.9519    0.0000 C   0  0  0  0  0  0  0  0  0  0  0  0
  114.2286   64.9519    0.0000 C   0  0  0  0  0  0  0  0  0  0  0  0
  113.4786   63.6529    0.0000 C   0  0  0  0  0  0  0  0  0  0  0  0
  111.9786   63.6529    0.0000 C   0  0  0  0  0  0  0  0  0  0  0  0
  111.2286   62.3538    0.0000 C   0  0  0  0  0  0  0  0  0  0  0  0
  109.7286   62.3538    0.0000 C   0  0  0  0  0  0  0  0  0  0  0  0
  108.9786   61.0548    0.0000 C   0  0  0  0  0  0  0  0  0  0  0  0
  107.4786   61.0548    0.0000 C   0  0  0  0  0  0  0  0  0  0  0  0
  106.7286   59.7558    0.0000 C   0  0  0  0  0  0  0  0  0  0  0  0
  105.2286   59.7558    0.0000 C   0  0  0  0  0  0  0  0  0  0  0  0
  104.4786   58.4567    0.0000 C   0  0  0  0  0  0  0  0  0  0  0  0
  102.9786   58.4567    0.0000 C   0  0  0  0  0  0  0  0  0  0  0  0
  102.2286   57.1577    0.0000 C   0  0  0  0  0  0  0  0  0  0  0  0
  100.7286   57.1577    0.0000 C   0  0  0  0  0  0  0  0  0  0  0  0
   99.9786   55.8586    0.0000 C   0  0  0  0  0  0  0  0  0  0  0  0
   98.4786   55.8586    0.0000 C   0  0  0  0  0  0  0  0  0  0  0  0
   97.7286   54.5596    0.0000 C   0  0  0  0  0  0  0  0  0  0  0  0
   96.2286   54.5596    0.0000 C   0  0  0  0  0  0  0  0  0  0  0  0
   95.4786   53.2606    0.0000 C   0  0  0  0  0  0  0  0  0  0  0  0
   93.9786   53.2606    0.0000 C   0  0  0  0  0  0  0  0  0  0  0  0
   93.2286   51.9615    0.0000 C   0  0  0  0  0  0  0  0  0  0  0  0
   91.7286   51.9615    0.0000 C   0  0  0  0  0  0  0  0  0  0  0  0
   90.9786   50.6625    0.0000 C   0  0  0  0  0  0  0  0  0  0  0  0
   89.4786   50.6625    0.0000 C   0  0  0  0  0  0  0  0  0  0  0  0
   88.7286   49.3634    0.0000 C   0  0  0  0  0  0  0  0  0  0  0  0
   87.2286   49.3634    0.0000 C   0  0  0  0  0  0  0  0  0  0  0  0
   86.4786   48.0644    0.0000 C   0  0  0  0  0  0  0  0  0  0  0  0
   84.9786   48.0644    0.0000 C   0  0  0  0  0  0  0  0  0  0  0  0
   84.2286   46.7654    0.0000 C   0  0  0  0  0  0  0  0  0  0  0  0
   82.7286   46.7654    0.0000 C   0  0  0  0  0  0  0  0  0  0  0  0
   81.9786   45.4663    0.0000 C   0  0  0  0  0  0  0  0  0  0  0  0
   80.4786   45.4663    0.0000 C   0  0  0  0  0  0  0  0  0  0  0  0
   79.7286   44.1673    0.0000 C   0  0  0  0  0  0  0  0  0  0  0  0
   78.2286   44.1673    0.0000 C   0  0  0  0  0  0  0  0  0  0  0  0
   77.4786   42.8683    0.0000 C   0  0  0  0  0  0  0  0  0  0  0  0
   75.9786   42.8683    0.0000 C   0  0  0  0  0  0  0  0  0  0  0  0
   75.2286   41.5692    0.0000 C   0  0  0  0  0  0  0  0  0  0  0  0
   73.7286   41.5692    0.0000 C   0  0  0  0  0  0  0  0  0  0  0  0
   72.9786   40.2702    0.0000 C   0  0  0  0  0  0  0  0  0  0  0  0
   71.4786   40.2702    0.0000 C   0  0  0  0  0  0  0  0  0  0  0  0
   70.7286   38.9711    0.0000 C   0  0  0  0  0  0  0  0  0  0  0  0
   69.2286   38.9711    0.0000 C   0  0  0  0  0  0  0  0  0  0  0  0
   68.4786   37.6721    0.0000 C   0  0  0  0  0  0  0  0  0  0  0  0
   66.9786   37.6721    0.0000 C   0  0  0  0  0  0  0  0  0  0  0  0
   66.2286   36.3731    0.0000 C   0  0  0  0  0  0  0  0  0  0  0  0
   64.7286   36.3731    0.0000 C   0  0  0  0  0  0  0  0  0  0  0  0
   63.9786   35.0740    0.0000 C   0  0  0  0  0  0  0  0  0  0  0  0
   62.4786   35.0740    0.0000 C   0  0  0  0  0  0  0  0  0  0  0  0
   61.7286   33.7750    0.0000 C   0  0  0  0  0  0  0  0  0  0  0  0
   60.2286   33.7750    0.0000 C   0  0  0  0  0  0  0  0  0  0  0  0
   59.4786   32.4760    0.0000 C   0  0  0  0  0  0  0  0  0  0  0  0
   57.9786   32.4760    0.0000 C   0  0  0  0  0  0  0  0  0  0  0  0
   57.2286   31.1769    0.0000 C   0  0  0  0  0  0  0  0  0  0  0  0
   55.7286   31.1769    0.0000 C   0  0  0  0  0  0  0  0  0  0  0  0
   54.9786   29.8779    0.0000 C   0  0  0  0  0  0  0  0  0  0  0  0
   53.4786   29.8779    0.0000 C   0  0  0  0  0  0  0  0  0  0  0  0
   52.7286   28.5788    0.0000 C   0  0  0  0  0  0  0  0  0  0  0  0
   51.2286   28.5788    0.0000 C   0  0  0  0  0  0  0  0  0  0  0  0
   50.4786   27.2798    0.0000 C   0  0  0  0  0  0  0  0  0  0  0  0
   48.9786   27.2798    0.0000 C   0  0  0  0  0  0  0  0  0  0  0  0
   48.2286   25.9808    0.0000 C   0  0  0  0  0  0  0  0  0  0  0  0
   46.7286   25.9808    0.0000 C   0  0  0  0  0  0  0  0  0  0  0  0
   45.9786   24.6817    0.0000 C   0  0  0  0  0  0  0  0  0  0  0  0
   44.4786   24.6817    0.0000 C   0  0  0  0  0  0  0  0  0  0  0  0
   43.7286   23.3827    0.0000 C   0  0  0  0  0  0  0  0  0  0  0  0
   42.2286   23.3827    0.0000 C   0  0  0  0  0  0  0  0  0  0  0  0
   41.4786   22.0836    0.0000 C   0  0  0  0  0  0  0  0  0  0  0  0
   39.9786   22.0836    0.0000 C   0  0  0  0  0  0  0  0  0  0  0  0
   39.2286   20.7846    0.0000 C   0  0  0  0  0  0  0  0  0  0  0  0
   37.7286   20.7846    0.0000 C   0  0  0  0  0  0  0  0  0  0  0  0
   36.9786   19.4856    0.0000 C   0  0  0  0  0  0  0  0  0  0  0  0
   35.4786   19.4856    0.0000 C   0  0  0  0  0  0  0  0  0  0  0  0
   34.7286   18.1865    0.0000 C   0  0  0  0  0  0  0  0  0  0  0  0
   33.2286   18.1865    0.0000 C   0  0  0  0  0  0  0  0  0  0  0  0
   32.4786   16.8875    0.0000 C   0  0  0  0  0  0  0  0  0  0  0  0
   30.9786   16.8875    0.0000 C   0  0  0  0  0  0  0  0  0  0  0  0
   30.2286   15.5885    0.0000 C   0  0  0  0  0  0  0  0  0  0  0  0
   28.7286   15.5885    0.0000 C   0  0  0  0  0  0  0  0  0  0  0  0
   27.9786   14.2894    0.0000 C   0  0  0  0  0  0  0  0  0  0  0  0
   26.4786   14.2894    0.0000 C   0  0  0  0  0  0  0  0  0  0  0  0
   25.7286   12.9904    0.0000 C   0  0  0  0  0  0  0  0  0  0  0  0
   24.2286   12.9904    0.0000 C   0  0  0  0  0  0  0  0  0  0  0  0
   23.4786   11.6913    0.0000 C   0  0  0  0  0  0  0  0  0  0  0  0
   21.9786   11.6913    0.0000 C   0  0  0  0  0  0  0  0  0  0  0  0
   21.2286   10.3923    0.0000 C   0  0  0  0  0  0  0  0  0  0  0  0
   19.7286   10.3923    0.0000 C   0  0  0  0  0  0  0  0  0  0  0  0
   18.9786    9.0933    0.0000 C   0  0  0  0  0  0  0  0  0  0  0  0
   17.4786    9.0933    0.0000 C   0  0  0  0  0  0  0  0  0  0  0  0
   16.7286    7.7942    0.0000 C   0  0  0  0  0  0  0  0  0  0  0  0
   15.2286    7.7942    0.0000 C   0  0  0  0  0  0  0  0  0  0  0  0
   14.4786    6.4952    0.0000 C   0  0  0  0  0  0  0  0  0  0  0  0
   12.9786    6.4952    0.0000 C   0  0  0  0  0  0  0  0  0  0  0  0
   12.2286    5.1962    0.0000 C   0  0  0  0  0  0  0  0  0  0  0  0
   10.7286    5.1962    0.0000 C   0  0  0  0  0  0  0  0  0  0  0  0
    9.9786    3.8971    0.0000 C   0  0  0  0  0  0  0  0  0  0  0  0
    8.4786    3.8971    0.0000 C   0  0  0  0  0  0  0  0  0  0  0  0
    7.7286    2.5981    0.0000 C   0  0  0  0  0  0  0  0  0  0  0  0
    6.2286    2.5981    0.0000 C   0  0  0  0  0  0  0  0  0  0  0  0
    5.4786    1.2990    0.0000 C   0  0  0  0  0  0  0  0  0  0  0  0
    3.9786    1.2990    0.0000 C   0  0  0  0  0  0  0  0  0  0  0  0
    3.2286   -0.0000    0.0000 C   0  0  0  0  0  0  0  0  0  0  0  0
    1.7286    0.0000    0.0000 C   0  0  0  0  0  0  0  0  0  0  0  0
    1.0777    1.3515    0.0000 C   0  0  0  0  0  0  0  0  0  0  0  0
    2.0130    2.5242    0.0000 C   0  0  0  0  0  0  0  0  0  0  0  0
   -0.3846    1.6852    0.0000 C   0  0  0  0  0  0  0  0  0  0  0  0
   -1.5574    0.7500    0.0000 C   0  0  0  0  0  0  0  0  0  0  0  0
   -1.5574   -0.7500    0.0000 C   0  0  0  0  0  0  0  0  0  0  0  0
   -0.3846   -1.6852    0.0000 C   0  0  0  0  0  0  0  0  0  0  0  0
    1.0777   -1.3515    0.0000 C   0  0  0  0  0  0  0  0  0  0  0  0
    2.0130   -2.5242    0.0000 C   0  0  0  0  0  0  0  0  0  0  0  0
  1  2  1  0
  2  3  1  0
  3  4  1  0
  4  5  1  0
  5  6  1  0
  6  7  1  0
  7  8  1  0
  8  9  1  0
  9 10  1  0
 10 11  1  0
 11 12  1  0
 12 13  1  0
 13 14  1  0
 14 15  1  0
 15 16  1  0
 16 17  1  0
 17 18  1  0
 18 19  1  0
 19 20  1  0
 20 21  1  0
 21 22  1  0
 22 23  1  0
 23 24  1  0
 24 25  1  0
 25 26  1  0
 26 27  1  0
 27 28  1  0
 28 29  1  0
 29 30  1  0
 30 31  1  0
 31 32  1  0
 32 33  1  0
 33 34  1  0
 34 35  1  0
 35 36  1  0
 36 37  1  0
 37 38  1  0
 38 39  1  0
 39 40  1  0
 40 41  1  0
 41 42  1  0
 42 43  1  0
 43 44  1  0
 44 45  1  0
 45 46  1  0
 46 47  1  0
 47 48  1  0
 48 49  1  0
 49 50  1  0
 50 51  1  0
 51 52  1  0
 52 53  1  0
 53 54  1  0
 54 55  1  0
 55 56  1  0
 56 57  1  0
 57 58  1  0
 58 59  1  0
 59 60  1  0
 60 61  1  0
 61 62  1  0
 62 63  1  0
 63 64  1  0
 64 65  1  0
 65 66  1  0
 66 67  1  0
 67 68  1  0
 68 69  1  0
 69 70  1  0
 70 71  1  0
 71 72  1  0
 72 73  1  0
 73 74  1  0
 74 75  1  0
 75 76  1  0
 76 77  1  0
 77 78  1  0
 78 79  1  0
 79 80  1  0
 80 81  1  0
 81 82  1  0
 82 83  1  0
 83 84  1  0
 84 85  1  0
 85 86  1  0
 86 87  1  0
 87 88  1  0
 88 89  1  0
 89 90  1  0
 90 91  1  0
 91 92  1  0
 92 93  1  0
 93 94  1  0
 94 95  1  0
 95 96  1  0
 96 97  1  0
 97 98  1  0
 98 99  1  0
 99100  1  0
100101  1  0
101102  1  0
102103  1  0
103104  1  0
104105  1  0
105106  1  0
106107  1  0
107108  1  0
108109  1  0
109110  1  0
110111  1  0
111112  1  0
112113  1  0
113114  1  0
114115  1  0
115116  1  0
116117  1  0
116118  2  0
118119  1  0
119120  1  0
120121  1  0
121122  1  0
122123  1  0
122115  1  0
M  END
>  <Title>  (302) 
idAAJRgen9

$$$$

     RDKit          2D

 12 13  0  0  0  0  0  0  0  0999 V2000
   -1.4863   -5.5470    0.0000 N   0  0  0  0  0  0  0  0  0  0  0  0
   -0.1873   -4.7970    0.0000 C   0  0  0  0  0  0  0  0  0  0  0  0
    1.1118   -4.0470    0.0000 C   0  0  0  0  0  0  0  0  0  0  0  0
    1.5000   -2.5981    0.0000 C   0  0  0  0  0  0  0  0  0  0  0  0
    0.7500   -1.2990    0.0000 C   0  0  0  0  0  0  0  0  0  0  0  0
    1.5000    0.0000    0.0000 C   0  0  0  0  0  0  0  0  0  0  0  0
    0.7500    1.2990    0.0000 C   0  0  0  0  0  0  0  0  0  0  0  0
   -0.7500    1.2990    0.0000 C   0  0  0  0  0  0  0  0  0  0  0  0
   -1.5000    0.0000    0.0000 C   0  0  0  0  0  0  0  0  0  0  0  0
   -0.7500   -1.2990    0.0000 C   0  0  0  0  0  0  0  0  0  0  0  0
    2.9489   -2.9863    0.0000 C   0  0  0  0  0  0  0  0  0  0  0  0
    2.5607   -4.4352    0.0000 C   0  0  0  0  0  0  0  0  0  0  0  0
  1  2  3  0
  2  3  1  0
  3  4  2  0
  4  5  1  0
  5  6  2  0
  6  7  1  0
  7  8  2  0
  8  9  1  0
  9 10  2  0
  4 11  1  0
 11 12  2  0
 12  3  1  0
 10  5  1  0
M  END
>  <Title>  (303) 
idAAJSgen9

$$$$

     RDKit          2D

 40 45  0  0  0  0  0  0  0  0999 V2000
    7.8793   -7.4517    0.0000 C   0  0  0  0  0  0  0  0  0  0  0  0
    6.5149   -6.8285    0.0000 C   0  0  0  0  0  0  0  0  0  0  0  0
    5.1504   -6.2054    0.0000 C   0  0  0  0  0  0  0  0  0  0  0  0
    3.7860   -5.5823    0.0000 C   0  0  0  0  0  0  0  0  0  0  0  0
    2.4215   -4.9592    0.0000 C   0  0  0  0  0  0  0  0  0  0  0  0
    2.6350   -3.4744    0.0000 C   0  0  0  0  0  0  0  0  0  0  0  0
    2.0119   -2.1100    0.0000 C   0  0  0  0  0  0  0  0  0  0  0  0
    3.1455   -1.1277    0.0000 C   0  0  0  0  0  0  0  0  0  0  0  0
    2.8616    0.3452    0.0000 O   0  0  0  0  0  0  0  0  0  0  0  0
    4.5630   -1.6183    0.0000 N   0  0  0  0  0  0  0  0  0  0  0  0
    5.6966   -0.6360    0.0000 C   0  0  0  0  0  0  0  0  0  0  0  0
    7.1141   -1.1266    0.0000 N   0  0  0  0  0  0  0  0  0  0  0  0
    8.2478   -0.1443    0.0000 N   0  0  0  0  0  0  0  0  0  0  0  0
    7.9639    1.3286    0.0000 N   0  0  0  0  0  0  0  0  0  0  0  0
    6.5464    1.8192    0.0000 N   0  0  0  0  0  0  0  0  0  0  0  0
    5.4128    0.8369    0.0000 N   0  0  0  0  0  0  0  0  0  0  0  0
    0.7500   -1.2990    0.0000 C   0  0  0  0  0  0  0  0  0  0  0  0
    1.5000    0.0000    0.0000 C   0  0  0  0  0  0  0  0  0  0  0  0
    0.7500    1.2990    0.0000 C   0  0  0  0  0  0  0  0  0  0  0  0
   -0.7500    1.2990    0.0000 C   0  0  0  0  0  0  0  0  0  0  0  0
   -1.5000    0.0000    0.0000 C   0  0  0  0  0  0  0  0  0  0  0  0
   -0.7500   -1.2990    0.0000 C   0  0  0  0  0  0  0  0  0  0  0  0
   -2.0119   -2.1100    0.0000 C   0  0  0  0  0  0  0  0  0  0  0  0
   -2.8820   -0.8881    0.0000 C   0  0  0  0  0  0  0  0  0  0  0  0
   -4.3752   -1.0307    0.0000 C   0  0  0  0  0  0  0  0  0  0  0  0
   -4.9983   -2.3952    0.0000 C   0  0  0  0  0  0  0  0  0  0  0  0
   -4.1282   -3.6170    0.0000 C   0  0  0  0  0  0  0  0  0  0  0  0
   -2.6350   -3.4744    0.0000 C   0  0  0  0  0  0  0  0  0  0  0  0
   -2.4215   -4.9592    0.0000 C   0  0  0  0  0  0  0  0  0  0  0  0
   -3.8944   -5.2431    0.0000 C   0  0  0  0  0  0  0  0  0  0  0  0
   -4.3850   -6.6606    0.0000 C   0  0  0  0  0  0  0  0  0  0  0  0
   -3.4027   -7.7942    0.0000 C   0  0  0  0  0  0  0  0  0  0  0  0
   -1.9298   -7.5103    0.0000 C   0  0  0  0  0  0  0  0  0  0  0  0
   -1.4392   -6.0928    0.0000 C   0  0  0  0  0  0  0  0  0  0  0  0
   -0.0000   -6.5154    0.0000 C   0  0  0  0  0  0  0  0  0  0  0  0
   -0.3536   -7.9731    0.0000 C   0  0  0  0  0  0  0  0  0  0  0  0
    0.7320   -9.0082    0.0000 C   0  0  0  0  0  0  0  0  0  0  0  0
    2.1712   -8.5856    0.0000 C   0  0  0  0  0  0  0  0  0  0  0  0
    2.5248   -7.1279    0.0000 C   0  0  0  0  0  0  0  0  0  0  0  0
    1.4392   -6.0928    0.0000 C   0  0  0  0  0  0  0  0  0  0  0  0
  1  2  3  0
  2  3  1  0
  3  4  3  0
  4  5  1  0
  5  6  2  0
  6  7  1  0
  7  8  1  0
  8  9  2  0
  8 10  1  0
 10 11  1  0
 11 12  2  0
 12 13  1  0
 13 14  2  0
 14 15  1  0
 15 16  2  0
  7 17  1  0
 17 18  2  0
 18 19  1  0
 19 20  2  0
 20 21  1  0
 21 22  2  0
 22 23  1  0
 23 24  2  0
 24 25  1  0
 25 26  2  0
 26 27  1  0
 27 28  2  0
 28 29  1  0
 29 30  2  0
 30 31  1  0
 31 32  2  0
 32 33  1  0
 33 34  2  0
 34 35  1  0
 35 36  2  0
 36 37  1  0
 37 38  2  0
 38 39  1  0
 39 40  2  0
 40  5  1  0
 16 11  1  0
 22 17  1  0
 28 23  1  0
 34 29  1  0
 40 35  1  0
M  END
>  <Title>  (304) 
idAAJTgen9

$$$$

     RDKit          2D

 61 70  0  0  0  0  0  0  0  0999 V2000
    5.8191   -5.5525    0.0000 C   0  0  0  0  0  0  0  0  0  0  0  0
    4.3191   -5.5525    0.0000 C   0  0  0  0  0  0  0  0  0  0  0  0
    4.0586   -4.0753    0.0000 C   0  0  0  0  0  0  0  0  0  0  0  0
    3.3086   -2.7762    0.0000 C   0  0  0  0  0  0  0  0  0  0  0  0
    2.1595   -1.8121    0.0000 C   0  0  0  0  0  0  0  0  0  0  0  0
    2.9095   -0.5130    0.0000 C   0  0  0  0  0  0  0  0  0  0  0  0
    2.1595    0.7860    0.0000 O   0  0  0  0  0  0  0  0  0  0  0  0
    4.4095   -0.5130    0.0000 N   0  0  0  0  0  0  0  0  0  0  0  0
    5.1595    0.7860    0.0000 C   0  0  0  0  0  0  0  0  0  0  0  0
    4.5494    2.1563    0.0000 N   0  0  0  0  0  0  0  0  0  0  0  0
    5.6642    3.1600    0.0000 N   0  0  0  0  0  0  0  0  0  0  0  0
    6.9632    2.4100    0.0000 N   0  0  0  0  0  0  0  0  0  0  0  0
    6.6513    0.9428    0.0000 N   0  0  0  0  0  0  0  0  0  0  0  0
    7.6550   -0.1719    0.0000 C   0  0  0  0  0  0  0  0  0  0  0  0
    7.1915   -1.5985    0.0000 C   0  0  0  0  0  0  0  0  0  0  0  0
    8.1952   -2.7132    0.0000 C   0  0  0  0  0  0  0  0  0  0  0  0
    9.6624   -2.4014    0.0000 C   0  0  0  0  0  0  0  0  0  0  0  0
   10.1259   -0.9748    0.0000 C   0  0  0  0  0  0  0  0  0  0  0  0
    9.1222    0.1400    0.0000 C   0  0  0  0  0  0  0  0  0  0  0  0
    0.7500   -1.2990    0.0000 C   0  0  0  0  0  0  0  0  0  0  0  0
    1.5000    0.0000    0.0000 C   0  0  0  0  0  0  0  0  0  0  0  0
    0.7500    1.2990    0.0000 C   0  0  0  0  0  0  0  0  0  0  0  0
   -0.7500    1.2990    0.0000 C   0  0  0  0  0  0  0  0  0  0  0  0
   -1.5000    0.0000    0.0000 C   0  0  0  0  0  0  0  0  0  0  0  0
   -0.7500   -1.2990    0.0000 C   0  0  0  0  0  0  0  0  0  0  0  0
   -2.1595   -1.8121    0.0000 C   0  0  0  0  0  0  0  0  0  0  0  0
   -2.4200   -0.3349    0.0000 C   0  0  0  0  0  0  0  0  0  0  0  0
   -3.8296    0.1782    0.0000 C   0  0  0  0  0  0  0  0  0  0  0  0
   -4.9786   -0.7860    0.0000 C   0  0  0  0  0  0  0  0  0  0  0  0
   -4.7181   -2.2632    0.0000 C   0  0  0  0  0  0  0  0  0  0  0  0
   -3.3086   -2.7762    0.0000 C   0  0  0  0  0  0  0  0  0  0  0  0
   -4.0586   -4.0753    0.0000 C   0  0  0  0  0  0  0  0  0  0  0  0
   -5.2077   -3.1111    0.0000 C   0  0  0  0  0  0  0  0  0  0  0  0
   -6.6172   -3.6241    0.0000 C   0  0  0  0  0  0  0  0  0  0  0  0
   -6.8777   -5.1013    0.0000 C   0  0  0  0  0  0  0  0  0  0  0  0
   -5.7286   -6.0655    0.0000 C   0  0  0  0  0  0  0  0  0  0  0  0
   -4.3191   -5.5525    0.0000 C   0  0  0  0  0  0  0  0  0  0  0  0
   -4.0586   -7.0297    0.0000 C   0  0  0  0  0  0  0  0  0  0  0  0
   -5.5586   -7.0297    0.0000 C   0  0  0  0  0  0  0  0  0  0  0  0
   -6.3086   -8.3287    0.0000 C   0  0  0  0  0  0  0  0  0  0  0  0
   -5.5586   -9.6278    0.0000 C   0  0  0  0  0  0  0  0  0  0  0  0
   -4.0586   -9.6278    0.0000 C   0  0  0  0  0  0  0  0  0  0  0  0
   -3.3086   -8.3287    0.0000 C   0  0  0  0  0  0  0  0  0  0  0  0
   -2.1595   -9.2929    0.0000 C   0  0  0  0  0  0  0  0  0  0  0  0
   -3.3086  -10.2571    0.0000 C   0  0  0  0  0  0  0  0  0  0  0  0
   -3.0481  -11.7343    0.0000 C   0  0  0  0  0  0  0  0  0  0  0  0
   -1.6386  -12.2474    0.0000 C   0  0  0  0  0  0  0  0  0  0  0  0
   -0.4895  -11.2832    0.0000 C   0  0  0  0  0  0  0  0  0  0  0  0
   -0.7500   -9.8060    0.0000 C   0  0  0  0  0  0  0  0  0  0  0  0
    0.7500   -9.8060    0.0000 C   0  0  0  0  0  0  0  0  0  0  0  0
    0.4895  -11.2832    0.0000 C   0  0  0  0  0  0  0  0  0  0  0  0
    1.6386  -12.2474    0.0000 C   0  0  0  0  0  0  0  0  0  0  0  0
    3.0481  -11.7343    0.0000 C   0  0  0  0  0  0  0  0  0  0  0  0
    3.3086  -10.2571    0.0000 C   0  0  0  0  0  0  0  0  0  0  0  0
    2.1595   -9.2929    0.0000 C   0  0  0  0  0  0  0  0  0  0  0  0
    3.3086   -8.3287    0.0000 C   0  0  0  0  0  0  0  0  0  0  0  0
    4.0586   -9.6278    0.0000 C   0  0  0  0  0  0  0  0  0  0  0  0
    5.5586   -9.6278    0.0000 C   0  0  0  0  0  0  0  0  0  0  0  0
    6.3086   -8.3287    0.0000 C   0  0  0  0  0  0  0  0  0  0  0  0
    5.5586   -7.0297    0.0000 C   0  0  0  0  0  0  0  0  0  0  0  0
    4.0586   -7.0297    0.0000 C   0  0  0  0  0  0  0  0  0  0  0  0
  1  2  1  0
  2  3  1  0
  3  4  1  0
  4  5  1  0
  5  6  1  0
  6  7  2  0
  6  8  1  0
  8  9  1  0
  9 10  2  0
 10 11  1  0
 11 12  2  0
 12 13  1  0
 13 14  1  0
 14 15  2  0
 15 16  1  0
 16 17  2  0
 17 18  1  0
 18 19  2  0
  5 20  1  0
 20 21  2  0
 21 22  1  0
 22 23  2  0
 23 24  1  0
 24 25  2  0
 25 26  1  0
 26 27  2  0
 27 28  1  0
 28 29  2  0
 29 30  1  0
 30 31  2  0
 31 32  1  0
 32 33  2  0
 33 34  1  0
 34 35  2  0
 35 36  1  0
 36 37  2  0
 37 38  1  0
 38 39  2  0
 39 40  1  0
 40 41  2  0
 41 42  1  0
 42 43  2  0
 43 44  1  0
 44 45  2  0
 45 46  1  0
 46 47  2  0
 47 48  1  0
 48 49  2  0
 49 50  1  0
 50 51  2  0
 51 52  1  0
 52 53  2  0
 53 54  1  0
 54 55  2  0
 55 56  1  0
 56 57  2  0
 57 58  1  0
 58 59  2  0
 59 60  1  0
 60 61  2  0
 61  2  1  0
 13  9  1  0
 19 14  1  0
 25 20  1  0
 31 26  1  0
 37 32  1  0
 43 38  1  0
 49 44  1  0
 55 50  1  0
 61 56  1  0
M  END
>  <Title>  (305) 
idAAJUgen9

$$$$

     RDKit          2D

  8  8  0  0  0  0  0  0  0  0999 V2000
    4.5000    0.0000    0.0000 N   0  0  0  0  0  0  0  0  0  0  0  0
    3.0000    0.0000    0.0000 C   0  0  0  0  0  0  0  0  0  0  0  0
    1.5000    0.0000    0.0000 C   0  0  0  0  0  0  0  0  0  0  0  0
    0.7500   -1.2990    0.0000 C   0  0  0  0  0  0  0  0  0  0  0  0
   -0.7500   -1.2990    0.0000 C   0  0  0  0  0  0  0  0  0  0  0  0
   -1.5000    0.0000    0.0000 C   0  0  0  0  0  0  0  0  0  0  0  0
   -0.7500    1.2990    0.0000 N   0  0  0  0  0  0  0  0  0  0  0  0
    0.7500    1.2990    0.0000 C   0  0  0  0  0  0  0  0  0  0  0  0
  1  2  3  0
  2  3  1  0
  3  4  2  0
  4  5  1  0
  5  6  2  0
  6  7  1  0
  7  8  2  0
  8  3  1  0
M  END
>  <Title>  (306) 
idAAJVgen9

$$$$

     RDKit          2D

 14 15  0  0  0  0  0  0  0  0999 V2000
    3.3287    1.8373    0.0000 O   0  0  0  0  0  0  0  0  0  0  0  0
    2.3250    2.9520    0.0000 C   0  0  0  0  0  0  0  0  0  0  0  0
    0.8578    2.6401    0.0000 C   0  0  0  0  0  0  0  0  0  0  0  0
    0.3943    1.2135    0.0000 C   0  0  0  0  0  0  0  0  0  0  0  0
    1.2760    0.0000    0.0000 C   0  0  0  0  0  0  0  0  0  0  0  0
    0.3943   -1.2135    0.0000 C   0  0  0  0  0  0  0  0  0  0  0  0
   -1.0323   -0.7500    0.0000 C   0  0  0  0  0  0  0  0  0  0  0  0
   -1.0323    0.7500    0.0000 C   0  0  0  0  0  0  0  0  0  0  0  0
    2.7886    4.3786    0.0000 N   0  0  0  0  0  0  0  0  0  0  0  0
    4.2558    4.6904    0.0000 C   0  0  0  0  0  0  0  0  0  0  0  0
    4.8659    6.0607    0.0000 C   0  0  0  0  0  0  0  0  0  0  0  0
    6.3577    5.9040    0.0000 C   0  0  0  0  0  0  0  0  0  0  0  0
    6.6695    4.4367    0.0000 C   0  0  0  0  0  0  0  0  0  0  0  0
    5.3705    3.6867    0.0000 C   0  0  0  0  0  0  0  0  0  0  0  0
  1  2  2  0
  2  3  1  0
  3  4  1  0
  4  5  2  0
  5  6  1  0
  6  7  1  0
  7  8  2  0
  2  9  1  0
  9 10  1  0
 10 11  2  0
 11 12  1  0
 12 13  2  0
 13 14  1  0
  8  4  1  0
 14 10  1  0
M  END
>  <Title>  (307) 
idAAJWgen9

$$$$

     RDKit          2D

 24 26  0  0  0  0  0  0  0  0999 V2000
    3.6929    0.0000    0.0000 C   0  0  0  0  0  0  0  0  0  0  0  0
    2.1929    0.0000    0.0000 C   0  0  0  0  0  0  0  0  0  0  0  0
    1.6798    1.4095    0.0000 C   0  0  0  0  0  0  0  0  0  0  0  0
    0.3808    2.1595    0.0000 C   0  0  0  0  0  0  0  0  0  0  0  0
   -1.0964    1.8991    0.0000 C   0  0  0  0  0  0  0  0  0  0  0  0
   -2.0606    0.7500    0.0000 C   0  0  0  0  0  0  0  0  0  0  0  0
   -2.0606   -0.7500    0.0000 C   0  0  0  0  0  0  0  0  0  0  0  0
   -1.0964   -1.8991    0.0000 C   0  0  0  0  0  0  0  0  0  0  0  0
   -1.8464   -3.1981    0.0000 C   0  0  0  0  0  0  0  0  0  0  0  0
   -1.0964   -4.4971    0.0000 O   0  0  0  0  0  0  0  0  0  0  0  0
   -3.3464   -3.1981    0.0000 N   0  0  0  0  0  0  0  0  0  0  0  0
   -4.0964   -4.4971    0.0000 C   0  0  0  0  0  0  0  0  0  0  0  0
   -3.4863   -5.8675    0.0000 N   0  0  0  0  0  0  0  0  0  0  0  0
   -4.6010   -6.8712    0.0000 N   0  0  0  0  0  0  0  0  0  0  0  0
   -5.9001   -6.1212    0.0000 N   0  0  0  0  0  0  0  0  0  0  0  0
   -5.5882   -4.6539    0.0000 N   0  0  0  0  0  0  0  0  0  0  0  0
   -6.5919   -3.5392    0.0000 C   0  0  0  0  0  0  0  0  0  0  0  0
   -6.1284   -2.1126    0.0000 C   0  0  0  0  0  0  0  0  0  0  0  0
   -7.1321   -0.9979    0.0000 C   0  0  0  0  0  0  0  0  0  0  0  0
   -8.5993   -1.3098    0.0000 C   0  0  0  0  0  0  0  0  0  0  0  0
   -9.0628   -2.7364    0.0000 C   0  0  0  0  0  0  0  0  0  0  0  0
   -8.0591   -3.8511    0.0000 C   0  0  0  0  0  0  0  0  0  0  0  0
    0.3808   -2.1595    0.0000 C   0  0  0  0  0  0  0  0  0  0  0  0
    1.6798   -1.4095    0.0000 C   0  0  0  0  0  0  0  0  0  0  0  0
  1  2  1  0
  2  3  1  0
  3  4  1  0
  4  5  1  0
  5  6  1  0
  6  7  1  0
  7  8  1  0
  8  9  1  0
  9 10  2  0
  9 11  1  0
 11 12  1  0
 12 13  2  0
 13 14  1  0
 14 15  2  0
 15 16  1  0
 16 17  1  0
 17 18  2  0
 18 19  1  0
 19 20  2  0
 20 21  1  0
 21 22  2  0
  8 23  1  0
 23 24  1  0
 24  2  1  0
 16 12  1  0
 22 17  1  0
M  END
>  <Title>  (308) 
idAAJXgen9

$$$$

     RDKit          2D

  7  7  0  0  0  0  0  0  0  0999 V2000
    3.0000    0.0000    0.0000 C   0  0  0  0  0  0  0  0  0  0  0  0
    1.5000    0.0000    0.0000 C   0  0  0  0  0  0  0  0  0  0  0  0
    0.7500   -1.2990    0.0000 C   0  0  0  0  0  0  0  0  0  0  0  0
   -0.7500   -1.2990    0.0000 C   0  0  0  0  0  0  0  0  0  0  0  0
   -1.5000    0.0000    0.0000 C   0  0  0  0  0  0  0  0  0  0  0  0
   -0.7500    1.2990    0.0000 N   0  0  0  0  0  0  0  0  0  0  0  0
    0.7500    1.2990    0.0000 C   0  0  0  0  0  0  0  0  0  0  0  0
  1  2  1  0
  2  3  2  0
  3  4  1  0
  4  5  2  0
  5  6  1  0
  6  7  2  0
  7  2  1  0
M  END
>  <Title>  (309) 
idAAJYgen9

$$$$

     RDKit          2D

 31 34  0  0  0  0  0  0  0  0999 V2000
   -4.1942  -13.2353    0.0000 C   0  0  0  0  0  0  0  0  0  0  0  0
   -3.6201  -11.8495    0.0000 C   0  0  0  0  0  0  0  0  0  0  0  0
   -3.0461  -10.4636    0.0000 C   0  0  0  0  0  0  0  0  0  0  0  0
   -2.4721   -9.0778    0.0000 C   0  0  0  0  0  0  0  0  0  0  0  0
   -1.8981   -7.6920    0.0000 C   0  0  0  0  0  0  0  0  0  0  0  0
   -1.3240   -6.3062    0.0000 C   0  0  0  0  0  0  0  0  0  0  0  0
   -0.7500   -4.9204    0.0000 C   0  0  0  0  0  0  0  0  0  0  0  0
    0.7500   -4.9204    0.0000 C   0  0  0  0  0  0  0  0  0  0  0  0
    1.8107   -3.8597    0.0000 C   0  0  0  0  0  0  0  0  0  0  0  0
    1.8107   -2.3597    0.0000 C   0  0  0  0  0  0  0  0  0  0  0  0
    3.1965   -1.7857    0.0000 C   0  0  0  0  0  0  0  0  0  0  0  0
    3.3923   -0.2985    0.0000 O   0  0  0  0  0  0  0  0  0  0  0  0
    4.3865   -2.6988    0.0000 N   0  0  0  0  0  0  0  0  0  0  0  0
    5.7723   -2.1248    0.0000 C   0  0  0  0  0  0  0  0  0  0  0  0
    6.9624   -3.0379    0.0000 N   0  0  0  0  0  0  0  0  0  0  0  0
    8.3482   -2.4639    0.0000 N   0  0  0  0  0  0  0  0  0  0  0  0
    8.5440   -0.9767    0.0000 N   0  0  0  0  0  0  0  0  0  0  0  0
    7.3539   -0.0636    0.0000 N   0  0  0  0  0  0  0  0  0  0  0  0
    5.9681   -0.6376    0.0000 N   0  0  0  0  0  0  0  0  0  0  0  0
    0.7500   -1.2990    0.0000 C   0  0  0  0  0  0  0  0  0  0  0  0
    1.5000    0.0000    0.0000 C   0  0  0  0  0  0  0  0  0  0  0  0
    0.7500    1.2990    0.0000 C   0  0  0  0  0  0  0  0  0  0  0  0
   -0.7500    1.2990    0.0000 C   0  0  0  0  0  0  0  0  0  0  0  0
   -1.5000    0.0000    0.0000 C   0  0  0  0  0  0  0  0  0  0  0  0
   -0.7500   -1.2990    0.0000 C   0  0  0  0  0  0  0  0  0  0  0  0
   -1.8107   -2.3597    0.0000 C   0  0  0  0  0  0  0  0  0  0  0  0
   -3.1097   -1.6097    0.0000 C   0  0  0  0  0  0  0  0  0  0  0  0
   -4.4087   -2.3597    0.0000 C   0  0  0  0  0  0  0  0  0  0  0  0
   -4.4087   -3.8597    0.0000 C   0  0  0  0  0  0  0  0  0  0  0  0
   -3.1097   -4.6097    0.0000 C   0  0  0  0  0  0  0  0  0  0  0  0
   -1.8107   -3.8597    0.0000 C   0  0  0  0  0  0  0  0  0  0  0  0
  1  2  3  0
  2  3  1  0
  3  4  3  0
  4  5  1  0
  5  6  3  0
  6  7  1  0
  7  8  2  0
  8  9  1  0
  9 10  2  0
 10 11  1  0
 11 12  2  0
 11 13  1  0
 13 14  1  0
 14 15  2  0
 15 16  1  0
 16 17  2  0
 17 18  1  0
 18 19  2  0
 10 20  1  0
 20 21  2  0
 21 22  1  0
 22 23  2  0
 23 24  1  0
 24 25  2  0
 25 26  1  0
 26 27  2  0
 27 28  1  0
 28 29  2  0
 29 30  1  0
 30 31  2  0
 31  7  1  0
 19 14  1  0
 25 20  1  0
 31 26  1  0
M  END
>  <Title>  (310) 
idAAJZgen9

$$$$

     RDKit          2D

  9  9  0  0  0  0  0  0  0  0999 V2000
    3.7500    1.2990    0.0000 O   0  0  0  0  0  0  0  0  0  0  0  0
    3.0000    0.0000    0.0000 C   0  0  0  0  0  0  0  0  0  0  0  0
    3.7500   -1.2990    0.0000 O   0  0  0  0  0  0  0  0  0  0  0  0
    1.5000    0.0000    0.0000 C   0  0  0  0  0  0  0  0  0  0  0  0
    0.7500   -1.2990    0.0000 C   0  0  0  0  0  0  0  0  0  0  0  0
   -0.7500   -1.2990    0.0000 C   0  0  0  0  0  0  0  0  0  0  0  0
   -1.5000    0.0000    0.0000 C   0  0  0  0  0  0  0  0  0  0  0  0
   -0.7500    1.2990    0.0000 C   0  0  0  0  0  0  0  0  0  0  0  0
    0.7500    1.2990    0.0000 C   0  0  0  0  0  0  0  0  0  0  0  0
  1  2  2  0
  2  3  1  0
  2  4  1  0
  4  5  2  0
  5  6  1  0
  6  7  2  0
  7  8  1  0
  8  9  2  0
  9  4  1  0
M  END
>  <Title>  (311) 
idAAKAgen9

$$$$

     RDKit          2D

 46 52  0  0  0  0  0  0  0  0999 V2000
    5.6275   -5.8532    0.0000 C   0  0  0  0  0  0  0  0  0  0  0  0
    4.3881   -6.6982    0.0000 C   0  0  0  0  0  0  0  0  0  0  0  0
    4.5002   -8.1940    0.0000 O   0  0  0  0  0  0  0  0  0  0  0  0
    3.0367   -6.0474    0.0000 C   0  0  0  0  0  0  0  0  0  0  0  0
    3.3705   -4.5850    0.0000 C   0  0  0  0  0  0  0  0  0  0  0  0
    3.0367   -3.1226    0.0000 C   0  0  0  0  0  0  0  0  0  0  0  0
    2.1015   -1.9499    0.0000 C   0  0  0  0  0  0  0  0  0  0  0  0
    3.0367   -0.7771    0.0000 C   0  0  0  0  0  0  0  0  0  0  0  0
    2.4887    0.6192    0.0000 O   0  0  0  0  0  0  0  0  0  0  0  0
    4.5199   -1.0007    0.0000 N   0  0  0  0  0  0  0  0  0  0  0  0
    5.4552    0.1721    0.0000 C   0  0  0  0  0  0  0  0  0  0  0  0
    6.9384   -0.0515    0.0000 N   0  0  0  0  0  0  0  0  0  0  0  0
    7.8736    1.1213    0.0000 N   0  0  0  0  0  0  0  0  0  0  0  0
    7.3256    2.5176    0.0000 N   0  0  0  0  0  0  0  0  0  0  0  0
    5.8424    2.7411    0.0000 N   0  0  0  0  0  0  0  0  0  0  0  0
    4.9072    1.5684    0.0000 N   0  0  0  0  0  0  0  0  0  0  0  0
    0.7500   -1.2990    0.0000 C   0  0  0  0  0  0  0  0  0  0  0  0
    1.5000    0.0000    0.0000 C   0  0  0  0  0  0  0  0  0  0  0  0
    0.7500    1.2990    0.0000 C   0  0  0  0  0  0  0  0  0  0  0  0
   -0.7500    1.2990    0.0000 C   0  0  0  0  0  0  0  0  0  0  0  0
   -1.5000    0.0000    0.0000 C   0  0  0  0  0  0  0  0  0  0  0  0
   -0.7500   -1.2990    0.0000 C   0  0  0  0  0  0  0  0  0  0  0  0
   -2.1015   -1.9499    0.0000 C   0  0  0  0  0  0  0  0  0  0  0  0
   -2.6495   -0.5536    0.0000 C   0  0  0  0  0  0  0  0  0  0  0  0
   -4.1327   -0.3300    0.0000 C   0  0  0  0  0  0  0  0  0  0  0  0
   -5.0679   -1.5027    0.0000 C   0  0  0  0  0  0  0  0  0  0  0  0
   -4.5199   -2.8990    0.0000 C   0  0  0  0  0  0  0  0  0  0  0  0
   -3.0367   -3.1226    0.0000 C   0  0  0  0  0  0  0  0  0  0  0  0
   -3.3705   -4.5850    0.0000 C   0  0  0  0  0  0  0  0  0  0  0  0
   -4.8038   -4.1429    0.0000 C   0  0  0  0  0  0  0  0  0  0  0  0
   -5.9034   -5.1631    0.0000 C   0  0  0  0  0  0  0  0  0  0  0  0
   -5.5696   -6.6255    0.0000 C   0  0  0  0  0  0  0  0  0  0  0  0
   -4.1363   -7.0677    0.0000 C   0  0  0  0  0  0  0  0  0  0  0  0
   -3.0367   -6.0474    0.0000 C   0  0  0  0  0  0  0  0  0  0  0  0
   -2.1015   -7.2201    0.0000 C   0  0  0  0  0  0  0  0  0  0  0  0
   -3.3408   -8.0651    0.0000 C   0  0  0  0  0  0  0  0  0  0  0  0
   -3.2287   -9.5609    0.0000 C   0  0  0  0  0  0  0  0  0  0  0  0
   -1.8773  -10.2118    0.0000 C   0  0  0  0  0  0  0  0  0  0  0  0
   -0.6379   -9.3668    0.0000 C   0  0  0  0  0  0  0  0  0  0  0  0
   -0.7500   -7.8710    0.0000 C   0  0  0  0  0  0  0  0  0  0  0  0
    0.7500   -7.8710    0.0000 C   0  0  0  0  0  0  0  0  0  0  0  0
    0.6379   -9.3668    0.0000 C   0  0  0  0  0  0  0  0  0  0  0  0
    1.8773  -10.2118    0.0000 C   0  0  0  0  0  0  0  0  0  0  0  0
    3.2287   -9.5609    0.0000 C   0  0  0  0  0  0  0  0  0  0  0  0
    3.3408   -8.0651    0.0000 C   0  0  0  0  0  0  0  0  0  0  0  0
    2.1015   -7.2201    0.0000 C   0  0  0  0  0  0  0  0  0  0  0  0
  1  2  1  0
  2  3  2  0
  2  4  1  0
  4  5  1  0
  5  6  1  0
  6  7  1  0
  7  8  1  0
  8  9  2  0
  8 10  1  0
 10 11  1  0
 11 12  2  0
 12 13  1  0
 13 14  2  0
 14 15  1  0
 15 16  2  0
  7 17  1  0
 17 18  2  0
 18 19  1  0
 19 20  2  0
 20 21  1  0
 21 22  2  0
 22 23  1  0
 23 24  2  0
 24 25  1  0
 25 26  2  0
 26 27  1  0
 27 28  2  0
 28 29  1  0
 29 30  2  0
 30 31  1  0
 31 32  2  0
 32 33  1  0
 33 34  2  0
 34 35  1  0
 35 36  2  0
 36 37  1  0
 37 38  2  0
 38 39  1  0
 39 40  2  0
 40 41  1  0
 41 42  2  0
 42 43  1  0
 43 44  2  0
 44 45  1  0
 45 46  2  0
 46  4  1  0
 16 11  1  0
 22 17  1  0
 28 23  1  0
 34 29  1  0
 40 35  1  0
 46 41  1  0
M  END
>  <Title>  (312) 
idAAKBgen9

$$$$

     RDKit          2D

  7  7  0  0  0  0  0  0  0  0999 V2000
    3.3107    1.2990    0.0000 O   0  0  0  0  0  0  0  0  0  0  0  0
    2.5607    0.0000    0.0000 C   0  0  0  0  0  0  0  0  0  0  0  0
    3.3107   -1.2990    0.0000 O   0  0  0  0  0  0  0  0  0  0  0  0
    1.0607    0.0000    0.0000 C   0  0  0  0  0  0  0  0  0  0  0  0
   -0.0000   -1.0607    0.0000 C   0  0  0  0  0  0  0  0  0  0  0  0
   -1.0607    0.0000    0.0000 C   0  0  0  0  0  0  0  0  0  0  0  0
    0.0000    1.0607    0.0000 C   0  0  0  0  0  0  0  0  0  0  0  0
  1  2  2  0
  2  3  1  0
  2  4  1  0
  4  5  2  0
  5  6  1  0
  6  7  2  0
  7  4  1  0
M  END
>  <Title>  (313) 
idAAKCgen9

$$$$

     RDKit          2D

  9  9  0  0  0  0  0  0  0  0999 V2000
    4.2760   -0.0000    0.0000 C   0  0  0  0  0  0  0  0  0  0  0  0
    2.7760    0.0000    0.0000 C   0  0  0  0  0  0  0  0  0  0  0  0
    1.2760    0.0000    0.0000 C   0  0  0  0  0  0  0  0  0  0  0  0
    0.3943    1.2135    0.0000 C   0  0  0  0  0  0  0  0  0  0  0  0
   -1.0323    0.7500    0.0000 C   0  0  0  0  0  0  0  0  0  0  0  0
   -2.2458    1.6317    0.0000 C   0  0  0  0  0  0  0  0  0  0  0  0
   -3.4593    2.5134    0.0000 N   0  0  0  0  0  0  0  0  0  0  0  0
   -1.0323   -0.7500    0.0000 C   0  0  0  0  0  0  0  0  0  0  0  0
    0.3943   -1.2135    0.0000 C   0  0  0  0  0  0  0  0  0  0  0  0
  1  2  3  0
  2  3  1  0
  3  4  2  0
  4  5  1  0
  5  6  1  0
  6  7  3  0
  5  8  1  0
  8  9  2  0
  9  3  1  0
M  END
>  <Title>  (314) 
idAAKDgen9

$$$$

     RDKit          2D

 10 10  0  0  0  0  0  0  0  0999 V2000
    6.5260   -1.2990    0.0000 C   0  0  0  0  0  0  0  0  0  0  0  0
    5.0260   -1.2990    0.0000 C   0  0  0  0  0  0  0  0  0  0  0  0
    3.5260   -1.2990    0.0000 C   0  0  0  0  0  0  0  0  0  0  0  0
    2.7760   -2.5981    0.0000 O   0  0  0  0  0  0  0  0  0  0  0  0
    2.7760    0.0000    0.0000 O   0  0  0  0  0  0  0  0  0  0  0  0
    1.2760    0.0000    0.0000 C   0  0  0  0  0  0  0  0  0  0  0  0
    0.3943    1.2135    0.0000 C   0  0  0  0  0  0  0  0  0  0  0  0
   -1.0323    0.7500    0.0000 C   0  0  0  0  0  0  0  0  0  0  0  0
   -1.0323   -0.7500    0.0000 C   0  0  0  0  0  0  0  0  0  0  0  0
    0.3943   -1.2135    0.0000 C   0  0  0  0  0  0  0  0  0  0  0  0
  1  2  3  0
  2  3  1  0
  3  4  2  0
  3  5  1  0
  5  6  1  0
  6  7  2  0
  7  8  1  0
  8  9  2  0
  9 10  1  0
 10  6  1  0
M  END
>  <Title>  (315) 
idAAKEgen9

$$$$

     RDKit          2D

 18 19  0  0  0  0  0  0  0  0999 V2000
    1.3774  -13.5373    0.0000 C   0  0  0  0  0  0  0  0  0  0  0  0
    1.5342  -12.0455    0.0000 C   0  0  0  0  0  0  0  0  0  0  0  0
    1.6910  -10.5537    0.0000 C   0  0  0  0  0  0  0  0  0  0  0  0
    1.8478   -9.0619    0.0000 C   0  0  0  0  0  0  0  0  0  0  0  0
    2.0046   -7.5702    0.0000 C   0  0  0  0  0  0  0  0  0  0  0  0
    3.3037   -6.8202    0.0000 C   0  0  0  0  0  0  0  0  0  0  0  0
    2.9918   -5.3529    0.0000 C   0  0  0  0  0  0  0  0  0  0  0  0
    1.5000   -5.1962    0.0000 C   0  0  0  0  0  0  0  0  0  0  0  0
    0.7500   -3.8971    0.0000 C   0  0  0  0  0  0  0  0  0  0  0  0
   -0.7500   -3.8971    0.0000 O   0  0  0  0  0  0  0  0  0  0  0  0
    1.5000   -2.5981    0.0000 N   0  0  0  0  0  0  0  0  0  0  0  0
    0.7500   -1.2990    0.0000 C   0  0  0  0  0  0  0  0  0  0  0  0
    1.5000    0.0000    0.0000 N   0  0  0  0  0  0  0  0  0  0  0  0
    0.7500    1.2990    0.0000 N   0  0  0  0  0  0  0  0  0  0  0  0
   -0.7500    1.2990    0.0000 N   0  0  0  0  0  0  0  0  0  0  0  0
   -1.5000    0.0000    0.0000 N   0  0  0  0  0  0  0  0  0  0  0  0
   -0.7500   -1.2990    0.0000 N   0  0  0  0  0  0  0  0  0  0  0  0
    0.8899   -6.5665    0.0000 C   0  0  0  0  0  0  0  0  0  0  0  0
  1  2  3  0
  2  3  1  0
  3  4  3  0
  4  5  1  0
  5  6  2  0
  6  7  1  0
  7  8  2  0
  8  9  1  0
  9 10  2  0
  9 11  1  0
 11 12  1  0
 12 13  2  0
 13 14  1  0
 14 15  2  0
 15 16  1  0
 16 17  2  0
  8 18  1  0
 18  5  1  0
 17 12  1  0
M  END
>  <Title>  (316) 
idAAKFgen9

$$$$

     RDKit          2D

  9  9  0  0  0  0  0  0  0  0999 V2000
    2.7760   -2.5981    0.0000 O   0  0  0  0  0  0  0  0  0  0  0  0
    3.5260   -1.2990    0.0000 C   0  0  0  0  0  0  0  0  0  0  0  0
    5.0260   -1.2990    0.0000 O   0  0  0  0  0  0  0  0  0  0  0  0
    2.7760    0.0000    0.0000 N   0  0  0  0  0  0  0  0  0  0  0  0
    1.2760    0.0000    0.0000 C   0  0  0  0  0  0  0  0  0  0  0  0
    0.3943    1.2135    0.0000 C   0  0  0  0  0  0  0  0  0  0  0  0
   -1.0323    0.7500    0.0000 C   0  0  0  0  0  0  0  0  0  0  0  0
   -1.0323   -0.7500    0.0000 C   0  0  0  0  0  0  0  0  0  0  0  0
    0.3943   -1.2135    0.0000 C   0  0  0  0  0  0  0  0  0  0  0  0
  1  2  2  0
  2  3  1  0
  2  4  1  0
  4  5  1  0
  5  6  2  0
  6  7  1  0
  7  8  1  0
  8  9  2  0
  9  5  1  0
M  END
>  <Title>  (317) 
idAAKGgen9

$$$$

     RDKit          2D

  8  8  0  0  0  0  0  0  0  0999 V2000
    3.2286   -0.0000    0.0000 C   0  0  0  0  0  0  0  0  0  0  0  0
    1.7286    0.0000    0.0000 C   0  0  0  0  0  0  0  0  0  0  0  0
    1.0777    1.3515    0.0000 C   0  0  0  0  0  0  0  0  0  0  0  0
   -0.3846    1.6852    0.0000 C   0  0  0  0  0  0  0  0  0  0  0  0
   -1.5574    0.7500    0.0000 C   0  0  0  0  0  0  0  0  0  0  0  0
   -1.5574   -0.7500    0.0000 O   0  0  0  0  0  0  0  0  0  0  0  0
   -0.3846   -1.6852    0.0000 C   0  0  0  0  0  0  0  0  0  0  0  0
    1.0777   -1.3515    0.0000 C   0  0  0  0  0  0  0  0  0  0  0  0
  1  2  1  0
  2  3  2  0
  3  4  1  0
  4  5  1  0
  5  6  1  0
  6  7  1  0
  7  8  1  0
  8  2  1  0
M  END
>  <Title>  (318) 
idAAKHgen9

$$$$

     RDKit          2D

107107  0  0  0  0  0  0  0  0999 V2000
   28.0706   -0.0000    0.0000 C   0  0  0  0  0  0  0  0  0  0  0  0
   26.5706    0.0000    0.0000 C   0  0  0  0  0  0  0  0  0  0  0  0
   25.0706    0.0000    0.0000 C   0  0  0  0  0  0  0  0  0  0  0  0
   25.0258    1.4993    0.0000 C   0  0  0  0  0  0  0  0  0  0  0  0
   24.8913    2.9933    0.0000 C   0  0  0  0  0  0  0  0  0  0  0  0
   24.6677    4.4765    0.0000 C   0  0  0  0  0  0  0  0  0  0  0  0
   24.3559    5.9438    0.0000 C   0  0  0  0  0  0  0  0  0  0  0  0
   23.9568    7.3897    0.0000 C   0  0  0  0  0  0  0  0  0  0  0  0
   23.4720    8.8092    0.0000 C   0  0  0  0  0  0  0  0  0  0  0  0
   22.9032   10.1971    0.0000 C   0  0  0  0  0  0  0  0  0  0  0  0
   22.2523   11.5486    0.0000 C   0  0  0  0  0  0  0  0  0  0  0  0
   21.5219   12.8587    0.0000 C   0  0  0  0  0  0  0  0  0  0  0  0
   20.7143   14.1228    0.0000 C   0  0  0  0  0  0  0  0  0  0  0  0
   19.8327   15.3363    0.0000 C   0  0  0  0  0  0  0  0  0  0  0  0
   18.8800   16.4949    0.0000 C   0  0  0  0  0  0  0  0  0  0  0  0
   17.8597   17.5945    0.0000 C   0  0  0  0  0  0  0  0  0  0  0  0
   16.7755   18.6311    0.0000 C   0  0  0  0  0  0  0  0  0  0  0  0
   15.6313   19.6010    0.0000 C   0  0  0  0  0  0  0  0  0  0  0  0
   14.4311   20.5008    0.0000 C   0  0  0  0  0  0  0  0  0  0  0  0
   13.1792   21.3271    0.0000 C   0  0  0  0  0  0  0  0  0  0  0  0
   11.8802   22.0771    0.0000 C   0  0  0  0  0  0  0  0  0  0  0  0
   10.5386   22.7481    0.0000 C   0  0  0  0  0  0  0  0  0  0  0  0
    9.1593   23.3376    0.0000 C   0  0  0  0  0  0  0  0  0  0  0  0
    7.7473   23.8436    0.0000 C   0  0  0  0  0  0  0  0  0  0  0  0
    6.3074   24.2642    0.0000 C   0  0  0  0  0  0  0  0  0  0  0  0
    4.8451   24.5980    0.0000 C   0  0  0  0  0  0  0  0  0  0  0  0
    3.3653   24.8437    0.0000 C   0  0  0  0  0  0  0  0  0  0  0  0
    1.8735   25.0005    0.0000 C   0  0  0  0  0  0  0  0  0  0  0  0
    0.3750   25.0678    0.0000 C   0  0  0  0  0  0  0  0  0  0  0  0
   -1.1248   25.0454    0.0000 C   0  0  0  0  0  0  0  0  0  0  0  0
   -2.6206   24.9333    0.0000 C   0  0  0  0  0  0  0  0  0  0  0  0
   -4.1070   24.7320    0.0000 C   0  0  0  0  0  0  0  0  0  0  0  0
   -5.5787   24.4421    0.0000 C   0  0  0  0  0  0  0  0  0  0  0  0
   -7.0305   24.0647    0.0000 C   0  0  0  0  0  0  0  0  0  0  0  0
   -8.4571   23.6012    0.0000 C   0  0  0  0  0  0  0  0  0  0  0  0
   -9.8534   23.0532    0.0000 C   0  0  0  0  0  0  0  0  0  0  0  0
  -11.2144   22.4226    0.0000 C   0  0  0  0  0  0  0  0  0  0  0  0
  -12.5353   21.7118    0.0000 C   0  0  0  0  0  0  0  0  0  0  0  0
  -13.8113   20.9233    0.0000 C   0  0  0  0  0  0  0  0  0  0  0  0
  -15.0379   20.0599    0.0000 C   0  0  0  0  0  0  0  0  0  0  0  0
  -16.2107   19.1246    0.0000 C   0  0  0  0  0  0  0  0  0  0  0  0
  -17.3254   18.1209    0.0000 C   0  0  0  0  0  0  0  0  0  0  0  0
  -18.3781   17.0524    0.0000 C   0  0  0  0  0  0  0  0  0  0  0  0
  -19.3650   15.9228    0.0000 C   0  0  0  0  0  0  0  0  0  0  0  0
  -20.2826   14.7362    0.0000 C   0  0  0  0  0  0  0  0  0  0  0  0
  -21.1276   13.4968    0.0000 C   0  0  0  0  0  0  0  0  0  0  0  0
  -21.8969   12.2091    0.0000 C   0  0  0  0  0  0  0  0  0  0  0  0
  -22.5879   10.8777    0.0000 C   0  0  0  0  0  0  0  0  0  0  0  0
  -23.1980    9.5074    0.0000 C   0  0  0  0  0  0  0  0  0  0  0  0
  -23.7250    8.1031    0.0000 C   0  0  0  0  0  0  0  0  0  0  0  0
  -24.1672    6.6697    0.0000 C   0  0  0  0  0  0  0  0  0  0  0  0
  -24.5228    5.2125    0.0000 C   0  0  0  0  0  0  0  0  0  0  0  0
  -24.7906    3.7366    0.0000 C   0  0  0  0  0  0  0  0  0  0  0  0
  -24.9697    2.2473    0.0000 C   0  0  0  0  0  0  0  0  0  0  0  0
  -25.0594    0.7500    0.0000 C   0  0  0  0  0  0  0  0  0  0  0  0
  -25.0594   -0.7500    0.0000 C   0  0  0  0  0  0  0  0  0  0  0  0
  -24.9697   -2.2473    0.0000 C   0  0  0  0  0  0  0  0  0  0  0  0
  -24.7906   -3.7366    0.0000 C   0  0  0  0  0  0  0  0  0  0  0  0
  -24.5228   -5.2125    0.0000 C   0  0  0  0  0  0  0  0  0  0  0  0
  -24.1672   -6.6697    0.0000 C   0  0  0  0  0  0  0  0  0  0  0  0
  -23.7250   -8.1031    0.0000 C   0  0  0  0  0  0  0  0  0  0  0  0
  -23.1980   -9.5074    0.0000 C   0  0  0  0  0  0  0  0  0  0  0  0
  -22.5879  -10.8777    0.0000 C   0  0  0  0  0  0  0  0  0  0  0  0
  -21.8969  -12.2091    0.0000 C   0  0  0  0  0  0  0  0  0  0  0  0
  -21.1276  -13.4968    0.0000 C   0  0  0  0  0  0  0  0  0  0  0  0
  -20.2826  -14.7362    0.0000 C   0  0  0  0  0  0  0  0  0  0  0  0
  -19.3650  -15.9228    0.0000 C   0  0  0  0  0  0  0  0  0  0  0  0
  -18.3781  -17.0524    0.0000 C   0  0  0  0  0  0  0  0  0  0  0  0
  -17.3254  -18.1209    0.0000 C   0  0  0  0  0  0  0  0  0  0  0  0
  -16.2107  -19.1246    0.0000 C   0  0  0  0  0  0  0  0  0  0  0  0
  -15.0379  -20.0599    0.0000 C   0  0  0  0  0  0  0  0  0  0  0  0
  -13.8113  -20.9233    0.0000 C   0  0  0  0  0  0  0  0  0  0  0  0
  -12.5353  -21.7118    0.0000 C   0  0  0  0  0  0  0  0  0  0  0  0
  -11.2144  -22.4226    0.0000 C   0  0  0  0  0  0  0  0  0  0  0  0
   -9.8534  -23.0532    0.0000 C   0  0  0  0  0  0  0  0  0  0  0  0
   -8.4571  -23.6012    0.0000 C   0  0  0  0  0  0  0  0  0  0  0  0
   -7.0305  -24.0647    0.0000 C   0  0  0  0  0  0  0  0  0  0  0  0
   -5.5787  -24.4421    0.0000 C   0  0  0  0  0  0  0  0  0  0  0  0
   -4.1070  -24.7320    0.0000 C   0  0  0  0  0  0  0  0  0  0  0  0
   -2.6206  -24.9333    0.0000 C   0  0  0  0  0  0  0  0  0  0  0  0
   -1.1248  -25.0454    0.0000 C   0  0  0  0  0  0  0  0  0  0  0  0
    0.3750  -25.0678    0.0000 C   0  0  0  0  0  0  0  0  0  0  0  0
    1.8735  -25.0005    0.0000 C   0  0  0  0  0  0  0  0  0  0  0  0
    3.3653  -24.8437    0.0000 C   0  0  0  0  0  0  0  0  0  0  0  0
    4.8451  -24.5980    0.0000 C   0  0  0  0  0  0  0  0  0  0  0  0
    6.3074  -24.2642    0.0000 C   0  0  0  0  0  0  0  0  0  0  0  0
    7.7473  -23.8436    0.0000 C   0  0  0  0  0  0  0  0  0  0  0  0
    9.1593  -23.3376    0.0000 C   0  0  0  0  0  0  0  0  0  0  0  0
   10.5386  -22.7481    0.0000 C   0  0  0  0  0  0  0  0  0  0  0  0
   11.8802  -22.0771    0.0000 C   0  0  0  0  0  0  0  0  0  0  0  0
   13.1792  -21.3271    0.0000 C   0  0  0  0  0  0  0  0  0  0  0  0
   14.4311  -20.5008    0.0000 C   0  0  0  0  0  0  0  0  0  0  0  0
   15.6313  -19.6010    0.0000 C   0  0  0  0  0  0  0  0  0  0  0  0
   16.7755  -18.6311    0.0000 C   0  0  0  0  0  0  0  0  0  0  0  0
   17.8597  -17.5945    0.0000 C   0  0  0  0  0  0  0  0  0  0  0  0
   18.8800  -16.4949    0.0000 C   0  0  0  0  0  0  0  0  0  0  0  0
   19.8327  -15.3363    0.0000 C   0  0  0  0  0  0  0  0  0  0  0  0
   20.7143  -14.1228    0.0000 C   0  0  0  0  0  0  0  0  0  0  0  0
   21.5219  -12.8587    0.0000 C   0  0  0  0  0  0  0  0  0  0  0  0
   22.2523  -11.5486    0.0000 C   0  0  0  0  0  0  0  0  0  0  0  0
   22.9032  -10.1971    0.0000 C   0  0  0  0  0  0  0  0  0  0  0  0
   23.4720   -8.8092    0.0000 C   0  0  0  0  0  0  0  0  0  0  0  0
   23.9568   -7.3897    0.0000 C   0  0  0  0  0  0  0  0  0  0  0  0
   24.3559   -5.9438    0.0000 C   0  0  0  0  0  0  0  0  0  0  0  0
   24.6677   -4.4765    0.0000 C   0  0  0  0  0  0  0  0  0  0  0  0
   24.8913   -2.9933    0.0000 C   0  0  0  0  0  0  0  0  0  0  0  0
   25.0258   -1.4993    0.0000 C   0  0  0  0  0  0  0  0  0  0  0  0
  1  2  3  0
  2  3  1  0
  3  4  1  0
  4  5  1  0
  5  6  1  0
  6  7  1  0
  7  8  1  0
  8  9  1  0
  9 10  1  0
 10 11  1  0
 11 12  1  0
 12 13  1  0
 13 14  1  0
 14 15  1  0
 15 16  1  0
 16 17  1  0
 17 18  1  0
 18 19  1  0
 19 20  1  0
 20 21  1  0
 21 22  1  0
 22 23  1  0
 23 24  1  0
 24 25  1  0
 25 26  1  0
 26 27  1  0
 27 28  1  0
 28 29  1  0
 29 30  1  0
 30 31  1  0
 31 32  1  0
 32 33  1  0
 33 34  1  0
 34 35  1  0
 35 36  1  0
 36 37  1  0
 37 38  1  0
 38 39  1  0
 39 40  1  0
 40 41  1  0
 41 42  1  0
 42 43  1  0
 43 44  1  0
 44 45  1  0
 45 46  1  0
 46 47  1  0
 47 48  1  0
 48 49  1  0
 49 50  1  0
 50 51  1  0
 51 52  1  0
 52 53  1  0
 53 54  1  0
 54 55  1  0
 55 56  1  0
 56 57  1  0
 57 58  1  0
 58 59  1  0
 59 60  1  0
 60 61  1  0
 61 62  1  0
 62 63  1  0
 63 64  1  0
 64 65  1  0
 65 66  1  0
 66 67  1  0
 67 68  1  0
 68 69  1  0
 69 70  1  0
 70 71  1  0
 71 72  1  0
 72 73  1  0
 73 74  1  0
 74 75  1  0
 75 76  1  0
 76 77  1  0
 77 78  1  0
 78 79  1  0
 79 80  1  0
 80 81  1  0
 81 82  1  0
 82 83  1  0
 83 84  1  0
 84 85  1  0
 85 86  1  0
 86 87  1  0
 87 88  1  0
 88 89  1  0
 89 90  1  0
 90 91  1  0
 91 92  1  0
 92 93  1  0
 93 94  1  0
 94 95  1  0
 95 96  1  0
 96 97  1  0
 97 98  1  0
 98 99  1  0
 99100  1  0
100101  1  0
101102  1  0
102103  1  0
103104  1  0
104105  1  0
105106  1  0
106107  1  0
107  3  1  0
M  END
>  <Title>  (319) 
idAAKIgen9

$$$$

     RDKit          2D

  7  6  0  0  0  0  0  0  0  0999 V2000
    0.0000    0.0000    0.0000 C   0  0  0  0  0  0  0  0  0  0  0  0
    1.2990    0.7500    0.0000 C   0  0  0  0  0  0  0  0  0  0  0  0
    2.5981   -0.0000    0.0000 C   0  0  0  0  0  0  0  0  0  0  0  0
    3.8971    0.7500    0.0000 C   0  0  0  0  0  0  0  0  0  0  0  0
    5.1962    1.5000    0.0000 C   0  0  0  0  0  0  0  0  0  0  0  0
    6.4952    2.2500    0.0000 C   0  0  0  0  0  0  0  0  0  0  0  0
    7.7942    1.5000    0.0000 C   0  0  0  0  0  0  0  0  0  0  0  0
  1  2  1  0
  2  3  2  3
  3  4  1  0
  4  5  3  0
  5  6  1  0
  6  7  1  0
M  END
>  <Title>  (320) 
idAAKJgen9

$$$$

     RDKit          2D

 16 17  0  0  0  0  0  0  0  0999 V2000
    1.8478   -9.0619    0.0000 C   0  0  0  0  0  0  0  0  0  0  0  0
    2.0046   -7.5702    0.0000 N   0  0  0  0  0  0  0  0  0  0  0  0
    3.3037   -6.8202    0.0000 C   0  0  0  0  0  0  0  0  0  0  0  0
    2.9918   -5.3529    0.0000 C   0  0  0  0  0  0  0  0  0  0  0  0
    1.5000   -5.1962    0.0000 C   0  0  0  0  0  0  0  0  0  0  0  0
    0.7500   -3.8971    0.0000 C   0  0  0  0  0  0  0  0  0  0  0  0
   -0.7500   -3.8971    0.0000 O   0  0  0  0  0  0  0  0  0  0  0  0
    1.5000   -2.5981    0.0000 N   0  0  0  0  0  0  0  0  0  0  0  0
    0.7500   -1.2990    0.0000 C   0  0  0  0  0  0  0  0  0  0  0  0
    1.5000    0.0000    0.0000 N   0  0  0  0  0  0  0  0  0  0  0  0
    0.7500    1.2990    0.0000 N   0  0  0  0  0  0  0  0  0  0  0  0
   -0.7500    1.2990    0.0000 N   0  0  0  0  0  0  0  0  0  0  0  0
   -1.5000    0.0000    0.0000 N   0  0  0  0  0  0  0  0  0  0  0  0
   -0.7500   -1.2990    0.0000 N   0  0  0  0  0  0  0  0  0  0  0  0
    0.8899   -6.5665    0.0000 C   0  0  0  0  0  0  0  0  0  0  0  0
   -0.5773   -6.8783    0.0000 O   0  0  0  0  0  0  0  0  0  0  0  0
  1  2  1  0
  2  3  1  0
  3  4  1  0
  4  5  1  0
  5  6  1  0
  6  7  2  0
  6  8  1  0
  8  9  1  0
  9 10  2  0
 10 11  1  0
 11 12  2  0
 12 13  1  0
 13 14  2  0
  5 15  1  0
 15 16  2  0
 15  2  1  0
 14  9  1  0
M  END
>  <Title>  (321) 
idAAKKgen9

$$$$

     RDKit          2D

 71 81  0  0  0  0  0  0  0  0999 V2000
    2.8270    2.2313    0.0000 C   0  0  0  0  0  0  0  0  0  0  0  0
    3.0875    0.7541    0.0000 C   0  0  0  0  0  0  0  0  0  0  0  0
    1.9384   -0.2101    0.0000 C   0  0  0  0  0  0  0  0  0  0  0  0
    2.1989   -1.6873    0.0000 C   0  0  0  0  0  0  0  0  0  0  0  0
    3.4276   -0.8269    0.0000 C   0  0  0  0  0  0  0  0  0  0  0  0
    0.7500   -1.2990    0.0000 C   0  0  0  0  0  0  0  0  0  0  0  0
    1.5000    0.0000    0.0000 C   0  0  0  0  0  0  0  0  0  0  0  0
    0.7500    1.2990    0.0000 C   0  0  0  0  0  0  0  0  0  0  0  0
   -0.7500    1.2990    0.0000 C   0  0  0  0  0  0  0  0  0  0  0  0
   -1.5000    0.0000    0.0000 C   0  0  0  0  0  0  0  0  0  0  0  0
   -0.7500   -1.2990    0.0000 C   0  0  0  0  0  0  0  0  0  0  0  0
   -2.1989   -1.6873    0.0000 C   0  0  0  0  0  0  0  0  0  0  0  0
   -2.1989   -0.1873    0.0000 C   0  0  0  0  0  0  0  0  0  0  0  0
   -3.4979    0.5627    0.0000 C   0  0  0  0  0  0  0  0  0  0  0  0
   -4.7970   -0.1873    0.0000 C   0  0  0  0  0  0  0  0  0  0  0  0
   -4.7970   -1.6873    0.0000 C   0  0  0  0  0  0  0  0  0  0  0  0
   -3.4979   -2.4373    0.0000 C   0  0  0  0  0  0  0  0  0  0  0  0
   -4.5586   -3.4979    0.0000 C   0  0  0  0  0  0  0  0  0  0  0  0
   -5.3086   -2.1989    0.0000 C   0  0  0  0  0  0  0  0  0  0  0  0
   -6.8086   -2.1989    0.0000 C   0  0  0  0  0  0  0  0  0  0  0  0
   -7.5586   -3.4979    0.0000 C   0  0  0  0  0  0  0  0  0  0  0  0
   -6.8086   -4.7970    0.0000 C   0  0  0  0  0  0  0  0  0  0  0  0
   -5.3086   -4.7970    0.0000 C   0  0  0  0  0  0  0  0  0  0  0  0
   -5.6968   -6.2459    0.0000 C   0  0  0  0  0  0  0  0  0  0  0  0
   -6.9959   -5.4959    0.0000 C   0  0  0  0  0  0  0  0  0  0  0  0
   -8.2949   -6.2459    0.0000 C   0  0  0  0  0  0  0  0  0  0  0  0
   -8.2949   -7.7459    0.0000 C   0  0  0  0  0  0  0  0  0  0  0  0
   -6.9959   -8.4959    0.0000 C   0  0  0  0  0  0  0  0  0  0  0  0
   -5.6968   -7.7459    0.0000 C   0  0  0  0  0  0  0  0  0  0  0  0
   -5.3086   -9.1947    0.0000 C   0  0  0  0  0  0  0  0  0  0  0  0
   -6.8086   -9.1947    0.0000 C   0  0  0  0  0  0  0  0  0  0  0  0
   -7.5586  -10.4938    0.0000 C   0  0  0  0  0  0  0  0  0  0  0  0
   -6.8086  -11.7928    0.0000 C   0  0  0  0  0  0  0  0  0  0  0  0
   -5.3086  -11.7928    0.0000 C   0  0  0  0  0  0  0  0  0  0  0  0
   -4.5586  -10.4938    0.0000 C   0  0  0  0  0  0  0  0  0  0  0  0
   -3.4979  -11.5544    0.0000 C   0  0  0  0  0  0  0  0  0  0  0  0
   -4.7970  -12.3044    0.0000 C   0  0  0  0  0  0  0  0  0  0  0  0
   -4.7970  -13.8044    0.0000 C   0  0  0  0  0  0  0  0  0  0  0  0
   -3.4979  -14.5544    0.0000 C   0  0  0  0  0  0  0  0  0  0  0  0
   -2.1989  -13.8044    0.0000 C   0  0  0  0  0  0  0  0  0  0  0  0
   -2.1989  -12.3044    0.0000 C   0  0  0  0  0  0  0  0  0  0  0  0
   -0.7500  -12.6927    0.0000 C   0  0  0  0  0  0  0  0  0  0  0  0
   -1.5000  -13.9917    0.0000 C   0  0  0  0  0  0  0  0  0  0  0  0
   -0.7500  -15.2907    0.0000 C   0  0  0  0  0  0  0  0  0  0  0  0
    0.7500  -15.2907    0.0000 C   0  0  0  0  0  0  0  0  0  0  0  0
    1.5000  -13.9917    0.0000 C   0  0  0  0  0  0  0  0  0  0  0  0
    0.7500  -12.6927    0.0000 C   0  0  0  0  0  0  0  0  0  0  0  0
    2.1989  -12.3044    0.0000 C   0  0  0  0  0  0  0  0  0  0  0  0
    2.1989  -13.8044    0.0000 C   0  0  0  0  0  0  0  0  0  0  0  0
    3.4979  -14.5544    0.0000 C   0  0  0  0  0  0  0  0  0  0  0  0
    4.7970  -13.8044    0.0000 C   0  0  0  0  0  0  0  0  0  0  0  0
    4.7970  -12.3044    0.0000 C   0  0  0  0  0  0  0  0  0  0  0  0
    3.4979  -11.5544    0.0000 C   0  0  0  0  0  0  0  0  0  0  0  0
    4.5586  -10.4938    0.0000 C   0  0  0  0  0  0  0  0  0  0  0  0
    5.3086  -11.7928    0.0000 C   0  0  0  0  0  0  0  0  0  0  0  0
    6.8086  -11.7928    0.0000 C   0  0  0  0  0  0  0  0  0  0  0  0
    7.5586  -10.4938    0.0000 C   0  0  0  0  0  0  0  0  0  0  0  0
    6.8086   -9.1947    0.0000 C   0  0  0  0  0  0  0  0  0  0  0  0
    5.3086   -9.1947    0.0000 C   0  0  0  0  0  0  0  0  0  0  0  0
    5.6968   -7.7459    0.0000 C   0  0  0  0  0  0  0  0  0  0  0  0
    5.6968   -6.2459    0.0000 C   0  0  0  0  0  0  0  0  0  0  0  0
    5.3086   -4.7970    0.0000 C   0  0  0  0  0  0  0  0  0  0  0  0
    4.5586   -3.4979    0.0000 N   0  0  0  0  0  0  0  0  0  0  0  0
    3.4979   -2.4373    0.0000 C   0  0  0  0  0  0  0  0  0  0  0  0
    4.4111   -1.2472    0.0000 C   0  0  0  0  0  0  0  0  0  0  0  0
    5.8982   -1.4430    0.0000 C   0  0  0  0  0  0  0  0  0  0  0  0
    6.4723   -2.8288    0.0000 C   0  0  0  0  0  0  0  0  0  0  0  0
    7.9594   -3.0246    0.0000 C   0  0  0  0  0  0  0  0  0  0  0  0
    8.8726   -1.8346    0.0000 C   0  0  0  0  0  0  0  0  0  0  0  0
    8.2985   -0.4488    0.0000 N   0  0  0  0  0  0  0  0  0  0  0  0
    6.8114   -0.2530    0.0000 C   0  0  0  0  0  0  0  0  0  0  0  0
  1  2  1  0
  2  3  1  0
  3  4  1  0
  4  5  1  0
  4  6  1  0
  6  7  2  0
  7  8  1  0
  8  9  2  0
  9 10  1  0
 10 11  2  0
 11 12  1  0
 12 13  2  0
 13 14  1  0
 14 15  2  0
 15 16  1  0
 16 17  2  0
 17 18  1  0
 18 19  2  0
 19 20  1  0
 20 21  2  0
 21 22  1  0
 22 23  2  0
 23 24  1  0
 24 25  2  0
 25 26  1  0
 26 27  2  0
 27 28  1  0
 28 29  2  0
 29 30  1  0
 30 31  2  0
 31 32  1  0
 32 33  2  0
 33 34  1  0
 34 35  2  0
 35 36  1  0
 36 37  2  0
 37 38  1  0
 38 39  2  0
 39 40  1  0
 40 41  2  0
 41 42  1  0
 42 43  2  0
 43 44  1  0
 44 45  2  0
 45 46  1  0
 46 47  2  0
 47 48  1  0
 48 49  2  0
 49 50  1  0
 50 51  2  0
 51 52  1  0
 52 53  2  0
 53 54  1  0
 54 55  2  0
 55 56  1  0
 56 57  2  0
 57 58  1  0
 58 59  2  0
 59 60  1  0
 60 61  1  0
 61 62  1  0
 62 63  1  0
 63 64  1  0
 64 65  1  0
 65 66  1  0
 66 67  2  0
 67 68  1  0
 68 69  2  0
 69 70  1  0
 70 71  2  0
 64  4  1  0
 71 66  1  0
 11  6  1  0
 17 12  1  0
 23 18  1  0
 29 24  1  0
 35 30  1  0
 41 36  1  0
 47 42  1  0
 53 48  1  0
 59 54  1  0
M  END
>  <Title>  (322) 
idAAKLgen9

$$$$

     RDKit          2D

  4  3  0  0  0  0  0  0  0  0999 V2000
    0.0000    0.0000    0.0000 C   0  0  0  0  0  0  0  0  0  0  0  0
    1.2990    0.7500    0.0000 C   0  0  0  0  0  0  0  0  0  0  0  0
    2.5981    1.5000    0.0000 C   0  0  0  0  0  0  0  0  0  0  0  0
    3.8971    2.2500    0.0000 C   0  0  0  0  0  0  0  0  0  0  0  0
  1  2  1  0
  2  3  3  0
  3  4  1  0
M  END
>  <Title>  (323) 
idAAKMgen9

$$$$

     RDKit          2D

 85 87  0  0  0  0  0  0  0  0999 V2000
   -2.4282    0.0675    0.0000 C   0  0  0  0  0  0  0  0  0  0  0  0
   -2.2450   -1.4213    0.0000 C   0  0  0  0  0  0  0  0  0  0  0  0
   -3.7251   -1.6650    0.0000 C   0  0  0  0  0  0  0  0  0  0  0  0
   -5.1804   -2.0286    0.0000 C   0  0  0  0  0  0  0  0  0  0  0  0
   -6.6012   -2.5095    0.0000 C   0  0  0  0  0  0  0  0  0  0  0  0
   -7.9780   -3.1047    0.0000 C   0  0  0  0  0  0  0  0  0  0  0  0
   -9.3018   -3.8101    0.0000 C   0  0  0  0  0  0  0  0  0  0  0  0
  -10.5637   -4.6210    0.0000 C   0  0  0  0  0  0  0  0  0  0  0  0
  -11.7553   -5.5322    0.0000 C   0  0  0  0  0  0  0  0  0  0  0  0
  -12.8686   -6.5374    0.0000 C   0  0  0  0  0  0  0  0  0  0  0  0
  -13.8963   -7.6300    0.0000 C   0  0  0  0  0  0  0  0  0  0  0  0
  -14.8316   -8.8027    0.0000 C   0  0  0  0  0  0  0  0  0  0  0  0
  -15.6681  -10.0478    0.0000 C   0  0  0  0  0  0  0  0  0  0  0  0
  -16.4004  -11.3569    0.0000 C   0  0  0  0  0  0  0  0  0  0  0  0
  -17.0235  -12.7214    0.0000 C   0  0  0  0  0  0  0  0  0  0  0  0
  -17.5333  -14.1321    0.0000 C   0  0  0  0  0  0  0  0  0  0  0  0
  -17.9265  -15.5796    0.0000 C   0  0  0  0  0  0  0  0  0  0  0  0
  -18.2003  -17.0544    0.0000 C   0  0  0  0  0  0  0  0  0  0  0  0
  -18.3531  -18.5466    0.0000 C   0  0  0  0  0  0  0  0  0  0  0  0
  -18.3837  -20.0463    0.0000 C   0  0  0  0  0  0  0  0  0  0  0  0
  -18.2919  -21.5435    0.0000 C   0  0  0  0  0  0  0  0  0  0  0  0
  -18.0785  -23.0282    0.0000 C   0  0  0  0  0  0  0  0  0  0  0  0
  -17.7447  -24.4906    0.0000 C   0  0  0  0  0  0  0  0  0  0  0  0
  -17.2928  -25.9209    0.0000 C   0  0  0  0  0  0  0  0  0  0  0  0
  -16.7259  -27.3097    0.0000 C   0  0  0  0  0  0  0  0  0  0  0  0
  -16.0476  -28.6476    0.0000 C   0  0  0  0  0  0  0  0  0  0  0  0
  -15.2625  -29.9257    0.0000 C   0  0  0  0  0  0  0  0  0  0  0  0
  -14.3759  -31.1356    0.0000 C   0  0  0  0  0  0  0  0  0  0  0  0
  -13.3936  -32.2693    0.0000 C   0  0  0  0  0  0  0  0  0  0  0  0
  -12.3222  -33.3191    0.0000 C   0  0  0  0  0  0  0  0  0  0  0  0
  -11.1688  -34.2780    0.0000 C   0  0  0  0  0  0  0  0  0  0  0  0
   -9.9410  -35.1398    0.0000 C   0  0  0  0  0  0  0  0  0  0  0  0
   -8.6471  -35.8986    0.0000 C   0  0  0  0  0  0  0  0  0  0  0  0
   -7.2957  -36.5494    0.0000 C   0  0  0  0  0  0  0  0  0  0  0  0
   -5.8957  -37.0879    0.0000 C   0  0  0  0  0  0  0  0  0  0  0  0
   -4.4564  -37.5105    0.0000 C   0  0  0  0  0  0  0  0  0  0  0  0
   -2.9875  -37.8144    0.0000 C   0  0  0  0  0  0  0  0  0  0  0  0
   -1.4988  -37.9975    0.0000 C   0  0  0  0  0  0  0  0  0  0  0  0
   -0.0000  -38.0587    0.0000 C   0  0  0  0  0  0  0  0  0  0  0  0
    1.4988  -37.9975    0.0000 C   0  0  0  0  0  0  0  0  0  0  0  0
    2.9875  -37.8144    0.0000 C   0  0  0  0  0  0  0  0  0  0  0  0
    4.4564  -37.5105    0.0000 C   0  0  0  0  0  0  0  0  0  0  0  0
    5.8957  -37.0879    0.0000 C   0  0  0  0  0  0  0  0  0  0  0  0
    7.2957  -36.5494    0.0000 C   0  0  0  0  0  0  0  0  0  0  0  0
    8.6471  -35.8986    0.0000 C   0  0  0  0  0  0  0  0  0  0  0  0
    9.9410  -35.1398    0.0000 C   0  0  0  0  0  0  0  0  0  0  0  0
   11.1688  -34.2780    0.0000 C   0  0  0  0  0  0  0  0  0  0  0  0
   12.3222  -33.3191    0.0000 C   0  0  0  0  0  0  0  0  0  0  0  0
   13.3936  -32.2693    0.0000 C   0  0  0  0  0  0  0  0  0  0  0  0
   14.3759  -31.1356    0.0000 C   0  0  0  0  0  0  0  0  0  0  0  0
   15.2625  -29.9257    0.0000 C   0  0  0  0  0  0  0  0  0  0  0  0
   16.0476  -28.6476    0.0000 C   0  0  0  0  0  0  0  0  0  0  0  0
   16.7259  -27.3097    0.0000 C   0  0  0  0  0  0  0  0  0  0  0  0
   17.2928  -25.9209    0.0000 C   0  0  0  0  0  0  0  0  0  0  0  0
   17.7447  -24.4906    0.0000 C   0  0  0  0  0  0  0  0  0  0  0  0
   18.0785  -23.0282    0.0000 C   0  0  0  0  0  0  0  0  0  0  0  0
   18.2919  -21.5435    0.0000 C   0  0  0  0  0  0  0  0  0  0  0  0
   18.3837  -20.0463    0.0000 C   0  0  0  0  0  0  0  0  0  0  0  0
   18.3531  -18.5466    0.0000 C   0  0  0  0  0  0  0  0  0  0  0  0
   18.2003  -17.0544    0.0000 C   0  0  0  0  0  0  0  0  0  0  0  0
   17.9265  -15.5796    0.0000 C   0  0  0  0  0  0  0  0  0  0  0  0
   17.5333  -14.1321    0.0000 C   0  0  0  0  0  0  0  0  0  0  0  0
   17.0235  -12.7214    0.0000 C   0  0  0  0  0  0  0  0  0  0  0  0
   16.4004  -11.3569    0.0000 C   0  0  0  0  0  0  0  0  0  0  0  0
   15.6681  -10.0478    0.0000 C   0  0  0  0  0  0  0  0  0  0  0  0
   14.8316   -8.8027    0.0000 C   0  0  0  0  0  0  0  0  0  0  0  0
   13.8963   -7.6300    0.0000 C   0  0  0  0  0  0  0  0  0  0  0  0
   12.8686   -6.5374    0.0000 C   0  0  0  0  0  0  0  0  0  0  0  0
   11.7553   -5.5322    0.0000 C   0  0  0  0  0  0  0  0  0  0  0  0
   10.5637   -4.6210    0.0000 C   0  0  0  0  0  0  0  0  0  0  0  0
    9.3018   -3.8101    0.0000 C   0  0  0  0  0  0  0  0  0  0  0  0
    7.9780   -3.1047    0.0000 C   0  0  0  0  0  0  0  0  0  0  0  0
    6.6012   -2.5095    0.0000 C   0  0  0  0  0  0  0  0  0  0  0  0
    5.1804   -2.0286    0.0000 C   0  0  0  0  0  0  0  0  0  0  0  0
    3.7251   -1.6650    0.0000 C   0  0  0  0  0  0  0  0  0  0  0  0
    3.9507   -3.1480    0.0000 C   0  0  0  0  0  0  0  0  0  0  0  0
    2.6100   -3.8208    0.0000 C   0  0  0  0  0  0  0  0  0  0  0  0
    1.5559   -2.7536    0.0000 C   0  0  0  0  0  0  0  0  0  0  0  0
    2.2450   -1.4213    0.0000 C   0  0  0  0  0  0  0  0  0  0  0  0
    0.7500   -1.2990    0.0000 C   0  0  0  0  0  0  0  0  0  0  0  0
    1.5000    0.0000    0.0000 C   0  0  0  0  0  0  0  0  0  0  0  0
    0.7500    1.2990    0.0000 C   0  0  0  0  0  0  0  0  0  0  0  0
   -0.7500    1.2990    0.0000 C   0  0  0  0  0  0  0  0  0  0  0  0
   -1.5000    0.0000    0.0000 C   0  0  0  0  0  0  0  0  0  0  0  0
   -0.7500   -1.2990    0.0000 C   0  0  0  0  0  0  0  0  0  0  0  0
  1  2  1  0
  2  3  1  0
  3  4  1  0
  4  5  1  0
  5  6  1  0
  6  7  1  0
  7  8  1  0
  8  9  1  0
  9 10  1  0
 10 11  1  0
 11 12  1  0
 12 13  1  0
 13 14  1  0
 14 15  1  0
 15 16  1  0
 16 17  1  0
 17 18  1  0
 18 19  1  0
 19 20  1  0
 20 21  1  0
 21 22  1  0
 22 23  1  0
 23 24  1  0
 24 25  1  0
 25 26  1  0
 26 27  1  0
 27 28  1  0
 28 29  1  0
 29 30  1  0
 30 31  1  0
 31 32  1  0
 32 33  1  0
 33 34  1  0
 34 35  1  0
 35 36  1  0
 36 37  1  0
 37 38  1  0
 38 39  1  0
 39 40  1  0
 40 41  1  0
 41 42  1  0
 42 43  1  0
 43 44  1  0
 44 45  1  0
 45 46  1  0
 46 47  1  0
 47 48  1  0
 48 49  1  0
 49 50  1  0
 50 51  1  0
 51 52  1  0
 52 53  1  0
 53 54  1  0
 54 55  1  0
 55 56  1  0
 56 57  1  0
 57 58  1  0
 58 59  1  0
 59 60  1  0
 60 61  1  0
 61 62  1  0
 62 63  1  0
 63 64  1  0
 64 65  1  0
 65 66  1  0
 66 67  2  0
 67 68  1  0
 68 69  2  0
 69 70  1  0
 70 71  2  0
 71 72  1  0
 72 73  2  0
 73 74  1  0
 74 75  2  0
 75 76  1  0
 76 77  2  0
 77 78  1  0
 78 79  2  0
 79 80  1  0
 80 81  2  0
 81 82  1  0
 82 83  2  0
 83 84  1  0
 84 85  2  0
 85  2  1  0
 79 75  1  0
 85 80  1  0
M  END
>  <Title>  (324) 
idAAKNgen9

$$$$

     RDKit          2D

 15 16  0  0  0  0  0  0  0  0999 V2000
    1.8478   -9.0619    0.0000 C   0  0  0  0  0  0  0  0  0  0  0  0
    2.0046   -7.5702    0.0000 N   0  0  0  0  0  0  0  0  0  0  0  0
    3.3037   -6.8202    0.0000 C   0  0  0  0  0  0  0  0  0  0  0  0
    2.9918   -5.3529    0.0000 C   0  0  0  0  0  0  0  0  0  0  0  0
    1.5000   -5.1962    0.0000 C   0  0  0  0  0  0  0  0  0  0  0  0
    0.7500   -3.8971    0.0000 C   0  0  0  0  0  0  0  0  0  0  0  0
   -0.7500   -3.8971    0.0000 O   0  0  0  0  0  0  0  0  0  0  0  0
    1.5000   -2.5981    0.0000 O   0  0  0  0  0  0  0  0  0  0  0  0
    0.7500   -1.2990    0.0000 C   0  0  0  0  0  0  0  0  0  0  0  0
    1.5000    0.0000    0.0000 C   0  0  0  0  0  0  0  0  0  0  0  0
    0.7500    1.2990    0.0000 C   0  0  0  0  0  0  0  0  0  0  0  0
   -0.7500    1.2990    0.0000 C   0  0  0  0  0  0  0  0  0  0  0  0
   -1.5000    0.0000    0.0000 C   0  0  0  0  0  0  0  0  0  0  0  0
   -0.7500   -1.2990    0.0000 C   0  0  0  0  0  0  0  0  0  0  0  0
    0.8899   -6.5665    0.0000 C   0  0  0  0  0  0  0  0  0  0  0  0
  1  2  1  0
  2  3  1  0
  3  4  1  0
  4  5  1  0
  5  6  1  0
  6  7  2  0
  6  8  1  0
  8  9  1  0
  9 10  2  0
 10 11  1  0
 11 12  2  0
 12 13  1  0
 13 14  2  0
  5 15  1  0
 15  2  1  0
 14  9  1  0
M  END
>  <Title>  (325) 
idAAKOgen9

$$$$

     RDKit          2D

 96100  0  0  0  0  0  0  0  0999 V2000
   -8.6259   -1.6769    0.0000 C   0  0  0  0  0  0  0  0  0  0  0  0
   -7.9979   -3.0391    0.0000 C   0  0  0  0  0  0  0  0  0  0  0  0
   -9.3344   -3.7201    0.0000 C   0  0  0  0  0  0  0  0  0  0  0  0
  -10.6133   -4.5038    0.0000 C   0  0  0  0  0  0  0  0  0  0  0  0
  -11.8269   -5.3855    0.0000 C   0  0  0  0  0  0  0  0  0  0  0  0
  -12.9675   -6.3597    0.0000 C   0  0  0  0  0  0  0  0  0  0  0  0
  -14.0281   -7.4203    0.0000 C   0  0  0  0  0  0  0  0  0  0  0  0
  -15.0023   -8.5609    0.0000 C   0  0  0  0  0  0  0  0  0  0  0  0
  -15.8840   -9.7745    0.0000 C   0  0  0  0  0  0  0  0  0  0  0  0
  -16.6677  -11.0534    0.0000 C   0  0  0  0  0  0  0  0  0  0  0  0
  -17.3487  -12.3899    0.0000 C   0  0  0  0  0  0  0  0  0  0  0  0
  -17.9227  -13.7758    0.0000 C   0  0  0  0  0  0  0  0  0  0  0  0
  -18.3863  -15.2023    0.0000 C   0  0  0  0  0  0  0  0  0  0  0  0
  -18.7364  -16.6609    0.0000 C   0  0  0  0  0  0  0  0  0  0  0  0
  -18.9711  -18.1424    0.0000 C   0  0  0  0  0  0  0  0  0  0  0  0
  -19.0888  -19.6378    0.0000 C   0  0  0  0  0  0  0  0  0  0  0  0
  -19.0888  -21.1378    0.0000 C   0  0  0  0  0  0  0  0  0  0  0  0
  -18.9711  -22.6332    0.0000 C   0  0  0  0  0  0  0  0  0  0  0  0
  -18.7364  -24.1147    0.0000 C   0  0  0  0  0  0  0  0  0  0  0  0
  -18.3863  -25.5733    0.0000 C   0  0  0  0  0  0  0  0  0  0  0  0
  -17.9227  -26.9999    0.0000 C   0  0  0  0  0  0  0  0  0  0  0  0
  -17.3487  -28.3857    0.0000 C   0  0  0  0  0  0  0  0  0  0  0  0
  -16.6677  -29.7222    0.0000 C   0  0  0  0  0  0  0  0  0  0  0  0
  -15.8840  -31.0012    0.0000 C   0  0  0  0  0  0  0  0  0  0  0  0
  -15.0023  -32.2147    0.0000 C   0  0  0  0  0  0  0  0  0  0  0  0
  -14.0281  -33.3553    0.0000 C   0  0  0  0  0  0  0  0  0  0  0  0
  -12.9675  -34.4159    0.0000 C   0  0  0  0  0  0  0  0  0  0  0  0
  -11.8269  -35.3901    0.0000 C   0  0  0  0  0  0  0  0  0  0  0  0
  -10.6133  -36.2718    0.0000 C   0  0  0  0  0  0  0  0  0  0  0  0
   -9.3344  -37.0555    0.0000 C   0  0  0  0  0  0  0  0  0  0  0  0
   -7.9979  -37.7365    0.0000 C   0  0  0  0  0  0  0  0  0  0  0  0
   -6.6120  -38.3106    0.0000 C   0  0  0  0  0  0  0  0  0  0  0  0
   -5.1855  -38.7741    0.0000 C   0  0  0  0  0  0  0  0  0  0  0  0
   -3.7269  -39.1242    0.0000 C   0  0  0  0  0  0  0  0  0  0  0  0
   -2.2454  -39.3589    0.0000 C   0  0  0  0  0  0  0  0  0  0  0  0
   -0.7500  -39.4766    0.0000 C   0  0  0  0  0  0  0  0  0  0  0  0
    0.7500  -39.4766    0.0000 C   0  0  0  0  0  0  0  0  0  0  0  0
    2.2454  -39.3589    0.0000 C   0  0  0  0  0  0  0  0  0  0  0  0
    3.7269  -39.1242    0.0000 C   0  0  0  0  0  0  0  0  0  0  0  0
    5.1855  -38.7741    0.0000 C   0  0  0  0  0  0  0  0  0  0  0  0
    6.6120  -38.3106    0.0000 C   0  0  0  0  0  0  0  0  0  0  0  0
    7.9979  -37.7365    0.0000 C   0  0  0  0  0  0  0  0  0  0  0  0
    9.3344  -37.0555    0.0000 C   0  0  0  0  0  0  0  0  0  0  0  0
   10.6133  -36.2718    0.0000 C   0  0  0  0  0  0  0  0  0  0  0  0
   11.8269  -35.3901    0.0000 C   0  0  0  0  0  0  0  0  0  0  0  0
   12.9675  -34.4159    0.0000 C   0  0  0  0  0  0  0  0  0  0  0  0
   14.0281  -33.3553    0.0000 C   0  0  0  0  0  0  0  0  0  0  0  0
   15.0023  -32.2147    0.0000 C   0  0  0  0  0  0  0  0  0  0  0  0
   15.8840  -31.0012    0.0000 C   0  0  0  0  0  0  0  0  0  0  0  0
   16.6677  -29.7222    0.0000 C   0  0  0  0  0  0  0  0  0  0  0  0
   17.3487  -28.3857    0.0000 C   0  0  0  0  0  0  0  0  0  0  0  0
   17.9227  -26.9999    0.0000 C   0  0  0  0  0  0  0  0  0  0  0  0
   18.3863  -25.5733    0.0000 C   0  0  0  0  0  0  0  0  0  0  0  0
   18.7364  -24.1147    0.0000 C   0  0  0  0  0  0  0  0  0  0  0  0
   18.9711  -22.6332    0.0000 C   0  0  0  0  0  0  0  0  0  0  0  0
   19.0888  -21.1378    0.0000 C   0  0  0  0  0  0  0  0  0  0  0  0
   19.0888  -19.6378    0.0000 C   0  0  0  0  0  0  0  0  0  0  0  0
   18.9711  -18.1424    0.0000 C   0  0  0  0  0  0  0  0  0  0  0  0
   18.7364  -16.6609    0.0000 C   0  0  0  0  0  0  0  0  0  0  0  0
   18.3863  -15.2023    0.0000 C   0  0  0  0  0  0  0  0  0  0  0  0
   17.9227  -13.7758    0.0000 C   0  0  0  0  0  0  0  0  0  0  0  0
   17.3487  -12.3899    0.0000 C   0  0  0  0  0  0  0  0  0  0  0  0
   16.6677  -11.0534    0.0000 C   0  0  0  0  0  0  0  0  0  0  0  0
   15.8840   -9.7745    0.0000 C   0  0  0  0  0  0  0  0  0  0  0  0
   15.0023   -8.5609    0.0000 C   0  0  0  0  0  0  0  0  0  0  0  0
   14.0281   -7.4203    0.0000 C   0  0  0  0  0  0  0  0  0  0  0  0
   12.9675   -6.3597    0.0000 C   0  0  0  0  0  0  0  0  0  0  0  0
   11.8269   -5.3855    0.0000 C   0  0  0  0  0  0  0  0  0  0  0  0
   10.6133   -4.5038    0.0000 C   0  0  0  0  0  0  0  0  0  0  0  0
    9.3344   -3.7201    0.0000 C   0  0  0  0  0  0  0  0  0  0  0  0
    7.9979   -3.0391    0.0000 C   0  0  0  0  0  0  0  0  0  0  0  0
    6.6120   -2.4651    0.0000 C   0  0  0  0  0  0  0  0  0  0  0  0
    5.1855   -2.0015    0.0000 C   0  0  0  0  0  0  0  0  0  0  0  0
    3.7269   -1.6514    0.0000 C   0  0  0  0  0  0  0  0  0  0  0  0
    3.9616   -3.1329    0.0000 C   0  0  0  0  0  0  0  0  0  0  0  0
    2.6251   -3.8139    0.0000 C   0  0  0  0  0  0  0  0  0  0  0  0
    1.5644   -2.7532    0.0000 C   0  0  0  0  0  0  0  0  0  0  0  0
    2.2454   -1.4167    0.0000 C   0  0  0  0  0  0  0  0  0  0  0  0
    0.7500   -1.2990    0.0000 C   0  0  0  0  0  0  0  0  0  0  0  0
    1.5000    0.0000    0.0000 C   0  0  0  0  0  0  0  0  0  0  0  0
    0.7500    1.2990    0.0000 C   0  0  0  0  0  0  0  0  0  0  0  0
   -0.7500    1.2990    0.0000 C   0  0  0  0  0  0  0  0  0  0  0  0
   -1.5000    0.0000    0.0000 C   0  0  0  0  0  0  0  0  0  0  0  0
   -0.7500   -1.2990    0.0000 C   0  0  0  0  0  0  0  0  0  0  0  0
   -2.2454   -1.4167    0.0000 C   0  0  0  0  0  0  0  0  0  0  0  0
   -1.3014   -2.5824    0.0000 C   0  0  0  0  0  0  0  0  0  0  0  0
   -1.8389   -3.9828    0.0000 C   0  0  0  0  0  0  0  0  0  0  0  0
   -3.3205   -4.2175    0.0000 C   0  0  0  0  0  0  0  0  0  0  0  0
   -4.2645   -3.0517    0.0000 C   0  0  0  0  0  0  0  0  0  0  0  0
   -3.7269   -1.6514    0.0000 C   0  0  0  0  0  0  0  0  0  0  0  0
   -5.1855   -2.0015    0.0000 C   0  0  0  0  0  0  0  0  0  0  0  0
   -4.8736   -0.5343    0.0000 C   0  0  0  0  0  0  0  0  0  0  0  0
   -5.9883    0.4694    0.0000 C   0  0  0  0  0  0  0  0  0  0  0  0
   -7.4149    0.0058    0.0000 C   0  0  0  0  0  0  0  0  0  0  0  0
   -7.7268   -1.4614    0.0000 C   0  0  0  0  0  0  0  0  0  0  0  0
   -6.6120   -2.4651    0.0000 C   0  0  0  0  0  0  0  0  0  0  0  0
  1  2  1  0
  2  3  1  0
  3  4  1  0
  4  5  1  0
  5  6  1  0
  6  7  1  0
  7  8  1  0
  8  9  1  0
  9 10  1  0
 10 11  1  0
 11 12  1  0
 12 13  1  0
 13 14  1  0
 14 15  1  0
 15 16  1  0
 16 17  1  0
 17 18  1  0
 18 19  1  0
 19 20  1  0
 20 21  1  0
 21 22  1  0
 22 23  1  0
 23 24  1  0
 24 25  1  0
 25 26  1  0
 26 27  1  0
 27 28  1  0
 28 29  1  0
 29 30  1  0
 30 31  1  0
 31 32  1  0
 32 33  1  0
 33 34  1  0
 34 35  1  0
 35 36  1  0
 36 37  1  0
 37 38  1  0
 38 39  1  0
 39 40  1  0
 40 41  1  0
 41 42  1  0
 42 43  1  0
 43 44  1  0
 44 45  1  0
 45 46  1  0
 46 47  1  0
 47 48  1  0
 48 49  1  0
 49 50  1  0
 50 51  1  0
 51 52  1  0
 52 53  1  0
 53 54  1  0
 54 55  1  0
 55 56  1  0
 56 57  1  0
 57 58  1  0
 58 59  1  0
 59 60  1  0
 60 61  2  0
 61 62  1  0
 62 63  2  0
 63 64  1  0
 64 65  1  0
 65 66  1  0
 66 67  1  0
 67 68  2  0
 68 69  1  0
 69 70  2  0
 70 71  1  0
 71 72  2  0
 72 73  1  0
 73 74  2  0
 74 75  1  0
 75 76  2  0
 76 77  1  0
 77 78  2  0
 78 79  1  0
 79 80  2  0
 80 81  1  0
 81 82  2  0
 82 83  1  0
 83 84  2  0
 84 85  1  0
 85 86  2  0
 86 87  1  0
 87 88  2  0
 88 89  1  0
 89 90  2  0
 90 91  1  0
 91 92  2  0
 92 93  1  0
 93 94  2  0
 94 95  1  0
 95 96  2  0
 96  2  1  0
 78 74  1  0
 84 79  1  0
 90 85  1  0
 96 91  1  0
M  END
>  <Title>  (326) 
idAAKPgen9

$$$$

     RDKit          2D

 10 10  0  0  0  0  0  0  0  0999 V2000
    7.2760   -2.5981    0.0000 C   0  0  0  0  0  0  0  0  0  0  0  0
    5.7760   -2.5981    0.0000 C   0  0  0  0  0  0  0  0  0  0  0  0
    5.0260   -1.2990    0.0000 C   0  0  0  0  0  0  0  0  0  0  0  0
    3.5260   -1.2990    0.0000 N   0  0  0  0  0  0  0  0  0  0  0  0
    2.7760    0.0000    0.0000 C   0  0  0  0  0  0  0  0  0  0  0  0
    1.2760    0.0000    0.0000 C   0  0  0  0  0  0  0  0  0  0  0  0
    0.3943    1.2135    0.0000 C   0  0  0  0  0  0  0  0  0  0  0  0
   -1.0323    0.7500    0.0000 C   0  0  0  0  0  0  0  0  0  0  0  0
   -1.0323   -0.7500    0.0000 C   0  0  0  0  0  0  0  0  0  0  0  0
    0.3943   -1.2135    0.0000 C   0  0  0  0  0  0  0  0  0  0  0  0
  1  2  1  0
  2  3  1  0
  3  4  1  0
  4  5  1  0
  5  6  1  0
  6  7  2  0
  7  8  1  0
  8  9  2  0
  9 10  1  0
 10  6  1  0
M  END
>  <Title>  (327) 
idAAKQgen9

$$$$

     RDKit          2D

  8  8  0  0  0  0  0  0  0  0999 V2000
    2.7938   -3.5702    0.0000 C   0  0  0  0  0  0  0  0  0  0  0  0
    1.7331   -2.5095    0.0000 C   0  0  0  0  0  0  0  0  0  0  0  0
    2.1213   -1.0607    0.0000 C   0  0  0  0  0  0  0  0  0  0  0  0
    1.0607    0.0000    0.0000 C   0  0  0  0  0  0  0  0  0  0  0  0
    2.1213    1.0607    0.0000 C   0  0  0  0  0  0  0  0  0  0  0  0
   -0.0000   -1.0607    0.0000 C   0  0  0  0  0  0  0  0  0  0  0  0
   -1.0607    0.0000    0.0000 C   0  0  0  0  0  0  0  0  0  0  0  0
    0.0000    1.0607    0.0000 N   0  0  0  0  0  0  0  0  0  0  0  0
  1  2  1  0
  2  3  1  0
  3  4  1  0
  4  5  1  0
  4  6  1  0
  6  7  1  0
  7  8  1  0
  8  4  1  0
M  END
>  <Title>  (328) 
idAAKRgen9

$$$$

     RDKit          2D

 11 10  0  0  0  0  0  0  0  0999 V2000
    0.0000    0.0000    0.0000 C   0  0  0  0  0  0  0  0  0  0  0  0
    1.2990    0.7500    0.0000 C   0  0  0  0  0  0  0  0  0  0  0  0
    2.5981   -0.0000    0.0000 C   0  0  0  0  0  0  0  0  0  0  0  0
    3.8971    0.7500    0.0000 C   0  0  0  0  0  0  0  0  0  0  0  0
    5.1962   -0.0000    0.0000 C   0  0  0  0  0  0  0  0  0  0  0  0
    5.1962   -1.5000    0.0000 O   0  0  0  0  0  0  0  0  0  0  0  0
    6.4952    0.7500    0.0000 C   0  0  0  0  0  0  0  0  0  0  0  0
    7.7942   -0.0000    0.0000 C   0  0  0  0  0  0  0  0  0  0  0  0
    9.0933   -0.7500    0.0000 C   0  0  0  0  0  0  0  0  0  0  0  0
    7.0442   -1.2990    0.0000 F   0  0  0  0  0  0  0  0  0  0  0  0
    8.5442    1.2990    0.0000 F   0  0  0  0  0  0  0  0  0  0  0  0
  1  2  1  0
  2  3  1  0
  3  4  1  0
  4  5  1  0
  5  6  2  0
  5  7  1  0
  7  8  1  0
  8  9  1  0
  8 10  1  0
  8 11  1  0
M  END
>  <Title>  (329) 
idAAKSgen9

$$$$

     RDKit          2D

 83 83  0  0  0  0  0  0  0  0999 V2000
   21.0808    0.0000    0.0000 C   0  0  0  0  0  0  0  0  0  0  0  0
   19.5808    0.0000    0.0000 C   0  0  0  0  0  0  0  0  0  0  0  0
   19.5234   -1.4989    0.0000 C   0  0  0  0  0  0  0  0  0  0  0  0
   19.3514   -2.9890    0.0000 C   0  0  0  0  0  0  0  0  0  0  0  0
   19.0658   -4.4616    0.0000 C   0  0  0  0  0  0  0  0  0  0  0  0
   18.6683   -5.9079    0.0000 C   0  0  0  0  0  0  0  0  0  0  0  0
   18.1613   -7.3197    0.0000 C   0  0  0  0  0  0  0  0  0  0  0  0
   17.5477   -8.6884    0.0000 C   0  0  0  0  0  0  0  0  0  0  0  0
   16.8311  -10.0062    0.0000 C   0  0  0  0  0  0  0  0  0  0  0  0
   16.0158  -11.2652    0.0000 C   0  0  0  0  0  0  0  0  0  0  0  0
   15.1064  -12.4582    0.0000 C   0  0  0  0  0  0  0  0  0  0  0  0
   14.1084  -13.5780    0.0000 C   0  0  0  0  0  0  0  0  0  0  0  0
   13.0276  -14.6181    0.0000 C   0  0  0  0  0  0  0  0  0  0  0  0
   11.8704  -15.5725    0.0000 C   0  0  0  0  0  0  0  0  0  0  0  0
   10.6435  -16.4355    0.0000 C   0  0  0  0  0  0  0  0  0  0  0  0
    9.3542  -17.2020    0.0000 C   0  0  0  0  0  0  0  0  0  0  0  0
    8.0099  -17.8676    0.0000 C   0  0  0  0  0  0  0  0  0  0  0  0
    6.6187  -18.4283    0.0000 C   0  0  0  0  0  0  0  0  0  0  0  0
    5.1886  -18.8809    0.0000 C   0  0  0  0  0  0  0  0  0  0  0  0
    3.7280  -19.2227    0.0000 C   0  0  0  0  0  0  0  0  0  0  0  0
    2.2456  -19.4517    0.0000 C   0  0  0  0  0  0  0  0  0  0  0  0
    0.7500  -19.5665    0.0000 C   0  0  0  0  0  0  0  0  0  0  0  0
   -0.7500  -19.5665    0.0000 C   0  0  0  0  0  0  0  0  0  0  0  0
   -2.2456  -19.4517    0.0000 C   0  0  0  0  0  0  0  0  0  0  0  0
   -3.7280  -19.2227    0.0000 C   0  0  0  0  0  0  0  0  0  0  0  0
   -5.1886  -18.8809    0.0000 C   0  0  0  0  0  0  0  0  0  0  0  0
   -6.6187  -18.4283    0.0000 C   0  0  0  0  0  0  0  0  0  0  0  0
   -8.0099  -17.8676    0.0000 C   0  0  0  0  0  0  0  0  0  0  0  0
   -9.3542  -17.2020    0.0000 C   0  0  0  0  0  0  0  0  0  0  0  0
  -10.6435  -16.4355    0.0000 C   0  0  0  0  0  0  0  0  0  0  0  0
  -11.8704  -15.5725    0.0000 C   0  0  0  0  0  0  0  0  0  0  0  0
  -13.0276  -14.6181    0.0000 C   0  0  0  0  0  0  0  0  0  0  0  0
  -14.1084  -13.5780    0.0000 C   0  0  0  0  0  0  0  0  0  0  0  0
  -15.1064  -12.4582    0.0000 C   0  0  0  0  0  0  0  0  0  0  0  0
  -16.0158  -11.2652    0.0000 C   0  0  0  0  0  0  0  0  0  0  0  0
  -16.8311  -10.0062    0.0000 C   0  0  0  0  0  0  0  0  0  0  0  0
  -17.5477   -8.6884    0.0000 C   0  0  0  0  0  0  0  0  0  0  0  0
  -18.1613   -7.3197    0.0000 C   0  0  0  0  0  0  0  0  0  0  0  0
  -18.6683   -5.9079    0.0000 C   0  0  0  0  0  0  0  0  0  0  0  0
  -19.0658   -4.4616    0.0000 C   0  0  0  0  0  0  0  0  0  0  0  0
  -19.3514   -2.9890    0.0000 C   0  0  0  0  0  0  0  0  0  0  0  0
  -19.5234   -1.4989    0.0000 C   0  0  0  0  0  0  0  0  0  0  0  0
  -19.5808   -0.0000    0.0000 C   0  0  0  0  0  0  0  0  0  0  0  0
  -19.5234    1.4989    0.0000 C   0  0  0  0  0  0  0  0  0  0  0  0
  -19.3514    2.9890    0.0000 C   0  0  0  0  0  0  0  0  0  0  0  0
  -19.0658    4.4616    0.0000 C   0  0  0  0  0  0  0  0  0  0  0  0
  -18.6683    5.9079    0.0000 C   0  0  0  0  0  0  0  0  0  0  0  0
  -18.1613    7.3197    0.0000 C   0  0  0  0  0  0  0  0  0  0  0  0
  -17.5477    8.6884    0.0000 C   0  0  0  0  0  0  0  0  0  0  0  0
  -16.8311   10.0062    0.0000 C   0  0  0  0  0  0  0  0  0  0  0  0
  -16.0158   11.2652    0.0000 C   0  0  0  0  0  0  0  0  0  0  0  0
  -15.1064   12.4582    0.0000 C   0  0  0  0  0  0  0  0  0  0  0  0
  -14.1084   13.5780    0.0000 C   0  0  0  0  0  0  0  0  0  0  0  0
  -13.0276   14.6181    0.0000 C   0  0  0  0  0  0  0  0  0  0  0  0
  -11.8704   15.5725    0.0000 C   0  0  0  0  0  0  0  0  0  0  0  0
  -10.6435   16.4355    0.0000 C   0  0  0  0  0  0  0  0  0  0  0  0
   -9.3542   17.2020    0.0000 C   0  0  0  0  0  0  0  0  0  0  0  0
   -8.0099   17.8676    0.0000 C   0  0  0  0  0  0  0  0  0  0  0  0
   -6.6187   18.4283    0.0000 C   0  0  0  0  0  0  0  0  0  0  0  0
   -5.1886   18.8809    0.0000 C   0  0  0  0  0  0  0  0  0  0  0  0
   -3.7280   19.2227    0.0000 C   0  0  0  0  0  0  0  0  0  0  0  0
   -2.2456   19.4517    0.0000 C   0  0  0  0  0  0  0  0  0  0  0  0
   -0.7500   19.5665    0.0000 C   0  0  0  0  0  0  0  0  0  0  0  0
    0.7500   19.5665    0.0000 C   0  0  0  0  0  0  0  0  0  0  0  0
    2.2456   19.4517    0.0000 C   0  0  0  0  0  0  0  0  0  0  0  0
    3.7280   19.2227    0.0000 C   0  0  0  0  0  0  0  0  0  0  0  0
    5.1886   18.8809    0.0000 C   0  0  0  0  0  0  0  0  0  0  0  0
    6.6187   18.4283    0.0000 C   0  0  0  0  0  0  0  0  0  0  0  0
    8.0099   17.8676    0.0000 C   0  0  0  0  0  0  0  0  0  0  0  0
    9.3542   17.2020    0.0000 C   0  0  0  0  0  0  0  0  0  0  0  0
   10.6435   16.4355    0.0000 C   0  0  0  0  0  0  0  0  0  0  0  0
   11.8704   15.5725    0.0000 C   0  0  0  0  0  0  0  0  0  0  0  0
   13.0276   14.6181    0.0000 C   0  0  0  0  0  0  0  0  0  0  0  0
   14.1084   13.5780    0.0000 C   0  0  0  0  0  0  0  0  0  0  0  0
   15.1064   12.4582    0.0000 C   0  0  0  0  0  0  0  0  0  0  0  0
   16.0158   11.2652    0.0000 C   0  0  0  0  0  0  0  0  0  0  0  0
   16.8311   10.0062    0.0000 C   0  0  0  0  0  0  0  0  0  0  0  0
   17.5477    8.6884    0.0000 C   0  0  0  0  0  0  0  0  0  0  0  0
   18.1613    7.3197    0.0000 C   0  0  0  0  0  0  0  0  0  0  0  0
   18.6683    5.9079    0.0000 C   0  0  0  0  0  0  0  0  0  0  0  0
   19.0658    4.4616    0.0000 C   0  0  0  0  0  0  0  0  0  0  0  0
   19.3514    2.9890    0.0000 C   0  0  0  0  0  0  0  0  0  0  0  0
   19.5234    1.4989    0.0000 C   0  0  0  0  0  0  0  0  0  0  0  0
  1  2  1  0
  2  3  2  0
  3  4  1  0
  4  5  1  0
  5  6  1  0
  6  7  1  0
  7  8  1  0
  8  9  1  0
  9 10  1  0
 10 11  1  0
 11 12  1  0
 12 13  1  0
 13 14  1  0
 14 15  1  0
 15 16  1  0
 16 17  1  0
 17 18  1  0
 18 19  1  0
 19 20  1  0
 20 21  1  0
 21 22  1  0
 22 23  1  0
 23 24  1  0
 24 25  1  0
 25 26  1  0
 26 27  1  0
 27 28  1  0
 28 29  1  0
 29 30  1  0
 30 31  1  0
 31 32  1  0
 32 33  1  0
 33 34  1  0
 34 35  1  0
 35 36  1  0
 36 37  1  0
 37 38  1  0
 38 39  1  0
 39 40  1  0
 40 41  1  0
 41 42  1  0
 42 43  1  0
 43 44  1  0
 44 45  1  0
 45 46  1  0
 46 47  1  0
 47 48  1  0
 48 49  1  0
 49 50  1  0
 50 51  1  0
 51 52  1  0
 52 53  1  0
 53 54  1  0
 54 55  1  0
 55 56  1  0
 56 57  1  0
 57 58  1  0
 58 59  1  0
 59 60  1  0
 60 61  1  0
 61 62  1  0
 62 63  1  0
 63 64  1  0
 64 65  1  0
 65 66  1  0
 66 67  1  0
 67 68  1  0
 68 69  1  0
 69 70  1  0
 70 71  1  0
 71 72  1  0
 72 73  1  0
 73 74  1  0
 74 75  1  0
 75 76  1  0
 76 77  1  0
 77 78  1  0
 78 79  1  0
 79 80  1  0
 80 81  1  0
 81 82  1  0
 82 83  1  0
 83  2  1  0
M  END
>  <Title>  (330) 
idAAKTgen9

$$$$

     RDKit          2D

122122  0  0  0  0  0  0  0  0999 V2000
   30.3899    0.0000    0.0000 C   0  0  0  0  0  0  0  0  0  0  0  0
   28.8899    0.0000    0.0000 C   0  0  0  0  0  0  0  0  0  0  0  0
   28.8509    1.4995    0.0000 C   0  0  0  0  0  0  0  0  0  0  0  0
   28.7342    2.9949    0.0000 C   0  0  0  0  0  0  0  0  0  0  0  0
   28.5400    4.4823    0.0000 C   0  0  0  0  0  0  0  0  0  0  0  0
   28.2689    5.9576    0.0000 C   0  0  0  0  0  0  0  0  0  0  0  0
   27.9216    7.4169    0.0000 C   0  0  0  0  0  0  0  0  0  0  0  0
   27.4990    8.8561    0.0000 C   0  0  0  0  0  0  0  0  0  0  0  0
   27.0023   10.2715    0.0000 C   0  0  0  0  0  0  0  0  0  0  0  0
   26.4327   11.6591    0.0000 C   0  0  0  0  0  0  0  0  0  0  0  0
   25.7919   13.0154    0.0000 C   0  0  0  0  0  0  0  0  0  0  0  0
   25.0816   14.3365    0.0000 C   0  0  0  0  0  0  0  0  0  0  0  0
   24.3037   15.6190    0.0000 C   0  0  0  0  0  0  0  0  0  0  0  0
   23.4603   16.8594    0.0000 C   0  0  0  0  0  0  0  0  0  0  0  0
   22.5536   18.0544    0.0000 C   0  0  0  0  0  0  0  0  0  0  0  0
   21.5861   19.2007    0.0000 C   0  0  0  0  0  0  0  0  0  0  0  0
   20.5604   20.2952    0.0000 C   0  0  0  0  0  0  0  0  0  0  0  0
   19.4793   21.3350    0.0000 C   0  0  0  0  0  0  0  0  0  0  0  0
   18.3457   22.3173    0.0000 C   0  0  0  0  0  0  0  0  0  0  0  0
   17.1626   23.2394    0.0000 C   0  0  0  0  0  0  0  0  0  0  0  0
   15.9332   24.0989    0.0000 C   0  0  0  0  0  0  0  0  0  0  0  0
   14.6609   24.8934    0.0000 C   0  0  0  0  0  0  0  0  0  0  0  0
   13.3491   25.6208    0.0000 C   0  0  0  0  0  0  0  0  0  0  0  0
   12.0013   26.2791    0.0000 C   0  0  0  0  0  0  0  0  0  0  0  0
   10.6211   26.8666    0.0000 C   0  0  0  0  0  0  0  0  0  0  0  0
    9.2123   27.3817    0.0000 C   0  0  0  0  0  0  0  0  0  0  0  0
    7.7787   27.8229    0.0000 C   0  0  0  0  0  0  0  0  0  0  0  0
    6.3241   28.1892    0.0000 C   0  0  0  0  0  0  0  0  0  0  0  0
    4.8524   28.4794    0.0000 C   0  0  0  0  0  0  0  0  0  0  0  0
    3.3677   28.6929    0.0000 C   0  0  0  0  0  0  0  0  0  0  0  0
    1.8739   28.8290    0.0000 C   0  0  0  0  0  0  0  0  0  0  0  0
    0.3750   28.8874    0.0000 C   0  0  0  0  0  0  0  0  0  0  0  0
   -1.1248   28.8680    0.0000 C   0  0  0  0  0  0  0  0  0  0  0  0
   -2.6217   28.7707    0.0000 C   0  0  0  0  0  0  0  0  0  0  0  0
   -4.1115   28.5958    0.0000 C   0  0  0  0  0  0  0  0  0  0  0  0
   -5.5901   28.3439    0.0000 C   0  0  0  0  0  0  0  0  0  0  0  0
   -7.0538   28.0155    0.0000 C   0  0  0  0  0  0  0  0  0  0  0  0
   -8.4984   27.6116    0.0000 C   0  0  0  0  0  0  0  0  0  0  0  0
   -9.9201   27.1333    0.0000 C   0  0  0  0  0  0  0  0  0  0  0  0
  -11.3150   26.5819    0.0000 C   0  0  0  0  0  0  0  0  0  0  0  0
  -12.6795   25.9587    0.0000 C   0  0  0  0  0  0  0  0  0  0  0  0
  -14.0097   25.2656    0.0000 C   0  0  0  0  0  0  0  0  0  0  0  0
  -15.3022   24.5044    0.0000 C   0  0  0  0  0  0  0  0  0  0  0  0
  -16.5535   23.6771    0.0000 C   0  0  0  0  0  0  0  0  0  0  0  0
  -17.7601   22.7860    0.0000 C   0  0  0  0  0  0  0  0  0  0  0  0
  -18.9188   21.8335    0.0000 C   0  0  0  0  0  0  0  0  0  0  0  0
  -20.0266   20.8221    0.0000 C   0  0  0  0  0  0  0  0  0  0  0  0
  -21.0803   19.7546    0.0000 C   0  0  0  0  0  0  0  0  0  0  0  0
  -22.0773   18.6338    0.0000 C   0  0  0  0  0  0  0  0  0  0  0  0
  -23.0147   17.4628    0.0000 C   0  0  0  0  0  0  0  0  0  0  0  0
  -23.8900   16.2447    0.0000 C   0  0  0  0  0  0  0  0  0  0  0  0
  -24.7010   14.9828    0.0000 C   0  0  0  0  0  0  0  0  0  0  0  0
  -25.4454   13.6806    0.0000 C   0  0  0  0  0  0  0  0  0  0  0  0
  -26.1211   12.3414    0.0000 C   0  0  0  0  0  0  0  0  0  0  0  0
  -26.7265   10.9690    0.0000 C   0  0  0  0  0  0  0  0  0  0  0  0
  -27.2598    9.5670    0.0000 C   0  0  0  0  0  0  0  0  0  0  0  0
  -27.7196    8.1392    0.0000 C   0  0  0  0  0  0  0  0  0  0  0  0
  -28.1047    6.6895    0.0000 C   0  0  0  0  0  0  0  0  0  0  0  0
  -28.4140    5.2217    0.0000 C   0  0  0  0  0  0  0  0  0  0  0  0
  -28.6468    3.7399    0.0000 C   0  0  0  0  0  0  0  0  0  0  0  0
  -28.8023    2.2480    0.0000 C   0  0  0  0  0  0  0  0  0  0  0  0
  -28.8801    0.7500    0.0000 C   0  0  0  0  0  0  0  0  0  0  0  0
  -28.8801   -0.7500    0.0000 C   0  0  0  0  0  0  0  0  0  0  0  0
  -28.8023   -2.2480    0.0000 C   0  0  0  0  0  0  0  0  0  0  0  0
  -28.6468   -3.7399    0.0000 C   0  0  0  0  0  0  0  0  0  0  0  0
  -28.4140   -5.2217    0.0000 C   0  0  0  0  0  0  0  0  0  0  0  0
  -28.1047   -6.6895    0.0000 C   0  0  0  0  0  0  0  0  0  0  0  0
  -27.7196   -8.1392    0.0000 C   0  0  0  0  0  0  0  0  0  0  0  0
  -27.2598   -9.5670    0.0000 C   0  0  0  0  0  0  0  0  0  0  0  0
  -26.7265  -10.9690    0.0000 C   0  0  0  0  0  0  0  0  0  0  0  0
  -26.1211  -12.3414    0.0000 C   0  0  0  0  0  0  0  0  0  0  0  0
  -25.4454  -13.6806    0.0000 C   0  0  0  0  0  0  0  0  0  0  0  0
  -24.7010  -14.9828    0.0000 C   0  0  0  0  0  0  0  0  0  0  0  0
  -23.8900  -16.2447    0.0000 C   0  0  0  0  0  0  0  0  0  0  0  0
  -23.0147  -17.4628    0.0000 C   0  0  0  0  0  0  0  0  0  0  0  0
  -22.0773  -18.6338    0.0000 C   0  0  0  0  0  0  0  0  0  0  0  0
  -21.0803  -19.7546    0.0000 C   0  0  0  0  0  0  0  0  0  0  0  0
  -20.0266  -20.8221    0.0000 C   0  0  0  0  0  0  0  0  0  0  0  0
  -18.9188  -21.8335    0.0000 C   0  0  0  0  0  0  0  0  0  0  0  0
  -17.7601  -22.7860    0.0000 C   0  0  0  0  0  0  0  0  0  0  0  0
  -16.5535  -23.6771    0.0000 C   0  0  0  0  0  0  0  0  0  0  0  0
  -15.3022  -24.5044    0.0000 C   0  0  0  0  0  0  0  0  0  0  0  0
  -14.0097  -25.2656    0.0000 C   0  0  0  0  0  0  0  0  0  0  0  0
  -12.6795  -25.9587    0.0000 C   0  0  0  0  0  0  0  0  0  0  0  0
  -11.3150  -26.5819    0.0000 C   0  0  0  0  0  0  0  0  0  0  0  0
   -9.9201  -27.1333    0.0000 C   0  0  0  0  0  0  0  0  0  0  0  0
   -8.4984  -27.6116    0.0000 C   0  0  0  0  0  0  0  0  0  0  0  0
   -7.0538  -28.0155    0.0000 C   0  0  0  0  0  0  0  0  0  0  0  0
   -5.5901  -28.3439    0.0000 C   0  0  0  0  0  0  0  0  0  0  0  0
   -4.1115  -28.5958    0.0000 C   0  0  0  0  0  0  0  0  0  0  0  0
   -2.6217  -28.7707    0.0000 C   0  0  0  0  0  0  0  0  0  0  0  0
   -1.1248  -28.8680    0.0000 C   0  0  0  0  0  0  0  0  0  0  0  0
    0.3750  -28.8874    0.0000 C   0  0  0  0  0  0  0  0  0  0  0  0
    1.8739  -28.8290    0.0000 C   0  0  0  0  0  0  0  0  0  0  0  0
    3.3677  -28.6929    0.0000 C   0  0  0  0  0  0  0  0  0  0  0  0
    4.8524  -28.4794    0.0000 C   0  0  0  0  0  0  0  0  0  0  0  0
    6.3241  -28.1892    0.0000 C   0  0  0  0  0  0  0  0  0  0  0  0
    7.7787  -27.8229    0.0000 C   0  0  0  0  0  0  0  0  0  0  0  0
    9.2123  -27.3817    0.0000 C   0  0  0  0  0  0  0  0  0  0  0  0
   10.6211  -26.8666    0.0000 C   0  0  0  0  0  0  0  0  0  0  0  0
   12.0013  -26.2791    0.0000 C   0  0  0  0  0  0  0  0  0  0  0  0
   13.3491  -25.6208    0.0000 C   0  0  0  0  0  0  0  0  0  0  0  0
   14.6609  -24.8934    0.0000 C   0  0  0  0  0  0  0  0  0  0  0  0
   15.9332  -24.0989    0.0000 C   0  0  0  0  0  0  0  0  0  0  0  0
   17.1626  -23.2394    0.0000 C   0  0  0  0  0  0  0  0  0  0  0  0
   18.3457  -22.3173    0.0000 C   0  0  0  0  0  0  0  0  0  0  0  0
   19.4793  -21.3350    0.0000 C   0  0  0  0  0  0  0  0  0  0  0  0
   20.5604  -20.2952    0.0000 C   0  0  0  0  0  0  0  0  0  0  0  0
   21.5861  -19.2007    0.0000 C   0  0  0  0  0  0  0  0  0  0  0  0
   22.5536  -18.0544    0.0000 C   0  0  0  0  0  0  0  0  0  0  0  0
   23.4603  -16.8594    0.0000 C   0  0  0  0  0  0  0  0  0  0  0  0
   24.3037  -15.6190    0.0000 C   0  0  0  0  0  0  0  0  0  0  0  0
   25.0816  -14.3365    0.0000 C   0  0  0  0  0  0  0  0  0  0  0  0
   25.7919  -13.0154    0.0000 C   0  0  0  0  0  0  0  0  0  0  0  0
   26.4327  -11.6591    0.0000 C   0  0  0  0  0  0  0  0  0  0  0  0
   27.0023  -10.2715    0.0000 C   0  0  0  0  0  0  0  0  0  0  0  0
   27.4990   -8.8561    0.0000 C   0  0  0  0  0  0  0  0  0  0  0  0
   27.9216   -7.4169    0.0000 C   0  0  0  0  0  0  0  0  0  0  0  0
   28.2689   -5.9576    0.0000 C   0  0  0  0  0  0  0  0  0  0  0  0
   28.5400   -4.4823    0.0000 C   0  0  0  0  0  0  0  0  0  0  0  0
   28.7342   -2.9949    0.0000 C   0  0  0  0  0  0  0  0  0  0  0  0
   28.8509   -1.4995    0.0000 C   0  0  0  0  0  0  0  0  0  0  0  0
  1  2  1  0
  2  3  1  0
  3  4  1  0
  4  5  1  0
  5  6  1  0
  6  7  1  0
  7  8  1  0
  8  9  1  0
  9 10  1  0
 10 11  1  0
 11 12  1  0
 12 13  1  0
 13 14  1  0
 14 15  1  0
 15 16  1  0
 16 17  1  0
 17 18  1  0
 18 19  1  0
 19 20  1  0
 20 21  1  0
 21 22  1  0
 22 23  1  0
 23 24  1  0
 24 25  1  0
 25 26  1  0
 26 27  1  0
 27 28  1  0
 28 29  1  0
 29 30  1  0
 30 31  1  0
 31 32  1  0
 32 33  1  0
 33 34  1  0
 34 35  1  0
 35 36  1  0
 36 37  1  0
 37 38  1  0
 38 39  1  0
 39 40  1  0
 40 41  1  0
 41 42  1  0
 42 43  1  0
 43 44  1  0
 44 45  1  0
 45 46  1  0
 46 47  1  0
 47 48  1  0
 48 49  1  0
 49 50  1  0
 50 51  1  0
 51 52  1  0
 52 53  1  0
 53 54  1  0
 54 55  1  0
 55 56  1  0
 56 57  1  0
 57 58  1  0
 58 59  1  0
 59 60  1  0
 60 61  1  0
 61 62  1  0
 62 63  1  0
 63 64  1  0
 64 65  1  0
 65 66  1  0
 66 67  1  0
 67 68  1  0
 68 69  1  0
 69 70  1  0
 70 71  1  0
 71 72  1  0
 72 73  1  0
 73 74  1  0
 74 75  1  0
 75 76  1  0
 76 77  1  0
 77 78  1  0
 78 79  1  0
 79 80  1  0
 80 81  1  0
 81 82  1  0
 82 83  1  0
 83 84  1  0
 84 85  1  0
 85 86  1  0
 86 87  1  0
 87 88  1  0
 88 89  1  0
 89 90  1  0
 90 91  1  0
 91 92  1  0
 92 93  1  0
 93 94  1  0
 94 95  1  0
 95 96  1  0
 96 97  1  0
 97 98  1  0
 98 99  1  0
 99100  1  0
100101  1  0
101102  1  0
102103  1  0
103104  1  0
104105  1  0
105106  1  0
106107  1  0
107108  1  0
108109  1  0
109110  1  0
110111  1  0
111112  1  0
112113  1  0
113114  1  0
114115  1  0
115116  1  0
116117  1  0
117118  1  0
118119  1  0
119120  1  0
120121  1  0
121122  1  0
122  2  1  0
M  END
>  <Title>  (331) 
idAAKUgen9

$$$$

     RDKit          2D

 97 97  0  0  0  0  0  0  0  0999 V2000
   23.9450   -0.0000    0.0000 C   0  0  0  0  0  0  0  0  0  0  0  0
   22.4450    0.0000    0.0000 C   0  0  0  0  0  0  0  0  0  0  0  0
   22.3949   -1.4992    0.0000 C   0  0  0  0  0  0  0  0  0  0  0  0
   22.2448   -2.9916    0.0000 C   0  0  0  0  0  0  0  0  0  0  0  0
   21.9953   -4.4707    0.0000 C   0  0  0  0  0  0  0  0  0  0  0  0
   21.6475   -5.9299    0.0000 C   0  0  0  0  0  0  0  0  0  0  0  0
   21.2031   -7.3625    0.0000 C   0  0  0  0  0  0  0  0  0  0  0  0
   20.6640   -8.7623    0.0000 C   0  0  0  0  0  0  0  0  0  0  0  0
   20.0326  -10.1229    0.0000 C   0  0  0  0  0  0  0  0  0  0  0  0
   19.3117  -11.4384    0.0000 C   0  0  0  0  0  0  0  0  0  0  0  0
   18.5046  -12.7027    0.0000 C   0  0  0  0  0  0  0  0  0  0  0  0
   17.6148  -13.9103    0.0000 C   0  0  0  0  0  0  0  0  0  0  0  0
   16.6464  -15.0558    0.0000 C   0  0  0  0  0  0  0  0  0  0  0  0
   15.6036  -16.1340    0.0000 C   0  0  0  0  0  0  0  0  0  0  0  0
   14.4911  -17.1402    0.0000 C   0  0  0  0  0  0  0  0  0  0  0  0
   13.3139  -18.0698    0.0000 C   0  0  0  0  0  0  0  0  0  0  0  0
   12.0773  -18.9187    0.0000 C   0  0  0  0  0  0  0  0  0  0  0  0
   10.7867  -19.6832    0.0000 C   0  0  0  0  0  0  0  0  0  0  0  0
    9.4479  -20.3597    0.0000 C   0  0  0  0  0  0  0  0  0  0  0  0
    8.0669  -20.9453    0.0000 C   0  0  0  0  0  0  0  0  0  0  0  0
    6.6499  -21.4373    0.0000 C   0  0  0  0  0  0  0  0  0  0  0  0
    5.2032  -21.8336    0.0000 C   0  0  0  0  0  0  0  0  0  0  0  0
    3.7333  -22.1324    0.0000 C   0  0  0  0  0  0  0  0  0  0  0  0
    2.2467  -22.3323    0.0000 C   0  0  0  0  0  0  0  0  0  0  0  0
    0.7500  -22.4325    0.0000 C   0  0  0  0  0  0  0  0  0  0  0  0
   -0.7500  -22.4325    0.0000 C   0  0  0  0  0  0  0  0  0  0  0  0
   -2.2467  -22.3323    0.0000 C   0  0  0  0  0  0  0  0  0  0  0  0
   -3.7333  -22.1324    0.0000 C   0  0  0  0  0  0  0  0  0  0  0  0
   -5.2032  -21.8336    0.0000 C   0  0  0  0  0  0  0  0  0  0  0  0
   -6.6499  -21.4373    0.0000 C   0  0  0  0  0  0  0  0  0  0  0  0
   -8.0669  -20.9453    0.0000 C   0  0  0  0  0  0  0  0  0  0  0  0
   -9.4479  -20.3597    0.0000 C   0  0  0  0  0  0  0  0  0  0  0  0
  -10.7867  -19.6832    0.0000 C   0  0  0  0  0  0  0  0  0  0  0  0
  -12.0773  -18.9187    0.0000 C   0  0  0  0  0  0  0  0  0  0  0  0
  -13.3139  -18.0698    0.0000 C   0  0  0  0  0  0  0  0  0  0  0  0
  -14.4911  -17.1402    0.0000 C   0  0  0  0  0  0  0  0  0  0  0  0
  -15.6036  -16.1340    0.0000 C   0  0  0  0  0  0  0  0  0  0  0  0
  -16.6464  -15.0558    0.0000 C   0  0  0  0  0  0  0  0  0  0  0  0
  -17.6148  -13.9103    0.0000 C   0  0  0  0  0  0  0  0  0  0  0  0
  -18.5046  -12.7027    0.0000 C   0  0  0  0  0  0  0  0  0  0  0  0
  -19.3117  -11.4384    0.0000 C   0  0  0  0  0  0  0  0  0  0  0  0
  -20.0326  -10.1229    0.0000 C   0  0  0  0  0  0  0  0  0  0  0  0
  -20.6640   -8.7623    0.0000 C   0  0  0  0  0  0  0  0  0  0  0  0
  -21.2031   -7.3625    0.0000 C   0  0  0  0  0  0  0  0  0  0  0  0
  -21.6475   -5.9299    0.0000 C   0  0  0  0  0  0  0  0  0  0  0  0
  -21.9953   -4.4707    0.0000 C   0  0  0  0  0  0  0  0  0  0  0  0
  -22.2448   -2.9916    0.0000 C   0  0  0  0  0  0  0  0  0  0  0  0
  -22.3949   -1.4992    0.0000 C   0  0  0  0  0  0  0  0  0  0  0  0
  -22.4450    0.0000    0.0000 C   0  0  0  0  0  0  0  0  0  0  0  0
  -22.3949    1.4992    0.0000 C   0  0  0  0  0  0  0  0  0  0  0  0
  -22.2448    2.9916    0.0000 C   0  0  0  0  0  0  0  0  0  0  0  0
  -21.9953    4.4707    0.0000 C   0  0  0  0  0  0  0  0  0  0  0  0
  -21.6475    5.9299    0.0000 C   0  0  0  0  0  0  0  0  0  0  0  0
  -21.2031    7.3625    0.0000 C   0  0  0  0  0  0  0  0  0  0  0  0
  -20.6640    8.7623    0.0000 C   0  0  0  0  0  0  0  0  0  0  0  0
  -20.0326   10.1229    0.0000 C   0  0  0  0  0  0  0  0  0  0  0  0
  -19.3117   11.4384    0.0000 C   0  0  0  0  0  0  0  0  0  0  0  0
  -18.5046   12.7027    0.0000 C   0  0  0  0  0  0  0  0  0  0  0  0
  -17.6148   13.9103    0.0000 C   0  0  0  0  0  0  0  0  0  0  0  0
  -16.6464   15.0558    0.0000 C   0  0  0  0  0  0  0  0  0  0  0  0
  -15.6036   16.1340    0.0000 C   0  0  0  0  0  0  0  0  0  0  0  0
  -14.4911   17.1402    0.0000 C   0  0  0  0  0  0  0  0  0  0  0  0
  -13.3139   18.0698    0.0000 C   0  0  0  0  0  0  0  0  0  0  0  0
  -12.0773   18.9187    0.0000 C   0  0  0  0  0  0  0  0  0  0  0  0
  -10.7867   19.6832    0.0000 C   0  0  0  0  0  0  0  0  0  0  0  0
   -9.4479   20.3597    0.0000 C   0  0  0  0  0  0  0  0  0  0  0  0
   -8.0669   20.9453    0.0000 C   0  0  0  0  0  0  0  0  0  0  0  0
   -6.6499   21.4373    0.0000 C   0  0  0  0  0  0  0  0  0  0  0  0
   -5.2032   21.8336    0.0000 C   0  0  0  0  0  0  0  0  0  0  0  0
   -3.7333   22.1324    0.0000 C   0  0  0  0  0  0  0  0  0  0  0  0
   -2.2467   22.3323    0.0000 C   0  0  0  0  0  0  0  0  0  0  0  0
   -0.7500   22.4325    0.0000 C   0  0  0  0  0  0  0  0  0  0  0  0
    0.7500   22.4325    0.0000 C   0  0  0  0  0  0  0  0  0  0  0  0
    2.2467   22.3323    0.0000 C   0  0  0  0  0  0  0  0  0  0  0  0
    3.7333   22.1324    0.0000 C   0  0  0  0  0  0  0  0  0  0  0  0
    5.2032   21.8336    0.0000 C   0  0  0  0  0  0  0  0  0  0  0  0
    6.6499   21.4373    0.0000 C   0  0  0  0  0  0  0  0  0  0  0  0
    8.0669   20.9453    0.0000 C   0  0  0  0  0  0  0  0  0  0  0  0
    9.4479   20.3597    0.0000 C   0  0  0  0  0  0  0  0  0  0  0  0
   10.7867   19.6832    0.0000 C   0  0  0  0  0  0  0  0  0  0  0  0
   12.0773   18.9187    0.0000 C   0  0  0  0  0  0  0  0  0  0  0  0
   13.3139   18.0698    0.0000 C   0  0  0  0  0  0  0  0  0  0  0  0
   14.4911   17.1402    0.0000 C   0  0  0  0  0  0  0  0  0  0  0  0
   15.6036   16.1340    0.0000 C   0  0  0  0  0  0  0  0  0  0  0  0
   16.6464   15.0558    0.0000 C   0  0  0  0  0  0  0  0  0  0  0  0
   17.6148   13.9103    0.0000 C   0  0  0  0  0  0  0  0  0  0  0  0
   18.5046   12.7027    0.0000 C   0  0  0  0  0  0  0  0  0  0  0  0
   19.3117   11.4384    0.0000 C   0  0  0  0  0  0  0  0  0  0  0  0
   20.0326   10.1229    0.0000 C   0  0  0  0  0  0  0  0  0  0  0  0
   20.6640    8.7623    0.0000 C   0  0  0  0  0  0  0  0  0  0  0  0
   21.2031    7.3625    0.0000 C   0  0  0  0  0  0  0  0  0  0  0  0
   21.6475    5.9299    0.0000 C   0  0  0  0  0  0  0  0  0  0  0  0
   21.9953    4.4707    0.0000 C   0  0  0  0  0  0  0  0  0  0  0  0
   23.4652    4.7695    0.0000 C   0  0  0  0  0  0  0  0  0  0  0  0
   22.2448    2.9916    0.0000 C   0  0  0  0  0  0  0  0  0  0  0  0
   23.7314    3.1916    0.0000 O   0  0  0  0  0  0  0  0  0  0  0  0
   22.3949    1.4992    0.0000 N   0  0  0  0  0  0  0  0  0  0  0  0
  1  2  1  0
  2  3  1  0
  3  4  1  0
  4  5  1  0
  5  6  1  0
  6  7  1  0
  7  8  1  0
  8  9  1  0
  9 10  1  0
 10 11  1  0
 11 12  1  0
 12 13  1  0
 13 14  1  0
 14 15  1  0
 15 16  1  0
 16 17  1  0
 17 18  1  0
 18 19  1  0
 19 20  1  0
 20 21  1  0
 21 22  1  0
 22 23  1  0
 23 24  1  0
 24 25  1  0
 25 26  1  0
 26 27  1  0
 27 28  1  0
 28 29  1  0
 29 30  1  0
 30 31  1  0
 31 32  1  0
 32 33  1  0
 33 34  1  0
 34 35  1  0
 35 36  1  0
 36 37  1  0
 37 38  1  0
 38 39  1  0
 39 40  1  0
 40 41  1  0
 41 42  1  0
 42 43  1  0
 43 44  1  0
 44 45  1  0
 45 46  1  0
 46 47  1  0
 47 48  1  0
 48 49  1  0
 49 50  1  0
 50 51  1  0
 51 52  1  0
 52 53  1  0
 53 54  1  0
 54 55  1  0
 55 56  1  0
 56 57  1  0
 57 58  1  0
 58 59  1  0
 59 60  1  0
 60 61  1  0
 61 62  1  0
 62 63  1  0
 63 64  1  0
 64 65  1  0
 65 66  1  0
 66 67  1  0
 67 68  1  0
 68 69  1  0
 69 70  1  0
 70 71  1  0
 71 72  1  0
 72 73  1  0
 73 74  1  0
 74 75  1  0
 75 76  1  0
 76 77  1  0
 77 78  1  0
 78 79  1  0
 79 80  1  0
 80 81  1  0
 81 82  1  0
 82 83  1  0
 83 84  1  0
 84 85  1  0
 85 86  1  0
 86 87  1  0
 87 88  1  0
 88 89  1  0
 89 90  1  0
 90 91  1  0
 91 92  1  0
 92 93  1  0
 93 94  1  0
 93 95  1  0
 95 96  2  0
 95 97  1  0
 97  2  1  0
M  END
>  <Title>  (332) 
idAAKVgen9

$$$$

     RDKit          2D

 18 19  0  0  0  0  0  0  0  0999 V2000
    3.0000    0.0000    0.0000 C   0  0  0  0  0  0  0  0  0  0  0  0
    1.5000    0.0000    0.0000 C   0  0  0  0  0  0  0  0  0  0  0  0
    0.7500   -1.2990    0.0000 C   0  0  0  0  0  0  0  0  0  0  0  0
   -0.7500   -1.2990    0.0000 C   0  0  0  0  0  0  0  0  0  0  0  0
   -1.5000    0.0000    0.0000 C   0  0  0  0  0  0  0  0  0  0  0  0
   -0.7500    1.2990    0.0000 C   0  0  0  0  0  0  0  0  0  0  0  0
    0.7500    1.2990    0.0000 C   0  0  0  0  0  0  0  0  0  0  0  0
    1.5000    2.5981    0.0000 C   0  0  0  0  0  0  0  0  0  0  0  0
    3.0000    2.5981    0.0000 O   0  0  0  0  0  0  0  0  0  0  0  0
    0.7500    3.8971    0.0000 N   0  0  0  0  0  0  0  0  0  0  0  0
   -0.7418    4.0539    0.0000 C   0  0  0  0  0  0  0  0  0  0  0  0
   -1.0537    5.5211    0.0000 C   0  0  0  0  0  0  0  0  0  0  0  0
    0.2454    6.2711    0.0000 C   0  0  0  0  0  0  0  0  0  0  0  0
    0.4022    7.7629    0.0000 C   0  0  0  0  0  0  0  0  0  0  0  0
   -0.8113    8.6446    0.0000 O   0  0  0  0  0  0  0  0  0  0  0  0
    1.7725    8.3730    0.0000 O   0  0  0  0  0  0  0  0  0  0  0  0
    1.3601    5.2674    0.0000 C   0  0  0  0  0  0  0  0  0  0  0  0
    2.8273    5.5793    0.0000 O   0  0  0  0  0  0  0  0  0  0  0  0
  1  2  1  0
  2  3  2  0
  3  4  1  0
  4  5  2  0
  5  6  1  0
  6  7  2  0
  7  8  1  0
  8  9  2  0
  8 10  1  0
 10 11  1  0
 11 12  1  0
 12 13  1  0
 13 14  1  0
 14 15  2  0
 14 16  1  0
 13 17  1  0
 17 18  2  0
  7  2  1  0
 17 10  1  0
M  END
>  <Title>  (333) 
idAAKWgen9

$$$$

     RDKit          2D

  8  8  0  0  0  0  0  0  0  0999 V2000
    3.5260    1.2990    0.0000 O   0  0  0  0  0  0  0  0  0  0  0  0
    2.7760    0.0000    0.0000 C   0  0  0  0  0  0  0  0  0  0  0  0
    3.5260   -1.2990    0.0000 O   0  0  0  0  0  0  0  0  0  0  0  0
    1.2760    0.0000    0.0000 C   0  0  0  0  0  0  0  0  0  0  0  0
    0.3943    1.2135    0.0000 C   0  0  0  0  0  0  0  0  0  0  0  0
   -1.0323    0.7500    0.0000 C   0  0  0  0  0  0  0  0  0  0  0  0
   -1.0323   -0.7500    0.0000 C   0  0  0  0  0  0  0  0  0  0  0  0
    0.3943   -1.2135    0.0000 C   0  0  0  0  0  0  0  0  0  0  0  0
  1  2  2  0
  2  3  1  0
  2  4  1  0
  4  5  2  0
  5  6  1  0
  6  7  1  0
  7  8  2  0
  8  4  1  0
M  END
>  <Title>  (334) 
idAAKXgen9

$$$$

     RDKit          2D

 22 24  0  0  0  0  0  0  0  0999 V2000
    3.0000    0.0000    0.0000 C   0  0  0  0  0  0  0  0  0  0  0  0
    1.5000    0.0000    0.0000 C   0  0  0  0  0  0  0  0  0  0  0  0
    0.7500   -1.2990    0.0000 C   0  0  0  0  0  0  0  0  0  0  0  0
   -0.7500   -1.2990    0.0000 C   0  0  0  0  0  0  0  0  0  0  0  0
   -1.5000    0.0000    0.0000 C   0  0  0  0  0  0  0  0  0  0  0  0
   -3.0000    0.0000    0.0000 C   0  0  0  0  0  0  0  0  0  0  0  0
   -3.7500   -1.2990    0.0000 O   0  0  0  0  0  0  0  0  0  0  0  0
   -3.7500    1.2990    0.0000 N   0  0  0  0  0  0  0  0  0  0  0  0
   -5.2500    1.2990    0.0000 C   0  0  0  0  0  0  0  0  0  0  0  0
   -6.1317    0.0855    0.0000 N   0  0  0  0  0  0  0  0  0  0  0  0
   -7.5583    0.5490    0.0000 N   0  0  0  0  0  0  0  0  0  0  0  0
   -7.5583    2.0490    0.0000 N   0  0  0  0  0  0  0  0  0  0  0  0
   -6.1317    2.5126    0.0000 N   0  0  0  0  0  0  0  0  0  0  0  0
   -5.6682    3.9391    0.0000 C   0  0  0  0  0  0  0  0  0  0  0  0
   -4.2009    4.2510    0.0000 C   0  0  0  0  0  0  0  0  0  0  0  0
   -3.7374    5.6776    0.0000 C   0  0  0  0  0  0  0  0  0  0  0  0
   -4.7411    6.7923    0.0000 C   0  0  0  0  0  0  0  0  0  0  0  0
   -6.2083    6.4805    0.0000 C   0  0  0  0  0  0  0  0  0  0  0  0
   -6.6718    5.0539    0.0000 C   0  0  0  0  0  0  0  0  0  0  0  0
   -0.7500    1.2990    0.0000 C   0  0  0  0  0  0  0  0  0  0  0  0
    0.7500    1.2990    0.0000 C   0  0  0  0  0  0  0  0  0  0  0  0
    1.5000    2.5981    0.0000 O   0  0  0  0  0  0  0  0  0  0  0  0
  1  2  1  0
  2  3  1  0
  3  4  2  0
  4  5  1  0
  5  6  1  0
  6  7  2  0
  6  8  1  0
  8  9  1  0
  9 10  2  0
 10 11  1  0
 11 12  2  0
 12 13  1  0
 13 14  1  0
 14 15  2  0
 15 16  1  0
 16 17  2  0
 17 18  1  0
 18 19  2  0
  5 20  1  0
 20 21  2  0
 21 22  1  0
 21  2  1  0
 13  9  1  0
 19 14  1  0
M  END
>  <Title>  (335) 
idAAKYgen9

$$$$

     RDKit          2D

 81 81  0  0  0  0  0  0  0  0999 V2000
   20.6035    0.0000    0.0000 C   0  0  0  0  0  0  0  0  0  0  0  0
   19.1035    0.0000    0.0000 C   0  0  0  0  0  0  0  0  0  0  0  0
   19.0446   -1.4988    0.0000 C   0  0  0  0  0  0  0  0  0  0  0  0
   18.8683   -2.9884    0.0000 C   0  0  0  0  0  0  0  0  0  0  0  0
   18.5757   -4.4596    0.0000 C   0  0  0  0  0  0  0  0  0  0  0  0
   18.1685   -5.9033    0.0000 C   0  0  0  0  0  0  0  0  0  0  0  0
   17.6493   -7.3106    0.0000 C   0  0  0  0  0  0  0  0  0  0  0  0
   17.0213   -8.6728    0.0000 C   0  0  0  0  0  0  0  0  0  0  0  0
   16.2884   -9.9816    0.0000 C   0  0  0  0  0  0  0  0  0  0  0  0
   15.4551  -11.2288    0.0000 C   0  0  0  0  0  0  0  0  0  0  0  0
   14.5264  -12.4067    0.0000 C   0  0  0  0  0  0  0  0  0  0  0  0
   13.5082  -13.5082    0.0000 C   0  0  0  0  0  0  0  0  0  0  0  0
   12.4067  -14.5264    0.0000 C   0  0  0  0  0  0  0  0  0  0  0  0
   11.2288  -15.4551    0.0000 C   0  0  0  0  0  0  0  0  0  0  0  0
    9.9816  -16.2884    0.0000 C   0  0  0  0  0  0  0  0  0  0  0  0
    8.6728  -17.0213    0.0000 C   0  0  0  0  0  0  0  0  0  0  0  0
    7.3106  -17.6493    0.0000 C   0  0  0  0  0  0  0  0  0  0  0  0
    5.9033  -18.1685    0.0000 C   0  0  0  0  0  0  0  0  0  0  0  0
    4.4596  -18.5757    0.0000 C   0  0  0  0  0  0  0  0  0  0  0  0
    2.9884  -18.8683    0.0000 C   0  0  0  0  0  0  0  0  0  0  0  0
    1.4988  -19.0446    0.0000 C   0  0  0  0  0  0  0  0  0  0  0  0
   -0.0000  -19.1035    0.0000 C   0  0  0  0  0  0  0  0  0  0  0  0
   -1.4988  -19.0446    0.0000 C   0  0  0  0  0  0  0  0  0  0  0  0
   -2.9884  -18.8683    0.0000 C   0  0  0  0  0  0  0  0  0  0  0  0
   -4.4596  -18.5757    0.0000 C   0  0  0  0  0  0  0  0  0  0  0  0
   -5.9033  -18.1685    0.0000 C   0  0  0  0  0  0  0  0  0  0  0  0
   -7.3106  -17.6493    0.0000 C   0  0  0  0  0  0  0  0  0  0  0  0
   -8.6728  -17.0213    0.0000 C   0  0  0  0  0  0  0  0  0  0  0  0
   -9.9816  -16.2884    0.0000 C   0  0  0  0  0  0  0  0  0  0  0  0
  -11.2288  -15.4551    0.0000 C   0  0  0  0  0  0  0  0  0  0  0  0
  -12.4067  -14.5264    0.0000 C   0  0  0  0  0  0  0  0  0  0  0  0
  -13.5082  -13.5082    0.0000 C   0  0  0  0  0  0  0  0  0  0  0  0
  -14.5264  -12.4067    0.0000 C   0  0  0  0  0  0  0  0  0  0  0  0
  -15.4551  -11.2288    0.0000 C   0  0  0  0  0  0  0  0  0  0  0  0
  -16.2884   -9.9816    0.0000 C   0  0  0  0  0  0  0  0  0  0  0  0
  -17.0213   -8.6728    0.0000 C   0  0  0  0  0  0  0  0  0  0  0  0
  -17.6493   -7.3106    0.0000 C   0  0  0  0  0  0  0  0  0  0  0  0
  -18.1685   -5.9033    0.0000 C   0  0  0  0  0  0  0  0  0  0  0  0
  -18.5757   -4.4596    0.0000 C   0  0  0  0  0  0  0  0  0  0  0  0
  -18.8683   -2.9884    0.0000 C   0  0  0  0  0  0  0  0  0  0  0  0
  -19.0446   -1.4988    0.0000 C   0  0  0  0  0  0  0  0  0  0  0  0
  -19.1035    0.0000    0.0000 C   0  0  0  0  0  0  0  0  0  0  0  0
  -19.0446    1.4988    0.0000 C   0  0  0  0  0  0  0  0  0  0  0  0
  -18.8683    2.9884    0.0000 C   0  0  0  0  0  0  0  0  0  0  0  0
  -18.5757    4.4596    0.0000 C   0  0  0  0  0  0  0  0  0  0  0  0
  -18.1685    5.9033    0.0000 C   0  0  0  0  0  0  0  0  0  0  0  0
  -17.6493    7.3106    0.0000 C   0  0  0  0  0  0  0  0  0  0  0  0
  -17.0213    8.6728    0.0000 C   0  0  0  0  0  0  0  0  0  0  0  0
  -16.2884    9.9816    0.0000 C   0  0  0  0  0  0  0  0  0  0  0  0
  -15.4551   11.2288    0.0000 C   0  0  0  0  0  0  0  0  0  0  0  0
  -14.5264   12.4067    0.0000 C   0  0  0  0  0  0  0  0  0  0  0  0
  -13.5082   13.5082    0.0000 C   0  0  0  0  0  0  0  0  0  0  0  0
  -12.4067   14.5264    0.0000 C   0  0  0  0  0  0  0  0  0  0  0  0
  -11.2288   15.4551    0.0000 C   0  0  0  0  0  0  0  0  0  0  0  0
   -9.9816   16.2884    0.0000 C   0  0  0  0  0  0  0  0  0  0  0  0
   -8.6728   17.0213    0.0000 C   0  0  0  0  0  0  0  0  0  0  0  0
   -7.3106   17.6493    0.0000 C   0  0  0  0  0  0  0  0  0  0  0  0
   -5.9033   18.1685    0.0000 C   0  0  0  0  0  0  0  0  0  0  0  0
   -4.4596   18.5757    0.0000 C   0  0  0  0  0  0  0  0  0  0  0  0
   -2.9884   18.8683    0.0000 C   0  0  0  0  0  0  0  0  0  0  0  0
   -1.4988   19.0446    0.0000 C   0  0  0  0  0  0  0  0  0  0  0  0
    0.0000   19.1035    0.0000 C   0  0  0  0  0  0  0  0  0  0  0  0
    1.4988   19.0446    0.0000 C   0  0  0  0  0  0  0  0  0  0  0  0
    2.9884   18.8683    0.0000 C   0  0  0  0  0  0  0  0  0  0  0  0
    4.4596   18.5757    0.0000 C   0  0  0  0  0  0  0  0  0  0  0  0
    5.9033   18.1685    0.0000 C   0  0  0  0  0  0  0  0  0  0  0  0
    7.3106   17.6493    0.0000 C   0  0  0  0  0  0  0  0  0  0  0  0
    8.6728   17.0213    0.0000 C   0  0  0  0  0  0  0  0  0  0  0  0
    9.9816   16.2884    0.0000 C   0  0  0  0  0  0  0  0  0  0  0  0
   11.2288   15.4551    0.0000 C   0  0  0  0  0  0  0  0  0  0  0  0
   12.4067   14.5264    0.0000 C   0  0  0  0  0  0  0  0  0  0  0  0
   13.5082   13.5082    0.0000 C   0  0  0  0  0  0  0  0  0  0  0  0
   14.5264   12.4067    0.0000 C   0  0  0  0  0  0  0  0  0  0  0  0
   15.4551   11.2288    0.0000 C   0  0  0  0  0  0  0  0  0  0  0  0
   16.2884    9.9816    0.0000 C   0  0  0  0  0  0  0  0  0  0  0  0
   17.0213    8.6728    0.0000 C   0  0  0  0  0  0  0  0  0  0  0  0
   17.6493    7.3106    0.0000 C   0  0  0  0  0  0  0  0  0  0  0  0
   18.1685    5.9033    0.0000 C   0  0  0  0  0  0  0  0  0  0  0  0
   18.5757    4.4596    0.0000 C   0  0  0  0  0  0  0  0  0  0  0  0
   18.8683    2.9884    0.0000 C   0  0  0  0  0  0  0  0  0  0  0  0
   19.0446    1.4988    0.0000 C   0  0  0  0  0  0  0  0  0  0  0  0
  1  2  1  0
  2  3  1  0
  3  4  1  0
  4  5  1  0
  5  6  1  0
  6  7  1  0
  7  8  1  0
  8  9  1  0
  9 10  1  0
 10 11  1  0
 11 12  1  0
 12 13  1  0
 13 14  1  0
 14 15  1  0
 15 16  1  0
 16 17  1  0
 17 18  1  0
 18 19  1  0
 19 20  1  0
 20 21  1  0
 21 22  1  0
 22 23  1  0
 23 24  1  0
 24 25  1  0
 25 26  1  0
 26 27  1  0
 27 28  1  0
 28 29  1  0
 29 30  1  0
 30 31  1  0
 31 32  1  0
 32 33  1  0
 33 34  1  0
 34 35  1  0
 35 36  1  0
 36 37  1  0
 37 38  1  0
 38 39  1  0
 39 40  1  0
 40 41  1  0
 41 42  1  0
 42 43  1  0
 43 44  1  0
 44 45  1  0
 45 46  1  0
 46 47  1  0
 47 48  1  0
 48 49  1  0
 49 50  1  0
 50 51  1  0
 51 52  1  0
 52 53  1  0
 53 54  1  0
 54 55  1  0
 55 56  1  0
 56 57  1  0
 57 58  1  0
 58 59  1  0
 59 60  1  0
 60 61  1  0
 61 62  1  0
 62 63  1  0
 63 64  1  0
 64 65  1  0
 65 66  1  0
 66 67  1  0
 67 68  1  0
 68 69  1  0
 69 70  1  0
 70 71  1  0
 71 72  1  0
 72 73  1  0
 73 74  1  0
 74 75  1  0
 75 76  1  0
 76 77  1  0
 77 78  1  0
 78 79  1  0
 79 80  1  0
 80 81  1  0
 81  2  1  0
M  END
>  <Title>  (336) 
idAAKZgen9

$$$$

     RDKit          2D

 16 17  0  0  0  0  0  0  0  0999 V2000
    3.0000    0.0000    0.0000 C   0  0  0  0  0  0  0  0  0  0  0  0
    1.5000    0.0000    0.0000 C   0  0  0  0  0  0  0  0  0  0  0  0
    0.7500   -1.2990    0.0000 C   0  0  0  0  0  0  0  0  0  0  0  0
   -0.7500   -1.2990    0.0000 C   0  0  0  0  0  0  0  0  0  0  0  0
   -1.5000    0.0000    0.0000 C   0  0  0  0  0  0  0  0  0  0  0  0
   -3.0000    0.0000    0.0000 C   0  0  0  0  0  0  0  0  0  0  0  0
   -3.7500   -1.2990    0.0000 O   0  0  0  0  0  0  0  0  0  0  0  0
   -3.7500    1.2990    0.0000 N   0  0  0  0  0  0  0  0  0  0  0  0
   -5.2500    1.2990    0.0000 C   0  0  0  0  0  0  0  0  0  0  0  0
   -6.0000    2.5981    0.0000 N   0  0  0  0  0  0  0  0  0  0  0  0
   -7.5000    2.5981    0.0000 N   0  0  0  0  0  0  0  0  0  0  0  0
   -8.2500    1.2990    0.0000 N   0  0  0  0  0  0  0  0  0  0  0  0
   -7.5000    0.0000    0.0000 N   0  0  0  0  0  0  0  0  0  0  0  0
   -6.0000    0.0000    0.0000 N   0  0  0  0  0  0  0  0  0  0  0  0
   -0.7500    1.2990    0.0000 C   0  0  0  0  0  0  0  0  0  0  0  0
    0.7500    1.2990    0.0000 C   0  0  0  0  0  0  0  0  0  0  0  0
  1  2  1  0
  2  3  2  0
  3  4  1  0
  4  5  2  0
  5  6  1  0
  6  7  2  0
  6  8  1  0
  8  9  1  0
  9 10  2  0
 10 11  1  0
 11 12  2  0
 12 13  1  0
 13 14  2  0
  5 15  1  0
 15 16  2  0
 16  2  1  0
 14  9  1  0
M  END
>  <Title>  (337) 
idAALAgen9

$$$$

     RDKit          2D

124124  0  0  0  0  0  0  0  0999 V2000
   30.6286    0.0000    0.0000 C   0  0  0  0  0  0  0  0  0  0  0  0
   29.1286    0.0000    0.0000 C   0  0  0  0  0  0  0  0  0  0  0  0
   29.0900   -1.4995    0.0000 C   0  0  0  0  0  0  0  0  0  0  0  0
   28.9742   -2.9950    0.0000 C   0  0  0  0  0  0  0  0  0  0  0  0
   28.7816   -4.4826    0.0000 C   0  0  0  0  0  0  0  0  0  0  0  0
   28.5127   -5.9583    0.0000 C   0  0  0  0  0  0  0  0  0  0  0  0
   28.1681   -7.4182    0.0000 C   0  0  0  0  0  0  0  0  0  0  0  0
   27.7489   -8.8584    0.0000 C   0  0  0  0  0  0  0  0  0  0  0  0
   27.2561  -10.2752    0.0000 C   0  0  0  0  0  0  0  0  0  0  0  0
   26.6910  -11.6647    0.0000 C   0  0  0  0  0  0  0  0  0  0  0  0
   26.0551  -13.0232    0.0000 C   0  0  0  0  0  0  0  0  0  0  0  0
   25.3502  -14.3472    0.0000 C   0  0  0  0  0  0  0  0  0  0  0  0
   24.5780  -15.6332    0.0000 C   0  0  0  0  0  0  0  0  0  0  0  0
   23.7406  -16.8777    0.0000 C   0  0  0  0  0  0  0  0  0  0  0  0
   22.8403  -18.0775    0.0000 C   0  0  0  0  0  0  0  0  0  0  0  0
   21.8794  -19.2293    0.0000 C   0  0  0  0  0  0  0  0  0  0  0  0
   20.8605  -20.3301    0.0000 C   0  0  0  0  0  0  0  0  0  0  0  0
   19.7863  -21.3770    0.0000 C   0  0  0  0  0  0  0  0  0  0  0  0
   18.6596  -22.3673    0.0000 C   0  0  0  0  0  0  0  0  0  0  0  0
   17.4834  -23.2982    0.0000 C   0  0  0  0  0  0  0  0  0  0  0  0
   16.2608  -24.1673    0.0000 C   0  0  0  0  0  0  0  0  0  0  0  0
   14.9952  -24.9724    0.0000 C   0  0  0  0  0  0  0  0  0  0  0  0
   13.6898  -25.7112    0.0000 C   0  0  0  0  0  0  0  0  0  0  0  0
   12.3480  -26.3818    0.0000 C   0  0  0  0  0  0  0  0  0  0  0  0
   10.9735  -26.9825    0.0000 C   0  0  0  0  0  0  0  0  0  0  0  0
    9.5700  -27.5116    0.0000 C   0  0  0  0  0  0  0  0  0  0  0  0
    8.1410  -27.9678    0.0000 C   0  0  0  0  0  0  0  0  0  0  0  0
    6.6905  -28.3498    0.0000 C   0  0  0  0  0  0  0  0  0  0  0  0
    5.2222  -28.6566    0.0000 C   0  0  0  0  0  0  0  0  0  0  0  0
    3.7401  -28.8875    0.0000 C   0  0  0  0  0  0  0  0  0  0  0  0
    2.2480  -29.0417    0.0000 C   0  0  0  0  0  0  0  0  0  0  0  0
    0.7500  -29.1189    0.0000 C   0  0  0  0  0  0  0  0  0  0  0  0
   -0.7500  -29.1189    0.0000 C   0  0  0  0  0  0  0  0  0  0  0  0
   -2.2480  -29.0417    0.0000 C   0  0  0  0  0  0  0  0  0  0  0  0
   -3.7401  -28.8875    0.0000 C   0  0  0  0  0  0  0  0  0  0  0  0
   -5.2222  -28.6566    0.0000 C   0  0  0  0  0  0  0  0  0  0  0  0
   -6.6905  -28.3498    0.0000 C   0  0  0  0  0  0  0  0  0  0  0  0
   -8.1410  -27.9678    0.0000 C   0  0  0  0  0  0  0  0  0  0  0  0
   -9.5700  -27.5116    0.0000 C   0  0  0  0  0  0  0  0  0  0  0  0
  -10.9735  -26.9825    0.0000 C   0  0  0  0  0  0  0  0  0  0  0  0
  -12.3480  -26.3818    0.0000 C   0  0  0  0  0  0  0  0  0  0  0  0
  -13.6898  -25.7112    0.0000 C   0  0  0  0  0  0  0  0  0  0  0  0
  -14.9952  -24.9724    0.0000 C   0  0  0  0  0  0  0  0  0  0  0  0
  -16.2608  -24.1673    0.0000 C   0  0  0  0  0  0  0  0  0  0  0  0
  -17.4834  -23.2982    0.0000 C   0  0  0  0  0  0  0  0  0  0  0  0
  -18.6596  -22.3673    0.0000 C   0  0  0  0  0  0  0  0  0  0  0  0
  -19.7863  -21.3770    0.0000 C   0  0  0  0  0  0  0  0  0  0  0  0
  -20.8605  -20.3301    0.0000 C   0  0  0  0  0  0  0  0  0  0  0  0
  -21.8794  -19.2293    0.0000 C   0  0  0  0  0  0  0  0  0  0  0  0
  -22.8403  -18.0775    0.0000 C   0  0  0  0  0  0  0  0  0  0  0  0
  -23.7406  -16.8777    0.0000 C   0  0  0  0  0  0  0  0  0  0  0  0
  -24.5780  -15.6332    0.0000 C   0  0  0  0  0  0  0  0  0  0  0  0
  -25.3502  -14.3472    0.0000 C   0  0  0  0  0  0  0  0  0  0  0  0
  -26.0551  -13.0232    0.0000 C   0  0  0  0  0  0  0  0  0  0  0  0
  -26.6910  -11.6647    0.0000 C   0  0  0  0  0  0  0  0  0  0  0  0
  -27.2561  -10.2752    0.0000 C   0  0  0  0  0  0  0  0  0  0  0  0
  -27.7489   -8.8584    0.0000 C   0  0  0  0  0  0  0  0  0  0  0  0
  -28.1681   -7.4182    0.0000 C   0  0  0  0  0  0  0  0  0  0  0  0
  -28.5127   -5.9583    0.0000 C   0  0  0  0  0  0  0  0  0  0  0  0
  -28.7816   -4.4826    0.0000 C   0  0  0  0  0  0  0  0  0  0  0  0
  -28.9742   -2.9950    0.0000 C   0  0  0  0  0  0  0  0  0  0  0  0
  -29.0900   -1.4995    0.0000 C   0  0  0  0  0  0  0  0  0  0  0  0
  -29.1286    0.0000    0.0000 C   0  0  0  0  0  0  0  0  0  0  0  0
  -29.0900    1.4995    0.0000 C   0  0  0  0  0  0  0  0  0  0  0  0
  -28.9742    2.9950    0.0000 C   0  0  0  0  0  0  0  0  0  0  0  0
  -28.7816    4.4826    0.0000 C   0  0  0  0  0  0  0  0  0  0  0  0
  -28.5127    5.9583    0.0000 C   0  0  0  0  0  0  0  0  0  0  0  0
  -28.1681    7.4182    0.0000 C   0  0  0  0  0  0  0  0  0  0  0  0
  -27.7489    8.8584    0.0000 C   0  0  0  0  0  0  0  0  0  0  0  0
  -27.2561   10.2752    0.0000 C   0  0  0  0  0  0  0  0  0  0  0  0
  -26.6910   11.6647    0.0000 C   0  0  0  0  0  0  0  0  0  0  0  0
  -26.0551   13.0232    0.0000 C   0  0  0  0  0  0  0  0  0  0  0  0
  -25.3502   14.3472    0.0000 C   0  0  0  0  0  0  0  0  0  0  0  0
  -24.5780   15.6332    0.0000 C   0  0  0  0  0  0  0  0  0  0  0  0
  -23.7406   16.8777    0.0000 C   0  0  0  0  0  0  0  0  0  0  0  0
  -22.8403   18.0775    0.0000 C   0  0  0  0  0  0  0  0  0  0  0  0
  -21.8794   19.2293    0.0000 C   0  0  0  0  0  0  0  0  0  0  0  0
  -20.8605   20.3301    0.0000 C   0  0  0  0  0  0  0  0  0  0  0  0
  -19.7863   21.3770    0.0000 C   0  0  0  0  0  0  0  0  0  0  0  0
  -18.6596   22.3673    0.0000 C   0  0  0  0  0  0  0  0  0  0  0  0
  -17.4834   23.2982    0.0000 C   0  0  0  0  0  0  0  0  0  0  0  0
  -16.2608   24.1673    0.0000 C   0  0  0  0  0  0  0  0  0  0  0  0
  -14.9952   24.9724    0.0000 C   0  0  0  0  0  0  0  0  0  0  0  0
  -13.6898   25.7112    0.0000 C   0  0  0  0  0  0  0  0  0  0  0  0
  -12.3480   26.3818    0.0000 C   0  0  0  0  0  0  0  0  0  0  0  0
  -10.9735   26.9825    0.0000 C   0  0  0  0  0  0  0  0  0  0  0  0
   -9.5700   27.5116    0.0000 C   0  0  0  0  0  0  0  0  0  0  0  0
   -8.1410   27.9678    0.0000 C   0  0  0  0  0  0  0  0  0  0  0  0
   -6.6905   28.3498    0.0000 C   0  0  0  0  0  0  0  0  0  0  0  0
   -5.2222   28.6566    0.0000 C   0  0  0  0  0  0  0  0  0  0  0  0
   -3.7401   28.8875    0.0000 C   0  0  0  0  0  0  0  0  0  0  0  0
   -2.2480   29.0417    0.0000 C   0  0  0  0  0  0  0  0  0  0  0  0
   -0.7500   29.1189    0.0000 C   0  0  0  0  0  0  0  0  0  0  0  0
    0.7500   29.1189    0.0000 C   0  0  0  0  0  0  0  0  0  0  0  0
    2.2480   29.0417    0.0000 C   0  0  0  0  0  0  0  0  0  0  0  0
    3.7401   28.8875    0.0000 C   0  0  0  0  0  0  0  0  0  0  0  0
    5.2222   28.6566    0.0000 C   0  0  0  0  0  0  0  0  0  0  0  0
    6.6905   28.3498    0.0000 C   0  0  0  0  0  0  0  0  0  0  0  0
    8.1410   27.9678    0.0000 C   0  0  0  0  0  0  0  0  0  0  0  0
    9.5700   27.5116    0.0000 C   0  0  0  0  0  0  0  0  0  0  0  0
   10.9735   26.9825    0.0000 C   0  0  0  0  0  0  0  0  0  0  0  0
   12.3480   26.3818    0.0000 C   0  0  0  0  0  0  0  0  0  0  0  0
   13.6898   25.7112    0.0000 C   0  0  0  0  0  0  0  0  0  0  0  0
   14.9952   24.9724    0.0000 C   0  0  0  0  0  0  0  0  0  0  0  0
   16.2608   24.1673    0.0000 C   0  0  0  0  0  0  0  0  0  0  0  0
   17.4834   23.2982    0.0000 C   0  0  0  0  0  0  0  0  0  0  0  0
   18.6596   22.3673    0.0000 C   0  0  0  0  0  0  0  0  0  0  0  0
   19.7863   21.3770    0.0000 C   0  0  0  0  0  0  0  0  0  0  0  0
   20.8605   20.3301    0.0000 C   0  0  0  0  0  0  0  0  0  0  0  0
   21.8794   19.2293    0.0000 C   0  0  0  0  0  0  0  0  0  0  0  0
   22.8403   18.0775    0.0000 C   0  0  0  0  0  0  0  0  0  0  0  0
   23.7406   16.8777    0.0000 C   0  0  0  0  0  0  0  0  0  0  0  0
   24.5780   15.6332    0.0000 C   0  0  0  0  0  0  0  0  0  0  0  0
   25.3502   14.3472    0.0000 C   0  0  0  0  0  0  0  0  0  0  0  0
   26.0551   13.0232    0.0000 C   0  0  0  0  0  0  0  0  0  0  0  0
   26.6910   11.6647    0.0000 C   0  0  0  0  0  0  0  0  0  0  0  0
   27.2561   10.2752    0.0000 C   0  0  0  0  0  0  0  0  0  0  0  0
   27.7489    8.8584    0.0000 C   0  0  0  0  0  0  0  0  0  0  0  0
   28.1681    7.4182    0.0000 C   0  0  0  0  0  0  0  0  0  0  0  0
   28.5127    5.9583    0.0000 C   0  0  0  0  0  0  0  0  0  0  0  0
   28.7816    4.4826    0.0000 C   0  0  0  0  0  0  0  0  0  0  0  0
   28.9742    2.9950    0.0000 C   0  0  0  0  0  0  0  0  0  0  0  0
   30.4662    3.1493    0.0000 C   0  0  0  0  0  0  0  0  0  0  0  0
   29.0900    1.4995    0.0000 C   0  0  0  0  0  0  0  0  0  0  0  0
  1  2  1  0
  2  3  1  0
  3  4  1  0
  4  5  1  0
  5  6  1  0
  6  7  1  0
  7  8  1  0
  8  9  1  0
  9 10  1  0
 10 11  1  0
 11 12  1  0
 12 13  1  0
 13 14  1  0
 14 15  1  0
 15 16  1  0
 16 17  1  0
 17 18  1  0
 18 19  1  0
 19 20  1  0
 20 21  1  0
 21 22  1  0
 22 23  1  0
 23 24  1  0
 24 25  1  0
 25 26  1  0
 26 27  1  0
 27 28  1  0
 28 29  1  0
 29 30  1  0
 30 31  1  0
 31 32  1  0
 32 33  1  0
 33 34  1  0
 34 35  1  0
 35 36  1  0
 36 37  1  0
 37 38  1  0
 38 39  1  0
 39 40  1  0
 40 41  1  0
 41 42  1  0
 42 43  1  0
 43 44  1  0
 44 45  1  0
 45 46  1  0
 46 47  1  0
 47 48  1  0
 48 49  1  0
 49 50  1  0
 50 51  1  0
 51 52  1  0
 52 53  1  0
 53 54  1  0
 54 55  1  0
 55 56  1  0
 56 57  1  0
 57 58  1  0
 58 59  1  0
 59 60  1  0
 60 61  1  0
 61 62  1  0
 62 63  1  0
 63 64  1  0
 64 65  1  0
 65 66  1  0
 66 67  1  0
 67 68  1  0
 68 69  1  0
 69 70  1  0
 70 71  1  0
 71 72  1  0
 72 73  1  0
 73 74  1  0
 74 75  1  0
 75 76  1  0
 76 77  1  0
 77 78  1  0
 78 79  1  0
 79 80  1  0
 80 81  1  0
 81 82  1  0
 82 83  1  0
 83 84  1  0
 84 85  1  0
 85 86  1  0
 86 87  1  0
 87 88  1  0
 88 89  1  0
 89 90  1  0
 90 91  1  0
 91 92  1  0
 92 93  1  0
 93 94  1  0
 94 95  1  0
 95 96  1  0
 96 97  1  0
 97 98  1  0
 98 99  1  0
 99100  1  0
100101  1  0
101102  1  0
102103  1  0
103104  1  0
104105  1  0
105106  1  0
106107  1  0
107108  1  0
108109  1  0
109110  1  0
110111  1  0
111112  1  0
112113  1  0
113114  1  0
114115  1  0
115116  1  0
116117  1  0
117118  1  0
118119  1  0
119120  1  0
120121  1  0
121122  1  0
122123  1  0
122124  1  0
124  2  1  0
M  END
>  <Title>  (338) 
idAALBgen9

$$$$

     RDKit          2D

104104  0  0  0  0  0  0  0  0999 V2000
   26.0933    0.0000    0.0000 C   0  0  0  0  0  0  0  0  0  0  0  0
   24.5933    0.0000    0.0000 C   0  0  0  0  0  0  0  0  0  0  0  0
   24.5475    1.4993    0.0000 C   0  0  0  0  0  0  0  0  0  0  0  0
   24.4104    2.9930    0.0000 C   0  0  0  0  0  0  0  0  0  0  0  0
   24.1826    4.4756    0.0000 C   0  0  0  0  0  0  0  0  0  0  0  0
   23.8647    5.9416    0.0000 C   0  0  0  0  0  0  0  0  0  0  0  0
   23.4581    7.3854    0.0000 C   0  0  0  0  0  0  0  0  0  0  0  0
   22.9643    8.8018    0.0000 C   0  0  0  0  0  0  0  0  0  0  0  0
   22.3850   10.1854    0.0000 C   0  0  0  0  0  0  0  0  0  0  0  0
   21.7224   11.5311    0.0000 C   0  0  0  0  0  0  0  0  0  0  0  0
   20.9790   12.8339    0.0000 C   0  0  0  0  0  0  0  0  0  0  0  0
   20.1576   14.0890    0.0000 C   0  0  0  0  0  0  0  0  0  0  0  0
   19.2611   15.2917    0.0000 C   0  0  0  0  0  0  0  0  0  0  0  0
   18.2931   16.4375    0.0000 C   0  0  0  0  0  0  0  0  0  0  0  0
   17.2569   17.5222    0.0000 C   0  0  0  0  0  0  0  0  0  0  0  0
   16.1566   18.5416    0.0000 C   0  0  0  0  0  0  0  0  0  0  0  0
   14.9962   19.4921    0.0000 C   0  0  0  0  0  0  0  0  0  0  0  0
   13.7800   20.3701    0.0000 C   0  0  0  0  0  0  0  0  0  0  0  0
   12.5125   21.1723    0.0000 C   0  0  0  0  0  0  0  0  0  0  0  0
   11.1985   21.8957    0.0000 C   0  0  0  0  0  0  0  0  0  0  0  0
    9.8428   22.5377    0.0000 C   0  0  0  0  0  0  0  0  0  0  0  0
    8.4505   23.0958    0.0000 C   0  0  0  0  0  0  0  0  0  0  0  0
    7.0268   23.5680    0.0000 C   0  0  0  0  0  0  0  0  0  0  0  0
    5.5769   23.9526    0.0000 C   0  0  0  0  0  0  0  0  0  0  0  0
    4.1063   24.2480    0.0000 C   0  0  0  0  0  0  0  0  0  0  0  0
    2.6204   24.4532    0.0000 C   0  0  0  0  0  0  0  0  0  0  0  0
    1.1248   24.5675    0.0000 C   0  0  0  0  0  0  0  0  0  0  0  0
   -0.3750   24.5904    0.0000 C   0  0  0  0  0  0  0  0  0  0  0  0
   -1.8735   24.5218    0.0000 C   0  0  0  0  0  0  0  0  0  0  0  0
   -3.3649   24.3620    0.0000 C   0  0  0  0  0  0  0  0  0  0  0  0
   -4.8439   24.1115    0.0000 C   0  0  0  0  0  0  0  0  0  0  0  0
   -6.3048   23.7714    0.0000 C   0  0  0  0  0  0  0  0  0  0  0  0
   -7.7423   23.3428    0.0000 C   0  0  0  0  0  0  0  0  0  0  0  0
   -9.1509   22.8274    0.0000 C   0  0  0  0  0  0  0  0  0  0  0  0
  -10.5256   22.2270    0.0000 C   0  0  0  0  0  0  0  0  0  0  0  0
  -11.8610   21.5440    0.0000 C   0  0  0  0  0  0  0  0  0  0  0  0
  -13.1524   20.7808    0.0000 C   0  0  0  0  0  0  0  0  0  0  0  0
  -14.3948   19.9404    0.0000 C   0  0  0  0  0  0  0  0  0  0  0  0
  -15.5837   19.0257    0.0000 C   0  0  0  0  0  0  0  0  0  0  0  0
  -16.7146   18.0403    0.0000 C   0  0  0  0  0  0  0  0  0  0  0  0
  -17.7833   16.9877    0.0000 C   0  0  0  0  0  0  0  0  0  0  0  0
  -18.7858   15.8720    0.0000 C   0  0  0  0  0  0  0  0  0  0  0  0
  -19.7185   14.6972    0.0000 C   0  0  0  0  0  0  0  0  0  0  0  0
  -20.5778   13.4678    0.0000 C   0  0  0  0  0  0  0  0  0  0  0  0
  -21.3606   12.1882    0.0000 C   0  0  0  0  0  0  0  0  0  0  0  0
  -22.0639   10.8633    0.0000 C   0  0  0  0  0  0  0  0  0  0  0  0
  -22.6852    9.4980    0.0000 C   0  0  0  0  0  0  0  0  0  0  0  0
  -23.2220    8.0973    0.0000 C   0  0  0  0  0  0  0  0  0  0  0  0
  -23.6724    6.6666    0.0000 C   0  0  0  0  0  0  0  0  0  0  0  0
  -24.0348    5.2110    0.0000 C   0  0  0  0  0  0  0  0  0  0  0  0
  -24.3078    3.7361    0.0000 C   0  0  0  0  0  0  0  0  0  0  0  0
  -24.4904    2.2472    0.0000 C   0  0  0  0  0  0  0  0  0  0  0  0
  -24.5818    0.7500    0.0000 C   0  0  0  0  0  0  0  0  0  0  0  0
  -24.5818   -0.7500    0.0000 C   0  0  0  0  0  0  0  0  0  0  0  0
  -24.4904   -2.2472    0.0000 C   0  0  0  0  0  0  0  0  0  0  0  0
  -24.3078   -3.7361    0.0000 C   0  0  0  0  0  0  0  0  0  0  0  0
  -24.0348   -5.2110    0.0000 C   0  0  0  0  0  0  0  0  0  0  0  0
  -23.6724   -6.6666    0.0000 C   0  0  0  0  0  0  0  0  0  0  0  0
  -23.2220   -8.0973    0.0000 C   0  0  0  0  0  0  0  0  0  0  0  0
  -22.6852   -9.4980    0.0000 C   0  0  0  0  0  0  0  0  0  0  0  0
  -22.0639  -10.8633    0.0000 C   0  0  0  0  0  0  0  0  0  0  0  0
  -21.3606  -12.1882    0.0000 C   0  0  0  0  0  0  0  0  0  0  0  0
  -20.5778  -13.4678    0.0000 C   0  0  0  0  0  0  0  0  0  0  0  0
  -19.7185  -14.6972    0.0000 C   0  0  0  0  0  0  0  0  0  0  0  0
  -18.7858  -15.8720    0.0000 C   0  0  0  0  0  0  0  0  0  0  0  0
  -17.7833  -16.9877    0.0000 C   0  0  0  0  0  0  0  0  0  0  0  0
  -16.7146  -18.0403    0.0000 C   0  0  0  0  0  0  0  0  0  0  0  0
  -15.5837  -19.0257    0.0000 C   0  0  0  0  0  0  0  0  0  0  0  0
  -14.3948  -19.9404    0.0000 C   0  0  0  0  0  0  0  0  0  0  0  0
  -13.1524  -20.7808    0.0000 C   0  0  0  0  0  0  0  0  0  0  0  0
  -11.8610  -21.5440    0.0000 C   0  0  0  0  0  0  0  0  0  0  0  0
  -10.5256  -22.2270    0.0000 C   0  0  0  0  0  0  0  0  0  0  0  0
   -9.1509  -22.8274    0.0000 C   0  0  0  0  0  0  0  0  0  0  0  0
   -7.7423  -23.3428    0.0000 C   0  0  0  0  0  0  0  0  0  0  0  0
   -6.3048  -23.7714    0.0000 C   0  0  0  0  0  0  0  0  0  0  0  0
   -4.8439  -24.1115    0.0000 C   0  0  0  0  0  0  0  0  0  0  0  0
   -3.3649  -24.3620    0.0000 C   0  0  0  0  0  0  0  0  0  0  0  0
   -1.8735  -24.5218    0.0000 C   0  0  0  0  0  0  0  0  0  0  0  0
   -0.3750  -24.5904    0.0000 C   0  0  0  0  0  0  0  0  0  0  0  0
    1.1248  -24.5675    0.0000 C   0  0  0  0  0  0  0  0  0  0  0  0
    2.6204  -24.4532    0.0000 C   0  0  0  0  0  0  0  0  0  0  0  0
    4.1063  -24.2480    0.0000 C   0  0  0  0  0  0  0  0  0  0  0  0
    5.5769  -23.9526    0.0000 C   0  0  0  0  0  0  0  0  0  0  0  0
    7.0268  -23.5680    0.0000 C   0  0  0  0  0  0  0  0  0  0  0  0
    8.4505  -23.0958    0.0000 C   0  0  0  0  0  0  0  0  0  0  0  0
    9.8428  -22.5377    0.0000 C   0  0  0  0  0  0  0  0  0  0  0  0
   11.1985  -21.8957    0.0000 C   0  0  0  0  0  0  0  0  0  0  0  0
   12.5125  -21.1723    0.0000 C   0  0  0  0  0  0  0  0  0  0  0  0
   13.7800  -20.3701    0.0000 C   0  0  0  0  0  0  0  0  0  0  0  0
   14.9962  -19.4921    0.0000 C   0  0  0  0  0  0  0  0  0  0  0  0
   16.1566  -18.5416    0.0000 C   0  0  0  0  0  0  0  0  0  0  0  0
   17.2569  -17.5222    0.0000 C   0  0  0  0  0  0  0  0  0  0  0  0
   18.2931  -16.4375    0.0000 C   0  0  0  0  0  0  0  0  0  0  0  0
   19.2611  -15.2917    0.0000 C   0  0  0  0  0  0  0  0  0  0  0  0
   20.1576  -14.0890    0.0000 C   0  0  0  0  0  0  0  0  0  0  0  0
   20.9790  -12.8339    0.0000 C   0  0  0  0  0  0  0  0  0  0  0  0
   21.7224  -11.5311    0.0000 C   0  0  0  0  0  0  0  0  0  0  0  0
   22.3850  -10.1854    0.0000 C   0  0  0  0  0  0  0  0  0  0  0  0
   22.9643   -8.8018    0.0000 C   0  0  0  0  0  0  0  0  0  0  0  0
   23.4581   -7.3854    0.0000 C   0  0  0  0  0  0  0  0  0  0  0  0
   23.8647   -5.9416    0.0000 C   0  0  0  0  0  0  0  0  0  0  0  0
   24.1826   -4.4756    0.0000 C   0  0  0  0  0  0  0  0  0  0  0  0
   24.4104   -2.9930    0.0000 C   0  0  0  0  0  0  0  0  0  0  0  0
   24.5475   -1.4993    0.0000 C   0  0  0  0  0  0  0  0  0  0  0  0
  1  2  1  0
  2  3  1  0
  3  4  1  0
  4  5  1  0
  5  6  1  0
  6  7  1  0
  7  8  1  0
  8  9  1  0
  9 10  1  0
 10 11  1  0
 11 12  1  0
 12 13  1  0
 13 14  1  0
 14 15  1  0
 15 16  1  0
 16 17  1  0
 17 18  1  0
 18 19  1  0
 19 20  1  0
 20 21  1  0
 21 22  1  0
 22 23  1  0
 23 24  1  0
 24 25  1  0
 25 26  1  0
 26 27  1  0
 27 28  1  0
 28 29  1  0
 29 30  1  0
 30 31  1  0
 31 32  1  0
 32 33  1  0
 33 34  1  0
 34 35  1  0
 35 36  1  0
 36 37  1  0
 37 38  1  0
 38 39  1  0
 39 40  1  0
 40 41  1  0
 41 42  1  0
 42 43  1  0
 43 44  1  0
 44 45  1  0
 45 46  1  0
 46 47  1  0
 47 48  1  0
 48 49  1  0
 49 50  1  0
 50 51  1  0
 51 52  1  0
 52 53  1  0
 53 54  1  0
 54 55  1  0
 55 56  1  0
 56 57  1  0
 57 58  1  0
 58 59  1  0
 59 60  1  0
 60 61  1  0
 61 62  1  0
 62 63  1  0
 63 64  1  0
 64 65  1  0
 65 66  1  0
 66 67  1  0
 67 68  1  0
 68 69  1  0
 69 70  1  0
 70 71  1  0
 71 72  1  0
 72 73  1  0
 73 74  1  0
 74 75  1  0
 75 76  1  0
 76 77  1  0
 77 78  1  0
 78 79  1  0
 79 80  1  0
 80 81  1  0
 81 82  1  0
 82 83  1  0
 83 84  1  0
 84 85  1  0
 85 86  1  0
 86 87  1  0
 87 88  1  0
 88 89  1  0
 89 90  1  0
 90 91  1  0
 91 92  1  0
 92 93  1  0
 93 94  1  0
 94 95  1  0
 95 96  1  0
 96 97  1  0
 97 98  1  0
 98 99  1  0
 99100  1  0
100101  1  0
101102  1  0
102103  1  0
103104  1  0
104  2  1  0
M  END
>  <Title>  (339) 
idAALCgen9

$$$$

     RDKit          2D

 10 10  0  0  0  0  0  0  0  0999 V2000
    5.0260   -1.2990    0.0000 C   0  0  0  0  0  0  0  0  0  0  0  0
    3.5260   -1.2990    0.0000 C   0  0  0  0  0  0  0  0  0  0  0  0
    2.7760    0.0000    0.0000 C   0  0  0  0  0  0  0  0  0  0  0  0
    1.2760    0.0000    0.0000 C   0  0  0  0  0  0  0  0  0  0  0  0
    0.3943    1.2135    0.0000 C   0  0  0  0  0  0  0  0  0  0  0  0
   -1.0323    0.7500    0.0000 C   0  0  0  0  0  0  0  0  0  0  0  0
   -2.2458    1.6317    0.0000 C   0  0  0  0  0  0  0  0  0  0  0  0
   -3.4593    2.5134    0.0000 N   0  0  0  0  0  0  0  0  0  0  0  0
   -1.0323   -0.7500    0.0000 C   0  0  0  0  0  0  0  0  0  0  0  0
    0.3943   -1.2135    0.0000 C   0  0  0  0  0  0  0  0  0  0  0  0
  1  2  1  0
  2  3  1  0
  3  4  1  0
  4  5  2  0
  5  6  1  0
  6  7  1  0
  7  8  3  0
  6  9  1  0
  9 10  2  0
 10  4  1  0
M  END
>  <Title>  (340) 
idAALDgen9

$$$$

     RDKit          2D

 19 19  0  0  0  0  0  0  0  0999 V2000
   22.2760   -0.0000    0.0000 C   0  0  0  0  0  0  0  0  0  0  0  0
   20.7760   -0.0000    0.0000 C   0  0  0  0  0  0  0  0  0  0  0  0
   19.2760   -0.0000    0.0000 C   0  0  0  0  0  0  0  0  0  0  0  0
   17.7760   -0.0000    0.0000 C   0  0  0  0  0  0  0  0  0  0  0  0
   16.2760   -0.0000    0.0000 C   0  0  0  0  0  0  0  0  0  0  0  0
   14.7760   -0.0000    0.0000 C   0  0  0  0  0  0  0  0  0  0  0  0
   13.2760   -0.0000    0.0000 C   0  0  0  0  0  0  0  0  0  0  0  0
   11.7760   -0.0000    0.0000 C   0  0  0  0  0  0  0  0  0  0  0  0
   10.2760   -0.0000    0.0000 C   0  0  0  0  0  0  0  0  0  0  0  0
    8.7760   -0.0000    0.0000 C   0  0  0  0  0  0  0  0  0  0  0  0
    7.2760   -0.0000    0.0000 C   0  0  0  0  0  0  0  0  0  0  0  0
    5.7760   -0.0000    0.0000 C   0  0  0  0  0  0  0  0  0  0  0  0
    4.2760   -0.0000    0.0000 C   0  0  0  0  0  0  0  0  0  0  0  0
    2.7760    0.0000    0.0000 C   0  0  0  0  0  0  0  0  0  0  0  0
    1.2760    0.0000    0.0000 C   0  0  0  0  0  0  0  0  0  0  0  0
    0.3943    1.2135    0.0000 C   0  0  0  0  0  0  0  0  0  0  0  0
   -1.0323    0.7500    0.0000 C   0  0  0  0  0  0  0  0  0  0  0  0
   -1.0323   -0.7500    0.0000 C   0  0  0  0  0  0  0  0  0  0  0  0
    0.3943   -1.2135    0.0000 C   0  0  0  0  0  0  0  0  0  0  0  0
  1  2  3  0
  2  3  1  0
  3  4  3  0
  4  5  1  0
  5  6  3  0
  6  7  1  0
  7  8  3  0
  8  9  1  0
  9 10  3  0
 10 11  1  0
 11 12  3  0
 12 13  1  0
 13 14  3  0
 14 15  1  0
 15 16  2  0
 16 17  1  0
 17 18  2  0
 18 19  1  0
 19 15  1  0
M  END
>  <Title>  (341) 
idAALEgen9

$$$$

     RDKit          2D

  6  6  0  0  0  0  0  0  0  0999 V2000
    2.7760    0.0000    0.0000 C   0  0  0  0  0  0  0  0  0  0  0  0
    1.2760    0.0000    0.0000 N   0  0  0  0  0  0  0  0  0  0  0  0
    0.3943    1.2135    0.0000 C   0  0  0  0  0  0  0  0  0  0  0  0
   -1.0323    0.7500    0.0000 C   0  0  0  0  0  0  0  0  0  0  0  0
   -1.0323   -0.7500    0.0000 C   0  0  0  0  0  0  0  0  0  0  0  0
    0.3943   -1.2135    0.0000 C   0  0  0  0  0  0  0  0  0  0  0  0
  1  2  1  0
  2  3  1  0
  3  4  2  0
  4  5  1  0
  5  6  1  0
  6  2  1  0
M  END
>  <Title>  (342) 
idAALFgen9

$$$$

     RDKit          2D

  6  6  0  0  0  0  0  0  0  0999 V2000
    2.7760    0.0000    0.0000 C   0  0  0  0  0  0  0  0  0  0  0  0
    1.2760    0.0000    0.0000 C   0  0  0  0  0  0  0  0  0  0  0  0
    0.3943    1.2135    0.0000 C   0  0  0  0  0  0  0  0  0  0  0  0
   -1.0323    0.7500    0.0000 C   0  0  0  0  0  0  0  0  0  0  0  0
   -1.0323   -0.7500    0.0000 C   0  0  0  0  0  0  0  0  0  0  0  0
    0.3943   -1.2135    0.0000 C   0  0  0  0  0  0  0  0  0  0  0  0
  1  2  1  0
  2  3  1  0
  3  4  2  0
  4  5  1  0
  5  6  1  0
  6  2  1  0
M  END
>  <Title>  (343) 
idAALGgen9

$$$$

     RDKit          2D

 14 14  0  0  0  0  0  0  0  0999 V2000
   12.5260   -1.2990    0.0000 C   0  0  0  0  0  0  0  0  0  0  0  0
   11.0260   -1.2990    0.0000 C   0  0  0  0  0  0  0  0  0  0  0  0
    9.5260   -1.2990    0.0000 C   0  0  0  0  0  0  0  0  0  0  0  0
    8.0260   -1.2990    0.0000 C   0  0  0  0  0  0  0  0  0  0  0  0
    6.5260   -1.2990    0.0000 C   0  0  0  0  0  0  0  0  0  0  0  0
    5.0260   -1.2990    0.0000 C   0  0  0  0  0  0  0  0  0  0  0  0
    3.5260   -1.2990    0.0000 C   0  0  0  0  0  0  0  0  0  0  0  0
    2.7760    0.0000    0.0000 C   0  0  0  0  0  0  0  0  0  0  0  0
    3.5260    1.2990    0.0000 O   0  0  0  0  0  0  0  0  0  0  0  0
    1.2760    0.0000    0.0000 C   0  0  0  0  0  0  0  0  0  0  0  0
    0.3943    1.2135    0.0000 C   0  0  0  0  0  0  0  0  0  0  0  0
   -1.0323    0.7500    0.0000 C   0  0  0  0  0  0  0  0  0  0  0  0
   -1.0323   -0.7500    0.0000 C   0  0  0  0  0  0  0  0  0  0  0  0
    0.3943   -1.2135    0.0000 C   0  0  0  0  0  0  0  0  0  0  0  0
  1  2  3  0
  2  3  1  0
  3  4  3  0
  4  5  1  0
  5  6  3  0
  6  7  1  0
  7  8  1  0
  8  9  2  0
  8 10  1  0
 10 11  2  0
 11 12  1  0
 12 13  2  0
 13 14  1  0
 14 10  1  0
M  END
>  <Title>  (344) 
idAALHgen9

$$$$

     RDKit          2D

 15 16  0  0  0  0  0  0  0  0999 V2000
    3.0000   -2.5981    0.0000 O   0  0  0  0  0  0  0  0  0  0  0  0
    3.7500   -1.2990    0.0000 C   0  0  0  0  0  0  0  0  0  0  0  0
    5.2500   -1.2990    0.0000 O   0  0  0  0  0  0  0  0  0  0  0  0
    3.0000    0.0000    0.0000 O   0  0  0  0  0  0  0  0  0  0  0  0
    1.5000    0.0000    0.0000 C   0  0  0  0  0  0  0  0  0  0  0  0
    0.7500   -1.2990    0.0000 C   0  0  0  0  0  0  0  0  0  0  0  0
   -0.7500   -1.2990    0.0000 C   0  0  0  0  0  0  0  0  0  0  0  0
   -1.5000    0.0000    0.0000 C   0  0  0  0  0  0  0  0  0  0  0  0
   -0.7500    1.2990    0.0000 C   0  0  0  0  0  0  0  0  0  0  0  0
    0.7500    1.2990    0.0000 C   0  0  0  0  0  0  0  0  0  0  0  0
    1.5000    2.5981    0.0000 C   0  0  0  0  0  0  0  0  0  0  0  0
    0.8899    3.9684    0.0000 C   0  0  0  0  0  0  0  0  0  0  0  0
    2.0046    4.9721    0.0000 C   0  0  0  0  0  0  0  0  0  0  0  0
    3.3037    4.2221    0.0000 C   0  0  0  0  0  0  0  0  0  0  0  0
    2.9918    2.7549    0.0000 C   0  0  0  0  0  0  0  0  0  0  0  0
  1  2  2  0
  2  3  1  0
  2  4  1  0
  4  5  1  0
  5  6  2  0
  6  7  1  0
  7  8  2  0
  8  9  1  0
  9 10  2  0
 10 11  1  0
 11 12  2  0
 12 13  1  0
 13 14  2  0
 14 15  1  0
 10  5  1  0
 15 11  1  0
M  END
>  <Title>  (345) 
idAALIgen9

$$$$

     RDKit          2D

 22 24  0  0  0  0  0  0  0  0999 V2000
    9.1375    4.9736    0.0000 C   0  0  0  0  0  0  0  0  0  0  0  0
    8.9807    3.4818    0.0000 N   0  0  0  0  0  0  0  0  0  0  0  0
    7.6104    2.8717    0.0000 C   0  0  0  0  0  0  0  0  0  0  0  0
    7.4536    1.3799    0.0000 C   0  0  0  0  0  0  0  0  0  0  0  0
    6.1545    0.6299    0.0000 C   0  0  0  0  0  0  0  0  0  0  0  0
    6.4664   -0.8373    0.0000 C   0  0  0  0  0  0  0  0  0  0  0  0
    5.4627   -1.9520    0.0000 C   0  0  0  0  0  0  0  0  0  0  0  0
    5.9262   -3.3786    0.0000 O   0  0  0  0  0  0  0  0  0  0  0  0
    3.9955   -1.6402    0.0000 N   0  0  0  0  0  0  0  0  0  0  0  0
    2.9918   -2.7549    0.0000 C   0  0  0  0  0  0  0  0  0  0  0  0
    3.3037   -4.2221    0.0000 N   0  0  0  0  0  0  0  0  0  0  0  0
    2.0046   -4.9721    0.0000 N   0  0  0  0  0  0  0  0  0  0  0  0
    0.8899   -3.9684    0.0000 N   0  0  0  0  0  0  0  0  0  0  0  0
    1.5000   -2.5981    0.0000 N   0  0  0  0  0  0  0  0  0  0  0  0
    0.7500   -1.2990    0.0000 C   0  0  0  0  0  0  0  0  0  0  0  0
    1.5000    0.0000    0.0000 C   0  0  0  0  0  0  0  0  0  0  0  0
    0.7500    1.2990    0.0000 C   0  0  0  0  0  0  0  0  0  0  0  0
   -0.7500    1.2990    0.0000 C   0  0  0  0  0  0  0  0  0  0  0  0
   -1.5000    0.0000    0.0000 C   0  0  0  0  0  0  0  0  0  0  0  0
   -0.7500   -1.2990    0.0000 C   0  0  0  0  0  0  0  0  0  0  0  0
    7.9582   -0.9941    0.0000 C   0  0  0  0  0  0  0  0  0  0  0  0
    8.5683    0.3762    0.0000 C   0  0  0  0  0  0  0  0  0  0  0  0
  1  2  1  0
  2  3  1  0
  3  4  1  0
  4  5  2  0
  5  6  1  0
  6  7  1  0
  7  8  2  0
  7  9  1  0
  9 10  1  0
 10 11  2  0
 11 12  1  0
 12 13  2  0
 13 14  1  0
 14 15  1  0
 15 16  2  0
 16 17  1  0
 17 18  2  0
 18 19  1  0
 19 20  2  0
  6 21  1  0
 21 22  2  0
 22  4  1  0
 14 10  1  0
 20 15  1  0
M  END
>  <Title>  (346) 
idAALJgen9

$$$$

     RDKit          2D

 28 28  0  0  0  0  0  0  0  0999 V2000
    7.7222    0.0000    0.0000 C   0  0  0  0  0  0  0  0  0  0  0  0
    6.2222    0.0000    0.0000 C   0  0  0  0  0  0  0  0  0  0  0  0
    6.0414   -1.4891    0.0000 C   0  0  0  0  0  0  0  0  0  0  0  0
    5.5095   -2.8916    0.0000 C   0  0  0  0  0  0  0  0  0  0  0  0
    4.6574   -4.1261    0.0000 C   0  0  0  0  0  0  0  0  0  0  0  0
    3.5346   -5.1207    0.0000 C   0  0  0  0  0  0  0  0  0  0  0  0
    2.2064   -5.8178    0.0000 C   0  0  0  0  0  0  0  0  0  0  0  0
    0.7500   -6.1768    0.0000 C   0  0  0  0  0  0  0  0  0  0  0  0
   -0.7500   -6.1768    0.0000 C   0  0  0  0  0  0  0  0  0  0  0  0
   -2.2064   -5.8178    0.0000 C   0  0  0  0  0  0  0  0  0  0  0  0
   -3.5346   -5.1207    0.0000 C   0  0  0  0  0  0  0  0  0  0  0  0
   -4.6574   -4.1261    0.0000 C   0  0  0  0  0  0  0  0  0  0  0  0
   -5.5095   -2.8916    0.0000 C   0  0  0  0  0  0  0  0  0  0  0  0
   -6.0414   -1.4891    0.0000 C   0  0  0  0  0  0  0  0  0  0  0  0
   -6.2222    0.0000    0.0000 C   0  0  0  0  0  0  0  0  0  0  0  0
   -6.0414    1.4891    0.0000 C   0  0  0  0  0  0  0  0  0  0  0  0
   -5.5095    2.8916    0.0000 C   0  0  0  0  0  0  0  0  0  0  0  0
   -4.6574    4.1261    0.0000 C   0  0  0  0  0  0  0  0  0  0  0  0
   -3.5346    5.1207    0.0000 C   0  0  0  0  0  0  0  0  0  0  0  0
   -2.2064    5.8178    0.0000 C   0  0  0  0  0  0  0  0  0  0  0  0
   -0.7500    6.1768    0.0000 C   0  0  0  0  0  0  0  0  0  0  0  0
    0.7500    6.1768    0.0000 C   0  0  0  0  0  0  0  0  0  0  0  0
    2.2064    5.8178    0.0000 C   0  0  0  0  0  0  0  0  0  0  0  0
    3.5346    5.1207    0.0000 C   0  0  0  0  0  0  0  0  0  0  0  0
    4.6574    4.1261    0.0000 C   0  0  0  0  0  0  0  0  0  0  0  0
    5.5095    2.8916    0.0000 C   0  0  0  0  0  0  0  0  0  0  0  0
    6.0414    1.4891    0.0000 C   0  0  0  0  0  0  0  0  0  0  0  0
    7.4978    1.8480    0.0000 O   0  0  0  0  0  0  0  0  0  0  0  0
  1  2  1  0
  2  3  1  0
  3  4  2  0
  4  5  1  0
  5  6  2  0
  6  7  1  0
  7  8  2  0
  8  9  1  0
  9 10  2  0
 10 11  1  0
 11 12  2  0
 12 13  1  0
 13 14  2  0
 14 15  1  0
 15 16  2  0
 16 17  1  0
 17 18  2  0
 18 19  1  0
 19 20  2  0
 20 21  1  0
 21 22  2  0
 22 23  1  0
 23 24  2  0
 24 25  1  0
 25 26  2  0
 26 27  1  0
 27 28  1  0
 27  2  1  0
M  END
>  <Title>  (347) 
idAALKgen9

$$$$

     RDKit          2D

 55 63  0  0  0  0  0  0  0  0999 V2000
    5.2417   -6.1122    0.0000 C   0  0  0  0  0  0  0  0  0  0  0  0
    3.7705   -5.8195    0.0000 C   0  0  0  0  0  0  0  0  0  0  0  0
    3.7705   -4.3195    0.0000 C   0  0  0  0  0  0  0  0  0  0  0  0
    3.1965   -2.9337    0.0000 C   0  0  0  0  0  0  0  0  0  0  0  0
    2.1358   -1.8731    0.0000 C   0  0  0  0  0  0  0  0  0  0  0  0
    2.9692   -0.6259    0.0000 C   0  0  0  0  0  0  0  0  0  0  0  0
    2.3057    0.7195    0.0000 O   0  0  0  0  0  0  0  0  0  0  0  0
    4.4660   -0.7240    0.0000 N   0  0  0  0  0  0  0  0  0  0  0  0
    5.2993    0.5232    0.0000 C   0  0  0  0  0  0  0  0  0  0  0  0
    4.7801    1.9305    0.0000 N   0  0  0  0  0  0  0  0  0  0  0  0
    5.9581    2.8592    0.0000 N   0  0  0  0  0  0  0  0  0  0  0  0
    7.2053    2.0258    0.0000 N   0  0  0  0  0  0  0  0  0  0  0  0
    6.7982    0.5821    0.0000 N   0  0  0  0  0  0  0  0  0  0  0  0
    7.7268   -0.5958    0.0000 C   0  0  0  0  0  0  0  0  0  0  0  0
    7.1710   -1.9891    0.0000 C   0  0  0  0  0  0  0  0  0  0  0  0
    8.0996   -3.1670    0.0000 C   0  0  0  0  0  0  0  0  0  0  0  0
    9.5841   -2.9518    0.0000 C   0  0  0  0  0  0  0  0  0  0  0  0
   10.1399   -1.5586    0.0000 C   0  0  0  0  0  0  0  0  0  0  0  0
    9.2113   -0.3806    0.0000 C   0  0  0  0  0  0  0  0  0  0  0  0
    0.7500   -1.2990    0.0000 C   0  0  0  0  0  0  0  0  0  0  0  0
    1.5000    0.0000    0.0000 C   0  0  0  0  0  0  0  0  0  0  0  0
    0.7500    1.2990    0.0000 C   0  0  0  0  0  0  0  0  0  0  0  0
   -0.7500    1.2990    0.0000 C   0  0  0  0  0  0  0  0  0  0  0  0
   -1.5000    0.0000    0.0000 C   0  0  0  0  0  0  0  0  0  0  0  0
   -0.7500   -1.2990    0.0000 C   0  0  0  0  0  0  0  0  0  0  0  0
   -2.1358   -1.8731    0.0000 C   0  0  0  0  0  0  0  0  0  0  0  0
   -2.5240   -0.4242    0.0000 C   0  0  0  0  0  0  0  0  0  0  0  0
   -3.9729   -0.0359    0.0000 C   0  0  0  0  0  0  0  0  0  0  0  0
   -5.0336   -1.0966    0.0000 C   0  0  0  0  0  0  0  0  0  0  0  0
   -4.6454   -2.5455    0.0000 C   0  0  0  0  0  0  0  0  0  0  0  0
   -3.1965   -2.9337    0.0000 C   0  0  0  0  0  0  0  0  0  0  0  0
   -3.7705   -4.3195    0.0000 C   0  0  0  0  0  0  0  0  0  0  0  0
   -5.0695   -3.5695    0.0000 C   0  0  0  0  0  0  0  0  0  0  0  0
   -6.3686   -4.3195    0.0000 C   0  0  0  0  0  0  0  0  0  0  0  0
   -6.3686   -5.8195    0.0000 C   0  0  0  0  0  0  0  0  0  0  0  0
   -5.0695   -6.5695    0.0000 C   0  0  0  0  0  0  0  0  0  0  0  0
   -3.7705   -5.8195    0.0000 C   0  0  0  0  0  0  0  0  0  0  0  0
   -3.1965   -7.2054    0.0000 C   0  0  0  0  0  0  0  0  0  0  0  0
   -4.6454   -7.5936    0.0000 C   0  0  0  0  0  0  0  0  0  0  0  0
   -5.0336   -9.0425    0.0000 C   0  0  0  0  0  0  0  0  0  0  0  0
   -3.9729  -10.1031    0.0000 C   0  0  0  0  0  0  0  0  0  0  0  0
   -2.5240   -9.7149    0.0000 C   0  0  0  0  0  0  0  0  0  0  0  0
   -2.1358   -8.2660    0.0000 C   0  0  0  0  0  0  0  0  0  0  0  0
   -0.7500   -8.8400    0.0000 C   0  0  0  0  0  0  0  0  0  0  0  0
   -1.5000  -10.1391    0.0000 C   0  0  0  0  0  0  0  0  0  0  0  0
   -0.7500  -11.4381    0.0000 C   0  0  0  0  0  0  0  0  0  0  0  0
    0.7500  -11.4381    0.0000 C   0  0  0  0  0  0  0  0  0  0  0  0
    1.5000  -10.1391    0.0000 C   0  0  0  0  0  0  0  0  0  0  0  0
    0.7500   -8.8400    0.0000 C   0  0  0  0  0  0  0  0  0  0  0  0
    2.1358   -8.2660    0.0000 C   0  0  0  0  0  0  0  0  0  0  0  0
    2.5240   -9.7149    0.0000 C   0  0  0  0  0  0  0  0  0  0  0  0
    3.9729  -10.1031    0.0000 C   0  0  0  0  0  0  0  0  0  0  0  0
    5.0336   -9.0425    0.0000 C   0  0  0  0  0  0  0  0  0  0  0  0
    4.6454   -7.5936    0.0000 C   0  0  0  0  0  0  0  0  0  0  0  0
    3.1965   -7.2054    0.0000 C   0  0  0  0  0  0  0  0  0  0  0  0
  1  2  1  0
  2  3  1  0
  3  4  1  0
  4  5  1  0
  5  6  1  0
  6  7  2  0
  6  8  1  0
  8  9  1  0
  9 10  2  0
 10 11  1  0
 11 12  2  0
 12 13  1  0
 13 14  1  0
 14 15  2  0
 15 16  1  0
 16 17  2  0
 17 18  1  0
 18 19  2  0
  5 20  1  0
 20 21  2  0
 21 22  1  0
 22 23  2  0
 23 24  1  0
 24 25  2  0
 25 26  1  0
 26 27  2  0
 27 28  1  0
 28 29  2  0
 29 30  1  0
 30 31  2  0
 31 32  1  0
 32 33  2  0
 33 34  1  0
 34 35  2  0
 35 36  1  0
 36 37  2  0
 37 38  1  0
 38 39  2  0
 39 40  1  0
 40 41  2  0
 41 42  1  0
 42 43  2  0
 43 44  1  0
 44 45  2  0
 45 46  1  0
 46 47  2  0
 47 48  1  0
 48 49  2  0
 49 50  1  0
 50 51  2  0
 51 52  1  0
 52 53  2  0
 53 54  1  0
 54 55  2  0
 55  2  1  0
 13  9  1  0
 19 14  1  0
 25 20  1  0
 31 26  1  0
 37 32  1  0
 43 38  1  0
 49 44  1  0
 55 50  1  0
M  END
>  <Title>  (348) 
idAALLgen9

$$$$

     RDKit          2D

 12 12  0  0  0  0  0  0  0  0999 V2000
   10.2760   -0.0000    0.0000 C   0  0  0  0  0  0  0  0  0  0  0  0
    8.7760   -0.0000    0.0000 C   0  0  0  0  0  0  0  0  0  0  0  0
    7.2760   -0.0000    0.0000 C   0  0  0  0  0  0  0  0  0  0  0  0
    5.7760   -0.0000    0.0000 C   0  0  0  0  0  0  0  0  0  0  0  0
    4.2760   -0.0000    0.0000 C   0  0  0  0  0  0  0  0  0  0  0  0
    2.7760    0.0000    0.0000 C   0  0  0  0  0  0  0  0  0  0  0  0
    1.2760    0.0000    0.0000 C   0  0  0  0  0  0  0  0  0  0  0  0
    0.3943    1.2135    0.0000 C   0  0  0  0  0  0  0  0  0  0  0  0
   -1.0323    0.7500    0.0000 C   0  0  0  0  0  0  0  0  0  0  0  0
   -1.0323   -0.7500    0.0000 C   0  0  0  0  0  0  0  0  0  0  0  0
    0.3943   -1.2135    0.0000 C   0  0  0  0  0  0  0  0  0  0  0  0
    0.8578   -2.6401    0.0000 O   0  0  0  0  0  0  0  0  0  0  0  0
  1  2  3  0
  2  3  1  0
  3  4  3  0
  4  5  1  0
  5  6  3  0
  6  7  1  0
  7  8  2  0
  8  9  1  0
  9 10  1  0
 10 11  2  0
 11 12  1  0
 11  7  1  0
M  END
>  <Title>  (349) 
idAALMgen9

$$$$

     RDKit          2D

 67 77  0  0  0  0  0  0  0  0999 V2000
    5.6570   -3.0089    0.0000 C   0  0  0  0  0  0  0  0  0  0  0  0
    4.3580   -3.7589    0.0000 C   0  0  0  0  0  0  0  0  0  0  0  0
    3.4227   -2.5862    0.0000 C   0  0  0  0  0  0  0  0  0  0  0  0
    2.1834   -1.7412    0.0000 C   0  0  0  0  0  0  0  0  0  0  0  0
    2.8342   -0.3897    0.0000 C   0  0  0  0  0  0  0  0  0  0  0  0
    1.9892    0.8496    0.0000 O   0  0  0  0  0  0  0  0  0  0  0  0
    4.3300   -0.2776    0.0000 N   0  0  0  0  0  0  0  0  0  0  0  0
    4.9808    1.0738    0.0000 C   0  0  0  0  0  0  0  0  0  0  0  0
    6.4766    1.1859    0.0000 N   0  0  0  0  0  0  0  0  0  0  0  0
    7.1274    2.5374    0.0000 N   0  0  0  0  0  0  0  0  0  0  0  0
    6.2825    3.7767    0.0000 N   0  0  0  0  0  0  0  0  0  0  0  0
    4.7867    3.6646    0.0000 N   0  0  0  0  0  0  0  0  0  0  0  0
    4.1358    2.3132    0.0000 N   0  0  0  0  0  0  0  0  0  0  0  0
    0.7500   -1.2990    0.0000 C   0  0  0  0  0  0  0  0  0  0  0  0
    1.5000    0.0000    0.0000 C   0  0  0  0  0  0  0  0  0  0  0  0
    0.7500    1.2990    0.0000 C   0  0  0  0  0  0  0  0  0  0  0  0
   -0.7500    1.2990    0.0000 C   0  0  0  0  0  0  0  0  0  0  0  0
   -1.5000    0.0000    0.0000 C   0  0  0  0  0  0  0  0  0  0  0  0
   -0.7500   -1.2990    0.0000 C   0  0  0  0  0  0  0  0  0  0  0  0
   -2.1834   -1.7412    0.0000 C   0  0  0  0  0  0  0  0  0  0  0  0
   -2.2955   -0.2454    0.0000 C   0  0  0  0  0  0  0  0  0  0  0  0
   -3.6469    0.4055    0.0000 C   0  0  0  0  0  0  0  0  0  0  0  0
   -4.8863   -0.4395    0.0000 C   0  0  0  0  0  0  0  0  0  0  0  0
   -4.7742   -1.9353    0.0000 C   0  0  0  0  0  0  0  0  0  0  0  0
   -3.4227   -2.5862    0.0000 C   0  0  0  0  0  0  0  0  0  0  0  0
   -4.3580   -3.7589    0.0000 C   0  0  0  0  0  0  0  0  0  0  0  0
   -5.2932   -2.5862    0.0000 C   0  0  0  0  0  0  0  0  0  0  0  0
   -6.7764   -2.8097    0.0000 C   0  0  0  0  0  0  0  0  0  0  0  0
   -7.3244   -4.2060    0.0000 C   0  0  0  0  0  0  0  0  0  0  0  0
   -6.3892   -5.3788    0.0000 C   0  0  0  0  0  0  0  0  0  0  0  0
   -4.9060   -5.1552    0.0000 C   0  0  0  0  0  0  0  0  0  0  0  0
   -5.0181   -6.6510    0.0000 C   0  0  0  0  0  0  0  0  0  0  0  0
   -6.4514   -6.2089    0.0000 C   0  0  0  0  0  0  0  0  0  0  0  0
   -7.5510   -7.2291    0.0000 C   0  0  0  0  0  0  0  0  0  0  0  0
   -7.2172   -8.6915    0.0000 C   0  0  0  0  0  0  0  0  0  0  0  0
   -5.7839   -9.1337    0.0000 C   0  0  0  0  0  0  0  0  0  0  0  0
   -4.6843   -8.1134    0.0000 C   0  0  0  0  0  0  0  0  0  0  0  0
   -3.9343   -9.4124    0.0000 C   0  0  0  0  0  0  0  0  0  0  0  0
   -5.3676   -9.8546    0.0000 C   0  0  0  0  0  0  0  0  0  0  0  0
   -5.7014  -11.3170    0.0000 C   0  0  0  0  0  0  0  0  0  0  0  0
   -4.6018  -12.3372    0.0000 C   0  0  0  0  0  0  0  0  0  0  0  0
   -3.1685  -11.8951    0.0000 C   0  0  0  0  0  0  0  0  0  0  0  0
   -2.8347  -10.4327    0.0000 C   0  0  0  0  0  0  0  0  0  0  0  0
   -1.4832  -11.0835    0.0000 C   0  0  0  0  0  0  0  0  0  0  0  0
   -2.4185  -12.2563    0.0000 C   0  0  0  0  0  0  0  0  0  0  0  0
   -1.8705  -13.6526    0.0000 C   0  0  0  0  0  0  0  0  0  0  0  0
   -0.3872  -13.8762    0.0000 C   0  0  0  0  0  0  0  0  0  0  0  0
    0.5480  -12.7034    0.0000 C   0  0  0  0  0  0  0  0  0  0  0  0
   -0.0000  -11.3071    0.0000 C   0  0  0  0  0  0  0  0  0  0  0  0
    1.4832  -11.0835    0.0000 C   0  0  0  0  0  0  0  0  0  0  0  0
    1.3712  -12.5793    0.0000 C   0  0  0  0  0  0  0  0  0  0  0  0
    2.6105  -13.4243    0.0000 C   0  0  0  0  0  0  0  0  0  0  0  0
    3.9620  -12.7735    0.0000 C   0  0  0  0  0  0  0  0  0  0  0  0
    4.0741  -11.2777    0.0000 C   0  0  0  0  0  0  0  0  0  0  0  0
    2.8347  -10.4327    0.0000 C   0  0  0  0  0  0  0  0  0  0  0  0
    3.9343   -9.4124    0.0000 C   0  0  0  0  0  0  0  0  0  0  0  0
    4.6843  -10.7115    0.0000 C   0  0  0  0  0  0  0  0  0  0  0  0
    6.1843  -10.7115    0.0000 C   0  0  0  0  0  0  0  0  0  0  0  0
    6.9343   -9.4124    0.0000 C   0  0  0  0  0  0  0  0  0  0  0  0
    6.1843   -8.1134    0.0000 C   0  0  0  0  0  0  0  0  0  0  0  0
    4.6843   -8.1134    0.0000 C   0  0  0  0  0  0  0  0  0  0  0  0
    5.0181   -6.6510    0.0000 C   0  0  0  0  0  0  0  0  0  0  0  0
    6.3695   -7.3018    0.0000 C   0  0  0  0  0  0  0  0  0  0  0  0
    7.6089   -6.4569    0.0000 C   0  0  0  0  0  0  0  0  0  0  0  0
    7.4968   -4.9611    0.0000 C   0  0  0  0  0  0  0  0  0  0  0  0
    6.1453   -4.3102    0.0000 C   0  0  0  0  0  0  0  0  0  0  0  0
    4.9060   -5.1552    0.0000 C   0  0  0  0  0  0  0  0  0  0  0  0
  1  2  1  0
  2  3  2  0
  3  4  1  0
  4  5  1  0
  5  6  2  0
  5  7  1  0
  7  8  1  0
  8  9  2  0
  9 10  1  0
 10 11  2  0
 11 12  1  0
 12 13  2  0
  4 14  1  0
 14 15  2  0
 15 16  1  0
 16 17  2  0
 17 18  1  0
 18 19  2  0
 19 20  1  0
 20 21  2  0
 21 22  1  0
 22 23  2  0
 23 24  1  0
 24 25  2  0
 25 26  1  0
 26 27  2  0
 27 28  1  0
 28 29  2  0
 29 30  1  0
 30 31  2  0
 31 32  1  0
 32 33  2  0
 33 34  1  0
 34 35  2  0
 35 36  1  0
 36 37  2  0
 37 38  1  0
 38 39  2  0
 39 40  1  0
 40 41  2  0
 41 42  1  0
 42 43  2  0
 43 44  1  0
 44 45  2  0
 45 46  1  0
 46 47  2  0
 47 48  1  0
 48 49  2  0
 49 50  1  0
 50 51  2  0
 51 52  1  0
 52 53  2  0
 53 54  1  0
 54 55  2  0
 55 56  1  0
 56 57  2  0
 57 58  1  0
 58 59  2  0
 59 60  1  0
 60 61  2  0
 61 62  1  0
 62 63  2  0
 63 64  1  0
 64 65  2  0
 65 66  1  0
 66 67  2  0
 67  2  1  0
 13  8  1  0
 19 14  1  0
 25 20  1  0
 31 26  1  0
 37 32  1  0
 43 38  1  0
 49 44  1  0
 55 50  1  0
 61 56  1  0
 67 62  1  0
M  END
>  <Title>  (350) 
idAALNgen9

$$$$

     RDKit          2D

 71 73  0  0  0  0  0  0  0  0999 V2000
   -5.6638   -0.7952    0.0000 C   0  0  0  0  0  0  0  0  0  0  0  0
   -5.1428   -2.2018    0.0000 C   0  0  0  0  0  0  0  0  0  0  0  0
   -6.5212   -2.7933    0.0000 C   0  0  0  0  0  0  0  0  0  0  0  0
   -7.8328   -3.5213    0.0000 C   0  0  0  0  0  0  0  0  0  0  0  0
   -9.0639   -4.3782    0.0000 C   0  0  0  0  0  0  0  0  0  0  0  0
  -10.2020   -5.3552    0.0000 C   0  0  0  0  0  0  0  0  0  0  0  0
  -11.2355   -6.4424    0.0000 C   0  0  0  0  0  0  0  0  0  0  0  0
  -12.1537   -7.6286    0.0000 C   0  0  0  0  0  0  0  0  0  0  0  0
  -12.9471   -8.9015    0.0000 C   0  0  0  0  0  0  0  0  0  0  0  0
  -13.6077  -10.2483    0.0000 C   0  0  0  0  0  0  0  0  0  0  0  0
  -14.1287  -11.6549    0.0000 C   0  0  0  0  0  0  0  0  0  0  0  0
  -14.5046  -13.1070    0.0000 C   0  0  0  0  0  0  0  0  0  0  0  0
  -14.7318  -14.5897    0.0000 C   0  0  0  0  0  0  0  0  0  0  0  0
  -14.8077  -16.0878    0.0000 C   0  0  0  0  0  0  0  0  0  0  0  0
  -14.7318  -17.5859    0.0000 C   0  0  0  0  0  0  0  0  0  0  0  0
  -14.5046  -19.0686    0.0000 C   0  0  0  0  0  0  0  0  0  0  0  0
  -14.1287  -20.5207    0.0000 C   0  0  0  0  0  0  0  0  0  0  0  0
  -13.6077  -21.9273    0.0000 C   0  0  0  0  0  0  0  0  0  0  0  0
  -12.9471  -23.2740    0.0000 C   0  0  0  0  0  0  0  0  0  0  0  0
  -12.1537  -24.5470    0.0000 C   0  0  0  0  0  0  0  0  0  0  0  0
  -11.2355  -25.7331    0.0000 C   0  0  0  0  0  0  0  0  0  0  0  0
  -10.2020  -26.8203    0.0000 C   0  0  0  0  0  0  0  0  0  0  0  0
   -9.0639  -27.7974    0.0000 C   0  0  0  0  0  0  0  0  0  0  0  0
   -7.8328  -28.6543    0.0000 C   0  0  0  0  0  0  0  0  0  0  0  0
   -6.5212  -29.3822    0.0000 C   0  0  0  0  0  0  0  0  0  0  0  0
   -5.1428  -29.9738    0.0000 C   0  0  0  0  0  0  0  0  0  0  0  0
   -3.7116  -30.4228    0.0000 C   0  0  0  0  0  0  0  0  0  0  0  0
   -2.2423  -30.7248    0.0000 C   0  0  0  0  0  0  0  0  0  0  0  0
   -0.7500  -30.8765    0.0000 C   0  0  0  0  0  0  0  0  0  0  0  0
    0.7500  -30.8765    0.0000 C   0  0  0  0  0  0  0  0  0  0  0  0
    2.2423  -30.7248    0.0000 C   0  0  0  0  0  0  0  0  0  0  0  0
    3.7116  -30.4228    0.0000 C   0  0  0  0  0  0  0  0  0  0  0  0
    5.1428  -29.9738    0.0000 C   0  0  0  0  0  0  0  0  0  0  0  0
    6.5212  -29.3822    0.0000 C   0  0  0  0  0  0  0  0  0  0  0  0
    7.8328  -28.6543    0.0000 C   0  0  0  0  0  0  0  0  0  0  0  0
    9.0639  -27.7974    0.0000 C   0  0  0  0  0  0  0  0  0  0  0  0
   10.2020  -26.8203    0.0000 C   0  0  0  0  0  0  0  0  0  0  0  0
   11.2355  -25.7331    0.0000 C   0  0  0  0  0  0  0  0  0  0  0  0
   12.1537  -24.5470    0.0000 C   0  0  0  0  0  0  0  0  0  0  0  0
   12.9471  -23.2740    0.0000 C   0  0  0  0  0  0  0  0  0  0  0  0
   13.6077  -21.9273    0.0000 C   0  0  0  0  0  0  0  0  0  0  0  0
   14.1287  -20.5207    0.0000 C   0  0  0  0  0  0  0  0  0  0  0  0
   14.5046  -19.0686    0.0000 C   0  0  0  0  0  0  0  0  0  0  0  0
   14.7318  -17.5859    0.0000 C   0  0  0  0  0  0  0  0  0  0  0  0
   14.8077  -16.0878    0.0000 C   0  0  0  0  0  0  0  0  0  0  0  0
   14.7318  -14.5897    0.0000 C   0  0  0  0  0  0  0  0  0  0  0  0
   14.5046  -13.1070    0.0000 C   0  0  0  0  0  0  0  0  0  0  0  0
   14.1287  -11.6549    0.0000 C   0  0  0  0  0  0  0  0  0  0  0  0
   13.6077  -10.2483    0.0000 C   0  0  0  0  0  0  0  0  0  0  0  0
   12.9471   -8.9015    0.0000 C   0  0  0  0  0  0  0  0  0  0  0  0
   12.1537   -7.6286    0.0000 C   0  0  0  0  0  0  0  0  0  0  0  0
   11.2355   -6.4424    0.0000 C   0  0  0  0  0  0  0  0  0  0  0  0
   10.2020   -5.3552    0.0000 C   0  0  0  0  0  0  0  0  0  0  0  0
    9.0639   -4.3782    0.0000 C   0  0  0  0  0  0  0  0  0  0  0  0
    7.8328   -3.5213    0.0000 C   0  0  0  0  0  0  0  0  0  0  0  0
    6.5212   -2.7933    0.0000 C   0  0  0  0  0  0  0  0  0  0  0  0
    5.1428   -2.2018    0.0000 C   0  0  0  0  0  0  0  0  0  0  0  0
    3.7116   -1.7527    0.0000 C   0  0  0  0  0  0  0  0  0  0  0  0
    2.2423   -1.4508    0.0000 C   0  0  0  0  0  0  0  0  0  0  0  0
    0.7500   -1.2990    0.0000 C   0  0  0  0  0  0  0  0  0  0  0  0
    1.5000    0.0000    0.0000 C   0  0  0  0  0  0  0  0  0  0  0  0
    0.7500    1.2990    0.0000 C   0  0  0  0  0  0  0  0  0  0  0  0
   -0.7500    1.2990    0.0000 C   0  0  0  0  0  0  0  0  0  0  0  0
   -1.5000    0.0000    0.0000 C   0  0  0  0  0  0  0  0  0  0  0  0
   -0.7500   -1.2990    0.0000 C   0  0  0  0  0  0  0  0  0  0  0  0
   -2.2423   -1.4508    0.0000 C   0  0  0  0  0  0  0  0  0  0  0  0
   -1.2462   -2.5723    0.0000 C   0  0  0  0  0  0  0  0  0  0  0  0
   -1.7193   -3.9957    0.0000 C   0  0  0  0  0  0  0  0  0  0  0  0
   -3.1886   -4.2976    0.0000 C   0  0  0  0  0  0  0  0  0  0  0  0
   -4.1848   -3.1762    0.0000 C   0  0  0  0  0  0  0  0  0  0  0  0
   -3.7116   -1.7527    0.0000 C   0  0  0  0  0  0  0  0  0  0  0  0
  1  2  1  0
  2  3  1  0
  3  4  1  0
  4  5  1  0
  5  6  1  0
  6  7  1  0
  7  8  1  0
  8  9  1  0
  9 10  1  0
 10 11  1  0
 11 12  1  0
 12 13  1  0
 13 14  1  0
 14 15  1  0
 15 16  1  0
 16 17  1  0
 17 18  1  0
 18 19  1  0
 19 20  1  0
 20 21  1  0
 21 22  1  0
 22 23  1  0
 23 24  1  0
 24 25  1  0
 25 26  1  0
 26 27  1  0
 27 28  1  0
 28 29  1  0
 29 30  1  0
 30 31  1  0
 31 32  1  0
 32 33  1  0
 33 34  1  0
 34 35  1  0
 35 36  1  0
 36 37  1  0
 37 38  1  0
 38 39  1  0
 39 40  1  0
 40 41  1  0
 41 42  1  0
 42 43  1  0
 43 44  1  0
 44 45  1  0
 45 46  1  0
 46 47  1  0
 47 48  1  0
 48 49  1  0
 49 50  1  0
 50 51  1  0
 51 52  1  0
 52 53  1  0
 53 54  1  0
 54 55  1  0
 55 56  1  0
 56 57  1  0
 57 58  1  0
 58 59  1  0
 59 60  1  0
 60 61  1  0
 61 62  1  0
 62 63  1  0
 63 64  1  0
 64 65  1  0
 65 66  1  0
 66 67  2  0
 67 68  1  0
 68 69  2  0
 69 70  1  0
 70 71  2  0
 71  2  1  0
 65 60  1  0
 71 66  1  0
M  END
>  <Title>  (351) 
idAALOgen9

$$$$

     RDKit          2D

  7  7  0  0  0  0  0  0  0  0999 V2000
    4.2760   -0.0000    0.0000 N   0  0  0  0  0  0  0  0  0  0  0  0
    2.7760    0.0000    0.0000 C   0  0  0  0  0  0  0  0  0  0  0  0
    1.2760    0.0000    0.0000 C   0  0  0  0  0  0  0  0  0  0  0  0
    0.3943    1.2135    0.0000 C   0  0  0  0  0  0  0  0  0  0  0  0
   -1.0323    0.7500    0.0000 C   0  0  0  0  0  0  0  0  0  0  0  0
   -1.0323   -0.7500    0.0000 C   0  0  0  0  0  0  0  0  0  0  0  0
    0.3943   -1.2135    0.0000 C   0  0  0  0  0  0  0  0  0  0  0  0
  1  2  3  0
  2  3  1  0
  3  4  2  0
  4  5  1  0
  5  6  1  0
  6  7  1  0
  7  3  1  0
M  END
>  <Title>  (352) 
idAALPgen9

$$$$

     RDKit          2D

115116  0  0  0  0  0  0  0  0999 V2000
   26.8489    4.1810    0.0000 C   0  0  0  0  0  0  0  0  0  0  0  0
   27.6739    2.9282    0.0000 C   0  0  0  0  0  0  0  0  0  0  0  0
   29.1713    3.0162    0.0000 C   0  0  0  0  0  0  0  0  0  0  0  0
   29.9962    1.7634    0.0000 C   0  0  0  0  0  0  0  0  0  0  0  0
   29.3238    0.4226    0.0000 C   0  0  0  0  0  0  0  0  0  0  0  0
   27.8264    0.3346    0.0000 C   0  0  0  0  0  0  0  0  0  0  0  0
   27.0014    1.5874    0.0000 C   0  0  0  0  0  0  0  0  0  0  0  0
   25.5040    1.4994    0.0000 C   0  0  0  0  0  0  0  0  0  0  0  0
   25.5480    0.0000    0.0000 C   0  0  0  0  0  0  0  0  0  0  0  0
   25.5040   -1.4994    0.0000 C   0  0  0  0  0  0  0  0  0  0  0  0
   25.3721   -2.9935    0.0000 C   0  0  0  0  0  0  0  0  0  0  0  0
   25.1526   -4.4774    0.0000 C   0  0  0  0  0  0  0  0  0  0  0  0
   24.8465   -5.9458    0.0000 C   0  0  0  0  0  0  0  0  0  0  0  0
   24.4547   -7.3938    0.0000 C   0  0  0  0  0  0  0  0  0  0  0  0
   23.9787   -8.8162    0.0000 C   0  0  0  0  0  0  0  0  0  0  0  0
   23.4199  -10.2083    0.0000 C   0  0  0  0  0  0  0  0  0  0  0  0
   22.7805  -11.5651    0.0000 C   0  0  0  0  0  0  0  0  0  0  0  0
   22.0625  -12.8821    0.0000 C   0  0  0  0  0  0  0  0  0  0  0  0
   21.2684  -14.1547    0.0000 C   0  0  0  0  0  0  0  0  0  0  0  0
   20.4011  -15.3785    0.0000 C   0  0  0  0  0  0  0  0  0  0  0  0
   19.4634  -16.5493    0.0000 C   0  0  0  0  0  0  0  0  0  0  0  0
   18.4586  -17.6630    0.0000 C   0  0  0  0  0  0  0  0  0  0  0  0
   17.3902  -18.7159    0.0000 C   0  0  0  0  0  0  0  0  0  0  0  0
   16.2618  -19.7042    0.0000 C   0  0  0  0  0  0  0  0  0  0  0  0
   15.0774  -20.6246    0.0000 C   0  0  0  0  0  0  0  0  0  0  0  0
   13.8410  -21.4739    0.0000 C   0  0  0  0  0  0  0  0  0  0  0  0
   12.5569  -22.2492    0.0000 C   0  0  0  0  0  0  0  0  0  0  0  0
   11.2295  -22.9478    0.0000 C   0  0  0  0  0  0  0  0  0  0  0  0
    9.8634  -23.5673    0.0000 C   0  0  0  0  0  0  0  0  0  0  0  0
    8.4633  -24.1055    0.0000 C   0  0  0  0  0  0  0  0  0  0  0  0
    7.0340  -24.5606    0.0000 C   0  0  0  0  0  0  0  0  0  0  0  0
    5.5805  -24.9311    0.0000 C   0  0  0  0  0  0  0  0  0  0  0  0
    4.1077  -25.2157    0.0000 C   0  0  0  0  0  0  0  0  0  0  0  0
    2.6208  -25.4133    0.0000 C   0  0  0  0  0  0  0  0  0  0  0  0
    1.1248  -25.5233    0.0000 C   0  0  0  0  0  0  0  0  0  0  0  0
   -0.3750  -25.5453    0.0000 C   0  0  0  0  0  0  0  0  0  0  0  0
   -1.8736  -25.4792    0.0000 C   0  0  0  0  0  0  0  0  0  0  0  0
   -3.3657  -25.3254    0.0000 C   0  0  0  0  0  0  0  0  0  0  0  0
   -4.8462  -25.0842    0.0000 C   0  0  0  0  0  0  0  0  0  0  0  0
   -6.3099  -24.7566    0.0000 C   0  0  0  0  0  0  0  0  0  0  0  0
   -7.7520  -24.3436    0.0000 C   0  0  0  0  0  0  0  0  0  0  0  0
   -9.1673  -23.8467    0.0000 C   0  0  0  0  0  0  0  0  0  0  0  0
  -10.5510  -23.2676    0.0000 C   0  0  0  0  0  0  0  0  0  0  0  0
  -11.8983  -22.6082    0.0000 C   0  0  0  0  0  0  0  0  0  0  0  0
  -13.2046  -21.8710    0.0000 C   0  0  0  0  0  0  0  0  0  0  0  0
  -14.4654  -21.0583    0.0000 C   0  0  0  0  0  0  0  0  0  0  0  0
  -15.6763  -20.1731    0.0000 C   0  0  0  0  0  0  0  0  0  0  0  0
  -16.8332  -19.2183    0.0000 C   0  0  0  0  0  0  0  0  0  0  0  0
  -17.9321  -18.1973    0.0000 C   0  0  0  0  0  0  0  0  0  0  0  0
  -18.9692  -17.1135    0.0000 C   0  0  0  0  0  0  0  0  0  0  0  0
  -19.9408  -15.9708    0.0000 C   0  0  0  0  0  0  0  0  0  0  0  0
  -20.8437  -14.7730    0.0000 C   0  0  0  0  0  0  0  0  0  0  0  0
  -21.6748  -13.5243    0.0000 C   0  0  0  0  0  0  0  0  0  0  0  0
  -22.4311  -12.2289    0.0000 C   0  0  0  0  0  0  0  0  0  0  0  0
  -23.1102  -10.8914    0.0000 C   0  0  0  0  0  0  0  0  0  0  0  0
  -23.7095   -9.5163    0.0000 C   0  0  0  0  0  0  0  0  0  0  0  0
  -24.2271   -8.1085    0.0000 C   0  0  0  0  0  0  0  0  0  0  0  0
  -24.6613   -6.6727    0.0000 C   0  0  0  0  0  0  0  0  0  0  0  0
  -25.0104   -5.2139    0.0000 C   0  0  0  0  0  0  0  0  0  0  0  0
  -25.2732   -3.7371    0.0000 C   0  0  0  0  0  0  0  0  0  0  0  0
  -25.4490   -2.2474    0.0000 C   0  0  0  0  0  0  0  0  0  0  0  0
  -25.5370   -0.7500    0.0000 C   0  0  0  0  0  0  0  0  0  0  0  0
  -25.5370    0.7500    0.0000 C   0  0  0  0  0  0  0  0  0  0  0  0
  -25.4490    2.2474    0.0000 C   0  0  0  0  0  0  0  0  0  0  0  0
  -25.2732    3.7371    0.0000 C   0  0  0  0  0  0  0  0  0  0  0  0
  -25.0104    5.2139    0.0000 C   0  0  0  0  0  0  0  0  0  0  0  0
  -24.6613    6.6727    0.0000 C   0  0  0  0  0  0  0  0  0  0  0  0
  -24.2271    8.1085    0.0000 C   0  0  0  0  0  0  0  0  0  0  0  0
  -23.7095    9.5163    0.0000 C   0  0  0  0  0  0  0  0  0  0  0  0
  -23.1102   10.8914    0.0000 C   0  0  0  0  0  0  0  0  0  0  0  0
  -22.4311   12.2289    0.0000 C   0  0  0  0  0  0  0  0  0  0  0  0
  -21.6748   13.5243    0.0000 C   0  0  0  0  0  0  0  0  0  0  0  0
  -20.8437   14.7730    0.0000 C   0  0  0  0  0  0  0  0  0  0  0  0
  -19.9408   15.9708    0.0000 C   0  0  0  0  0  0  0  0  0  0  0  0
  -18.9692   17.1135    0.0000 C   0  0  0  0  0  0  0  0  0  0  0  0
  -17.9321   18.1973    0.0000 C   0  0  0  0  0  0  0  0  0  0  0  0
  -16.8332   19.2183    0.0000 C   0  0  0  0  0  0  0  0  0  0  0  0
  -15.6763   20.1731    0.0000 C   0  0  0  0  0  0  0  0  0  0  0  0
  -14.4654   21.0583    0.0000 C   0  0  0  0  0  0  0  0  0  0  0  0
  -13.2046   21.8710    0.0000 C   0  0  0  0  0  0  0  0  0  0  0  0
  -11.8983   22.6082    0.0000 C   0  0  0  0  0  0  0  0  0  0  0  0
  -10.5510   23.2676    0.0000 C   0  0  0  0  0  0  0  0  0  0  0  0
   -9.1673   23.8467    0.0000 C   0  0  0  0  0  0  0  0  0  0  0  0
   -7.7520   24.3436    0.0000 C   0  0  0  0  0  0  0  0  0  0  0  0
   -6.3099   24.7566    0.0000 C   0  0  0  0  0  0  0  0  0  0  0  0
   -4.8462   25.0842    0.0000 C   0  0  0  0  0  0  0  0  0  0  0  0
   -3.3657   25.3254    0.0000 C   0  0  0  0  0  0  0  0  0  0  0  0
   -1.8736   25.4792    0.0000 C   0  0  0  0  0  0  0  0  0  0  0  0
   -0.3750   25.5453    0.0000 C   0  0  0  0  0  0  0  0  0  0  0  0
    1.1248   25.5233    0.0000 C   0  0  0  0  0  0  0  0  0  0  0  0
    2.6208   25.4133    0.0000 C   0  0  0  0  0  0  0  0  0  0  0  0
    4.1077   25.2157    0.0000 C   0  0  0  0  0  0  0  0  0  0  0  0
    5.5805   24.9311    0.0000 C   0  0  0  0  0  0  0  0  0  0  0  0
    7.0340   24.5606    0.0000 C   0  0  0  0  0  0  0  0  0  0  0  0
    8.4633   24.1055    0.0000 C   0  0  0  0  0  0  0  0  0  0  0  0
    9.8634   23.5673    0.0000 C   0  0  0  0  0  0  0  0  0  0  0  0
   11.2295   22.9478    0.0000 C   0  0  0  0  0  0  0  0  0  0  0  0
   12.5569   22.2492    0.0000 C   0  0  0  0  0  0  0  0  0  0  0  0
   13.8410   21.4739    0.0000 C   0  0  0  0  0  0  0  0  0  0  0  0
   15.0774   20.6246    0.0000 C   0  0  0  0  0  0  0  0  0  0  0  0
   16.2618   19.7042    0.0000 C   0  0  0  0  0  0  0  0  0  0  0  0
   17.3902   18.7159    0.0000 C   0  0  0  0  0  0  0  0  0  0  0  0
   18.4586   17.6630    0.0000 C   0  0  0  0  0  0  0  0  0  0  0  0
   19.4634   16.5493    0.0000 C   0  0  0  0  0  0  0  0  0  0  0  0
   20.4011   15.3785    0.0000 C   0  0  0  0  0  0  0  0  0  0  0  0
   21.2684   14.1547    0.0000 C   0  0  0  0  0  0  0  0  0  0  0  0
   22.0625   12.8821    0.0000 C   0  0  0  0  0  0  0  0  0  0  0  0
   22.7805   11.5651    0.0000 C   0  0  0  0  0  0  0  0  0  0  0  0
   23.4199   10.2083    0.0000 C   0  0  0  0  0  0  0  0  0  0  0  0
   23.9787    8.8162    0.0000 C   0  0  0  0  0  0  0  0  0  0  0  0
   24.4547    7.3938    0.0000 C   0  0  0  0  0  0  0  0  0  0  0  0
   24.8465    5.9458    0.0000 C   0  0  0  0  0  0  0  0  0  0  0  0
   25.1526    4.4774    0.0000 C   0  0  0  0  0  0  0  0  0  0  0  0
   25.3721    2.9935    0.0000 C   0  0  0  0  0  0  0  0  0  0  0  0
   26.8617    3.1693    0.0000 C   0  0  0  0  0  0  0  0  0  0  0  0
  1  2  1  0
  2  3  2  0
  3  4  1  0
  4  5  2  0
  5  6  1  0
  6  7  2  0
  7  8  1  0
  8  9  2  0
  9 10  1  0
 10 11  2  0
 11 12  1  0
 12 13  2  0
 13 14  1  0
 14 15  2  0
 15 16  1  0
 16 17  2  0
 17 18  1  0
 18 19  2  0
 19 20  1  0
 20 21  1  0
 21 22  1  0
 22 23  1  0
 23 24  1  0
 24 25  1  0
 25 26  1  0
 26 27  1  0
 27 28  1  0
 28 29  1  0
 29 30  1  0
 30 31  1  0
 31 32  1  0
 32 33  1  0
 33 34  1  0
 34 35  1  0
 35 36  1  0
 36 37  1  0
 37 38  1  0
 38 39  1  0
 39 40  1  0
 40 41  1  0
 41 42  1  0
 42 43  1  0
 43 44  1  0
 44 45  1  0
 45 46  1  0
 46 47  1  0
 47 48  1  0
 48 49  1  0
 49 50  1  0
 50 51  1  0
 51 52  1  0
 52 53  1  0
 53 54  1  0
 54 55  1  0
 55 56  1  0
 56 57  1  0
 57 58  1  0
 58 59  1  0
 59 60  1  0
 60 61  1  0
 61 62  1  0
 62 63  1  0
 63 64  1  0
 64 65  1  0
 65 66  1  0
 66 67  1  0
 67 68  1  0
 68 69  1  0
 69 70  1  0
 70 71  1  0
 71 72  1  0
 72 73  1  0
 73 74  1  0
 74 75  1  0
 75 76  1  0
 76 77  1  0
 77 78  1  0
 78 79  1  0
 79 80  1  0
 80 81  1  0
 81 82  1  0
 82 83  1  0
 83 84  1  0
 84 85  1  0
 85 86  1  0
 86 87  1  0
 87 88  1  0
 88 89  1  0
 89 90  1  0
 90 91  1  0
 91 92  1  0
 92 93  1  0
 93 94  1  0
 94 95  1  0
 95 96  1  0
 96 97  1  0
 97 98  1  0
 98 99  1  0
 99100  1  0
100101  1  0
101102  1  0
102103  1  0
103104  1  0
104105  1  0
105106  1  0
106107  1  0
107108  1  0
108109  1  0
109110  1  0
110111  1  0
111112  1  0
112113  1  0
113114  1  0
114115  1  0
  7  2  1  0
114  8  1  0
M  END
>  <Title>  (353) 
idAALQgen9

$$$$

     RDKit          2D

 12 12  0  0  0  0  0  0  0  0999 V2000
   10.5000    0.0000    0.0000 C   0  0  0  0  0  0  0  0  0  0  0  0
    9.0000    0.0000    0.0000 C   0  0  0  0  0  0  0  0  0  0  0  0
    7.5000    0.0000    0.0000 C   0  0  0  0  0  0  0  0  0  0  0  0
    6.0000    0.0000    0.0000 C   0  0  0  0  0  0  0  0  0  0  0  0
    4.5000    0.0000    0.0000 C   0  0  0  0  0  0  0  0  0  0  0  0
    3.0000    0.0000    0.0000 C   0  0  0  0  0  0  0  0  0  0  0  0
    1.5000    0.0000    0.0000 C   0  0  0  0  0  0  0  0  0  0  0  0
    0.7500   -1.2990    0.0000 C   0  0  0  0  0  0  0  0  0  0  0  0
   -0.7500   -1.2990    0.0000 C   0  0  0  0  0  0  0  0  0  0  0  0
   -1.5000    0.0000    0.0000 C   0  0  0  0  0  0  0  0  0  0  0  0
   -0.7500    1.2990    0.0000 C   0  0  0  0  0  0  0  0  0  0  0  0
    0.7500    1.2990    0.0000 C   0  0  0  0  0  0  0  0  0  0  0  0
  1  2  3  0
  2  3  1  0
  3  4  3  0
  4  5  1  0
  5  6  3  0
  6  7  1  0
  7  8  2  0
  8  9  1  0
  9 10  1  0
 10 11  1  0
 11 12  1  0
 12  7  1  0
M  END
>  <Title>  (354) 
idAALRgen9

$$$$

     RDKit          2D

 61 70  0  0  0  0  0  0  0  0999 V2000
    5.5465   -3.3606    0.0000 C   0  0  0  0  0  0  0  0  0  0  0  0
    4.1729   -3.9632    0.0000 C   0  0  0  0  0  0  0  0  0  0  0  0
    3.3524   -2.7074    0.0000 C   0  0  0  0  0  0  0  0  0  0  0  0
    2.1687   -1.7861    0.0000 C   0  0  0  0  0  0  0  0  0  0  0  0
    2.8826   -0.4669    0.0000 C   0  0  0  0  0  0  0  0  0  0  0  0
    2.0971    0.8110    0.0000 O   0  0  0  0  0  0  0  0  0  0  0  0
    4.3821   -0.4255    0.0000 N   0  0  0  0  0  0  0  0  0  0  0  0
    5.0960    0.8937    0.0000 C   0  0  0  0  0  0  0  0  0  0  0  0
    6.5954    0.9350    0.0000 N   0  0  0  0  0  0  0  0  0  0  0  0
    7.3094    2.2542    0.0000 N   0  0  0  0  0  0  0  0  0  0  0  0
    6.5238    3.5321    0.0000 N   0  0  0  0  0  0  0  0  0  0  0  0
    5.0244    3.4908    0.0000 N   0  0  0  0  0  0  0  0  0  0  0  0
    4.3105    2.1715    0.0000 N   0  0  0  0  0  0  0  0  0  0  0  0
    0.7500   -1.2990    0.0000 C   0  0  0  0  0  0  0  0  0  0  0  0
    1.5000    0.0000    0.0000 C   0  0  0  0  0  0  0  0  0  0  0  0
    0.7500    1.2990    0.0000 C   0  0  0  0  0  0  0  0  0  0  0  0
   -0.7500    1.2990    0.0000 C   0  0  0  0  0  0  0  0  0  0  0  0
   -1.5000    0.0000    0.0000 C   0  0  0  0  0  0  0  0  0  0  0  0
   -0.7500   -1.2990    0.0000 C   0  0  0  0  0  0  0  0  0  0  0  0
   -2.1687   -1.7861    0.0000 C   0  0  0  0  0  0  0  0  0  0  0  0
   -2.3748   -0.3003    0.0000 C   0  0  0  0  0  0  0  0  0  0  0  0
   -3.7645    0.2642    0.0000 C   0  0  0  0  0  0  0  0  0  0  0  0
   -4.9482   -0.6572    0.0000 C   0  0  0  0  0  0  0  0  0  0  0  0
   -4.7422   -2.1429    0.0000 C   0  0  0  0  0  0  0  0  0  0  0  0
   -3.3524   -2.7074    0.0000 C   0  0  0  0  0  0  0  0  0  0  0  0
   -4.1729   -3.9632    0.0000 C   0  0  0  0  0  0  0  0  0  0  0  0
   -5.2480   -2.9172    0.0000 C   0  0  0  0  0  0  0  0  0  0  0  0
   -6.6914   -3.3254    0.0000 C   0  0  0  0  0  0  0  0  0  0  0  0
   -7.0597   -4.7795    0.0000 C   0  0  0  0  0  0  0  0  0  0  0  0
   -5.9845   -5.8254    0.0000 C   0  0  0  0  0  0  0  0  0  0  0  0
   -4.5411   -5.4173    0.0000 C   0  0  0  0  0  0  0  0  0  0  0  0
   -4.4172   -6.9121    0.0000 C   0  0  0  0  0  0  0  0  0  0  0  0
   -5.9081   -6.7471    0.0000 C   0  0  0  0  0  0  0  0  0  0  0  0
   -6.7965   -7.9558    0.0000 C   0  0  0  0  0  0  0  0  0  0  0  0
   -6.1939   -9.3294    0.0000 C   0  0  0  0  0  0  0  0  0  0  0  0
   -4.7030   -9.4944    0.0000 C   0  0  0  0  0  0  0  0  0  0  0  0
   -3.8147   -8.2858    0.0000 C   0  0  0  0  0  0  0  0  0  0  0  0
   -2.7988   -9.3894    0.0000 C   0  0  0  0  0  0  0  0  0  0  0  0
   -4.0766  -10.1749    0.0000 C   0  0  0  0  0  0  0  0  0  0  0  0
   -4.0353  -11.6743    0.0000 C   0  0  0  0  0  0  0  0  0  0  0  0
   -2.7161  -12.3882    0.0000 C   0  0  0  0  0  0  0  0  0  0  0  0
   -1.4382  -11.6027    0.0000 C   0  0  0  0  0  0  0  0  0  0  0  0
   -1.4795  -10.1033    0.0000 C   0  0  0  0  0  0  0  0  0  0  0  0
   -0.0000  -10.3502    0.0000 C   0  0  0  0  0  0  0  0  0  0  0  0
   -0.5260  -11.7550    0.0000 C   0  0  0  0  0  0  0  0  0  0  0  0
    0.4276  -12.9128    0.0000 C   0  0  0  0  0  0  0  0  0  0  0  0
    1.9072  -12.6659    0.0000 C   0  0  0  0  0  0  0  0  0  0  0  0
    2.4331  -11.2612    0.0000 C   0  0  0  0  0  0  0  0  0  0  0  0
    1.4795  -10.1033    0.0000 C   0  0  0  0  0  0  0  0  0  0  0  0
    2.7988   -9.3894    0.0000 C   0  0  0  0  0  0  0  0  0  0  0  0
    3.2465  -10.8210    0.0000 C   0  0  0  0  0  0  0  0  0  0  0  0
    4.7102  -11.1490    0.0000 C   0  0  0  0  0  0  0  0  0  0  0  0
    5.7261  -10.0454    0.0000 C   0  0  0  0  0  0  0  0  0  0  0  0
    5.2784   -8.6138    0.0000 C   0  0  0  0  0  0  0  0  0  0  0  0
    3.8147   -8.2858    0.0000 C   0  0  0  0  0  0  0  0  0  0  0  0
    4.4172   -6.9121    0.0000 C   0  0  0  0  0  0  0  0  0  0  0  0
    5.6499   -7.7668    0.0000 C   0  0  0  0  0  0  0  0  0  0  0  0
    7.0064   -7.1267    0.0000 C   0  0  0  0  0  0  0  0  0  0  0  0
    7.1303   -5.6318    0.0000 C   0  0  0  0  0  0  0  0  0  0  0  0
    5.8976   -4.7771    0.0000 C   0  0  0  0  0  0  0  0  0  0  0  0
    4.5411   -5.4173    0.0000 C   0  0  0  0  0  0  0  0  0  0  0  0
  1  2  1  0
  2  3  2  0
  3  4  1  0
  4  5  1  0
  5  6  2  0
  5  7  1  0
  7  8  1  0
  8  9  2  0
  9 10  1  0
 10 11  2  0
 11 12  1  0
 12 13  2  0
  4 14  1  0
 14 15  2  0
 15 16  1  0
 16 17  2  0
 17 18  1  0
 18 19  2  0
 19 20  1  0
 20 21  2  0
 21 22  1  0
 22 23  2  0
 23 24  1  0
 24 25  2  0
 25 26  1  0
 26 27  2  0
 27 28  1  0
 28 29  2  0
 29 30  1  0
 30 31  2  0
 31 32  1  0
 32 33  2  0
 33 34  1  0
 34 35  2  0
 35 36  1  0
 36 37  2  0
 37 38  1  0
 38 39  2  0
 39 40  1  0
 40 41  2  0
 41 42  1  0
 42 43  2  0
 43 44  1  0
 44 45  2  0
 45 46  1  0
 46 47  2  0
 47 48  1  0
 48 49  2  0
 49 50  1  0
 50 51  2  0
 51 52  1  0
 52 53  2  0
 53 54  1  0
 54 55  2  0
 55 56  1  0
 56 57  2  0
 57 58  1  0
 58 59  2  0
 59 60  1  0
 60 61  2  0
 61  2  1  0
 13  8  1  0
 19 14  1  0
 25 20  1  0
 31 26  1  0
 37 32  1  0
 43 38  1  0
 49 44  1  0
 55 50  1  0
 61 56  1  0
M  END
>  <Title>  (355) 
idAALSgen9

$$$$

     RDKit          2D

 31 35  0  0  0  0  0  0  0  0999 V2000
   -3.0000   -2.5981    0.0000 C   0  0  0  0  0  0  0  0  0  0  0  0
   -1.5000   -2.5981    0.0000 C   0  0  0  0  0  0  0  0  0  0  0  0
   -0.7500   -3.8971    0.0000 C   0  0  0  0  0  0  0  0  0  0  0  0
    0.7500   -3.8971    0.0000 C   0  0  0  0  0  0  0  0  0  0  0  0
    1.5000   -2.5981    0.0000 C   0  0  0  0  0  0  0  0  0  0  0  0
    3.0000   -2.5981    0.0000 C   0  0  0  0  0  0  0  0  0  0  0  0
    3.7500   -1.2990    0.0000 O   0  0  0  0  0  0  0  0  0  0  0  0
    3.7500   -3.8971    0.0000 N   0  0  0  0  0  0  0  0  0  0  0  0
    5.2500   -3.8971    0.0000 C   0  0  0  0  0  0  0  0  0  0  0  0
    6.1317   -2.6836    0.0000 N   0  0  0  0  0  0  0  0  0  0  0  0
    7.5583   -3.1471    0.0000 N   0  0  0  0  0  0  0  0  0  0  0  0
    7.5583   -4.6471    0.0000 N   0  0  0  0  0  0  0  0  0  0  0  0
    6.1317   -5.1106    0.0000 N   0  0  0  0  0  0  0  0  0  0  0  0
    5.6682   -6.5372    0.0000 C   0  0  0  0  0  0  0  0  0  0  0  0
    4.2009   -6.8491    0.0000 C   0  0  0  0  0  0  0  0  0  0  0  0
    3.7374   -8.2757    0.0000 C   0  0  0  0  0  0  0  0  0  0  0  0
    4.7411   -9.3904    0.0000 C   0  0  0  0  0  0  0  0  0  0  0  0
    6.2083   -9.0785    0.0000 C   0  0  0  0  0  0  0  0  0  0  0  0
    6.6718   -7.6519    0.0000 C   0  0  0  0  0  0  0  0  0  0  0  0
    8.1391   -7.3401    0.0000 C   0  0  0  0  0  0  0  0  0  0  0  0
    9.1428   -8.4548    0.0000 C   0  0  0  0  0  0  0  0  0  0  0  0
   10.6100   -8.1429    0.0000 C   0  0  0  0  0  0  0  0  0  0  0  0
   11.0735   -6.7163    0.0000 C   0  0  0  0  0  0  0  0  0  0  0  0
   10.0698   -5.6016    0.0000 C   0  0  0  0  0  0  0  0  0  0  0  0
    8.6026   -5.9135    0.0000 C   0  0  0  0  0  0  0  0  0  0  0  0
    0.7500   -1.2990    0.0000 C   0  0  0  0  0  0  0  0  0  0  0  0
    1.5000    0.0000    0.0000 C   0  0  0  0  0  0  0  0  0  0  0  0
    0.7500    1.2990    0.0000 C   0  0  0  0  0  0  0  0  0  0  0  0
   -0.7500    1.2990    0.0000 C   0  0  0  0  0  0  0  0  0  0  0  0
   -1.5000    0.0000    0.0000 C   0  0  0  0  0  0  0  0  0  0  0  0
   -0.7500   -1.2990    0.0000 C   0  0  0  0  0  0  0  0  0  0  0  0
  1  2  1  0
  2  3  1  0
  3  4  1  0
  4  5  1  0
  5  6  1  0
  6  7  2  0
  6  8  1  0
  8  9  1  0
  9 10  2  0
 10 11  1  0
 11 12  2  0
 12 13  1  0
 13 14  1  0
 14 15  2  0
 15 16  1  0
 16 17  2  0
 17 18  1  0
 18 19  2  0
 19 20  1  0
 20 21  2  0
 21 22  1  0
 22 23  2  0
 23 24  1  0
 24 25  2  0
  5 26  1  0
 26 27  2  0
 27 28  1  0
 28 29  2  0
 29 30  1  0
 30 31  2  0
 31  2  1  0
 13  9  1  0
 19 14  1  0
 25 20  1  0
 31 26  1  0
M  END
>  <Title>  (356) 
idAALTgen9

$$$$

     RDKit          2D

 10 10  0  0  0  0  0  0  0  0999 V2000
    2.7760    0.0000    0.0000 C   0  0  0  0  0  0  0  0  0  0  0  0
    1.2760    0.0000    0.0000 C   0  0  0  0  0  0  0  0  0  0  0  0
    0.3943    1.2135    0.0000 C   0  0  0  0  0  0  0  0  0  0  0  0
   -1.0323    0.7500    0.0000 C   0  0  0  0  0  0  0  0  0  0  0  0
   -2.2458    1.6317    0.0000 C   0  0  0  0  0  0  0  0  0  0  0  0
   -3.4593    2.5134    0.0000 N   0  0  0  0  0  0  0  0  0  0  0  0
   -1.0323   -0.7500    0.0000 C   0  0  0  0  0  0  0  0  0  0  0  0
    0.3943   -1.2135    0.0000 C   0  0  0  0  0  0  0  0  0  0  0  0
    0.8578   -2.6401    0.0000 C   0  0  0  0  0  0  0  0  0  0  0  0
    1.3213   -4.0667    0.0000 N   0  0  0  0  0  0  0  0  0  0  0  0
  1  2  1  0
  2  3  2  0
  3  4  1  0
  4  5  1  0
  5  6  3  0
  4  7  2  0
  7  8  1  0
  8  9  1  0
  9 10  3  0
  8  2  1  0
M  END
>  <Title>  (357) 
idAALUgen9

$$$$

     RDKit          2D

  7  7  0  0  0  0  0  0  0  0999 V2000
    3.5260   -1.2990    0.0000 C   0  0  0  0  0  0  0  0  0  0  0  0
    2.7760    0.0000    0.0000 O   0  0  0  0  0  0  0  0  0  0  0  0
    1.2760    0.0000    0.0000 C   0  0  0  0  0  0  0  0  0  0  0  0
    0.3943    1.2135    0.0000 C   0  0  0  0  0  0  0  0  0  0  0  0
   -1.0323    0.7500    0.0000 C   0  0  0  0  0  0  0  0  0  0  0  0
   -1.0323   -0.7500    0.0000 C   0  0  0  0  0  0  0  0  0  0  0  0
    0.3943   -1.2135    0.0000 C   0  0  0  0  0  0  0  0  0  0  0  0
  1  2  1  0
  2  3  1  0
  3  4  2  0
  4  5  1  0
  5  6  1  0
  6  7  2  0
  7  3  1  0
M  END
>  <Title>  (358) 
idAALVgen9

$$$$

     RDKit          2D

  9  9  0  0  0  0  0  0  0  0999 V2000
    3.0000    0.0000    0.0000 C   0  0  0  0  0  0  0  0  0  0  0  0
    1.5000    0.0000    0.0000 C   0  0  0  0  0  0  0  0  0  0  0  0
    0.7500   -1.2990    0.0000 C   0  0  0  0  0  0  0  0  0  0  0  0
   -0.7500   -1.2990    0.0000 C   0  0  0  0  0  0  0  0  0  0  0  0
   -1.5000    0.0000    0.0000 C   0  0  0  0  0  0  0  0  0  0  0  0
   -0.7500    1.2990    0.0000 C   0  0  0  0  0  0  0  0  0  0  0  0
    0.7500    1.2990    0.0000 C   0  0  0  0  0  0  0  0  0  0  0  0
    1.5000    2.5981    0.0000 C   0  0  0  0  0  0  0  0  0  0  0  0
    2.2500    3.8971    0.0000 N   0  0  0  0  0  0  0  0  0  0  0  0
  1  2  1  0
  2  3  2  0
  3  4  1  0
  4  5  1  0
  5  6  1  0
  6  7  1  0
  7  8  1  0
  8  9  3  0
  7  2  1  0
M  END
>  <Title>  (359) 
idAALWgen9

$$$$

     RDKit          2D

  8  8  0  0  0  0  0  0  0  0999 V2000
    3.5260   -1.2990    0.0000 C   0  0  0  0  0  0  0  0  0  0  0  0
    2.7760    0.0000    0.0000 C   0  0  0  0  0  0  0  0  0  0  0  0
    3.5260    1.2990    0.0000 O   0  0  0  0  0  0  0  0  0  0  0  0
    1.2760    0.0000    0.0000 C   0  0  0  0  0  0  0  0  0  0  0  0
    0.3943    1.2135    0.0000 C   0  0  0  0  0  0  0  0  0  0  0  0
   -1.0323    0.7500    0.0000 C   0  0  0  0  0  0  0  0  0  0  0  0
   -1.0323   -0.7500    0.0000 C   0  0  0  0  0  0  0  0  0  0  0  0
    0.3943   -1.2135    0.0000 C   0  0  0  0  0  0  0  0  0  0  0  0
  1  2  1  0
  2  3  2  0
  2  4  1  0
  4  5  1  0
  5  6  1  0
  6  7  2  0
  7  8  1  0
  8  4  1  0
M  END
>  <Title>  (360) 
idAALXgen9

$$$$

     RDKit          2D

 84 91  0  0  0  0  0  0  0  0999 V2000
  -14.2946  -10.5358    0.0000 C   0  0  0  0  0  0  0  0  0  0  0  0
  -12.8533  -10.9511    0.0000 C   0  0  0  0  0  0  0  0  0  0  0  0
  -13.1870  -12.4135    0.0000 C   0  0  0  0  0  0  0  0  0  0  0  0
  -13.3550  -13.9040    0.0000 C   0  0  0  0  0  0  0  0  0  0  0  0
  -13.3550  -15.4040    0.0000 C   0  0  0  0  0  0  0  0  0  0  0  0
  -13.1870  -16.8946    0.0000 C   0  0  0  0  0  0  0  0  0  0  0  0
  -12.8533  -18.3570    0.0000 C   0  0  0  0  0  0  0  0  0  0  0  0
  -12.3578  -19.7728    0.0000 C   0  0  0  0  0  0  0  0  0  0  0  0
  -11.7070  -21.1243    0.0000 C   0  0  0  0  0  0  0  0  0  0  0  0
  -10.9090  -22.3944    0.0000 C   0  0  0  0  0  0  0  0  0  0  0  0
   -9.9737  -23.5671    0.0000 C   0  0  0  0  0  0  0  0  0  0  0  0
   -8.9131  -24.6278    0.0000 C   0  0  0  0  0  0  0  0  0  0  0  0
   -7.7403  -25.5630    0.0000 C   0  0  0  0  0  0  0  0  0  0  0  0
   -6.4702  -26.3610    0.0000 C   0  0  0  0  0  0  0  0  0  0  0  0
   -5.1188  -27.0119    0.0000 C   0  0  0  0  0  0  0  0  0  0  0  0
   -3.7030  -27.5073    0.0000 C   0  0  0  0  0  0  0  0  0  0  0  0
   -2.2406  -27.8411    0.0000 C   0  0  0  0  0  0  0  0  0  0  0  0
   -0.7500  -28.0090    0.0000 C   0  0  0  0  0  0  0  0  0  0  0  0
    0.7500  -28.0090    0.0000 C   0  0  0  0  0  0  0  0  0  0  0  0
    2.2406  -27.8411    0.0000 C   0  0  0  0  0  0  0  0  0  0  0  0
    3.7030  -27.5073    0.0000 C   0  0  0  0  0  0  0  0  0  0  0  0
    5.1188  -27.0119    0.0000 C   0  0  0  0  0  0  0  0  0  0  0  0
    6.4702  -26.3610    0.0000 C   0  0  0  0  0  0  0  0  0  0  0  0
    7.7403  -25.5630    0.0000 C   0  0  0  0  0  0  0  0  0  0  0  0
    8.9131  -24.6278    0.0000 C   0  0  0  0  0  0  0  0  0  0  0  0
    9.9737  -23.5671    0.0000 C   0  0  0  0  0  0  0  0  0  0  0  0
   10.9090  -22.3944    0.0000 C   0  0  0  0  0  0  0  0  0  0  0  0
   11.7070  -21.1243    0.0000 C   0  0  0  0  0  0  0  0  0  0  0  0
   12.3578  -19.7728    0.0000 C   0  0  0  0  0  0  0  0  0  0  0  0
   12.8533  -18.3570    0.0000 C   0  0  0  0  0  0  0  0  0  0  0  0
   13.1870  -16.8946    0.0000 C   0  0  0  0  0  0  0  0  0  0  0  0
   13.3550  -15.4040    0.0000 C   0  0  0  0  0  0  0  0  0  0  0  0
   13.3550  -13.9040    0.0000 C   0  0  0  0  0  0  0  0  0  0  0  0
   13.1870  -12.4135    0.0000 C   0  0  0  0  0  0  0  0  0  0  0  0
   12.8533  -10.9511    0.0000 C   0  0  0  0  0  0  0  0  0  0  0  0
   12.3578   -9.5352    0.0000 C   0  0  0  0  0  0  0  0  0  0  0  0
   11.7070   -8.1838    0.0000 C   0  0  0  0  0  0  0  0  0  0  0  0
   10.9090   -6.9137    0.0000 C   0  0  0  0  0  0  0  0  0  0  0  0
    9.9737   -5.7410    0.0000 C   0  0  0  0  0  0  0  0  0  0  0  0
    8.9131   -4.6803    0.0000 C   0  0  0  0  0  0  0  0  0  0  0  0
    7.7403   -3.7451    0.0000 C   0  0  0  0  0  0  0  0  0  0  0  0
    6.4702   -2.9470    0.0000 C   0  0  0  0  0  0  0  0  0  0  0  0
    5.1188   -2.2962    0.0000 C   0  0  0  0  0  0  0  0  0  0  0  0
    3.7030   -1.8008    0.0000 C   0  0  0  0  0  0  0  0  0  0  0  0
    3.8374   -3.2947    0.0000 C   0  0  0  0  0  0  0  0  0  0  0  0
    2.4581   -3.8843    0.0000 C   0  0  0  0  0  0  0  0  0  0  0  0
    1.4712   -2.7547    0.0000 C   0  0  0  0  0  0  0  0  0  0  0  0
    2.2406   -1.4670    0.0000 C   0  0  0  0  0  0  0  0  0  0  0  0
    0.7500   -1.2990    0.0000 C   0  0  0  0  0  0  0  0  0  0  0  0
    1.5000    0.0000    0.0000 C   0  0  0  0  0  0  0  0  0  0  0  0
    0.7500    1.2990    0.0000 C   0  0  0  0  0  0  0  0  0  0  0  0
   -0.7500    1.2990    0.0000 C   0  0  0  0  0  0  0  0  0  0  0  0
   -1.5000    0.0000    0.0000 C   0  0  0  0  0  0  0  0  0  0  0  0
   -0.7500   -1.2990    0.0000 C   0  0  0  0  0  0  0  0  0  0  0  0
   -2.2406   -1.4670    0.0000 C   0  0  0  0  0  0  0  0  0  0  0  0
   -1.2203   -2.5666    0.0000 C   0  0  0  0  0  0  0  0  0  0  0  0
   -1.6624   -3.9999    0.0000 C   0  0  0  0  0  0  0  0  0  0  0  0
   -3.1248   -4.3337    0.0000 C   0  0  0  0  0  0  0  0  0  0  0  0
   -4.1451   -3.2341    0.0000 C   0  0  0  0  0  0  0  0  0  0  0  0
   -3.7030   -1.8008    0.0000 C   0  0  0  0  0  0  0  0  0  0  0  0
   -5.1188   -2.2962    0.0000 C   0  0  0  0  0  0  0  0  0  0  0  0
   -5.0067   -0.8004    0.0000 C   0  0  0  0  0  0  0  0  0  0  0  0
   -6.2460    0.0446    0.0000 C   0  0  0  0  0  0  0  0  0  0  0  0
   -7.5975   -0.6062    0.0000 C   0  0  0  0  0  0  0  0  0  0  0  0
   -7.7096   -2.1020    0.0000 C   0  0  0  0  0  0  0  0  0  0  0  0
   -6.4702   -2.9470    0.0000 C   0  0  0  0  0  0  0  0  0  0  0  0
   -7.7403   -3.7451    0.0000 C   0  0  0  0  0  0  0  0  0  0  0  0
   -6.3440   -4.2931    0.0000 C   0  0  0  0  0  0  0  0  0  0  0  0
   -6.1205   -5.7763    0.0000 C   0  0  0  0  0  0  0  0  0  0  0  0
   -7.2932   -6.7116    0.0000 C   0  0  0  0  0  0  0  0  0  0  0  0
   -8.6895   -6.1635    0.0000 C   0  0  0  0  0  0  0  0  0  0  0  0
   -8.9131   -4.6803    0.0000 C   0  0  0  0  0  0  0  0  0  0  0  0
   -9.9737   -5.7410    0.0000 C   0  0  0  0  0  0  0  0  0  0  0  0
  -10.5217   -4.3446    0.0000 C   0  0  0  0  0  0  0  0  0  0  0  0
  -12.0050   -4.1211    0.0000 C   0  0  0  0  0  0  0  0  0  0  0  0
  -12.9402   -5.2938    0.0000 C   0  0  0  0  0  0  0  0  0  0  0  0
  -12.3922   -6.6901    0.0000 C   0  0  0  0  0  0  0  0  0  0  0  0
  -10.9090   -6.9137    0.0000 C   0  0  0  0  0  0  0  0  0  0  0  0
  -11.7070   -8.1838    0.0000 C   0  0  0  0  0  0  0  0  0  0  0  0
  -10.2112   -8.0717    0.0000 C   0  0  0  0  0  0  0  0  0  0  0  0
   -9.3662   -9.3110    0.0000 C   0  0  0  0  0  0  0  0  0  0  0  0
  -10.0171  -10.6625    0.0000 C   0  0  0  0  0  0  0  0  0  0  0  0
  -11.5129  -10.7746    0.0000 C   0  0  0  0  0  0  0  0  0  0  0  0
  -12.3578   -9.5352    0.0000 C   0  0  0  0  0  0  0  0  0  0  0  0
  1  2  1  0
  2  3  1  0
  3  4  1  0
  4  5  1  0
  5  6  1  0
  6  7  1  0
  7  8  1  0
  8  9  1  0
  9 10  1  0
 10 11  1  0
 11 12  1  0
 12 13  1  0
 13 14  1  0
 14 15  1  0
 15 16  1  0
 16 17  1  0
 17 18  1  0
 18 19  1  0
 19 20  1  0
 20 21  1  0
 21 22  1  0
 22 23  1  0
 23 24  1  0
 24 25  1  0
 25 26  1  0
 26 27  1  0
 27 28  1  0
 28 29  1  0
 29 30  1  0
 30 31  1  0
 31 32  1  0
 32 33  1  0
 33 34  1  0
 34 35  1  0
 35 36  1  0
 36 37  1  0
 37 38  1  0
 38 39  1  0
 39 40  1  0
 40 41  1  0
 41 42  1  0
 42 43  1  0
 43 44  1  0
 44 45  1  0
 45 46  2  0
 46 47  1  0
 47 48  2  0
 48 49  1  0
 49 50  2  0
 50 51  1  0
 51 52  2  0
 52 53  1  0
 53 54  2  0
 54 55  1  0
 55 56  2  0
 56 57  1  0
 57 58  2  0
 58 59  1  0
 59 60  2  0
 60 61  1  0
 61 62  2  0
 62 63  1  0
 63 64  2  0
 64 65  1  0
 65 66  2  0
 66 67  1  0
 67 68  2  0
 68 69  1  0
 69 70  2  0
 70 71  1  0
 71 72  2  0
 72 73  1  0
 73 74  2  0
 74 75  1  0
 75 76  2  0
 76 77  1  0
 77 78  2  0
 78 79  1  0
 79 80  2  0
 80 81  1  0
 81 82  2  0
 82 83  1  0
 83 84  2  0
 84  2  1  0
 48 44  1  0
 54 49  1  0
 60 55  1  0
 66 61  1  0
 72 67  1  0
 78 73  1  0
 84 79  1  0
M  END
>  <Title>  (361) 
idAALYgen9

$$$$

     RDKit          2D

 23 24  0  0  0  0  0  0  0  0999 V2000
   19.2760   -0.0000    0.0000 C   0  0  0  0  0  0  0  0  0  0  0  0
   17.7760   -0.0000    0.0000 C   0  0  0  0  0  0  0  0  0  0  0  0
   16.2760   -0.0000    0.0000 C   0  0  0  0  0  0  0  0  0  0  0  0
   14.7760   -0.0000    0.0000 C   0  0  0  0  0  0  0  0  0  0  0  0
   13.2760   -0.0000    0.0000 C   0  0  0  0  0  0  0  0  0  0  0  0
   11.7760   -0.0000    0.0000 C   0  0  0  0  0  0  0  0  0  0  0  0
   10.2760   -0.0000    0.0000 C   0  0  0  0  0  0  0  0  0  0  0  0
    8.7760   -0.0000    0.0000 C   0  0  0  0  0  0  0  0  0  0  0  0
    7.2760   -0.0000    0.0000 C   0  0  0  0  0  0  0  0  0  0  0  0
    5.7760   -0.0000    0.0000 C   0  0  0  0  0  0  0  0  0  0  0  0
    4.2760   -0.0000    0.0000 C   0  0  0  0  0  0  0  0  0  0  0  0
    2.7760    0.0000    0.0000 C   0  0  0  0  0  0  0  0  0  0  0  0
    1.2760    0.0000    0.0000 C   0  0  0  0  0  0  0  0  0  0  0  0
    0.3943    1.2135    0.0000 C   0  0  0  0  0  0  0  0  0  0  0  0
   -1.0323    0.7500    0.0000 C   0  0  0  0  0  0  0  0  0  0  0  0
   -1.0323   -0.7500    0.0000 C   0  0  0  0  0  0  0  0  0  0  0  0
    0.3943   -1.2135    0.0000 C   0  0  0  0  0  0  0  0  0  0  0  0
    0.8578   -2.6401    0.0000 O   0  0  0  0  0  0  0  0  0  0  0  0
   -0.1459   -3.7548    0.0000 C   0  0  0  0  0  0  0  0  0  0  0  0
    0.1660   -5.2220    0.0000 C   0  0  0  0  0  0  0  0  0  0  0  0
   -1.1330   -5.9720    0.0000 C   0  0  0  0  0  0  0  0  0  0  0  0
   -2.2478   -4.9684    0.0000 C   0  0  0  0  0  0  0  0  0  0  0  0
   -1.6377   -3.5980    0.0000 C   0  0  0  0  0  0  0  0  0  0  0  0
  1  2  3  0
  2  3  1  0
  3  4  3  0
  4  5  1  0
  5  6  3  0
  6  7  1  0
  7  8  3  0
  8  9  1  0
  9 10  3  0
 10 11  1  0
 11 12  3  0
 12 13  1  0
 13 14  2  0
 14 15  1  0
 15 16  1  0
 16 17  2  0
 17 18  1  0
 18 19  1  0
 19 20  2  0
 20 21  1  0
 21 22  2  0
 22 23  1  0
 17 13  1  0
 23 19  1  0
M  END
>  <Title>  (362) 
idAALZgen9

$$$$

     RDKit          2D

 70 80  0  0  0  0  0  0  0  0999 V2000
    5.2500   14.2894    0.0000 C   0  0  0  0  0  0  0  0  0  0  0  0
    6.0000   12.9904    0.0000 C   0  0  0  0  0  0  0  0  0  0  0  0
    7.5000   12.9904    0.0000 C   0  0  0  0  0  0  0  0  0  0  0  0
    8.2500   11.6913    0.0000 C   0  0  0  0  0  0  0  0  0  0  0  0
    7.5000   10.3923    0.0000 C   0  0  0  0  0  0  0  0  0  0  0  0
    6.0000   10.3923    0.0000 C   0  0  0  0  0  0  0  0  0  0  0  0
    5.2500   11.6913    0.0000 C   0  0  0  0  0  0  0  0  0  0  0  0
    3.7500   11.6913    0.0000 C   0  0  0  0  0  0  0  0  0  0  0  0
    3.0000   12.9904    0.0000 C   0  0  0  0  0  0  0  0  0  0  0  0
    1.5000   12.9904    0.0000 C   0  0  0  0  0  0  0  0  0  0  0  0
    0.7500   11.6913    0.0000 C   0  0  0  0  0  0  0  0  0  0  0  0
    1.5000   10.3923    0.0000 C   0  0  0  0  0  0  0  0  0  0  0  0
    3.0000   10.3923    0.0000 C   0  0  0  0  0  0  0  0  0  0  0  0
    3.7500    9.0933    0.0000 C   0  0  0  0  0  0  0  0  0  0  0  0
    5.2500    9.0933    0.0000 C   0  0  0  0  0  0  0  0  0  0  0  0
    6.0000    7.7942    0.0000 C   0  0  0  0  0  0  0  0  0  0  0  0
    5.2500    6.4952    0.0000 C   0  0  0  0  0  0  0  0  0  0  0  0
    3.7500    6.4952    0.0000 C   0  0  0  0  0  0  0  0  0  0  0  0
    3.0000    7.7942    0.0000 C   0  0  0  0  0  0  0  0  0  0  0  0
    1.5000    7.7942    0.0000 C   0  0  0  0  0  0  0  0  0  0  0  0
    0.7500    9.0933    0.0000 C   0  0  0  0  0  0  0  0  0  0  0  0
   -0.7500    9.0933    0.0000 C   0  0  0  0  0  0  0  0  0  0  0  0
   -1.5000    7.7942    0.0000 C   0  0  0  0  0  0  0  0  0  0  0  0
   -0.7500    6.4952    0.0000 C   0  0  0  0  0  0  0  0  0  0  0  0
    0.7500    6.4952    0.0000 C   0  0  0  0  0  0  0  0  0  0  0  0
    1.5000    5.1962    0.0000 C   0  0  0  0  0  0  0  0  0  0  0  0
    3.0000    5.1962    0.0000 C   0  0  0  0  0  0  0  0  0  0  0  0
    3.7500    3.8971    0.0000 C   0  0  0  0  0  0  0  0  0  0  0  0
    3.0000    2.5981    0.0000 C   0  0  0  0  0  0  0  0  0  0  0  0
    1.5000    2.5981    0.0000 C   0  0  0  0  0  0  0  0  0  0  0  0
    0.7500    3.8971    0.0000 C   0  0  0  0  0  0  0  0  0  0  0  0
   -0.7500    3.8971    0.0000 C   0  0  0  0  0  0  0  0  0  0  0  0
   -1.5000    5.1962    0.0000 C   0  0  0  0  0  0  0  0  0  0  0  0
   -3.0000    5.1962    0.0000 C   0  0  0  0  0  0  0  0  0  0  0  0
   -3.7500    3.8971    0.0000 C   0  0  0  0  0  0  0  0  0  0  0  0
   -3.0000    2.5981    0.0000 C   0  0  0  0  0  0  0  0  0  0  0  0
   -1.5000    2.5981    0.0000 C   0  0  0  0  0  0  0  0  0  0  0  0
   -0.7500    1.2990    0.0000 C   0  0  0  0  0  0  0  0  0  0  0  0
    0.7500    1.2990    0.0000 C   0  0  0  0  0  0  0  0  0  0  0  0
    1.5000   -0.0000    0.0000 C   0  0  0  0  0  0  0  0  0  0  0  0
    0.7500   -1.2990    0.0000 C   0  0  0  0  0  0  0  0  0  0  0  0
   -0.7500   -1.2990    0.0000 C   0  0  0  0  0  0  0  0  0  0  0  0
   -1.5000    0.0000    0.0000 C   0  0  0  0  0  0  0  0  0  0  0  0
   -3.0000    0.0000    0.0000 C   0  0  0  0  0  0  0  0  0  0  0  0
   -3.7500    1.2990    0.0000 C   0  0  0  0  0  0  0  0  0  0  0  0
   -5.2500    1.2990    0.0000 C   0  0  0  0  0  0  0  0  0  0  0  0
   -6.0000    0.0000    0.0000 C   0  0  0  0  0  0  0  0  0  0  0  0
   -5.2500   -1.2990    0.0000 C   0  0  0  0  0  0  0  0  0  0  0  0
   -3.7500   -1.2990    0.0000 C   0  0  0  0  0  0  0  0  0  0  0  0
   -3.0000   -2.5981    0.0000 C   0  0  0  0  0  0  0  0  0  0  0  0
   -1.5000   -2.5981    0.0000 C   0  0  0  0  0  0  0  0  0  0  0  0
   -0.7500   -3.8971    0.0000 C   0  0  0  0  0  0  0  0  0  0  0  0
   -1.5000   -5.1962    0.0000 C   0  0  0  0  0  0  0  0  0  0  0  0
   -3.0000   -5.1962    0.0000 C   0  0  0  0  0  0  0  0  0  0  0  0
   -3.7500   -3.8971    0.0000 C   0  0  0  0  0  0  0  0  0  0  0  0
   -5.2500   -3.8971    0.0000 C   0  0  0  0  0  0  0  0  0  0  0  0
   -6.0000   -2.5981    0.0000 C   0  0  0  0  0  0  0  0  0  0  0  0
   -7.5000   -2.5981    0.0000 C   0  0  0  0  0  0  0  0  0  0  0  0
   -8.2500   -3.8971    0.0000 C   0  0  0  0  0  0  0  0  0  0  0  0
   -7.5000   -5.1962    0.0000 C   0  0  0  0  0  0  0  0  0  0  0  0
   -6.0000   -5.1962    0.0000 C   0  0  0  0  0  0  0  0  0  0  0  0
   -5.2500   -6.4952    0.0000 C   0  0  0  0  0  0  0  0  0  0  0  0
   -3.7500   -6.4952    0.0000 C   0  0  0  0  0  0  0  0  0  0  0  0
   -3.0000   -7.7942    0.0000 C   0  0  0  0  0  0  0  0  0  0  0  0
   -1.5000   -7.7942    0.0000 C   0  0  0  0  0  0  0  0  0  0  0  0
   -0.0000   -7.7942    0.0000 N   0  0  0  0  0  0  0  0  0  0  0  0
   -3.7500   -9.0933    0.0000 C   0  0  0  0  0  0  0  0  0  0  0  0
   -5.2500   -9.0933    0.0000 C   0  0  0  0  0  0  0  0  0  0  0  0
   -6.0000   -7.7942    0.0000 C   0  0  0  0  0  0  0  0  0  0  0  0
   -7.5000   -7.7942    0.0000 C   0  0  0  0  0  0  0  0  0  0  0  0
  1  2  1  0
  2  3  2  0
  3  4  1  0
  4  5  2  0
  5  6  1  0
  6  7  2  0
  7  8  1  0
  8  9  2  0
  9 10  1  0
 10 11  2  0
 11 12  1  0
 12 13  2  0
 13 14  1  0
 14 15  2  0
 15 16  1  0
 16 17  2  0
 17 18  1  0
 18 19  2  0
 19 20  1  0
 20 21  2  0
 21 22  1  0
 22 23  2  0
 23 24  1  0
 24 25  2  0
 25 26  1  0
 26 27  2  0
 27 28  1  0
 28 29  2  0
 29 30  1  0
 30 31  2  0
 31 32  1  0
 32 33  2  0
 33 34  1  0
 34 35  2  0
 35 36  1  0
 36 37  2  0
 37 38  1  0
 38 39  2  0
 39 40  1  0
 40 41  2  0
 41 42  1  0
 42 43  2  0
 43 44  1  0
 44 45  2  0
 45 46  1  0
 46 47  2  0
 47 48  1  0
 48 49  2  0
 49 50  1  0
 50 51  2  0
 51 52  1  0
 52 53  2  0
 53 54  1  0
 54 55  2  0
 55 56  1  0
 56 57  2  0
 57 58  1  0
 58 59  2  0
 59 60  1  0
 60 61  2  0
 61 62  1  0
 62 63  2  0
 63 64  1  0
 64 65  1  0
 65 66  3  0
 64 67  2  0
 67 68  1  0
 68 69  2  0
 69 70  1  0
  7  2  1  0
 13  8  1  0
 19 14  1  0
 25 20  1  0
 31 26  1  0
 37 32  1  0
 43 38  1  0
 49 44  1  0
 55 50  1  0
 61 56  1  0
 69 62  1  0
M  END
>  <Title>  (363) 
idAAMAgen9

$$$$

     RDKit          2D

 31 35  0  0  0  0  0  0  0  0999 V2000
    2.3737   -6.1885    0.0000 C   0  0  0  0  0  0  0  0  0  0  0  0
    1.4095   -5.0395    0.0000 C   0  0  0  0  0  0  0  0  0  0  0  0
    2.1595   -3.7404    0.0000 C   0  0  0  0  0  0  0  0  0  0  0  0
    1.8991   -2.2632    0.0000 C   0  0  0  0  0  0  0  0  0  0  0  0
    3.1981   -1.5132    0.0000 C   0  0  0  0  0  0  0  0  0  0  0  0
    3.1981   -0.0132    0.0000 O   0  0  0  0  0  0  0  0  0  0  0  0
    4.4971   -2.2632    0.0000 N   0  0  0  0  0  0  0  0  0  0  0  0
    5.7962   -1.5132    0.0000 C   0  0  0  0  0  0  0  0  0  0  0  0
    7.0952   -2.2632    0.0000 N   0  0  0  0  0  0  0  0  0  0  0  0
    8.3943   -1.5132    0.0000 N   0  0  0  0  0  0  0  0  0  0  0  0
    8.3943   -0.0132    0.0000 N   0  0  0  0  0  0  0  0  0  0  0  0
    7.0952    0.7368    0.0000 N   0  0  0  0  0  0  0  0  0  0  0  0
    5.7962   -0.0132    0.0000 N   0  0  0  0  0  0  0  0  0  0  0  0
    0.7500   -1.2990    0.0000 C   0  0  0  0  0  0  0  0  0  0  0  0
    1.5000    0.0000    0.0000 C   0  0  0  0  0  0  0  0  0  0  0  0
    0.7500    1.2990    0.0000 C   0  0  0  0  0  0  0  0  0  0  0  0
   -0.7500    1.2990    0.0000 C   0  0  0  0  0  0  0  0  0  0  0  0
   -1.5000    0.0000    0.0000 C   0  0  0  0  0  0  0  0  0  0  0  0
   -0.7500   -1.2990    0.0000 C   0  0  0  0  0  0  0  0  0  0  0  0
   -1.8991   -2.2632    0.0000 C   0  0  0  0  0  0  0  0  0  0  0  0
   -3.0481   -1.2990    0.0000 C   0  0  0  0  0  0  0  0  0  0  0  0
   -4.4577   -1.8121    0.0000 C   0  0  0  0  0  0  0  0  0  0  0  0
   -4.7181   -3.2893    0.0000 C   0  0  0  0  0  0  0  0  0  0  0  0
   -3.5691   -4.2535    0.0000 C   0  0  0  0  0  0  0  0  0  0  0  0
   -2.1595   -3.7404    0.0000 C   0  0  0  0  0  0  0  0  0  0  0  0
   -1.4095   -5.0395    0.0000 C   0  0  0  0  0  0  0  0  0  0  0  0
   -2.5586   -6.0037    0.0000 C   0  0  0  0  0  0  0  0  0  0  0  0
   -2.2981   -7.4809    0.0000 C   0  0  0  0  0  0  0  0  0  0  0  0
   -0.8886   -7.9939    0.0000 C   0  0  0  0  0  0  0  0  0  0  0  0
    0.2605   -7.0297    0.0000 C   0  0  0  0  0  0  0  0  0  0  0  0
   -0.0000   -5.5525    0.0000 C   0  0  0  0  0  0  0  0  0  0  0  0
  1  2  1  0
  2  3  2  0
  3  4  1  0
  4  5  1  0
  5  6  2  0
  5  7  1  0
  7  8  1  0
  8  9  2  0
  9 10  1  0
 10 11  2  0
 11 12  1  0
 12 13  2  0
  4 14  1  0
 14 15  2  0
 15 16  1  0
 16 17  2  0
 17 18  1  0
 18 19  2  0
 19 20  1  0
 20 21  2  0
 21 22  1  0
 22 23  2  0
 23 24  1  0
 24 25  2  0
 25 26  1  0
 26 27  2  0
 27 28  1  0
 28 29  2  0
 29 30  1  0
 30 31  2  0
 31  2  1  0
 13  8  1  0
 19 14  1  0
 25 20  1  0
 31 26  1  0
M  END
>  <Title>  (364) 
idAAMBgen9

$$$$

     RDKit          2D

 98 99  0  0  0  0  0  0  0  0999 V2000
   -2.3551   -1.5211    0.0000 C   0  0  0  0  0  0  0  0  0  0  0  0
   -1.3429   -2.6281    0.0000 C   0  0  0  0  0  0  0  0  0  0  0  0
   -2.6365   -3.3874    0.0000 C   0  0  0  0  0  0  0  0  0  0  0  0
   -3.8747   -4.2342    0.0000 C   0  0  0  0  0  0  0  0  0  0  0  0
   -5.0514   -5.1644    0.0000 C   0  0  0  0  0  0  0  0  0  0  0  0
   -6.1612   -6.1735    0.0000 C   0  0  0  0  0  0  0  0  0  0  0  0
   -7.1988   -7.2568    0.0000 C   0  0  0  0  0  0  0  0  0  0  0  0
   -8.1591   -8.4091    0.0000 C   0  0  0  0  0  0  0  0  0  0  0  0
   -9.0376   -9.6249    0.0000 C   0  0  0  0  0  0  0  0  0  0  0  0
   -9.8302  -10.8984    0.0000 C   0  0  0  0  0  0  0  0  0  0  0  0
  -10.5330  -12.2236    0.0000 C   0  0  0  0  0  0  0  0  0  0  0  0
  -11.1427  -13.5941    0.0000 C   0  0  0  0  0  0  0  0  0  0  0  0
  -11.6564  -15.0034    0.0000 C   0  0  0  0  0  0  0  0  0  0  0  0
  -12.0717  -16.4447    0.0000 C   0  0  0  0  0  0  0  0  0  0  0  0
  -12.3865  -17.9113    0.0000 C   0  0  0  0  0  0  0  0  0  0  0  0
  -12.5994  -19.3961    0.0000 C   0  0  0  0  0  0  0  0  0  0  0  0
  -12.7093  -20.8921    0.0000 C   0  0  0  0  0  0  0  0  0  0  0  0
  -12.7158  -22.3921    0.0000 C   0  0  0  0  0  0  0  0  0  0  0  0
  -12.6188  -23.8890    0.0000 C   0  0  0  0  0  0  0  0  0  0  0  0
  -12.4187  -25.3756    0.0000 C   0  0  0  0  0  0  0  0  0  0  0  0
  -12.1165  -26.8448    0.0000 C   0  0  0  0  0  0  0  0  0  0  0  0
  -11.7137  -28.2897    0.0000 C   0  0  0  0  0  0  0  0  0  0  0  0
  -11.2122  -29.7034    0.0000 C   0  0  0  0  0  0  0  0  0  0  0  0
  -10.6144  -31.0791    0.0000 C   0  0  0  0  0  0  0  0  0  0  0  0
   -9.9230  -32.4103    0.0000 C   0  0  0  0  0  0  0  0  0  0  0  0
   -9.1415  -33.6906    0.0000 C   0  0  0  0  0  0  0  0  0  0  0  0
   -8.2735  -34.9139    0.0000 C   0  0  0  0  0  0  0  0  0  0  0  0
   -7.3231  -36.0745    0.0000 C   0  0  0  0  0  0  0  0  0  0  0  0
   -6.2950  -37.1667    0.0000 C   0  0  0  0  0  0  0  0  0  0  0  0
   -5.1939  -38.1854    0.0000 C   0  0  0  0  0  0  0  0  0  0  0  0
   -4.0252  -39.1256    0.0000 C   0  0  0  0  0  0  0  0  0  0  0  0
   -2.7944  -39.9831    0.0000 C   0  0  0  0  0  0  0  0  0  0  0  0
   -1.5074  -40.7535    0.0000 C   0  0  0  0  0  0  0  0  0  0  0  0
   -0.1703  -41.4333    0.0000 C   0  0  0  0  0  0  0  0  0  0  0  0
    1.2105  -42.0193    0.0000 C   0  0  0  0  0  0  0  0  0  0  0  0
    2.6284  -42.5086    0.0000 C   0  0  0  0  0  0  0  0  0  0  0  0
    4.0767  -42.8989    0.0000 C   0  0  0  0  0  0  0  0  0  0  0  0
    5.5486  -43.1884    0.0000 C   0  0  0  0  0  0  0  0  0  0  0  0
    7.0368  -43.3756    0.0000 C   0  0  0  0  0  0  0  0  0  0  0  0
    8.5345  -43.4597    0.0000 C   0  0  0  0  0  0  0  0  0  0  0  0
   10.0343  -43.4403    0.0000 C   0  0  0  0  0  0  0  0  0  0  0  0
   11.5293  -43.3175    0.0000 C   0  0  0  0  0  0  0  0  0  0  0  0
   13.0122  -43.0918    0.0000 C   0  0  0  0  0  0  0  0  0  0  0  0
   14.4760  -42.7643    0.0000 C   0  0  0  0  0  0  0  0  0  0  0  0
   15.9138  -42.3366    0.0000 C   0  0  0  0  0  0  0  0  0  0  0  0
   17.3186  -41.8108    0.0000 C   0  0  0  0  0  0  0  0  0  0  0  0
   18.6838  -41.1892    0.0000 C   0  0  0  0  0  0  0  0  0  0  0  0
   20.0028  -40.4750    0.0000 C   0  0  0  0  0  0  0  0  0  0  0  0
   21.2694  -39.6715    0.0000 C   0  0  0  0  0  0  0  0  0  0  0  0
   22.4776  -38.7825    0.0000 C   0  0  0  0  0  0  0  0  0  0  0  0
   23.6216  -37.8123    0.0000 C   0  0  0  0  0  0  0  0  0  0  0  0
   24.6959  -36.7654    0.0000 C   0  0  0  0  0  0  0  0  0  0  0  0
   25.6954  -35.6470    0.0000 C   0  0  0  0  0  0  0  0  0  0  0  0
   26.6154  -34.4622    0.0000 C   0  0  0  0  0  0  0  0  0  0  0  0
   27.4514  -33.2168    0.0000 C   0  0  0  0  0  0  0  0  0  0  0  0
   28.1996  -31.9167    0.0000 C   0  0  0  0  0  0  0  0  0  0  0  0
   28.8562  -30.5681    0.0000 C   0  0  0  0  0  0  0  0  0  0  0  0
   29.4183  -29.1774    0.0000 C   0  0  0  0  0  0  0  0  0  0  0  0
   29.8830  -27.7512    0.0000 C   0  0  0  0  0  0  0  0  0  0  0  0
   30.2483  -26.2963    0.0000 C   0  0  0  0  0  0  0  0  0  0  0  0
   30.5123  -24.8197    0.0000 C   0  0  0  0  0  0  0  0  0  0  0  0
   30.6738  -23.3285    0.0000 C   0  0  0  0  0  0  0  0  0  0  0  0
   30.7320  -21.8296    0.0000 C   0  0  0  0  0  0  0  0  0  0  0  0
   30.6867  -20.3303    0.0000 C   0  0  0  0  0  0  0  0  0  0  0  0
   30.5381  -18.8377    0.0000 C   0  0  0  0  0  0  0  0  0  0  0  0
   30.2868  -17.3588    0.0000 C   0  0  0  0  0  0  0  0  0  0  0  0
   29.9341  -15.9009    0.0000 C   0  0  0  0  0  0  0  0  0  0  0  0
   29.4817  -14.4708    0.0000 C   0  0  0  0  0  0  0  0  0  0  0  0
   28.9317  -13.0752    0.0000 C   0  0  0  0  0  0  0  0  0  0  0  0
   28.2867  -11.7210    0.0000 C   0  0  0  0  0  0  0  0  0  0  0  0
   27.5498  -10.4145    0.0000 C   0  0  0  0  0  0  0  0  0  0  0  0
   26.7246   -9.1619    0.0000 C   0  0  0  0  0  0  0  0  0  0  0  0
   25.8148   -7.9692    0.0000 C   0  0  0  0  0  0  0  0  0  0  0  0
   24.8250   -6.8422    0.0000 C   0  0  0  0  0  0  0  0  0  0  0  0
   23.7598   -5.7861    0.0000 C   0  0  0  0  0  0  0  0  0  0  0  0
   22.6242   -4.8060    0.0000 C   0  0  0  0  0  0  0  0  0  0  0  0
   21.4238   -3.9067    0.0000 C   0  0  0  0  0  0  0  0  0  0  0  0
   20.1641   -3.0922    0.0000 C   0  0  0  0  0  0  0  0  0  0  0  0
   18.8513   -2.3667    0.0000 C   0  0  0  0  0  0  0  0  0  0  0  0
   17.4915   -1.7334    0.0000 C   0  0  0  0  0  0  0  0  0  0  0  0
   16.0913   -1.1954    0.0000 C   0  0  0  0  0  0  0  0  0  0  0  0
   14.6573   -0.7554    0.0000 C   0  0  0  0  0  0  0  0  0  0  0  0
   13.1964   -0.4153    0.0000 C   0  0  0  0  0  0  0  0  0  0  0  0
   11.7155   -0.1768    0.0000 C   0  0  0  0  0  0  0  0  0  0  0  0
   10.2216   -0.0410    0.0000 C   0  0  0  0  0  0  0  0  0  0  0  0
    8.7220   -0.0087    0.0000 C   0  0  0  0  0  0  0  0  0  0  0  0
    7.2237   -0.0798    0.0000 C   0  0  0  0  0  0  0  0  0  0  0  0
    5.7338   -0.2542    0.0000 C   0  0  0  0  0  0  0  0  0  0  0  0
    4.2596   -0.5310    0.0000 C   0  0  0  0  0  0  0  0  0  0  0  0
    2.8079   -0.9088    0.0000 C   0  0  0  0  0  0  0  0  0  0  0  0
    1.3858   -1.3858    0.0000 C   0  0  0  0  0  0  0  0  0  0  0  0
    1.9598    0.0000    0.0000 C   0  0  0  0  0  0  0  0  0  0  0  0
    1.3858    1.3858    0.0000 C   0  0  0  0  0  0  0  0  0  0  0  0
    0.0000    1.9598    0.0000 C   0  0  0  0  0  0  0  0  0  0  0  0
   -1.3858    1.3858    0.0000 C   0  0  0  0  0  0  0  0  0  0  0  0
   -1.9598    0.0000    0.0000 C   0  0  0  0  0  0  0  0  0  0  0  0
   -1.3858   -1.3858    0.0000 C   0  0  0  0  0  0  0  0  0  0  0  0
   -0.0000   -1.9598    0.0000 C   0  0  0  0  0  0  0  0  0  0  0  0
  1  2  1  0
  2  3  1  0
  3  4  1  0
  4  5  1  0
  5  6  1  0
  6  7  1  0
  7  8  1  0
  8  9  1  0
  9 10  1  0
 10 11  1  0
 11 12  1  0
 12 13  1  0
 13 14  1  0
 14 15  1  0
 15 16  1  0
 16 17  1  0
 17 18  1  0
 18 19  1  0
 19 20  1  0
 20 21  1  0
 21 22  1  0
 22 23  1  0
 23 24  1  0
 24 25  1  0
 25 26  1  0
 26 27  1  0
 27 28  1  0
 28 29  1  0
 29 30  1  0
 30 31  1  0
 31 32  1  0
 32 33  1  0
 33 34  1  0
 34 35  1  0
 35 36  1  0
 36 37  1  0
 37 38  1  0
 38 39  1  0
 39 40  1  0
 40 41  1  0
 41 42  1  0
 42 43  1  0
 43 44  1  0
 44 45  1  0
 45 46  1  0
 46 47  1  0
 47 48  1  0
 48 49  1  0
 49 50  1  0
 50 51  1  0
 51 52  1  0
 52 53  1  0
 53 54  1  0
 54 55  1  0
 55 56  1  0
 56 57  1  0
 57 58  1  0
 58 59  1  0
 59 60  1  0
 60 61  1  0
 61 62  1  0
 62 63  1  0
 63 64  1  0
 64 65  1  0
 65 66  1  0
 66 67  1  0
 67 68  2  0
 68 69  1  0
 69 70  2  0
 70 71  1  0
 71 72  2  0
 72 73  1  0
 73 74  2  0
 74 75  1  0
 75 76  1  0
 76 77  1  0
 77 78  1  0
 78 79  2  0
 79 80  1  0
 80 81  2  0
 81 82  1  0
 82 83  2  0
 83 84  1  0
 84 85  2  0
 85 86  1  0
 86 87  2  0
 87 88  1  0
 88 89  2  0
 89 90  1  0
 90 91  2  0
 91 92  1  0
 92 93  1  0
 93 94  1  0
 94 95  1  0
 95 96  1  0
 96 97  1  0
 97 98  1  0
 98  2  1  0
 98 91  1  0
M  END
>  <Title>  (365) 
idAAMCgen9

$$$$

     RDKit          2D

 22 23  0  0  0  0  0  0  0  0999 V2000
    4.2558    4.6904    0.0000 C   0  0  0  0  0  0  0  0  0  0  0  0
    2.7886    4.3786    0.0000 C   0  0  0  0  0  0  0  0  0  0  0  0
    2.3250    2.9520    0.0000 C   0  0  0  0  0  0  0  0  0  0  0  0
    0.8578    2.6401    0.0000 C   0  0  0  0  0  0  0  0  0  0  0  0
   -0.1459    3.7548    0.0000 O   0  0  0  0  0  0  0  0  0  0  0  0
    0.3943    1.2135    0.0000 N   0  0  0  0  0  0  0  0  0  0  0  0
    1.2760    0.0000    0.0000 C   0  0  0  0  0  0  0  0  0  0  0  0
    0.3943   -1.2135    0.0000 C   0  0  0  0  0  0  0  0  0  0  0  0
   -1.0323   -0.7500    0.0000 C   0  0  0  0  0  0  0  0  0  0  0  0
   -2.2458   -1.6317    0.0000 C   0  0  0  0  0  0  0  0  0  0  0  0
   -2.0890   -3.1235    0.0000 O   0  0  0  0  0  0  0  0  0  0  0  0
   -3.6161   -1.0216    0.0000 O   0  0  0  0  0  0  0  0  0  0  0  0
   -1.0323    0.7500    0.0000 C   0  0  0  0  0  0  0  0  0  0  0  0
   -2.2458    1.6317    0.0000 O   0  0  0  0  0  0  0  0  0  0  0  0
    1.7849    5.4933    0.0000 C   0  0  0  0  0  0  0  0  0  0  0  0
    0.3177    5.1814    0.0000 O   0  0  0  0  0  0  0  0  0  0  0  0
    2.2484    6.9199    0.0000 N   0  0  0  0  0  0  0  0  0  0  0  0
    1.2447    8.0346    0.0000 C   0  0  0  0  0  0  0  0  0  0  0  0
   -0.2471    7.8778    0.0000 C   0  0  0  0  0  0  0  0  0  0  0  0
   -0.8572    9.2481    0.0000 C   0  0  0  0  0  0  0  0  0  0  0  0
    0.2575   10.2518    0.0000 C   0  0  0  0  0  0  0  0  0  0  0  0
    1.5566    9.5018    0.0000 C   0  0  0  0  0  0  0  0  0  0  0  0
  1  2  1  0
  2  3  1  0
  3  4  1  0
  4  5  2  0
  4  6  1  0
  6  7  1  0
  7  8  1  0
  8  9  1  0
  9 10  1  0
 10 11  2  0
 10 12  1  0
  9 13  1  0
 13 14  2  0
  2 15  1  0
 15 16  2  0
 15 17  1  0
 17 18  1  0
 18 19  2  0
 19 20  1  0
 20 21  2  0
 21 22  1  0
 13  6  1  0
 22 18  1  0
M  END
>  <Title>  (366) 
idAAMDgen9

$$$$

     RDKit          2D

109110  0  0  0  0  0  0  0  0999 V2000
   -2.1503   -1.0898    0.0000 C   0  0  0  0  0  0  0  0  0  0  0  0
   -2.4840    0.3726    0.0000 C   0  0  0  0  0  0  0  0  0  0  0  0
   -3.9558    0.0827    0.0000 C   0  0  0  0  0  0  0  0  0  0  0  0
   -5.4422   -0.1186    0.0000 C   0  0  0  0  0  0  0  0  0  0  0  0
   -6.9380   -0.2307    0.0000 C   0  0  0  0  0  0  0  0  0  0  0  0
   -8.4378   -0.2531    0.0000 C   0  0  0  0  0  0  0  0  0  0  0  0
   -9.9363   -0.1859    0.0000 C   0  0  0  0  0  0  0  0  0  0  0  0
  -11.4281   -0.0291    0.0000 C   0  0  0  0  0  0  0  0  0  0  0  0
  -12.9078    0.2167    0.0000 C   0  0  0  0  0  0  0  0  0  0  0  0
  -14.3702    0.5505    0.0000 C   0  0  0  0  0  0  0  0  0  0  0  0
  -15.8100    0.9711    0.0000 C   0  0  0  0  0  0  0  0  0  0  0  0
  -17.2221    1.4771    0.0000 C   0  0  0  0  0  0  0  0  0  0  0  0
  -18.6014    2.0666    0.0000 C   0  0  0  0  0  0  0  0  0  0  0  0
  -19.9430    2.7376    0.0000 C   0  0  0  0  0  0  0  0  0  0  0  0
  -21.2420    3.4876    0.0000 C   0  0  0  0  0  0  0  0  0  0  0  0
  -22.4939    4.3139    0.0000 C   0  0  0  0  0  0  0  0  0  0  0  0
  -23.6941    5.2137    0.0000 C   0  0  0  0  0  0  0  0  0  0  0  0
  -24.8383    6.1836    0.0000 C   0  0  0  0  0  0  0  0  0  0  0  0
  -25.9225    7.2202    0.0000 C   0  0  0  0  0  0  0  0  0  0  0  0
  -26.9428    8.3197    0.0000 C   0  0  0  0  0  0  0  0  0  0  0  0
  -27.8954    9.4784    0.0000 C   0  0  0  0  0  0  0  0  0  0  0  0
  -28.7771   10.6919    0.0000 C   0  0  0  0  0  0  0  0  0  0  0  0
  -29.5846   11.9560    0.0000 C   0  0  0  0  0  0  0  0  0  0  0  0
  -30.3151   13.2661    0.0000 C   0  0  0  0  0  0  0  0  0  0  0  0
  -30.9660   14.6175    0.0000 C   0  0  0  0  0  0  0  0  0  0  0  0
  -31.5348   16.0055    0.0000 C   0  0  0  0  0  0  0  0  0  0  0  0
  -32.0196   17.4250    0.0000 C   0  0  0  0  0  0  0  0  0  0  0  0
  -32.4187   18.8709    0.0000 C   0  0  0  0  0  0  0  0  0  0  0  0
  -32.7305   20.3382    0.0000 C   0  0  0  0  0  0  0  0  0  0  0  0
  -32.9541   21.8214    0.0000 C   0  0  0  0  0  0  0  0  0  0  0  0
  -33.0886   23.3154    0.0000 C   0  0  0  0  0  0  0  0  0  0  0  0
  -33.1334   24.8147    0.0000 C   0  0  0  0  0  0  0  0  0  0  0  0
  -33.0886   26.3140    0.0000 C   0  0  0  0  0  0  0  0  0  0  0  0
  -32.9541   27.8080    0.0000 C   0  0  0  0  0  0  0  0  0  0  0  0
  -32.7305   29.2912    0.0000 C   0  0  0  0  0  0  0  0  0  0  0  0
  -32.4187   30.7584    0.0000 C   0  0  0  0  0  0  0  0  0  0  0  0
  -32.0196   32.2044    0.0000 C   0  0  0  0  0  0  0  0  0  0  0  0
  -31.5348   33.6239    0.0000 C   0  0  0  0  0  0  0  0  0  0  0  0
  -30.9660   35.0118    0.0000 C   0  0  0  0  0  0  0  0  0  0  0  0
  -30.3151   36.3633    0.0000 C   0  0  0  0  0  0  0  0  0  0  0  0
  -29.5846   37.6734    0.0000 C   0  0  0  0  0  0  0  0  0  0  0  0
  -28.7771   38.9375    0.0000 C   0  0  0  0  0  0  0  0  0  0  0  0
  -27.8954   40.1510    0.0000 C   0  0  0  0  0  0  0  0  0  0  0  0
  -26.9428   41.3096    0.0000 C   0  0  0  0  0  0  0  0  0  0  0  0
  -25.9225   42.4092    0.0000 C   0  0  0  0  0  0  0  0  0  0  0  0
  -24.8383   43.4458    0.0000 C   0  0  0  0  0  0  0  0  0  0  0  0
  -23.6941   44.4157    0.0000 C   0  0  0  0  0  0  0  0  0  0  0  0
  -22.4939   45.3154    0.0000 C   0  0  0  0  0  0  0  0  0  0  0  0
  -21.2420   46.1418    0.0000 C   0  0  0  0  0  0  0  0  0  0  0  0
  -19.9430   46.8918    0.0000 C   0  0  0  0  0  0  0  0  0  0  0  0
  -18.6014   47.5628    0.0000 C   0  0  0  0  0  0  0  0  0  0  0  0
  -17.2221   48.1523    0.0000 C   0  0  0  0  0  0  0  0  0  0  0  0
  -15.8100   48.6583    0.0000 C   0  0  0  0  0  0  0  0  0  0  0  0
  -14.3702   49.0789    0.0000 C   0  0  0  0  0  0  0  0  0  0  0  0
  -12.9078   49.4127    0.0000 C   0  0  0  0  0  0  0  0  0  0  0  0
  -11.4281   49.6584    0.0000 C   0  0  0  0  0  0  0  0  0  0  0  0
   -9.9363   49.8152    0.0000 C   0  0  0  0  0  0  0  0  0  0  0  0
   -8.4378   49.8825    0.0000 C   0  0  0  0  0  0  0  0  0  0  0  0
   -6.9380   49.8601    0.0000 C   0  0  0  0  0  0  0  0  0  0  0  0
   -5.4422   49.7480    0.0000 C   0  0  0  0  0  0  0  0  0  0  0  0
   -3.9558   49.5466    0.0000 C   0  0  0  0  0  0  0  0  0  0  0  0
   -2.4840   49.2568    0.0000 C   0  0  0  0  0  0  0  0  0  0  0  0
   -1.0323   48.8794    0.0000 C   0  0  0  0  0  0  0  0  0  0  0  0
    0.3943   48.4159    0.0000 C   0  0  0  0  0  0  0  0  0  0  0  0
    1.7906   47.8678    0.0000 C   0  0  0  0  0  0  0  0  0  0  0  0
    3.1516   47.2373    0.0000 C   0  0  0  0  0  0  0  0  0  0  0  0
    4.4725   46.5265    0.0000 C   0  0  0  0  0  0  0  0  0  0  0  0
    5.7486   45.7380    0.0000 C   0  0  0  0  0  0  0  0  0  0  0  0
    6.9751   44.8746    0.0000 C   0  0  0  0  0  0  0  0  0  0  0  0
    8.1479   43.9393    0.0000 C   0  0  0  0  0  0  0  0  0  0  0  0
    9.2626   42.9356    0.0000 C   0  0  0  0  0  0  0  0  0  0  0  0
   10.3153   41.8671    0.0000 C   0  0  0  0  0  0  0  0  0  0  0  0
   11.3022   40.7375    0.0000 C   0  0  0  0  0  0  0  0  0  0  0  0
   12.2198   39.5508    0.0000 C   0  0  0  0  0  0  0  0  0  0  0  0
   13.0648   38.3115    0.0000 C   0  0  0  0  0  0  0  0  0  0  0  0
   13.8341   37.0238    0.0000 C   0  0  0  0  0  0  0  0  0  0  0  0
   14.5251   35.6924    0.0000 C   0  0  0  0  0  0  0  0  0  0  0  0
   15.1352   34.3221    0.0000 C   0  0  0  0  0  0  0  0  0  0  0  0
   15.6623   32.9178    0.0000 C   0  0  0  0  0  0  0  0  0  0  0  0
   16.1044   31.4844    0.0000 C   0  0  0  0  0  0  0  0  0  0  0  0
   16.4600   30.0272    0.0000 C   0  0  0  0  0  0  0  0  0  0  0  0
   16.7278   28.5513    0.0000 C   0  0  0  0  0  0  0  0  0  0  0  0
   16.9069   27.0620    0.0000 C   0  0  0  0  0  0  0  0  0  0  0  0
   16.9966   25.5647    0.0000 C   0  0  0  0  0  0  0  0  0  0  0  0
   16.9966   24.0647    0.0000 C   0  0  0  0  0  0  0  0  0  0  0  0
   16.9069   22.5674    0.0000 C   0  0  0  0  0  0  0  0  0  0  0  0
   16.7278   21.0781    0.0000 C   0  0  0  0  0  0  0  0  0  0  0  0
   16.4600   19.6022    0.0000 C   0  0  0  0  0  0  0  0  0  0  0  0
   16.1044   18.1450    0.0000 C   0  0  0  0  0  0  0  0  0  0  0  0
   15.6623   16.7116    0.0000 C   0  0  0  0  0  0  0  0  0  0  0  0
   15.1352   15.3073    0.0000 C   0  0  0  0  0  0  0  0  0  0  0  0
   14.5251   13.9369    0.0000 C   0  0  0  0  0  0  0  0  0  0  0  0
   13.8341   12.6056    0.0000 C   0  0  0  0  0  0  0  0  0  0  0  0
   13.0648   11.3179    0.0000 C   0  0  0  0  0  0  0  0  0  0  0  0
   12.2198   10.0785    0.0000 C   0  0  0  0  0  0  0  0  0  0  0  0
   11.3022    8.8919    0.0000 C   0  0  0  0  0  0  0  0  0  0  0  0
   10.3153    7.7623    0.0000 C   0  0  0  0  0  0  0  0  0  0  0  0
    9.2626    6.6938    0.0000 C   0  0  0  0  0  0  0  0  0  0  0  0
    8.1479    5.6901    0.0000 C   0  0  0  0  0  0  0  0  0  0  0  0
    6.9751    4.7548    0.0000 C   0  0  0  0  0  0  0  0  0  0  0  0
    5.7486    3.8914    0.0000 C   0  0  0  0  0  0  0  0  0  0  0  0
    4.4725    3.1029    0.0000 C   0  0  0  0  0  0  0  0  0  0  0  0
    3.1516    2.3921    0.0000 C   0  0  0  0  0  0  0  0  0  0  0  0
    1.7906    1.7615    0.0000 C   0  0  0  0  0  0  0  0  0  0  0  0
    0.3943    1.2135    0.0000 C   0  0  0  0  0  0  0  0  0  0  0  0
    1.2760    0.0000    0.0000 C   0  0  0  0  0  0  0  0  0  0  0  0
    0.3943   -1.2135    0.0000 C   0  0  0  0  0  0  0  0  0  0  0  0
   -1.0323   -0.7500    0.0000 C   0  0  0  0  0  0  0  0  0  0  0  0
   -1.0323    0.7500    0.0000 C   0  0  0  0  0  0  0  0  0  0  0  0
  1  2  1  0
  2  3  1  0
  3  4  2  0
  4  5  1  0
  5  6  1  0
  6  7  1  0
  7  8  1  0
  8  9  1  0
  9 10  1  0
 10 11  1  0
 11 12  1  0
 12 13  1  0
 13 14  1  0
 14 15  1  0
 15 16  1  0
 16 17  1  0
 17 18  1  0
 18 19  1  0
 19 20  1  0
 20 21  1  0
 21 22  1  0
 22 23  1  0
 23 24  1  0
 24 25  1  0
 25 26  1  0
 26 27  1  0
 27 28  1  0
 28 29  1  0
 29 30  1  0
 30 31  1  0
 31 32  1  0
 32 33  1  0
 33 34  1  0
 34 35  1  0
 35 36  1  0
 36 37  1  0
 37 38  1  0
 38 39  1  0
 39 40  1  0
 40 41  1  0
 41 42  1  0
 42 43  1  0
 43 44  1  0
 44 45  1  0
 45 46  1  0
 46 47  1  0
 47 48  1  0
 48 49  1  0
 49 50  1  0
 50 51  1  0
 51 52  1  0
 52 53  1  0
 53 54  1  0
 54 55  1  0
 55 56  1  0
 56 57  1  0
 57 58  1  0
 58 59  1  0
 59 60  1  0
 60 61  1  0
 61 62  1  0
 62 63  1  0
 63 64  1  0
 64 65  1  0
 65 66  1  0
 66 67  1  0
 67 68  1  0
 68 69  1  0
 69 70  1  0
 70 71  1  0
 71 72  1  0
 72 73  1  0
 73 74  1  0
 74 75  1  0
 75 76  1  0
 76 77  1  0
 77 78  1  0
 78 79  1  0
 79 80  1  0
 80 81  1  0
 81 82  1  0
 82 83  1  0
 83 84  1  0
 84 85  1  0
 85 86  1  0
 86 87  1  0
 87 88  1  0
 88 89  1  0
 89 90  1  0
 90 91  1  0
 91 92  1  0
 92 93  1  0
 93 94  1  0
 94 95  1  0
 95 96  1  0
 96 97  1  0
 97 98  1  0
 98 99  1  0
 99100  1  0
100101  1  0
101102  1  0
102103  1  0
103104  1  0
104105  1  0
105106  1  0
106107  2  0
107108  1  0
108109  2  0
109  2  1  0
109105  1  0
M  END
>  <Title>  (367) 
idAAMEgen9

$$$$

     RDKit          2D

  7  7  0  0  0  0  0  0  0  0999 V2000
    3.0000    0.0000    0.0000 C   0  0  0  0  0  0  0  0  0  0  0  0
    1.5000    0.0000    0.0000 C   0  0  0  0  0  0  0  0  0  0  0  0
    0.7500   -1.2990    0.0000 C   0  0  0  0  0  0  0  0  0  0  0  0
   -0.7500   -1.2990    0.0000 C   0  0  0  0  0  0  0  0  0  0  0  0
   -1.5000    0.0000    0.0000 C   0  0  0  0  0  0  0  0  0  0  0  0
   -0.7500    1.2990    0.0000 C   0  0  0  0  0  0  0  0  0  0  0  0
    0.7500    1.2990    0.0000 C   0  0  0  0  0  0  0  0  0  0  0  0
  1  2  1  0
  2  3  2  0
  3  4  1  0
  4  5  1  0
  5  6  1  0
  6  7  1  0
  7  2  1  0
M  END
>  <Title>  (368) 
idAAMFgen9

$$$$

     RDKit          2D

 11 11  0  0  0  0  0  0  0  0999 V2000
   10.2760   -0.0000    0.0000 C   0  0  0  0  0  0  0  0  0  0  0  0
    8.7760   -0.0000    0.0000 C   0  0  0  0  0  0  0  0  0  0  0  0
    7.2760   -0.0000    0.0000 C   0  0  0  0  0  0  0  0  0  0  0  0
    5.7760   -0.0000    0.0000 C   0  0  0  0  0  0  0  0  0  0  0  0
    4.2760   -0.0000    0.0000 C   0  0  0  0  0  0  0  0  0  0  0  0
    2.7760    0.0000    0.0000 C   0  0  0  0  0  0  0  0  0  0  0  0
    1.2760    0.0000    0.0000 C   0  0  0  0  0  0  0  0  0  0  0  0
    0.3943    1.2135    0.0000 C   0  0  0  0  0  0  0  0  0  0  0  0
   -1.0323    0.7500    0.0000 C   0  0  0  0  0  0  0  0  0  0  0  0
   -1.0323   -0.7500    0.0000 C   0  0  0  0  0  0  0  0  0  0  0  0
    0.3943   -1.2135    0.0000 C   0  0  0  0  0  0  0  0  0  0  0  0
  1  2  3  0
  2  3  1  0
  3  4  3  0
  4  5  1  0
  5  6  3  0
  6  7  1  0
  7  8  2  0
  8  9  1  0
  9 10  2  0
 10 11  1  0
 11  7  1  0
M  END
>  <Title>  (369) 
idAAMGgen9

$$$$

     RDKit          2D

  9  9  0  0  0  0  0  0  0  0999 V2000
    4.2760   -0.0000    0.0000 N   0  0  0  0  0  0  0  0  0  0  0  0
    2.7760    0.0000    0.0000 C   0  0  0  0  0  0  0  0  0  0  0  0
    1.2760    0.0000    0.0000 C   0  0  0  0  0  0  0  0  0  0  0  0
    0.3943    1.2135    0.0000 C   0  0  0  0  0  0  0  0  0  0  0  0
   -1.0323    0.7500    0.0000 C   0  0  0  0  0  0  0  0  0  0  0  0
   -2.2458    1.6317    0.0000 C   0  0  0  0  0  0  0  0  0  0  0  0
   -2.0890    3.1235    0.0000 O   0  0  0  0  0  0  0  0  0  0  0  0
   -1.0323   -0.7500    0.0000 C   0  0  0  0  0  0  0  0  0  0  0  0
    0.3943   -1.2135    0.0000 C   0  0  0  0  0  0  0  0  0  0  0  0
  1  2  3  0
  2  3  1  0
  3  4  2  0
  4  5  1  0
  5  6  1  0
  6  7  1  0
  5  8  1  0
  8  9  2  0
  9  3  1  0
M  END
>  <Title>  (370) 
idAAMHgen9

$$$$

     RDKit          2D

 14 15  0  0  0  0  0  0  0  0999 V2000
    3.0613   -7.3456    0.0000 O   0  0  0  0  0  0  0  0  0  0  0  0
    1.8478   -6.4639    0.0000 C   0  0  0  0  0  0  0  0  0  0  0  0
    0.4775   -7.0740    0.0000 O   0  0  0  0  0  0  0  0  0  0  0  0
    2.0046   -4.9721    0.0000 N   0  0  0  0  0  0  0  0  0  0  0  0
    3.3037   -4.2221    0.0000 C   0  0  0  0  0  0  0  0  0  0  0  0
    2.9918   -2.7549    0.0000 C   0  0  0  0  0  0  0  0  0  0  0  0
    1.5000   -2.5981    0.0000 C   0  0  0  0  0  0  0  0  0  0  0  0
    0.7500   -1.2990    0.0000 C   0  0  0  0  0  0  0  0  0  0  0  0
    1.5000    0.0000    0.0000 C   0  0  0  0  0  0  0  0  0  0  0  0
    0.7500    1.2990    0.0000 C   0  0  0  0  0  0  0  0  0  0  0  0
   -0.7500    1.2990    0.0000 C   0  0  0  0  0  0  0  0  0  0  0  0
   -1.5000    0.0000    0.0000 C   0  0  0  0  0  0  0  0  0  0  0  0
   -0.7500   -1.2990    0.0000 C   0  0  0  0  0  0  0  0  0  0  0  0
    0.8899   -3.9684    0.0000 C   0  0  0  0  0  0  0  0  0  0  0  0
  1  2  2  0
  2  3  1  0
  2  4  1  0
  4  5  1  0
  5  6  1  0
  6  7  1  0
  7  8  1  0
  8  9  2  0
  9 10  1  0
 10 11  2  0
 11 12  1  0
 12 13  2  0
  7 14  1  0
 14  4  1  0
 13  8  1  0
M  END
>  <Title>  (371) 
idAAMIgen9

$$$$

     RDKit          2D

  7  7  0  0  0  0  0  0  0  0999 V2000
    6.8660    0.0000    0.0000 C   0  0  0  0  0  0  0  0  0  0  0  0
    5.3660    0.0000    0.0000 C   0  0  0  0  0  0  0  0  0  0  0  0
    3.8660    0.0000    0.0000 C   0  0  0  0  0  0  0  0  0  0  0  0
    2.3660    0.0000    0.0000 C   0  0  0  0  0  0  0  0  0  0  0  0
    0.8660    0.0000    0.0000 C   0  0  0  0  0  0  0  0  0  0  0  0
   -0.4330    0.7500    0.0000 C   0  0  0  0  0  0  0  0  0  0  0  0
   -0.4330   -0.7500    0.0000 C   0  0  0  0  0  0  0  0  0  0  0  0
  1  2  3  0
  2  3  1  0
  3  4  3  0
  4  5  1  0
  5  6  1  0
  6  7  1  0
  7  5  1  0
M  END
>  <Title>  (372) 
idAAMJgen9

$$$$

     RDKit          2D

  9  9  0  0  0  0  0  0  0  0999 V2000
    9.1160   -1.2990    0.0000 C   0  0  0  0  0  0  0  0  0  0  0  0
    8.3660    0.0000    0.0000 C   0  0  0  0  0  0  0  0  0  0  0  0
    6.8660    0.0000    0.0000 C   0  0  0  0  0  0  0  0  0  0  0  0
    5.3660    0.0000    0.0000 C   0  0  0  0  0  0  0  0  0  0  0  0
    3.8660    0.0000    0.0000 C   0  0  0  0  0  0  0  0  0  0  0  0
    2.3660    0.0000    0.0000 C   0  0  0  0  0  0  0  0  0  0  0  0
    0.8660    0.0000    0.0000 C   0  0  0  0  0  0  0  0  0  0  0  0
   -0.4330    0.7500    0.0000 C   0  0  0  0  0  0  0  0  0  0  0  0
   -0.4330   -0.7500    0.0000 C   0  0  0  0  0  0  0  0  0  0  0  0
  1  2  2  0
  2  3  1  0
  3  4  3  0
  4  5  1  0
  5  6  3  0
  6  7  1  0
  7  8  1  0
  8  9  1  0
  9  7  1  0
M  END
>  <Title>  (373) 
idAAMKgen9

$$$$

     RDKit          2D

  8  7  0  0  0  0  0  0  0  0999 V2000
    0.0000    0.0000    0.0000 C   0  0  0  0  0  0  0  0  0  0  0  0
    1.2990    0.7500    0.0000 C   0  0  0  0  0  0  0  0  0  0  0  0
    1.2990    2.2500    0.0000 C   0  0  0  0  0  0  0  0  0  0  0  0
    1.2990    3.7500    0.0000 N   0  0  0  0  0  0  0  0  0  0  0  0
    2.5981   -0.0000    0.0000 C   0  0  0  0  0  0  0  0  0  0  0  0
    3.8971   -0.7500    0.0000 C   0  0  0  0  0  0  0  0  0  0  0  0
    5.1962   -1.5000    0.0000 C   0  0  0  0  0  0  0  0  0  0  0  0
    6.4952   -2.2500    0.0000 N   0  0  0  0  0  0  0  0  0  0  0  0
  1  2  1  0
  2  3  1  0
  3  4  3  0
  2  5  1  0
  5  6  3  0
  6  7  1  0
  7  8  3  0
M  END
>  <Title>  (374) 
idAAMLgen9

$$$$

     RDKit          2D

 50 57  0  0  0  0  0  0  0  0999 V2000
    5.2417   -6.1122    0.0000 C   0  0  0  0  0  0  0  0  0  0  0  0
    3.7705   -5.8195    0.0000 C   0  0  0  0  0  0  0  0  0  0  0  0
    3.7705   -4.3195    0.0000 C   0  0  0  0  0  0  0  0  0  0  0  0
    3.1965   -2.9337    0.0000 C   0  0  0  0  0  0  0  0  0  0  0  0
    2.1358   -1.8731    0.0000 C   0  0  0  0  0  0  0  0  0  0  0  0
    2.9692   -0.6259    0.0000 C   0  0  0  0  0  0  0  0  0  0  0  0
    2.3057    0.7195    0.0000 O   0  0  0  0  0  0  0  0  0  0  0  0
    4.4660   -0.7240    0.0000 N   0  0  0  0  0  0  0  0  0  0  0  0
    5.2993    0.5232    0.0000 C   0  0  0  0  0  0  0  0  0  0  0  0
    6.7961    0.4251    0.0000 N   0  0  0  0  0  0  0  0  0  0  0  0
    7.6295    1.6723    0.0000 N   0  0  0  0  0  0  0  0  0  0  0  0
    6.9660    3.0176    0.0000 N   0  0  0  0  0  0  0  0  0  0  0  0
    5.4692    3.1158    0.0000 N   0  0  0  0  0  0  0  0  0  0  0  0
    4.6359    1.8686    0.0000 N   0  0  0  0  0  0  0  0  0  0  0  0
    0.7500   -1.2990    0.0000 C   0  0  0  0  0  0  0  0  0  0  0  0
    1.5000    0.0000    0.0000 C   0  0  0  0  0  0  0  0  0  0  0  0
    0.7500    1.2990    0.0000 C   0  0  0  0  0  0  0  0  0  0  0  0
   -0.7500    1.2990    0.0000 C   0  0  0  0  0  0  0  0  0  0  0  0
   -1.5000    0.0000    0.0000 C   0  0  0  0  0  0  0  0  0  0  0  0
   -0.7500   -1.2990    0.0000 C   0  0  0  0  0  0  0  0  0  0  0  0
   -2.1358   -1.8731    0.0000 C   0  0  0  0  0  0  0  0  0  0  0  0
   -2.5240   -0.4242    0.0000 C   0  0  0  0  0  0  0  0  0  0  0  0
   -3.9729   -0.0359    0.0000 C   0  0  0  0  0  0  0  0  0  0  0  0
   -5.0336   -1.0966    0.0000 C   0  0  0  0  0  0  0  0  0  0  0  0
   -4.6454   -2.5455    0.0000 C   0  0  0  0  0  0  0  0  0  0  0  0
   -3.1965   -2.9337    0.0000 C   0  0  0  0  0  0  0  0  0  0  0  0
   -3.7705   -4.3195    0.0000 C   0  0  0  0  0  0  0  0  0  0  0  0
   -5.0695   -3.5695    0.0000 C   0  0  0  0  0  0  0  0  0  0  0  0
   -6.3686   -4.3195    0.0000 C   0  0  0  0  0  0  0  0  0  0  0  0
   -6.3686   -5.8195    0.0000 C   0  0  0  0  0  0  0  0  0  0  0  0
   -5.0695   -6.5695    0.0000 C   0  0  0  0  0  0  0  0  0  0  0  0
   -3.7705   -5.8195    0.0000 C   0  0  0  0  0  0  0  0  0  0  0  0
   -3.1965   -7.2054    0.0000 C   0  0  0  0  0  0  0  0  0  0  0  0
   -4.6454   -7.5936    0.0000 C   0  0  0  0  0  0  0  0  0  0  0  0
   -5.0336   -9.0425    0.0000 C   0  0  0  0  0  0  0  0  0  0  0  0
   -3.9729  -10.1031    0.0000 C   0  0  0  0  0  0  0  0  0  0  0  0
   -2.5240   -9.7149    0.0000 C   0  0  0  0  0  0  0  0  0  0  0  0
   -2.1358   -8.2660    0.0000 C   0  0  0  0  0  0  0  0  0  0  0  0
   -0.7500   -8.8400    0.0000 C   0  0  0  0  0  0  0  0  0  0  0  0
   -1.5000  -10.1391    0.0000 C   0  0  0  0  0  0  0  0  0  0  0  0
   -0.7500  -11.4381    0.0000 C   0  0  0  0  0  0  0  0  0  0  0  0
    0.7500  -11.4381    0.0000 C   0  0  0  0  0  0  0  0  0  0  0  0
    1.5000  -10.1391    0.0000 C   0  0  0  0  0  0  0  0  0  0  0  0
    0.7500   -8.8400    0.0000 C   0  0  0  0  0  0  0  0  0  0  0  0
    2.1358   -8.2660    0.0000 C   0  0  0  0  0  0  0  0  0  0  0  0
    2.5240   -9.7149    0.0000 C   0  0  0  0  0  0  0  0  0  0  0  0
    3.9729  -10.1031    0.0000 C   0  0  0  0  0  0  0  0  0  0  0  0
    5.0336   -9.0425    0.0000 C   0  0  0  0  0  0  0  0  0  0  0  0
    4.6454   -7.5936    0.0000 C   0  0  0  0  0  0  0  0  0  0  0  0
    3.1965   -7.2054    0.0000 C   0  0  0  0  0  0  0  0  0  0  0  0
  1  2  1  0
  2  3  2  0
  3  4  1  0
  4  5  2  0
  5  6  1  0
  6  7  2  0
  6  8  1  0
  8  9  1  0
  9 10  2  0
 10 11  1  0
 11 12  2  0
 12 13  1  0
 13 14  2  0
  5 15  1  0
 15 16  2  0
 16 17  1  0
 17 18  2  0
 18 19  1  0
 19 20  2  0
 20 21  1  0
 21 22  2  0
 22 23  1  0
 23 24  2  0
 24 25  1  0
 25 26  2  0
 26 27  1  0
 27 28  2  0
 28 29  1  0
 29 30  2  0
 30 31  1  0
 31 32  2  0
 32 33  1  0
 33 34  2  0
 34 35  1  0
 35 36  2  0
 36 37  1  0
 37 38  2  0
 38 39  1  0
 39 40  2  0
 40 41  1  0
 41 42  2  0
 42 43  1  0
 43 44  2  0
 44 45  1  0
 45 46  2  0
 46 47  1  0
 47 48  2  0
 48 49  1  0
 49 50  2  0
 50  2  1  0
 14  9  1  0
 20 15  1  0
 26 21  1  0
 32 27  1  0
 38 33  1  0
 44 39  1  0
 50 45  1  0
M  END
>  <Title>  (375) 
idAAMMgen9

$$$$

     RDKit          2D

 14 14  0  0  0  0  0  0  0  0999 V2000
   12.5260   -1.2990    0.0000 C   0  0  0  0  0  0  0  0  0  0  0  0
   11.0260   -1.2990    0.0000 C   0  0  0  0  0  0  0  0  0  0  0  0
    9.5260   -1.2990    0.0000 C   0  0  0  0  0  0  0  0  0  0  0  0
    8.0260   -1.2990    0.0000 C   0  0  0  0  0  0  0  0  0  0  0  0
    6.5260   -1.2990    0.0000 C   0  0  0  0  0  0  0  0  0  0  0  0
    5.0260   -1.2990    0.0000 C   0  0  0  0  0  0  0  0  0  0  0  0
    3.5260   -1.2990    0.0000 C   0  0  0  0  0  0  0  0  0  0  0  0
    2.7760   -2.5981    0.0000 O   0  0  0  0  0  0  0  0  0  0  0  0
    2.7760    0.0000    0.0000 N   0  0  0  0  0  0  0  0  0  0  0  0
    1.2760    0.0000    0.0000 C   0  0  0  0  0  0  0  0  0  0  0  0
    0.3943    1.2135    0.0000 C   0  0  0  0  0  0  0  0  0  0  0  0
   -1.0323    0.7500    0.0000 C   0  0  0  0  0  0  0  0  0  0  0  0
   -1.0323   -0.7500    0.0000 C   0  0  0  0  0  0  0  0  0  0  0  0
    0.3943   -1.2135    0.0000 C   0  0  0  0  0  0  0  0  0  0  0  0
  1  2  3  0
  2  3  1  0
  3  4  3  0
  4  5  1  0
  5  6  3  0
  6  7  1  0
  7  8  2  0
  7  9  1  0
  9 10  1  0
 10 11  2  0
 11 12  1  0
 12 13  2  0
 13 14  1  0
 14 10  1  0
M  END
>  <Title>  (376) 
idAAMNgen9

$$$$

     RDKit          2D

 83 83  0  0  0  0  0  0  0  0999 V2000
   20.3648   -2.5981    0.0000 O   0  0  0  0  0  0  0  0  0  0  0  0
   21.1148   -1.2990    0.0000 C   0  0  0  0  0  0  0  0  0  0  0  0
   22.6148   -1.2990    0.0000 O   0  0  0  0  0  0  0  0  0  0  0  0
   20.3648    0.0000    0.0000 O   0  0  0  0  0  0  0  0  0  0  0  0
   18.8648    0.0000    0.0000 C   0  0  0  0  0  0  0  0  0  0  0  0
   18.8052    1.4988    0.0000 C   0  0  0  0  0  0  0  0  0  0  0  0
   18.6267    2.9882    0.0000 C   0  0  0  0  0  0  0  0  0  0  0  0
   18.3304    4.4586    0.0000 C   0  0  0  0  0  0  0  0  0  0  0  0
   17.9182    5.9009    0.0000 C   0  0  0  0  0  0  0  0  0  0  0  0
   17.3927    7.3058    0.0000 C   0  0  0  0  0  0  0  0  0  0  0  0
   16.7573    8.6646    0.0000 C   0  0  0  0  0  0  0  0  0  0  0  0
   16.0159    9.9685    0.0000 C   0  0  0  0  0  0  0  0  0  0  0  0
   15.1733   11.2095    0.0000 C   0  0  0  0  0  0  0  0  0  0  0  0
   14.2347   12.3796    0.0000 C   0  0  0  0  0  0  0  0  0  0  0  0
   13.2062   13.4714    0.0000 C   0  0  0  0  0  0  0  0  0  0  0  0
   12.0941   14.4781    0.0000 C   0  0  0  0  0  0  0  0  0  0  0  0
   10.9056   15.3932    0.0000 C   0  0  0  0  0  0  0  0  0  0  0  0
    9.6481   16.2110    0.0000 C   0  0  0  0  0  0  0  0  0  0  0  0
    8.3297   16.9263    0.0000 C   0  0  0  0  0  0  0  0  0  0  0  0
    6.9586   17.5345    0.0000 C   0  0  0  0  0  0  0  0  0  0  0  0
    5.5434   18.0320    0.0000 C   0  0  0  0  0  0  0  0  0  0  0  0
    4.0933   18.4154    0.0000 C   0  0  0  0  0  0  0  0  0  0  0  0
    2.6172   18.6824    0.0000 C   0  0  0  0  0  0  0  0  0  0  0  0
    1.1246   18.8313    0.0000 C   0  0  0  0  0  0  0  0  0  0  0  0
   -0.3751   18.8611    0.0000 C   0  0  0  0  0  0  0  0  0  0  0  0
   -1.8724   18.7717    0.0000 C   0  0  0  0  0  0  0  0  0  0  0  0
   -3.3579   18.5636    0.0000 C   0  0  0  0  0  0  0  0  0  0  0  0
   -4.8222   18.2381    0.0000 C   0  0  0  0  0  0  0  0  0  0  0  0
   -6.2559   17.7973    0.0000 C   0  0  0  0  0  0  0  0  0  0  0  0
   -7.6502   17.2440    0.0000 C   0  0  0  0  0  0  0  0  0  0  0  0
   -8.9960   16.5817    0.0000 C   0  0  0  0  0  0  0  0  0  0  0  0
  -10.2850   15.8146    0.0000 C   0  0  0  0  0  0  0  0  0  0  0  0
  -11.5090   14.9474    0.0000 C   0  0  0  0  0  0  0  0  0  0  0  0
  -12.6602   13.9858    0.0000 C   0  0  0  0  0  0  0  0  0  0  0  0
  -13.7313   12.9357    0.0000 C   0  0  0  0  0  0  0  0  0  0  0  0
  -14.7157   11.8039    0.0000 C   0  0  0  0  0  0  0  0  0  0  0  0
  -15.6070   10.5974    0.0000 C   0  0  0  0  0  0  0  0  0  0  0  0
  -16.3996    9.3239    0.0000 C   0  0  0  0  0  0  0  0  0  0  0  0
  -17.0885    7.9915    0.0000 C   0  0  0  0  0  0  0  0  0  0  0  0
  -17.6694    6.6086    0.0000 C   0  0  0  0  0  0  0  0  0  0  0  0
  -18.1386    5.1838    0.0000 C   0  0  0  0  0  0  0  0  0  0  0  0
  -18.4931    3.7263    0.0000 C   0  0  0  0  0  0  0  0  0  0  0  0
  -18.7307    2.2453    0.0000 C   0  0  0  0  0  0  0  0  0  0  0  0
  -18.8499    0.7500    0.0000 C   0  0  0  0  0  0  0  0  0  0  0  0
  -18.8499   -0.7500    0.0000 C   0  0  0  0  0  0  0  0  0  0  0  0
  -18.7307   -2.2453    0.0000 C   0  0  0  0  0  0  0  0  0  0  0  0
  -18.4931   -3.7263    0.0000 C   0  0  0  0  0  0  0  0  0  0  0  0
  -18.1386   -5.1838    0.0000 C   0  0  0  0  0  0  0  0  0  0  0  0
  -17.6694   -6.6086    0.0000 C   0  0  0  0  0  0  0  0  0  0  0  0
  -17.0885   -7.9915    0.0000 C   0  0  0  0  0  0  0  0  0  0  0  0
  -16.3996   -9.3239    0.0000 C   0  0  0  0  0  0  0  0  0  0  0  0
  -15.6070  -10.5974    0.0000 C   0  0  0  0  0  0  0  0  0  0  0  0
  -14.7157  -11.8039    0.0000 C   0  0  0  0  0  0  0  0  0  0  0  0
  -13.7313  -12.9357    0.0000 C   0  0  0  0  0  0  0  0  0  0  0  0
  -12.6602  -13.9858    0.0000 C   0  0  0  0  0  0  0  0  0  0  0  0
  -11.5090  -14.9474    0.0000 C   0  0  0  0  0  0  0  0  0  0  0  0
  -10.2850  -15.8146    0.0000 C   0  0  0  0  0  0  0  0  0  0  0  0
   -8.9960  -16.5817    0.0000 C   0  0  0  0  0  0  0  0  0  0  0  0
   -7.6502  -17.2440    0.0000 C   0  0  0  0  0  0  0  0  0  0  0  0
   -6.2559  -17.7973    0.0000 C   0  0  0  0  0  0  0  0  0  0  0  0
   -4.8222  -18.2381    0.0000 C   0  0  0  0  0  0  0  0  0  0  0  0
   -3.3579  -18.5636    0.0000 C   0  0  0  0  0  0  0  0  0  0  0  0
   -1.8724  -18.7717    0.0000 C   0  0  0  0  0  0  0  0  0  0  0  0
   -0.3751  -18.8611    0.0000 C   0  0  0  0  0  0  0  0  0  0  0  0
    1.1246  -18.8313    0.0000 C   0  0  0  0  0  0  0  0  0  0  0  0
    2.6172  -18.6824    0.0000 C   0  0  0  0  0  0  0  0  0  0  0  0
    4.0933  -18.4154    0.0000 C   0  0  0  0  0  0  0  0  0  0  0  0
    5.5434  -18.0320    0.0000 C   0  0  0  0  0  0  0  0  0  0  0  0
    6.9586  -17.5345    0.0000 C   0  0  0  0  0  0  0  0  0  0  0  0
    8.3297  -16.9263    0.0000 C   0  0  0  0  0  0  0  0  0  0  0  0
    9.6481  -16.2110    0.0000 C   0  0  0  0  0  0  0  0  0  0  0  0
   10.9056  -15.3932    0.0000 C   0  0  0  0  0  0  0  0  0  0  0  0
   12.0941  -14.4781    0.0000 C   0  0  0  0  0  0  0  0  0  0  0  0
   13.2062  -13.4714    0.0000 C   0  0  0  0  0  0  0  0  0  0  0  0
   14.2347  -12.3796    0.0000 C   0  0  0  0  0  0  0  0  0  0  0  0
   15.1733  -11.2095    0.0000 C   0  0  0  0  0  0  0  0  0  0  0  0
   16.0159   -9.9685    0.0000 C   0  0  0  0  0  0  0  0  0  0  0  0
   16.7573   -8.6646    0.0000 C   0  0  0  0  0  0  0  0  0  0  0  0
   17.3927   -7.3058    0.0000 C   0  0  0  0  0  0  0  0  0  0  0  0
   17.9182   -5.9009    0.0000 C   0  0  0  0  0  0  0  0  0  0  0  0
   18.3304   -4.4586    0.0000 C   0  0  0  0  0  0  0  0  0  0  0  0
   18.6267   -2.9882    0.0000 C   0  0  0  0  0  0  0  0  0  0  0  0
   18.8052   -1.4988    0.0000 C   0  0  0  0  0  0  0  0  0  0  0  0
  1  2  2  0
  2  3  1  0
  2  4  1  0
  4  5  1  0
  5  6  1  0
  6  7  2  0
  7  8  1  0
  8  9  1  0
  9 10  1  0
 10 11  1  0
 11 12  1  0
 12 13  1  0
 13 14  1  0
 14 15  1  0
 15 16  1  0
 16 17  1  0
 17 18  1  0
 18 19  1  0
 19 20  1  0
 20 21  1  0
 21 22  1  0
 22 23  1  0
 23 24  1  0
 24 25  1  0
 25 26  1  0
 26 27  1  0
 27 28  1  0
 28 29  1  0
 29 30  1  0
 30 31  1  0
 31 32  1  0
 32 33  1  0
 33 34  1  0
 34 35  1  0
 35 36  1  0
 36 37  1  0
 37 38  1  0
 38 39  1  0
 39 40  1  0
 40 41  1  0
 41 42  1  0
 42 43  1  0
 43 44  1  0
 44 45  1  0
 45 46  1  0
 46 47  1  0
 47 48  1  0
 48 49  1  0
 49 50  1  0
 50 51  1  0
 51 52  1  0
 52 53  1  0
 53 54  1  0
 54 55  1  0
 55 56  1  0
 56 57  1  0
 57 58  1  0
 58 59  1  0
 59 60  1  0
 60 61  1  0
 61 62  1  0
 62 63  1  0
 63 64  1  0
 64 65  1  0
 65 66  1  0
 66 67  1  0
 67 68  1  0
 68 69  1  0
 69 70  1  0
 70 71  1  0
 71 72  1  0
 72 73  1  0
 73 74  1  0
 74 75  1  0
 75 76  1  0
 76 77  1  0
 77 78  1  0
 78 79  1  0
 79 80  1  0
 80 81  1  0
 81 82  1  0
 82 83  1  0
 83  5  1  0
M  END
>  <Title>  (377) 
idAAMOgen9

$$$$

     RDKit          2D

 97 98  0  0  0  0  0  0  0  0999 V2000
    6.2539    4.2940    0.0000 C   0  0  0  0  0  0  0  0  0  0  0  0
    7.0432    4.4058    0.0000 C   0  0  0  0  0  0  0  0  0  0  0  0
    6.9050    5.8994    0.0000 C   0  0  0  0  0  0  0  0  0  0  0  0
    6.9116    7.3994    0.0000 C   0  0  0  0  0  0  0  0  0  0  0  0
    7.0629    8.8917    0.0000 C   0  0  0  0  0  0  0  0  0  0  0  0
    7.3575   10.3625    0.0000 C   0  0  0  0  0  0  0  0  0  0  0  0
    7.7928   11.7980    0.0000 C   0  0  0  0  0  0  0  0  0  0  0  0
    8.3645   13.1847    0.0000 C   0  0  0  0  0  0  0  0  0  0  0  0
    9.0674   14.5098    0.0000 C   0  0  0  0  0  0  0  0  0  0  0  0
    9.8950   15.7609    0.0000 C   0  0  0  0  0  0  0  0  0  0  0  0
   10.8394   16.9263    0.0000 C   0  0  0  0  0  0  0  0  0  0  0  0
   11.8918   17.9951    0.0000 C   0  0  0  0  0  0  0  0  0  0  0  0
   13.0425   18.9573    0.0000 C   0  0  0  0  0  0  0  0  0  0  0  0
   14.2808   19.8039    0.0000 C   0  0  0  0  0  0  0  0  0  0  0  0
   15.5949   20.5272    0.0000 C   0  0  0  0  0  0  0  0  0  0  0  0
   16.9727   21.1201    0.0000 C   0  0  0  0  0  0  0  0  0  0  0  0
   18.4013   21.5774    0.0000 C   0  0  0  0  0  0  0  0  0  0  0  0
   19.8674   21.8946    0.0000 C   0  0  0  0  0  0  0  0  0  0  0  0
   21.3572   22.0689    0.0000 C   0  0  0  0  0  0  0  0  0  0  0  0
   22.8569   22.0986    0.0000 C   0  0  0  0  0  0  0  0  0  0  0  0
   24.3525   21.9833    0.0000 C   0  0  0  0  0  0  0  0  0  0  0  0
   25.8300   21.7243    0.0000 C   0  0  0  0  0  0  0  0  0  0  0  0
   27.2755   21.3239    0.0000 C   0  0  0  0  0  0  0  0  0  0  0  0
   28.6757   20.7858    0.0000 C   0  0  0  0  0  0  0  0  0  0  0  0
   30.0174   20.1151    0.0000 C   0  0  0  0  0  0  0  0  0  0  0  0
   31.2881   19.3181    0.0000 C   0  0  0  0  0  0  0  0  0  0  0  0
   32.4760   18.4021    0.0000 C   0  0  0  0  0  0  0  0  0  0  0  0
   33.5699   17.3758    0.0000 C   0  0  0  0  0  0  0  0  0  0  0  0
   34.5596   16.2486    0.0000 C   0  0  0  0  0  0  0  0  0  0  0  0
   35.4360   15.0313    0.0000 C   0  0  0  0  0  0  0  0  0  0  0  0
   36.1907   13.7350    0.0000 C   0  0  0  0  0  0  0  0  0  0  0  0
   36.8168   12.3719    0.0000 C   0  0  0  0  0  0  0  0  0  0  0  0
   37.3085   10.9548    0.0000 C   0  0  0  0  0  0  0  0  0  0  0  0
   37.6610    9.4968    0.0000 C   0  0  0  0  0  0  0  0  0  0  0  0
   37.8713    8.0116    0.0000 C   0  0  0  0  0  0  0  0  0  0  0  0
   37.9371    6.5130    0.0000 C   0  0  0  0  0  0  0  0  0  0  0  0
   37.8581    5.0151    0.0000 C   0  0  0  0  0  0  0  0  0  0  0  0
   37.6348    3.5318    0.0000 C   0  0  0  0  0  0  0  0  0  0  0  0
   37.2695    2.0770    0.0000 C   0  0  0  0  0  0  0  0  0  0  0  0
   36.7654    0.6642    0.0000 C   0  0  0  0  0  0  0  0  0  0  0  0
   36.1273   -0.6933    0.0000 C   0  0  0  0  0  0  0  0  0  0  0  0
   35.3612   -1.9829    0.0000 C   0  0  0  0  0  0  0  0  0  0  0  0
   34.4742   -3.1925    0.0000 C   0  0  0  0  0  0  0  0  0  0  0  0
   33.4746   -4.3109    0.0000 C   0  0  0  0  0  0  0  0  0  0  0  0
   32.3717   -5.3276    0.0000 C   0  0  0  0  0  0  0  0  0  0  0  0
   31.1759   -6.2331    0.0000 C   0  0  0  0  0  0  0  0  0  0  0  0
   29.8982   -7.0190    0.0000 C   0  0  0  0  0  0  0  0  0  0  0  0
   28.5506   -7.6778    0.0000 C   0  0  0  0  0  0  0  0  0  0  0  0
   27.1458   -8.2036    0.0000 C   0  0  0  0  0  0  0  0  0  0  0  0
   25.6968   -8.5913    0.0000 C   0  0  0  0  0  0  0  0  0  0  0  0
   24.2171   -8.8373    0.0000 C   0  0  0  0  0  0  0  0  0  0  0  0
   22.7206   -8.9394    0.0000 C   0  0  0  0  0  0  0  0  0  0  0  0
   21.2212   -8.8965    0.0000 C   0  0  0  0  0  0  0  0  0  0  0  0
   19.7329   -8.7092    0.0000 C   0  0  0  0  0  0  0  0  0  0  0  0
   18.2697   -8.3791    0.0000 C   0  0  0  0  0  0  0  0  0  0  0  0
   16.8452   -7.9093    0.0000 C   0  0  0  0  0  0  0  0  0  0  0  0
   15.4726   -7.3042    0.0000 C   0  0  0  0  0  0  0  0  0  0  0  0
   14.1649   -6.5695    0.0000 C   0  0  0  0  0  0  0  0  0  0  0  0
   12.9342   -5.7120    0.0000 C   0  0  0  0  0  0  0  0  0  0  0  0
   11.7919   -4.7397    0.0000 C   0  0  0  0  0  0  0  0  0  0  0  0
   10.7489   -3.6617    0.0000 C   0  0  0  0  0  0  0  0  0  0  0  0
    9.8148   -2.4881    0.0000 C   0  0  0  0  0  0  0  0  0  0  0  0
    8.9983   -1.2298    0.0000 C   0  0  0  0  0  0  0  0  0  0  0  0
    8.3070    0.1015    0.0000 C   0  0  0  0  0  0  0  0  0  0  0  0
    7.7475    1.4932    0.0000 C   0  0  0  0  0  0  0  0  0  0  0  0
    7.1901   -0.0000    0.0000 C   0  0  0  0  0  0  0  0  0  0  0  0
    7.0601   -1.3607    0.0000 C   0  0  0  0  0  0  0  0  0  0  0  0
    6.6750   -2.6723    0.0000 C   0  0  0  0  0  0  0  0  0  0  0  0
    6.0487   -3.8873    0.0000 C   0  0  0  0  0  0  0  0  0  0  0  0
    5.2037   -4.9617    0.0000 C   0  0  0  0  0  0  0  0  0  0  0  0
    4.1707   -5.8569    0.0000 C   0  0  0  0  0  0  0  0  0  0  0  0
    2.9869   -6.5403    0.0000 C   0  0  0  0  0  0  0  0  0  0  0  0
    1.6951   -6.9874    0.0000 C   0  0  0  0  0  0  0  0  0  0  0  0
    0.3421   -7.1819    0.0000 C   0  0  0  0  0  0  0  0  0  0  0  0
   -1.0233   -7.1169    0.0000 C   0  0  0  0  0  0  0  0  0  0  0  0
   -2.3516   -6.7946    0.0000 C   0  0  0  0  0  0  0  0  0  0  0  0
   -3.5950   -6.2268    0.0000 C   0  0  0  0  0  0  0  0  0  0  0  0
   -4.7085   -5.4339    0.0000 C   0  0  0  0  0  0  0  0  0  0  0  0
   -5.6518   -4.4446    0.0000 C   0  0  0  0  0  0  0  0  0  0  0  0
   -6.3908   -3.2947    0.0000 C   0  0  0  0  0  0  0  0  0  0  0  0
   -6.8988   -2.0257    0.0000 C   0  0  0  0  0  0  0  0  0  0  0  0
   -7.1575   -0.6835    0.0000 C   0  0  0  0  0  0  0  0  0  0  0  0
   -7.1575    0.6835    0.0000 C   0  0  0  0  0  0  0  0  0  0  0  0
   -6.8988    2.0257    0.0000 C   0  0  0  0  0  0  0  0  0  0  0  0
   -6.3908    3.2947    0.0000 C   0  0  0  0  0  0  0  0  0  0  0  0
   -5.6518    4.4446    0.0000 C   0  0  0  0  0  0  0  0  0  0  0  0
   -4.7085    5.4339    0.0000 C   0  0  0  0  0  0  0  0  0  0  0  0
   -3.5950    6.2268    0.0000 C   0  0  0  0  0  0  0  0  0  0  0  0
   -2.3516    6.7946    0.0000 C   0  0  0  0  0  0  0  0  0  0  0  0
   -1.0233    7.1169    0.0000 C   0  0  0  0  0  0  0  0  0  0  0  0
    0.3421    7.1819    0.0000 C   0  0  0  0  0  0  0  0  0  0  0  0
    1.6951    6.9874    0.0000 C   0  0  0  0  0  0  0  0  0  0  0  0
    2.9869    6.5403    0.0000 C   0  0  0  0  0  0  0  0  0  0  0  0
    4.1707    5.8569    0.0000 C   0  0  0  0  0  0  0  0  0  0  0  0
    5.2037    4.9617    0.0000 C   0  0  0  0  0  0  0  0  0  0  0  0
    6.0487    3.8873    0.0000 C   0  0  0  0  0  0  0  0  0  0  0  0
    7.3249    2.9324    0.0000 C   0  0  0  0  0  0  0  0  0  0  0  0
  1  2  1  0
  2  3  1  0
  3  4  1  0
  4  5  1  0
  5  6  1  0
  6  7  1  0
  7  8  1  0
  8  9  1  0
  9 10  1  0
 10 11  1  0
 11 12  1  0
 12 13  1  0
 13 14  1  0
 14 15  1  0
 15 16  1  0
 16 17  1  0
 17 18  1  0
 18 19  1  0
 19 20  1  0
 20 21  1  0
 21 22  1  0
 22 23  1  0
 23 24  1  0
 24 25  1  0
 25 26  1  0
 26 27  1  0
 27 28  1  0
 28 29  1  0
 29 30  1  0
 30 31  1  0
 31 32  1  0
 32 33  1  0
 33 34  1  0
 34 35  1  0
 35 36  1  0
 36 37  1  0
 37 38  1  0
 38 39  1  0
 39 40  1  0
 40 41  1  0
 41 42  1  0
 42 43  1  0
 43 44  1  0
 44 45  1  0
 45 46  1  0
 46 47  1  0
 47 48  1  0
 48 49  1  0
 49 50  1  0
 50 51  1  0
 51 52  1  0
 52 53  1  0
 53 54  1  0
 54 55  1  0
 55 56  1  0
 56 57  1  0
 57 58  1  0
 58 59  1  0
 59 60  1  0
 60 61  1  0
 61 62  1  0
 62 63  1  0
 63 64  1  0
 64 65  1  0
 65 66  1  0
 66 67  1  0
 67 68  1  0
 68 69  1  0
 69 70  1  0
 70 71  1  0
 71 72  1  0
 72 73  1  0
 73 74  1  0
 74 75  1  0
 75 76  1  0
 76 77  1  0
 77 78  1  0
 78 79  1  0
 79 80  1  0
 80 81  1  0
 81 82  1  0
 82 83  1  0
 83 84  1  0
 84 85  1  0
 85 86  1  0
 86 87  1  0
 87 88  1  0
 88 89  2  0
 89 90  1  0
 90 91  2  0
 91 92  1  0
 92 93  2  0
 93 94  1  0
 94 95  2  0
 95 96  1  0
 96 97  2  0
 97  2  1  0
 97 65  1  0
M  END
>  <Title>  (378) 
idAAMPgen9

$$$$

     RDKit          2D

120121  0  0  0  0  0  0  0  0999 V2000
   -2.3706    0.1140    0.0000 C   0  0  0  0  0  0  0  0  0  0  0  0
   -2.2478   -1.3810    0.0000 C   0  0  0  0  0  0  0  0  0  0  0  0
   -3.7388   -1.5445    0.0000 C   0  0  0  0  0  0  0  0  0  0  0  0
   -5.2187   -1.7893    0.0000 C   0  0  0  0  0  0  0  0  0  0  0  0
   -6.6830   -2.1145    0.0000 C   0  0  0  0  0  0  0  0  0  0  0  0
   -8.1274   -2.5192    0.0000 C   0  0  0  0  0  0  0  0  0  0  0  0
   -9.5475   -3.0022    0.0000 C   0  0  0  0  0  0  0  0  0  0  0  0
  -10.9392   -3.5620    0.0000 C   0  0  0  0  0  0  0  0  0  0  0  0
  -12.2981   -4.1969    0.0000 C   0  0  0  0  0  0  0  0  0  0  0  0
  -13.6204   -4.9052    0.0000 C   0  0  0  0  0  0  0  0  0  0  0  0
  -14.9020   -5.6845    0.0000 C   0  0  0  0  0  0  0  0  0  0  0  0
  -16.1392   -6.5327    0.0000 C   0  0  0  0  0  0  0  0  0  0  0  0
  -17.3282   -7.4472    0.0000 C   0  0  0  0  0  0  0  0  0  0  0  0
  -18.4655   -8.4253    0.0000 C   0  0  0  0  0  0  0  0  0  0  0  0
  -19.5476   -9.4640    0.0000 C   0  0  0  0  0  0  0  0  0  0  0  0
  -20.5715  -10.5603    0.0000 C   0  0  0  0  0  0  0  0  0  0  0  0
  -21.5339  -11.7108    0.0000 C   0  0  0  0  0  0  0  0  0  0  0  0
  -22.4321  -12.9122    0.0000 C   0  0  0  0  0  0  0  0  0  0  0  0
  -23.2633  -14.1608    0.0000 C   0  0  0  0  0  0  0  0  0  0  0  0
  -24.0251  -15.4529    0.0000 C   0  0  0  0  0  0  0  0  0  0  0  0
  -24.7152  -16.7848    0.0000 C   0  0  0  0  0  0  0  0  0  0  0  0
  -25.3315  -18.1523    0.0000 C   0  0  0  0  0  0  0  0  0  0  0  0
  -25.8723  -19.5514    0.0000 C   0  0  0  0  0  0  0  0  0  0  0  0
  -26.3358  -20.9780    0.0000 C   0  0  0  0  0  0  0  0  0  0  0  0
  -26.7207  -22.4278    0.0000 C   0  0  0  0  0  0  0  0  0  0  0  0
  -27.0259  -23.8964    0.0000 C   0  0  0  0  0  0  0  0  0  0  0  0
  -27.2504  -25.3795    0.0000 C   0  0  0  0  0  0  0  0  0  0  0  0
  -27.3936  -26.8727    0.0000 C   0  0  0  0  0  0  0  0  0  0  0  0
  -27.4551  -28.3714    0.0000 C   0  0  0  0  0  0  0  0  0  0  0  0
  -27.4346  -29.8713    0.0000 C   0  0  0  0  0  0  0  0  0  0  0  0
  -27.3322  -31.3678    0.0000 C   0  0  0  0  0  0  0  0  0  0  0  0
  -27.1483  -32.8564    0.0000 C   0  0  0  0  0  0  0  0  0  0  0  0
  -26.8833  -34.3329    0.0000 C   0  0  0  0  0  0  0  0  0  0  0  0
  -26.5382  -35.7926    0.0000 C   0  0  0  0  0  0  0  0  0  0  0  0
  -26.1138  -37.2313    0.0000 C   0  0  0  0  0  0  0  0  0  0  0  0
  -25.6115  -38.6447    0.0000 C   0  0  0  0  0  0  0  0  0  0  0  0
  -25.0327  -40.0286    0.0000 C   0  0  0  0  0  0  0  0  0  0  0  0
  -24.3792  -41.3787    0.0000 C   0  0  0  0  0  0  0  0  0  0  0  0
  -23.6530  -42.6912    0.0000 C   0  0  0  0  0  0  0  0  0  0  0  0
  -22.8562  -43.9621    0.0000 C   0  0  0  0  0  0  0  0  0  0  0  0
  -21.9912  -45.1875    0.0000 C   0  0  0  0  0  0  0  0  0  0  0  0
  -21.0605  -46.3639    0.0000 C   0  0  0  0  0  0  0  0  0  0  0  0
  -20.0670  -47.4877    0.0000 C   0  0  0  0  0  0  0  0  0  0  0  0
  -19.0136  -48.5556    0.0000 C   0  0  0  0  0  0  0  0  0  0  0  0
  -17.9035  -49.5644    0.0000 C   0  0  0  0  0  0  0  0  0  0  0  0
  -16.7399  -50.5110    0.0000 C   0  0  0  0  0  0  0  0  0  0  0  0
  -15.5264  -51.3927    0.0000 C   0  0  0  0  0  0  0  0  0  0  0  0
  -14.2666  -52.2068    0.0000 C   0  0  0  0  0  0  0  0  0  0  0  0
  -12.9641  -52.9509    0.0000 C   0  0  0  0  0  0  0  0  0  0  0  0
  -11.6230  -53.6227    0.0000 C   0  0  0  0  0  0  0  0  0  0  0  0
  -10.2472  -54.2203    0.0000 C   0  0  0  0  0  0  0  0  0  0  0  0
   -8.8408  -54.7419    0.0000 C   0  0  0  0  0  0  0  0  0  0  0  0
   -7.4080  -55.1859    0.0000 C   0  0  0  0  0  0  0  0  0  0  0  0
   -5.9531  -55.5510    0.0000 C   0  0  0  0  0  0  0  0  0  0  0  0
   -4.4804  -55.8361    0.0000 C   0  0  0  0  0  0  0  0  0  0  0  0
   -2.9944  -56.0403    0.0000 C   0  0  0  0  0  0  0  0  0  0  0  0
   -1.4994  -56.1631    0.0000 C   0  0  0  0  0  0  0  0  0  0  0  0
    0.0000  -56.2041    0.0000 C   0  0  0  0  0  0  0  0  0  0  0  0
    1.4994  -56.1631    0.0000 C   0  0  0  0  0  0  0  0  0  0  0  0
    2.9944  -56.0403    0.0000 C   0  0  0  0  0  0  0  0  0  0  0  0
    4.4804  -55.8361    0.0000 C   0  0  0  0  0  0  0  0  0  0  0  0
    5.9531  -55.5510    0.0000 C   0  0  0  0  0  0  0  0  0  0  0  0
    7.4080  -55.1859    0.0000 C   0  0  0  0  0  0  0  0  0  0  0  0
    8.8408  -54.7419    0.0000 C   0  0  0  0  0  0  0  0  0  0  0  0
   10.2472  -54.2203    0.0000 C   0  0  0  0  0  0  0  0  0  0  0  0
   11.6230  -53.6227    0.0000 C   0  0  0  0  0  0  0  0  0  0  0  0
   12.9641  -52.9509    0.0000 C   0  0  0  0  0  0  0  0  0  0  0  0
   14.2666  -52.2068    0.0000 C   0  0  0  0  0  0  0  0  0  0  0  0
   15.5264  -51.3927    0.0000 C   0  0  0  0  0  0  0  0  0  0  0  0
   16.7399  -50.5110    0.0000 C   0  0  0  0  0  0  0  0  0  0  0  0
   17.9035  -49.5644    0.0000 C   0  0  0  0  0  0  0  0  0  0  0  0
   19.0136  -48.5556    0.0000 C   0  0  0  0  0  0  0  0  0  0  0  0
   20.0670  -47.4877    0.0000 C   0  0  0  0  0  0  0  0  0  0  0  0
   21.0605  -46.3639    0.0000 C   0  0  0  0  0  0  0  0  0  0  0  0
   21.9912  -45.1875    0.0000 C   0  0  0  0  0  0  0  0  0  0  0  0
   22.8562  -43.9621    0.0000 C   0  0  0  0  0  0  0  0  0  0  0  0
   23.6530  -42.6912    0.0000 C   0  0  0  0  0  0  0  0  0  0  0  0
   24.3792  -41.3787    0.0000 C   0  0  0  0  0  0  0  0  0  0  0  0
   25.0327  -40.0286    0.0000 C   0  0  0  0  0  0  0  0  0  0  0  0
   25.6115  -38.6447    0.0000 C   0  0  0  0  0  0  0  0  0  0  0  0
   26.1138  -37.2313    0.0000 C   0  0  0  0  0  0  0  0  0  0  0  0
   26.5382  -35.7926    0.0000 C   0  0  0  0  0  0  0  0  0  0  0  0
   26.8833  -34.3329    0.0000 C   0  0  0  0  0  0  0  0  0  0  0  0
   27.1483  -32.8564    0.0000 C   0  0  0  0  0  0  0  0  0  0  0  0
   27.3322  -31.3678    0.0000 C   0  0  0  0  0  0  0  0  0  0  0  0
   27.4346  -29.8713    0.0000 C   0  0  0  0  0  0  0  0  0  0  0  0
   27.4551  -28.3714    0.0000 C   0  0  0  0  0  0  0  0  0  0  0  0
   27.3936  -26.8727    0.0000 C   0  0  0  0  0  0  0  0  0  0  0  0
   27.2504  -25.3795    0.0000 C   0  0  0  0  0  0  0  0  0  0  0  0
   27.0259  -23.8964    0.0000 C   0  0  0  0  0  0  0  0  0  0  0  0
   26.7207  -22.4278    0.0000 C   0  0  0  0  0  0  0  0  0  0  0  0
   26.3358  -20.9780    0.0000 C   0  0  0  0  0  0  0  0  0  0  0  0
   25.8723  -19.5514    0.0000 C   0  0  0  0  0  0  0  0  0  0  0  0
   25.3315  -18.1523    0.0000 C   0  0  0  0  0  0  0  0  0  0  0  0
   24.7152  -16.7848    0.0000 C   0  0  0  0  0  0  0  0  0  0  0  0
   24.0251  -15.4529    0.0000 C   0  0  0  0  0  0  0  0  0  0  0  0
   23.2633  -14.1608    0.0000 C   0  0  0  0  0  0  0  0  0  0  0  0
   22.4321  -12.9122    0.0000 C   0  0  0  0  0  0  0  0  0  0  0  0
   21.5339  -11.7108    0.0000 C   0  0  0  0  0  0  0  0  0  0  0  0
   20.5715  -10.5603    0.0000 C   0  0  0  0  0  0  0  0  0  0  0  0
   19.5476   -9.4640    0.0000 C   0  0  0  0  0  0  0  0  0  0  0  0
   18.4655   -8.4253    0.0000 C   0  0  0  0  0  0  0  0  0  0  0  0
   17.3282   -7.4472    0.0000 C   0  0  0  0  0  0  0  0  0  0  0  0
   16.1392   -6.5327    0.0000 C   0  0  0  0  0  0  0  0  0  0  0  0
   14.9020   -5.6845    0.0000 C   0  0  0  0  0  0  0  0  0  0  0  0
   13.6204   -4.9052    0.0000 C   0  0  0  0  0  0  0  0  0  0  0  0
   12.2981   -4.1969    0.0000 C   0  0  0  0  0  0  0  0  0  0  0  0
   10.9392   -3.5620    0.0000 C   0  0  0  0  0  0  0  0  0  0  0  0
    9.5475   -3.0022    0.0000 C   0  0  0  0  0  0  0  0  0  0  0  0
    8.1274   -2.5192    0.0000 C   0  0  0  0  0  0  0  0  0  0  0  0
    6.6830   -2.1145    0.0000 C   0  0  0  0  0  0  0  0  0  0  0  0
    5.2187   -1.7893    0.0000 C   0  0  0  0  0  0  0  0  0  0  0  0
    3.7388   -1.5445    0.0000 C   0  0  0  0  0  0  0  0  0  0  0  0
    2.2478   -1.3810    0.0000 C   0  0  0  0  0  0  0  0  0  0  0  0
    0.7500   -1.2990    0.0000 C   0  0  0  0  0  0  0  0  0  0  0  0
    1.5000    0.0000    0.0000 C   0  0  0  0  0  0  0  0  0  0  0  0
    0.7500    1.2990    0.0000 C   0  0  0  0  0  0  0  0  0  0  0  0
   -0.7500    1.2990    0.0000 C   0  0  0  0  0  0  0  0  0  0  0  0
   -1.5000    0.0000    0.0000 C   0  0  0  0  0  0  0  0  0  0  0  0
   -0.7500   -1.2990    0.0000 C   0  0  0  0  0  0  0  0  0  0  0  0
  1  2  1  0
  2  3  1  0
  3  4  1  0
  4  5  1  0
  5  6  1  0
  6  7  1  0
  7  8  1  0
  8  9  1  0
  9 10  1  0
 10 11  1  0
 11 12  1  0
 12 13  1  0
 13 14  1  0
 14 15  1  0
 15 16  1  0
 16 17  1  0
 17 18  1  0
 18 19  1  0
 19 20  1  0
 20 21  1  0
 21 22  1  0
 22 23  1  0
 23 24  1  0
 24 25  1  0
 25 26  1  0
 26 27  1  0
 27 28  1  0
 28 29  1  0
 29 30  1  0
 30 31  1  0
 31 32  1  0
 32 33  1  0
 33 34  1  0
 34 35  1  0
 35 36  1  0
 36 37  1  0
 37 38  1  0
 38 39  1  0
 39 40  1  0
 40 41  1  0
 41 42  1  0
 42 43  1  0
 43 44  1  0
 44 45  1  0
 45 46  1  0
 46 47  1  0
 47 48  1  0
 48 49  1  0
 49 50  1  0
 50 51  1  0
 51 52  1  0
 52 53  1  0
 53 54  1  0
 54 55  1  0
 55 56  1  0
 56 57  1  0
 57 58  1  0
 58 59  1  0
 59 60  1  0
 60 61  1  0
 61 62  1  0
 62 63  1  0
 63 64  1  0
 64 65  1  0
 65 66  1  0
 66 67  1  0
 67 68  1  0
 68 69  1  0
 69 70  1  0
 70 71  1  0
 71 72  1  0
 72 73  1  0
 73 74  1  0
 74 75  1  0
 75 76  1  0
 76 77  1  0
 77 78  1  0
 78 79  1  0
 79 80  1  0
 80 81  1  0
 81 82  1  0
 82 83  1  0
 83 84  1  0
 84 85  1  0
 85 86  1  0
 86 87  1  0
 87 88  1  0
 88 89  1  0
 89 90  1  0
 90 91  1  0
 91 92  1  0
 92 93  1  0
 93 94  1  0
 94 95  1  0
 95 96  1  0
 96 97  1  0
 97 98  1  0
 98 99  1  0
 99100  1  0
100101  1  0
101102  1  0
102103  1  0
103104  1  0
104105  1  0
105106  1  0
106107  1  0
107108  1  0
108109  1  0
109110  1  0
110111  1  0
111112  1  0
112113  1  0
113114  1  0
114115  1  0
115116  1  0
116117  1  0
117118  2  0
118119  1  0
119120  2  0
120  2  1  0
120115  1  0
M  END
>  <Title>  (379) 
idAAMQgen9

$$$$

     RDKit          2D

 89 90  0  0  0  0  0  0  0  0999 V2000
   -2.1864   -1.0760    0.0000 C   0  0  0  0  0  0  0  0  0  0  0  0
   -2.4892    0.3931    0.0000 C   0  0  0  0  0  0  0  0  0  0  0  0
   -3.9685    0.1448    0.0000 C   0  0  0  0  0  0  0  0  0  0  0  0
   -5.4621    0.0064    0.0000 C   0  0  0  0  0  0  0  0  0  0  0  0
   -6.9619   -0.0214    0.0000 C   0  0  0  0  0  0  0  0  0  0  0  0
   -8.4595    0.0618    0.0000 C   0  0  0  0  0  0  0  0  0  0  0  0
   -9.9470    0.2553    0.0000 C   0  0  0  0  0  0  0  0  0  0  0  0
  -11.4161    0.5581    0.0000 C   0  0  0  0  0  0  0  0  0  0  0  0
  -12.8589    0.9686    0.0000 C   0  0  0  0  0  0  0  0  0  0  0  0
  -14.2674    1.4845    0.0000 C   0  0  0  0  0  0  0  0  0  0  0  0
  -15.6339    2.1030    0.0000 C   0  0  0  0  0  0  0  0  0  0  0  0
  -16.9510    2.8208    0.0000 C   0  0  0  0  0  0  0  0  0  0  0  0
  -18.2115    3.6339    0.0000 C   0  0  0  0  0  0  0  0  0  0  0  0
  -19.4086    4.5378    0.0000 C   0  0  0  0  0  0  0  0  0  0  0  0
  -20.5355    5.5277    0.0000 C   0  0  0  0  0  0  0  0  0  0  0  0
  -21.5864    6.5981    0.0000 C   0  0  0  0  0  0  0  0  0  0  0  0
  -22.5553    7.7432    0.0000 C   0  0  0  0  0  0  0  0  0  0  0  0
  -23.4369    8.9568    0.0000 C   0  0  0  0  0  0  0  0  0  0  0  0
  -24.2266   10.2321    0.0000 C   0  0  0  0  0  0  0  0  0  0  0  0
  -24.9199   11.5622    0.0000 C   0  0  0  0  0  0  0  0  0  0  0  0
  -25.5131   12.9400    0.0000 C   0  0  0  0  0  0  0  0  0  0  0  0
  -26.0029   14.3578    0.0000 C   0  0  0  0  0  0  0  0  0  0  0  0
  -26.3866   15.8078    0.0000 C   0  0  0  0  0  0  0  0  0  0  0  0
  -26.6623   17.2823    0.0000 C   0  0  0  0  0  0  0  0  0  0  0  0
  -26.8282   18.7731    0.0000 C   0  0  0  0  0  0  0  0  0  0  0  0
  -26.8837   20.2721    0.0000 C   0  0  0  0  0  0  0  0  0  0  0  0
  -26.8282   21.7710    0.0000 C   0  0  0  0  0  0  0  0  0  0  0  0
  -26.6623   23.2618    0.0000 C   0  0  0  0  0  0  0  0  0  0  0  0
  -26.3866   24.7363    0.0000 C   0  0  0  0  0  0  0  0  0  0  0  0
  -26.0029   26.1864    0.0000 C   0  0  0  0  0  0  0  0  0  0  0  0
  -25.5131   27.6041    0.0000 C   0  0  0  0  0  0  0  0  0  0  0  0
  -24.9199   28.9819    0.0000 C   0  0  0  0  0  0  0  0  0  0  0  0
  -24.2266   30.3120    0.0000 C   0  0  0  0  0  0  0  0  0  0  0  0
  -23.4369   31.5873    0.0000 C   0  0  0  0  0  0  0  0  0  0  0  0
  -22.5553   32.8009    0.0000 C   0  0  0  0  0  0  0  0  0  0  0  0
  -21.5864   33.9460    0.0000 C   0  0  0  0  0  0  0  0  0  0  0  0
  -20.5355   35.0164    0.0000 C   0  0  0  0  0  0  0  0  0  0  0  0
  -19.4086   36.0063    0.0000 C   0  0  0  0  0  0  0  0  0  0  0  0
  -18.2115   36.9102    0.0000 C   0  0  0  0  0  0  0  0  0  0  0  0
  -16.9510   37.7233    0.0000 C   0  0  0  0  0  0  0  0  0  0  0  0
  -15.6339   38.4411    0.0000 C   0  0  0  0  0  0  0  0  0  0  0  0
  -14.2674   39.0596    0.0000 C   0  0  0  0  0  0  0  0  0  0  0  0
  -12.8589   39.5755    0.0000 C   0  0  0  0  0  0  0  0  0  0  0  0
  -11.4161   39.9860    0.0000 C   0  0  0  0  0  0  0  0  0  0  0  0
   -9.9470   40.2889    0.0000 C   0  0  0  0  0  0  0  0  0  0  0  0
   -8.4595   40.4823    0.0000 C   0  0  0  0  0  0  0  0  0  0  0  0
   -6.9619   40.5655    0.0000 C   0  0  0  0  0  0  0  0  0  0  0  0
   -5.4621   40.5377    0.0000 C   0  0  0  0  0  0  0  0  0  0  0  0
   -3.9685   40.3993    0.0000 C   0  0  0  0  0  0  0  0  0  0  0  0
   -2.4892   40.1510    0.0000 C   0  0  0  0  0  0  0  0  0  0  0  0
   -1.0323   39.7941    0.0000 C   0  0  0  0  0  0  0  0  0  0  0  0
    0.3943   39.3306    0.0000 C   0  0  0  0  0  0  0  0  0  0  0  0
    1.7828   38.7630    0.0000 C   0  0  0  0  0  0  0  0  0  0  0  0
    3.1255   38.0944    0.0000 C   0  0  0  0  0  0  0  0  0  0  0  0
    4.4152   37.3284    0.0000 C   0  0  0  0  0  0  0  0  0  0  0  0
    5.6448   36.4693    0.0000 C   0  0  0  0  0  0  0  0  0  0  0  0
    6.8076   35.5217    0.0000 C   0  0  0  0  0  0  0  0  0  0  0  0
    7.8973   34.4909    0.0000 C   0  0  0  0  0  0  0  0  0  0  0  0
    8.9078   33.3824    0.0000 C   0  0  0  0  0  0  0  0  0  0  0  0
    9.8337   32.2023    0.0000 C   0  0  0  0  0  0  0  0  0  0  0  0
   10.6700   30.9570    0.0000 C   0  0  0  0  0  0  0  0  0  0  0  0
   11.4119   29.6534    0.0000 C   0  0  0  0  0  0  0  0  0  0  0  0
   12.0556   28.2985    0.0000 C   0  0  0  0  0  0  0  0  0  0  0  0
   12.5975   26.8998    0.0000 C   0  0  0  0  0  0  0  0  0  0  0  0
   13.0346   25.4649    0.0000 C   0  0  0  0  0  0  0  0  0  0  0  0
   13.3645   24.0016    0.0000 C   0  0  0  0  0  0  0  0  0  0  0  0
   13.5854   22.5180    0.0000 C   0  0  0  0  0  0  0  0  0  0  0  0
   13.6962   21.0221    0.0000 C   0  0  0  0  0  0  0  0  0  0  0  0
   13.6962   19.5221    0.0000 C   0  0  0  0  0  0  0  0  0  0  0  0
   13.5854   18.0262    0.0000 C   0  0  0  0  0  0  0  0  0  0  0  0
   13.3645   16.5425    0.0000 C   0  0  0  0  0  0  0  0  0  0  0  0
   13.0346   15.0792    0.0000 C   0  0  0  0  0  0  0  0  0  0  0  0
   12.5975   13.6443    0.0000 C   0  0  0  0  0  0  0  0  0  0  0  0
   12.0556   12.2456    0.0000 C   0  0  0  0  0  0  0  0  0  0  0  0
   11.4119   10.8908    0.0000 C   0  0  0  0  0  0  0  0  0  0  0  0
   10.6700    9.5871    0.0000 C   0  0  0  0  0  0  0  0  0  0  0  0
    9.8337    8.3419    0.0000 C   0  0  0  0  0  0  0  0  0  0  0  0
    8.9078    7.1617    0.0000 C   0  0  0  0  0  0  0  0  0  0  0  0
    7.8973    6.0532    0.0000 C   0  0  0  0  0  0  0  0  0  0  0  0
    6.8076    5.0224    0.0000 C   0  0  0  0  0  0  0  0  0  0  0  0
    5.6448    4.0748    0.0000 C   0  0  0  0  0  0  0  0  0  0  0  0
    4.4152    3.2157    0.0000 C   0  0  0  0  0  0  0  0  0  0  0  0
    3.1255    2.4497    0.0000 C   0  0  0  0  0  0  0  0  0  0  0  0
    1.7828    1.7811    0.0000 C   0  0  0  0  0  0  0  0  0  0  0  0
    0.3943    1.2135    0.0000 C   0  0  0  0  0  0  0  0  0  0  0  0
    1.2760    0.0000    0.0000 C   0  0  0  0  0  0  0  0  0  0  0  0
    0.3943   -1.2135    0.0000 C   0  0  0  0  0  0  0  0  0  0  0  0
   -1.0323   -0.7500    0.0000 C   0  0  0  0  0  0  0  0  0  0  0  0
   -1.0323    0.7500    0.0000 C   0  0  0  0  0  0  0  0  0  0  0  0
  1  2  1  0
  2  3  1  0
  3  4  1  0
  4  5  1  0
  5  6  1  0
  6  7  1  0
  7  8  1  0
  8  9  1  0
  9 10  1  0
 10 11  1  0
 11 12  1  0
 12 13  1  0
 13 14  1  0
 14 15  1  0
 15 16  1  0
 16 17  1  0
 17 18  1  0
 18 19  1  0
 19 20  1  0
 20 21  1  0
 21 22  1  0
 22 23  1  0
 23 24  1  0
 24 25  1  0
 25 26  1  0
 26 27  1  0
 27 28  1  0
 28 29  1  0
 29 30  1  0
 30 31  1  0
 31 32  1  0
 32 33  1  0
 33 34  1  0
 34 35  1  0
 35 36  1  0
 36 37  1  0
 37 38  1  0
 38 39  1  0
 39 40  1  0
 40 41  1  0
 41 42  1  0
 42 43  1  0
 43 44  1  0
 44 45  1  0
 45 46  1  0
 46 47  1  0
 47 48  1  0
 48 49  1  0
 49 50  1  0
 50 51  1  0
 51 52  1  0
 52 53  1  0
 53 54  1  0
 54 55  1  0
 55 56  1  0
 56 57  2  0
 57 58  1  0
 58 59  2  0
 59 60  1  0
 60 61  2  0
 61 62  1  0
 62 63  2  0
 63 64  1  0
 64 65  2  0
 65 66  1  0
 66 67  2  0
 67 68  1  0
 68 69  2  0
 69 70  1  0
 70 71  2  0
 71 72  1  0
 72 73  2  0
 73 74  1  0
 74 75  2  0
 75 76  1  0
 76 77  2  0
 77 78  1  0
 78 79  2  0
 79 80  1  0
 80 81  2  0
 81 82  1  0
 82 83  2  0
 83 84  1  0
 84 85  2  0
 85 86  1  0
 86 87  2  0
 87 88  1  0
 88 89  2  0
 89  2  1  0
 89 85  1  0
M  END
>  <Title>  (380) 
idAAMRgen9

$$$$

     RDKit          2D

 21 23  0  0  0  0  0  0  0  0999 V2000
    2.7760    0.0000    0.0000 C   0  0  0  0  0  0  0  0  0  0  0  0
    1.2760    0.0000    0.0000 C   0  0  0  0  0  0  0  0  0  0  0  0
    0.3943    1.2135    0.0000 C   0  0  0  0  0  0  0  0  0  0  0  0
   -1.0323    0.7500    0.0000 C   0  0  0  0  0  0  0  0  0  0  0  0
   -2.2458    1.6317    0.0000 C   0  0  0  0  0  0  0  0  0  0  0  0
   -1.0323   -0.7500    0.0000 N   0  0  0  0  0  0  0  0  0  0  0  0
    0.3943   -1.2135    0.0000 C   0  0  0  0  0  0  0  0  0  0  0  0
    0.8578   -2.6401    0.0000 C   0  0  0  0  0  0  0  0  0  0  0  0
   -0.1459   -3.7548    0.0000 C   0  0  0  0  0  0  0  0  0  0  0  0
    0.3177   -5.1814    0.0000 C   0  0  0  0  0  0  0  0  0  0  0  0
   -0.6860   -6.2961    0.0000 C   0  0  0  0  0  0  0  0  0  0  0  0
   -0.2225   -7.7227    0.0000 C   0  0  0  0  0  0  0  0  0  0  0  0
    1.2041   -8.1862    0.0000 C   0  0  0  0  0  0  0  0  0  0  0  0
    1.2041   -9.6862    0.0000 C   0  0  0  0  0  0  0  0  0  0  0  0
   -0.2225  -10.1498    0.0000 C   0  0  0  0  0  0  0  0  0  0  0  0
   -1.1042   -8.9362    0.0000 C   0  0  0  0  0  0  0  0  0  0  0  0
   -2.6042   -8.9362    0.0000 C   0  0  0  0  0  0  0  0  0  0  0  0
   -3.4859  -10.1498    0.0000 C   0  0  0  0  0  0  0  0  0  0  0  0
   -4.9125   -9.6862    0.0000 C   0  0  0  0  0  0  0  0  0  0  0  0
   -4.9125   -8.1862    0.0000 C   0  0  0  0  0  0  0  0  0  0  0  0
   -3.4859   -7.7227    0.0000 C   0  0  0  0  0  0  0  0  0  0  0  0
  1  2  1  0
  2  3  2  0
  3  4  1  0
  4  5  1  0
  4  6  1  0
  6  7  1  0
  7  8  2  3
  8  9  1  0
  9 10  2  3
 10 11  1  0
 11 12  2  3
 12 13  1  0
 13 14  2  0
 14 15  1  0
 15 16  2  0
 16 17  1  0
 17 18  2  0
 18 19  1  0
 19 20  2  0
 20 21  1  0
  7  2  1  0
 16 12  1  0
 21 17  1  0
M  END
>  <Title>  (381) 
idAAMSgen9

$$$$

     RDKit          2D

 17 17  0  0  0  0  0  0  0  0999 V2000
   16.5000    0.0000    0.0000 C   0  0  0  0  0  0  0  0  0  0  0  0
   15.0000    0.0000    0.0000 C   0  0  0  0  0  0  0  0  0  0  0  0
   13.5000    0.0000    0.0000 C   0  0  0  0  0  0  0  0  0  0  0  0
   12.0000    0.0000    0.0000 C   0  0  0  0  0  0  0  0  0  0  0  0
   10.5000    0.0000    0.0000 C   0  0  0  0  0  0  0  0  0  0  0  0
    9.0000    0.0000    0.0000 C   0  0  0  0  0  0  0  0  0  0  0  0
    7.5000    0.0000    0.0000 C   0  0  0  0  0  0  0  0  0  0  0  0
    6.0000    0.0000    0.0000 C   0  0  0  0  0  0  0  0  0  0  0  0
    4.5000    0.0000    0.0000 C   0  0  0  0  0  0  0  0  0  0  0  0
    3.0000    0.0000    0.0000 C   0  0  0  0  0  0  0  0  0  0  0  0
    1.5000    0.0000    0.0000 C   0  0  0  0  0  0  0  0  0  0  0  0
    0.7500   -1.2990    0.0000 C   0  0  0  0  0  0  0  0  0  0  0  0
   -0.7500   -1.2990    0.0000 C   0  0  0  0  0  0  0  0  0  0  0  0
   -1.5000    0.0000    0.0000 C   0  0  0  0  0  0  0  0  0  0  0  0
   -3.0000    0.0000    0.0000 C   0  0  0  0  0  0  0  0  0  0  0  0
   -0.7500    1.2990    0.0000 C   0  0  0  0  0  0  0  0  0  0  0  0
    0.7500    1.2990    0.0000 C   0  0  0  0  0  0  0  0  0  0  0  0
  1  2  3  0
  2  3  1  0
  3  4  3  0
  4  5  1  0
  5  6  3  0
  6  7  1  0
  7  8  3  0
  8  9  1  0
  9 10  3  0
 10 11  1  0
 11 12  2  0
 12 13  1  0
 13 14  1  0
 14 15  1  0
 14 16  1  0
 16 17  2  0
 17 11  1  0
M  END
>  <Title>  (382) 
idAAMTgen9

$$$$

     RDKit          2D

 12 13  0  0  0  0  0  0  0  0999 V2000
   -1.4863   -5.5470    0.0000 N   0  0  0  0  0  0  0  0  0  0  0  0
   -0.1873   -4.7970    0.0000 C   0  0  0  0  0  0  0  0  0  0  0  0
    1.1118   -4.0470    0.0000 C   0  0  0  0  0  0  0  0  0  0  0  0
    1.5000   -2.5981    0.0000 C   0  0  0  0  0  0  0  0  0  0  0  0
    0.7500   -1.2990    0.0000 C   0  0  0  0  0  0  0  0  0  0  0  0
    1.5000    0.0000    0.0000 C   0  0  0  0  0  0  0  0  0  0  0  0
    0.7500    1.2990    0.0000 C   0  0  0  0  0  0  0  0  0  0  0  0
   -0.7500    1.2990    0.0000 C   0  0  0  0  0  0  0  0  0  0  0  0
   -1.5000    0.0000    0.0000 N   0  0  0  0  0  0  0  0  0  0  0  0
   -0.7500   -1.2990    0.0000 C   0  0  0  0  0  0  0  0  0  0  0  0
    2.9489   -2.9863    0.0000 C   0  0  0  0  0  0  0  0  0  0  0  0
    2.5607   -4.4352    0.0000 C   0  0  0  0  0  0  0  0  0  0  0  0
  1  2  3  0
  2  3  1  0
  3  4  2  0
  4  5  1  0
  5  6  2  0
  6  7  1  0
  7  8  2  0
  8  9  1  0
  9 10  2  0
  4 11  1  0
 11 12  2  0
 12  3  1  0
 10  5  1  0
M  END
>  <Title>  (383) 
idAAMUgen9

$$$$

     RDKit          2D

 99100  0  0  0  0  0  0  0  0999 V2000
   -2.1664   -1.0837    0.0000 C   0  0  0  0  0  0  0  0  0  0  0  0
   -2.4864    0.3818    0.0000 C   0  0  0  0  0  0  0  0  0  0  0  0
   -3.9616    0.1105    0.0000 C   0  0  0  0  0  0  0  0  0  0  0  0
   -5.4516   -0.0628    0.0000 C   0  0  0  0  0  0  0  0  0  0  0  0
   -6.9498   -0.1372    0.0000 C   0  0  0  0  0  0  0  0  0  0  0  0
   -8.4496   -0.1124    0.0000 C   0  0  0  0  0  0  0  0  0  0  0  0
   -9.9444    0.0115    0.0000 C   0  0  0  0  0  0  0  0  0  0  0  0
  -11.4279    0.2339    0.0000 C   0  0  0  0  0  0  0  0  0  0  0  0
  -12.8933    0.5539    0.0000 C   0  0  0  0  0  0  0  0  0  0  0  0
  -14.3345    0.9700    0.0000 C   0  0  0  0  0  0  0  0  0  0  0  0
  -15.7449    1.4804    0.0000 C   0  0  0  0  0  0  0  0  0  0  0  0
  -17.1186    2.0830    0.0000 C   0  0  0  0  0  0  0  0  0  0  0  0
  -18.4494    2.7750    0.0000 C   0  0  0  0  0  0  0  0  0  0  0  0
  -19.7316    3.5534    0.0000 C   0  0  0  0  0  0  0  0  0  0  0  0
  -20.9596    4.4149    0.0000 C   0  0  0  0  0  0  0  0  0  0  0  0
  -22.1279    5.3557    0.0000 C   0  0  0  0  0  0  0  0  0  0  0  0
  -23.2315    6.3716    0.0000 C   0  0  0  0  0  0  0  0  0  0  0  0
  -24.2655    7.4582    0.0000 C   0  0  0  0  0  0  0  0  0  0  0  0
  -25.2255    8.6108    0.0000 C   0  0  0  0  0  0  0  0  0  0  0  0
  -26.1071    9.8244    0.0000 C   0  0  0  0  0  0  0  0  0  0  0  0
  -26.9067   11.0935    0.0000 C   0  0  0  0  0  0  0  0  0  0  0  0
  -27.6206   12.4127    0.0000 C   0  0  0  0  0  0  0  0  0  0  0  0
  -28.2458   13.7762    0.0000 C   0  0  0  0  0  0  0  0  0  0  0  0
  -28.7795   15.1781    0.0000 C   0  0  0  0  0  0  0  0  0  0  0  0
  -29.2193   16.6121    0.0000 C   0  0  0  0  0  0  0  0  0  0  0  0
  -29.5635   18.0721    0.0000 C   0  0  0  0  0  0  0  0  0  0  0  0
  -29.8104   19.5517    0.0000 C   0  0  0  0  0  0  0  0  0  0  0  0
  -29.9589   21.0443    0.0000 C   0  0  0  0  0  0  0  0  0  0  0  0
  -30.0085   22.5435    0.0000 C   0  0  0  0  0  0  0  0  0  0  0  0
  -29.9589   24.0426    0.0000 C   0  0  0  0  0  0  0  0  0  0  0  0
  -29.8104   25.5353    0.0000 C   0  0  0  0  0  0  0  0  0  0  0  0
  -29.5635   27.0148    0.0000 C   0  0  0  0  0  0  0  0  0  0  0  0
  -29.2193   28.4748    0.0000 C   0  0  0  0  0  0  0  0  0  0  0  0
  -28.7795   29.9089    0.0000 C   0  0  0  0  0  0  0  0  0  0  0  0
  -28.2458   31.3107    0.0000 C   0  0  0  0  0  0  0  0  0  0  0  0
  -27.6206   32.6742    0.0000 C   0  0  0  0  0  0  0  0  0  0  0  0
  -26.9067   33.9934    0.0000 C   0  0  0  0  0  0  0  0  0  0  0  0
  -26.1071   35.2626    0.0000 C   0  0  0  0  0  0  0  0  0  0  0  0
  -25.2255   36.4761    0.0000 C   0  0  0  0  0  0  0  0  0  0  0  0
  -24.2655   37.6287    0.0000 C   0  0  0  0  0  0  0  0  0  0  0  0
  -23.2315   38.7153    0.0000 C   0  0  0  0  0  0  0  0  0  0  0  0
  -22.1279   39.7312    0.0000 C   0  0  0  0  0  0  0  0  0  0  0  0
  -20.9596   40.6720    0.0000 C   0  0  0  0  0  0  0  0  0  0  0  0
  -19.7316   41.5335    0.0000 C   0  0  0  0  0  0  0  0  0  0  0  0
  -18.4494   42.3120    0.0000 C   0  0  0  0  0  0  0  0  0  0  0  0
  -17.1186   43.0040    0.0000 C   0  0  0  0  0  0  0  0  0  0  0  0
  -15.7449   43.6065    0.0000 C   0  0  0  0  0  0  0  0  0  0  0  0
  -14.3345   44.1170    0.0000 C   0  0  0  0  0  0  0  0  0  0  0  0
  -12.8933   44.5331    0.0000 C   0  0  0  0  0  0  0  0  0  0  0  0
  -11.4279   44.8530    0.0000 C   0  0  0  0  0  0  0  0  0  0  0  0
   -9.9444   45.0754    0.0000 C   0  0  0  0  0  0  0  0  0  0  0  0
   -8.4496   45.1993    0.0000 C   0  0  0  0  0  0  0  0  0  0  0  0
   -6.9498   45.2241    0.0000 C   0  0  0  0  0  0  0  0  0  0  0  0
   -5.4516   45.1497    0.0000 C   0  0  0  0  0  0  0  0  0  0  0  0
   -3.9616   44.9765    0.0000 C   0  0  0  0  0  0  0  0  0  0  0  0
   -2.4864   44.7052    0.0000 C   0  0  0  0  0  0  0  0  0  0  0  0
   -1.0323   44.3369    0.0000 C   0  0  0  0  0  0  0  0  0  0  0  0
    0.3943   43.8734    0.0000 C   0  0  0  0  0  0  0  0  0  0  0  0
    1.7871   43.3166    0.0000 C   0  0  0  0  0  0  0  0  0  0  0  0
    3.1401   42.6690    0.0000 C   0  0  0  0  0  0  0  0  0  0  0  0
    4.4473   41.9333    0.0000 C   0  0  0  0  0  0  0  0  0  0  0  0
    5.7031   41.1129    0.0000 C   0  0  0  0  0  0  0  0  0  0  0  0
    6.9019   40.2113    0.0000 C   0  0  0  0  0  0  0  0  0  0  0  0
    8.0384   39.2324    0.0000 C   0  0  0  0  0  0  0  0  0  0  0  0
    9.1078   38.1806    0.0000 C   0  0  0  0  0  0  0  0  0  0  0  0
   10.1054   37.0603    0.0000 C   0  0  0  0  0  0  0  0  0  0  0  0
   11.0267   35.8766    0.0000 C   0  0  0  0  0  0  0  0  0  0  0  0
   11.8678   34.6346    0.0000 C   0  0  0  0  0  0  0  0  0  0  0  0
   12.6249   33.3397    0.0000 C   0  0  0  0  0  0  0  0  0  0  0  0
   13.2948   31.9976    0.0000 C   0  0  0  0  0  0  0  0  0  0  0  0
   13.8746   30.6142    0.0000 C   0  0  0  0  0  0  0  0  0  0  0  0
   14.3616   29.1955    0.0000 C   0  0  0  0  0  0  0  0  0  0  0  0
   14.7538   27.7476    0.0000 C   0  0  0  0  0  0  0  0  0  0  0  0
   15.0495   26.2771    0.0000 C   0  0  0  0  0  0  0  0  0  0  0  0
   15.2474   24.7902    0.0000 C   0  0  0  0  0  0  0  0  0  0  0  0
   15.3465   23.2935    0.0000 C   0  0  0  0  0  0  0  0  0  0  0  0
   15.3465   21.7935    0.0000 C   0  0  0  0  0  0  0  0  0  0  0  0
   15.2474   20.2967    0.0000 C   0  0  0  0  0  0  0  0  0  0  0  0
   15.0495   18.8098    0.0000 C   0  0  0  0  0  0  0  0  0  0  0  0
   14.7538   17.3393    0.0000 C   0  0  0  0  0  0  0  0  0  0  0  0
   14.3616   15.8915    0.0000 C   0  0  0  0  0  0  0  0  0  0  0  0
   13.8746   14.4727    0.0000 C   0  0  0  0  0  0  0  0  0  0  0  0
   13.2948   13.0893    0.0000 C   0  0  0  0  0  0  0  0  0  0  0  0
   12.6249   11.7472    0.0000 C   0  0  0  0  0  0  0  0  0  0  0  0
   11.8678   10.4523    0.0000 C   0  0  0  0  0  0  0  0  0  0  0  0
   11.0267    9.2103    0.0000 C   0  0  0  0  0  0  0  0  0  0  0  0
   10.1054    8.0266    0.0000 C   0  0  0  0  0  0  0  0  0  0  0  0
    9.1078    6.9064    0.0000 C   0  0  0  0  0  0  0  0  0  0  0  0
    8.0384    5.8545    0.0000 C   0  0  0  0  0  0  0  0  0  0  0  0
    6.9019    4.8756    0.0000 C   0  0  0  0  0  0  0  0  0  0  0  0
    5.7031    3.9740    0.0000 C   0  0  0  0  0  0  0  0  0  0  0  0
    4.4473    3.1536    0.0000 C   0  0  0  0  0  0  0  0  0  0  0  0
    3.1401    2.4180    0.0000 C   0  0  0  0  0  0  0  0  0  0  0  0
    1.7871    1.7703    0.0000 C   0  0  0  0  0  0  0  0  0  0  0  0
    0.3943    1.2135    0.0000 C   0  0  0  0  0  0  0  0  0  0  0  0
    1.2760    0.0000    0.0000 C   0  0  0  0  0  0  0  0  0  0  0  0
    0.3943   -1.2135    0.0000 C   0  0  0  0  0  0  0  0  0  0  0  0
   -1.0323   -0.7500    0.0000 C   0  0  0  0  0  0  0  0  0  0  0  0
   -1.0323    0.7500    0.0000 C   0  0  0  0  0  0  0  0  0  0  0  0
  1  2  1  0
  2  3  1  0
  3  4  1  0
  4  5  1  0
  5  6  1  0
  6  7  1  0
  7  8  1  0
  8  9  1  0
  9 10  1  0
 10 11  1  0
 11 12  1  0
 12 13  1  0
 13 14  1  0
 14 15  1  0
 15 16  1  0
 16 17  1  0
 17 18  1  0
 18 19  1  0
 19 20  1  0
 20 21  1  0
 21 22  1  0
 22 23  1  0
 23 24  1  0
 24 25  1  0
 25 26  1  0
 26 27  1  0
 27 28  1  0
 28 29  1  0
 29 30  1  0
 30 31  1  0
 31 32  1  0
 32 33  1  0
 33 34  1  0
 34 35  1  0
 35 36  1  0
 36 37  1  0
 37 38  1  0
 38 39  1  0
 39 40  1  0
 40 41  1  0
 41 42  1  0
 42 43  1  0
 43 44  1  0
 44 45  1  0
 45 46  1  0
 46 47  1  0
 47 48  1  0
 48 49  1  0
 49 50  1  0
 50 51  1  0
 51 52  1  0
 52 53  1  0
 53 54  1  0
 54 55  1  0
 55 56  1  0
 56 57  1  0
 57 58  1  0
 58 59  1  0
 59 60  1  0
 60 61  1  0
 61 62  1  0
 62 63  1  0
 63 64  1  0
 64 65  1  0
 65 66  1  0
 66 67  1  0
 67 68  1  0
 68 69  1  0
 69 70  1  0
 70 71  1  0
 71 72  1  0
 72 73  1  0
 73 74  1  0
 74 75  1  0
 75 76  1  0
 76 77  1  0
 77 78  1  0
 78 79  1  0
 79 80  1  0
 80 81  1  0
 81 82  1  0
 82 83  1  0
 83 84  1  0
 84 85  1  0
 85 86  1  0
 86 87  1  0
 87 88  1  0
 88 89  1  0
 89 90  1  0
 90 91  1  0
 91 92  1  0
 92 93  1  0
 93 94  1  0
 94 95  1  0
 95 96  1  0
 96 97  1  0
 97 98  1  0
 98 99  2  0
 99  2  1  0
 99 95  1  0
M  END
>  <Title>  (384) 
idAAMVgen9

$$$$

     RDKit          2D

  6  6  0  0  0  0  0  0  0  0999 V2000
    2.7760    0.0000    0.0000 O   0  0  0  0  0  0  0  0  0  0  0  0
    1.2760    0.0000    0.0000 C   0  0  0  0  0  0  0  0  0  0  0  0
    0.3943    1.2135    0.0000 C   0  0  0  0  0  0  0  0  0  0  0  0
   -1.0323    0.7500    0.0000 C   0  0  0  0  0  0  0  0  0  0  0  0
   -1.0323   -0.7500    0.0000 C   0  0  0  0  0  0  0  0  0  0  0  0
    0.3943   -1.2135    0.0000 C   0  0  0  0  0  0  0  0  0  0  0  0
  1  2  2  0
  2  3  1  0
  3  4  2  0
  4  5  1  0
  5  6  1  0
  6  2  1  0
M  END
>  <Title>  (385) 
idAAMWgen9

$$$$

     RDKit          2D

 82 86  0  0  0  0  0  0  0  0999 V2000
  -11.2888   -4.0622    0.0000 C   0  0  0  0  0  0  0  0  0  0  0  0
  -10.2941   -5.1849    0.0000 C   0  0  0  0  0  0  0  0  0  0  0  0
  -11.3675   -6.2327    0.0000 C   0  0  0  0  0  0  0  0  0  0  0  0
  -12.3347   -7.3792    0.0000 C   0  0  0  0  0  0  0  0  0  0  0  0
  -13.1868   -8.6137    0.0000 C   0  0  0  0  0  0  0  0  0  0  0  0
  -13.9158   -9.9246    0.0000 C   0  0  0  0  0  0  0  0  0  0  0  0
  -14.5149  -11.2998    0.0000 C   0  0  0  0  0  0  0  0  0  0  0  0
  -14.9784  -12.7264    0.0000 C   0  0  0  0  0  0  0  0  0  0  0  0
  -15.3021  -14.1910    0.0000 C   0  0  0  0  0  0  0  0  0  0  0  0
  -15.4829  -15.6801    0.0000 C   0  0  0  0  0  0  0  0  0  0  0  0
  -15.5191  -17.1797    0.0000 C   0  0  0  0  0  0  0  0  0  0  0  0
  -15.4105  -18.6757    0.0000 C   0  0  0  0  0  0  0  0  0  0  0  0
  -15.1579  -20.1543    0.0000 C   0  0  0  0  0  0  0  0  0  0  0  0
  -14.7639  -21.6016    0.0000 C   0  0  0  0  0  0  0  0  0  0  0  0
  -14.2320  -23.0042    0.0000 C   0  0  0  0  0  0  0  0  0  0  0  0
  -13.5672  -24.3488    0.0000 C   0  0  0  0  0  0  0  0  0  0  0  0
  -12.7757  -25.6230    0.0000 C   0  0  0  0  0  0  0  0  0  0  0  0
  -11.8650  -26.8149    0.0000 C   0  0  0  0  0  0  0  0  0  0  0  0
  -10.8434  -27.9133    0.0000 C   0  0  0  0  0  0  0  0  0  0  0  0
   -9.7207  -28.9080    0.0000 C   0  0  0  0  0  0  0  0  0  0  0  0
   -8.5072  -29.7896    0.0000 C   0  0  0  0  0  0  0  0  0  0  0  0
   -7.2142  -30.5501    0.0000 C   0  0  0  0  0  0  0  0  0  0  0  0
   -5.8539  -31.1822    0.0000 C   0  0  0  0  0  0  0  0  0  0  0  0
   -4.4389  -31.6800    0.0000 C   0  0  0  0  0  0  0  0  0  0  0  0
   -2.9825  -32.0390    0.0000 C   0  0  0  0  0  0  0  0  0  0  0  0
   -1.4982  -32.2557    0.0000 C   0  0  0  0  0  0  0  0  0  0  0  0
   -0.0000  -32.3282    0.0000 C   0  0  0  0  0  0  0  0  0  0  0  0
    1.4982  -32.2557    0.0000 C   0  0  0  0  0  0  0  0  0  0  0  0
    2.9825  -32.0390    0.0000 C   0  0  0  0  0  0  0  0  0  0  0  0
    4.4389  -31.6800    0.0000 C   0  0  0  0  0  0  0  0  0  0  0  0
    5.8539  -31.1822    0.0000 C   0  0  0  0  0  0  0  0  0  0  0  0
    7.2142  -30.5501    0.0000 C   0  0  0  0  0  0  0  0  0  0  0  0
    8.5072  -29.7896    0.0000 C   0  0  0  0  0  0  0  0  0  0  0  0
    9.7207  -28.9080    0.0000 C   0  0  0  0  0  0  0  0  0  0  0  0
   10.8434  -27.9133    0.0000 C   0  0  0  0  0  0  0  0  0  0  0  0
   11.8650  -26.8149    0.0000 C   0  0  0  0  0  0  0  0  0  0  0  0
   12.7757  -25.6230    0.0000 C   0  0  0  0  0  0  0  0  0  0  0  0
   13.5672  -24.3488    0.0000 C   0  0  0  0  0  0  0  0  0  0  0  0
   14.2320  -23.0042    0.0000 C   0  0  0  0  0  0  0  0  0  0  0  0
   14.7639  -21.6016    0.0000 C   0  0  0  0  0  0  0  0  0  0  0  0
   15.1579  -20.1543    0.0000 C   0  0  0  0  0  0  0  0  0  0  0  0
   15.4105  -18.6757    0.0000 C   0  0  0  0  0  0  0  0  0  0  0  0
   15.5191  -17.1797    0.0000 C   0  0  0  0  0  0  0  0  0  0  0  0
   15.4829  -15.6801    0.0000 C   0  0  0  0  0  0  0  0  0  0  0  0
   15.3021  -14.1910    0.0000 C   0  0  0  0  0  0  0  0  0  0  0  0
   14.9784  -12.7264    0.0000 C   0  0  0  0  0  0  0  0  0  0  0  0
   14.5149  -11.2998    0.0000 C   0  0  0  0  0  0  0  0  0  0  0  0
   13.9158   -9.9246    0.0000 C   0  0  0  0  0  0  0  0  0  0  0  0
   13.1868   -8.6137    0.0000 C   0  0  0  0  0  0  0  0  0  0  0  0
   12.3347   -7.3792    0.0000 C   0  0  0  0  0  0  0  0  0  0  0  0
   11.3675   -6.2327    0.0000 C   0  0  0  0  0  0  0  0  0  0  0  0
   10.2941   -5.1849    0.0000 C   0  0  0  0  0  0  0  0  0  0  0  0
    9.1246   -4.2457    0.0000 C   0  0  0  0  0  0  0  0  0  0  0  0
    7.8699   -3.4236    0.0000 C   0  0  0  0  0  0  0  0  0  0  0  0
    6.5417   -2.7266    0.0000 C   0  0  0  0  0  0  0  0  0  0  0  0
    5.1524   -2.1609    0.0000 C   0  0  0  0  0  0  0  0  0  0  0  0
    3.7151   -1.7320    0.0000 C   0  0  0  0  0  0  0  0  0  0  0  0
    2.2430   -1.4438    0.0000 C   0  0  0  0  0  0  0  0  0  0  0  0
    0.7500   -1.2990    0.0000 C   0  0  0  0  0  0  0  0  0  0  0  0
    1.5000    0.0000    0.0000 C   0  0  0  0  0  0  0  0  0  0  0  0
    0.7500    1.2990    0.0000 C   0  0  0  0  0  0  0  0  0  0  0  0
   -0.7500    1.2990    0.0000 C   0  0  0  0  0  0  0  0  0  0  0  0
   -1.5000    0.0000    0.0000 C   0  0  0  0  0  0  0  0  0  0  0  0
   -0.7500   -1.2990    0.0000 C   0  0  0  0  0  0  0  0  0  0  0  0
   -2.2430   -1.4438    0.0000 C   0  0  0  0  0  0  0  0  0  0  0  0
   -1.2574   -2.5746    0.0000 C   0  0  0  0  0  0  0  0  0  0  0  0
   -1.7438   -3.9935    0.0000 C   0  0  0  0  0  0  0  0  0  0  0  0
   -3.2159   -4.2817    0.0000 C   0  0  0  0  0  0  0  0  0  0  0  0
   -4.2015   -3.1509    0.0000 C   0  0  0  0  0  0  0  0  0  0  0  0
   -3.7151   -1.7320    0.0000 C   0  0  0  0  0  0  0  0  0  0  0  0
   -5.1524   -2.1609    0.0000 C   0  0  0  0  0  0  0  0  0  0  0  0
   -4.9477   -0.6750    0.0000 C   0  0  0  0  0  0  0  0  0  0  0  0
   -6.1321    0.2454    0.0000 C   0  0  0  0  0  0  0  0  0  0  0  0
   -7.5214   -0.3203    0.0000 C   0  0  0  0  0  0  0  0  0  0  0  0
   -7.7262   -1.8062    0.0000 C   0  0  0  0  0  0  0  0  0  0  0  0
   -6.5417   -2.7266    0.0000 C   0  0  0  0  0  0  0  0  0  0  0  0
   -7.8699   -3.4236    0.0000 C   0  0  0  0  0  0  0  0  0  0  0  0
   -6.5306   -4.0992    0.0000 C   0  0  0  0  0  0  0  0  0  0  0  0
   -6.4461   -5.5969    0.0000 C   0  0  0  0  0  0  0  0  0  0  0  0
   -7.7008   -6.4189    0.0000 C   0  0  0  0  0  0  0  0  0  0  0  0
   -9.0400   -5.7433    0.0000 C   0  0  0  0  0  0  0  0  0  0  0  0
   -9.1246   -4.2457    0.0000 C   0  0  0  0  0  0  0  0  0  0  0  0
  1  2  1  0
  2  3  1  0
  3  4  1  0
  4  5  1  0
  5  6  1  0
  6  7  1  0
  7  8  1  0
  8  9  1  0
  9 10  1  0
 10 11  1  0
 11 12  1  0
 12 13  1  0
 13 14  1  0
 14 15  1  0
 15 16  1  0
 16 17  1  0
 17 18  1  0
 18 19  1  0
 19 20  1  0
 20 21  1  0
 21 22  1  0
 22 23  1  0
 23 24  1  0
 24 25  1  0
 25 26  1  0
 26 27  1  0
 27 28  1  0
 28 29  1  0
 29 30  1  0
 30 31  1  0
 31 32  1  0
 32 33  1  0
 33 34  1  0
 34 35  1  0
 35 36  1  0
 36 37  1  0
 37 38  1  0
 38 39  1  0
 39 40  1  0
 40 41  1  0
 41 42  1  0
 42 43  1  0
 43 44  1  0
 44 45  1  0
 45 46  1  0
 46 47  1  0
 47 48  1  0
 48 49  1  0
 49 50  1  0
 50 51  1  0
 51 52  1  0
 52 53  1  0
 53 54  1  0
 54 55  1  0
 55 56  1  0
 56 57  1  0
 57 58  1  0
 58 59  1  0
 59 60  2  0
 60 61  1  0
 61 62  2  0
 62 63  1  0
 63 64  2  0
 64 65  1  0
 65 66  2  0
 66 67  1  0
 67 68  2  0
 68 69  1  0
 69 70  2  0
 70 71  1  0
 71 72  2  0
 72 73  1  0
 73 74  2  0
 74 75  1  0
 75 76  2  0
 76 77  1  0
 77 78  2  0
 78 79  1  0
 79 80  2  0
 80 81  1  0
 81 82  2  0
 82  2  1  0
 64 59  1  0
 70 65  1  0
 76 71  1  0
 82 77  1  0
M  END
>  <Title>  (386) 
idAAMXgen9

$$$$

     RDKit          2D

  9  9  0  0  0  0  0  0  0  0999 V2000
    2.7760   -2.5981    0.0000 O   0  0  0  0  0  0  0  0  0  0  0  0
    3.5260   -1.2990    0.0000 C   0  0  0  0  0  0  0  0  0  0  0  0
    5.0260   -1.2990    0.0000 O   0  0  0  0  0  0  0  0  0  0  0  0
    2.7760    0.0000    0.0000 O   0  0  0  0  0  0  0  0  0  0  0  0
    1.2760    0.0000    0.0000 C   0  0  0  0  0  0  0  0  0  0  0  0
    0.3943    1.2135    0.0000 C   0  0  0  0  0  0  0  0  0  0  0  0
   -1.0323    0.7500    0.0000 C   0  0  0  0  0  0  0  0  0  0  0  0
   -1.0323   -0.7500    0.0000 C   0  0  0  0  0  0  0  0  0  0  0  0
    0.3943   -1.2135    0.0000 C   0  0  0  0  0  0  0  0  0  0  0  0
  1  2  2  0
  2  3  1  0
  2  4  1  0
  4  5  1  0
  5  6  1  0
  6  7  2  0
  7  8  1  0
  8  9  2  0
  9  5  1  0
M  END
>  <Title>  (387) 
idAAMYgen9

$$$$

     RDKit          2D

 47 47  0  0  0  0  0  0  0  0999 V2000
   11.7746   -2.5981    0.0000 O   0  0  0  0  0  0  0  0  0  0  0  0
   12.5246   -1.2990    0.0000 C   0  0  0  0  0  0  0  0  0  0  0  0
   14.0246   -1.2990    0.0000 O   0  0  0  0  0  0  0  0  0  0  0  0
   11.7746    0.0000    0.0000 O   0  0  0  0  0  0  0  0  0  0  0  0
   10.2746    0.0000    0.0000 C   0  0  0  0  0  0  0  0  0  0  0  0
   10.1651    1.4960    0.0000 C   0  0  0  0  0  0  0  0  0  0  0  0
    9.8390    2.9601    0.0000 C   0  0  0  0  0  0  0  0  0  0  0  0
    9.3031    4.3611    0.0000 C   0  0  0  0  0  0  0  0  0  0  0  0
    8.5690    5.6692    0.0000 C   0  0  0  0  0  0  0  0  0  0  0  0
    7.6523    6.8565    0.0000 C   0  0  0  0  0  0  0  0  0  0  0  0
    6.5724    7.8976    0.0000 C   0  0  0  0  0  0  0  0  0  0  0  0
    5.3525    8.7704    0.0000 C   0  0  0  0  0  0  0  0  0  0  0  0
    4.0185    9.4562    0.0000 C   0  0  0  0  0  0  0  0  0  0  0  0
    2.5988    9.9405    0.0000 C   0  0  0  0  0  0  0  0  0  0  0  0
    1.1237   10.2130    0.0000 C   0  0  0  0  0  0  0  0  0  0  0  0
   -0.3753   10.2678    0.0000 C   0  0  0  0  0  0  0  0  0  0  0  0
   -1.8663   10.1037    0.0000 C   0  0  0  0  0  0  0  0  0  0  0  0
   -3.3175    9.7243    0.0000 C   0  0  0  0  0  0  0  0  0  0  0  0
   -4.6980    9.1377    0.0000 C   0  0  0  0  0  0  0  0  0  0  0  0
   -5.9784    8.3563    0.0000 C   0  0  0  0  0  0  0  0  0  0  0  0
   -7.1314    7.3967    0.0000 C   0  0  0  0  0  0  0  0  0  0  0  0
   -8.1323    6.2796    0.0000 C   0  0  0  0  0  0  0  0  0  0  0  0
   -8.9600    5.0286    0.0000 C   0  0  0  0  0  0  0  0  0  0  0  0
   -9.5967    3.6704    0.0000 C   0  0  0  0  0  0  0  0  0  0  0  0
  -10.0288    2.2340    0.0000 C   0  0  0  0  0  0  0  0  0  0  0  0
  -10.2472    0.7500    0.0000 C   0  0  0  0  0  0  0  0  0  0  0  0
  -10.2472   -0.7500    0.0000 C   0  0  0  0  0  0  0  0  0  0  0  0
  -10.0288   -2.2340    0.0000 C   0  0  0  0  0  0  0  0  0  0  0  0
   -9.5967   -3.6704    0.0000 C   0  0  0  0  0  0  0  0  0  0  0  0
   -8.9600   -5.0286    0.0000 C   0  0  0  0  0  0  0  0  0  0  0  0
   -8.1323   -6.2796    0.0000 C   0  0  0  0  0  0  0  0  0  0  0  0
   -7.1314   -7.3967    0.0000 C   0  0  0  0  0  0  0  0  0  0  0  0
   -5.9784   -8.3563    0.0000 C   0  0  0  0  0  0  0  0  0  0  0  0
   -4.6980   -9.1377    0.0000 C   0  0  0  0  0  0  0  0  0  0  0  0
   -3.3175   -9.7243    0.0000 C   0  0  0  0  0  0  0  0  0  0  0  0
   -1.8663  -10.1037    0.0000 C   0  0  0  0  0  0  0  0  0  0  0  0
   -0.3753  -10.2678    0.0000 C   0  0  0  0  0  0  0  0  0  0  0  0
    1.1237  -10.2130    0.0000 C   0  0  0  0  0  0  0  0  0  0  0  0
    2.5988   -9.9405    0.0000 C   0  0  0  0  0  0  0  0  0  0  0  0
    4.0185   -9.4562    0.0000 C   0  0  0  0  0  0  0  0  0  0  0  0
    5.3525   -8.7704    0.0000 C   0  0  0  0  0  0  0  0  0  0  0  0
    6.5724   -7.8976    0.0000 C   0  0  0  0  0  0  0  0  0  0  0  0
    7.6523   -6.8565    0.0000 C   0  0  0  0  0  0  0  0  0  0  0  0
    8.5690   -5.6692    0.0000 C   0  0  0  0  0  0  0  0  0  0  0  0
    9.3031   -4.3611    0.0000 C   0  0  0  0  0  0  0  0  0  0  0  0
    9.8390   -2.9601    0.0000 C   0  0  0  0  0  0  0  0  0  0  0  0
   10.1651   -1.4960    0.0000 C   0  0  0  0  0  0  0  0  0  0  0  0
  1  2  2  0
  2  3  1  0
  2  4  1  0
  4  5  1  0
  5  6  1  0
  6  7  2  0
  7  8  1  0
  8  9  1  0
  9 10  1  0
 10 11  1  0
 11 12  1  0
 12 13  1  0
 13 14  1  0
 14 15  1  0
 15 16  1  0
 16 17  1  0
 17 18  1  0
 18 19  1  0
 19 20  1  0
 20 21  1  0
 21 22  1  0
 22 23  1  0
 23 24  1  0
 24 25  1  0
 25 26  1  0
 26 27  1  0
 27 28  1  0
 28 29  1  0
 29 30  1  0
 30 31  1  0
 31 32  1  0
 32 33  1  0
 33 34  1  0
 34 35  1  0
 35 36  1  0
 36 37  1  0
 37 38  1  0
 38 39  1  0
 39 40  1  0
 40 41  1  0
 41 42  1  0
 42 43  1  0
 43 44  1  0
 44 45  1  0
 45 46  1  0
 46 47  1  0
 47  5  1  0
M  END
>  <Title>  (388) 
idAAMZgen9

$$$$

     RDKit          2D

 20 22  0  0  0  0  0  0  0  0999 V2000
   10.0355    0.6881    0.0000 C   0  0  0  0  0  0  0  0  0  0  0  0
    8.5683    0.3762    0.0000 C   0  0  0  0  0  0  0  0  0  0  0  0
    7.4536    1.3799    0.0000 C   0  0  0  0  0  0  0  0  0  0  0  0
    6.1545    0.6299    0.0000 C   0  0  0  0  0  0  0  0  0  0  0  0
    6.4664   -0.8373    0.0000 C   0  0  0  0  0  0  0  0  0  0  0  0
    5.4627   -1.9520    0.0000 C   0  0  0  0  0  0  0  0  0  0  0  0
    5.9262   -3.3786    0.0000 O   0  0  0  0  0  0  0  0  0  0  0  0
    3.9955   -1.6402    0.0000 N   0  0  0  0  0  0  0  0  0  0  0  0
    2.9918   -2.7549    0.0000 C   0  0  0  0  0  0  0  0  0  0  0  0
    3.3037   -4.2221    0.0000 N   0  0  0  0  0  0  0  0  0  0  0  0
    2.0046   -4.9721    0.0000 N   0  0  0  0  0  0  0  0  0  0  0  0
    0.8899   -3.9684    0.0000 N   0  0  0  0  0  0  0  0  0  0  0  0
    1.5000   -2.5981    0.0000 N   0  0  0  0  0  0  0  0  0  0  0  0
    0.7500   -1.2990    0.0000 C   0  0  0  0  0  0  0  0  0  0  0  0
    1.5000    0.0000    0.0000 C   0  0  0  0  0  0  0  0  0  0  0  0
    0.7500    1.2990    0.0000 C   0  0  0  0  0  0  0  0  0  0  0  0
   -0.7500    1.2990    0.0000 C   0  0  0  0  0  0  0  0  0  0  0  0
   -1.5000    0.0000    0.0000 C   0  0  0  0  0  0  0  0  0  0  0  0
   -0.7500   -1.2990    0.0000 C   0  0  0  0  0  0  0  0  0  0  0  0
    7.9582   -0.9941    0.0000 C   0  0  0  0  0  0  0  0  0  0  0  0
  1  2  1  0
  2  3  2  0
  3  4  1  0
  4  5  2  0
  5  6  1  0
  6  7  2  0
  6  8  1  0
  8  9  1  0
  9 10  2  0
 10 11  1  0
 11 12  2  0
 12 13  1  0
 13 14  1  0
 14 15  2  0
 15 16  1  0
 16 17  2  0
 17 18  1  0
 18 19  2  0
  5 20  1  0
 20  2  1  0
 13  9  1  0
 19 14  1  0
M  END
>  <Title>  (389) 
idAANAgen9

$$$$

     RDKit          2D

 13 14  0  0  0  0  0  0  0  0999 V2000
    3.0000    0.0000    0.0000 C   0  0  0  0  0  0  0  0  0  0  0  0
    1.5000    0.0000    0.0000 C   0  0  0  0  0  0  0  0  0  0  0  0
    0.7500   -1.2990    0.0000 C   0  0  0  0  0  0  0  0  0  0  0  0
   -0.7500   -1.2990    0.0000 C   0  0  0  0  0  0  0  0  0  0  0  0
   -1.5000    0.0000    0.0000 C   0  0  0  0  0  0  0  0  0  0  0  0
   -3.0000    0.0000    0.0000 C   0  0  0  0  0  0  0  0  0  0  0  0
   -3.8817   -1.2135    0.0000 C   0  0  0  0  0  0  0  0  0  0  0  0
   -5.3083   -0.7500    0.0000 C   0  0  0  0  0  0  0  0  0  0  0  0
   -5.3083    0.7500    0.0000 C   0  0  0  0  0  0  0  0  0  0  0  0
   -3.8817    1.2135    0.0000 C   0  0  0  0  0  0  0  0  0  0  0  0
   -0.7500    1.2990    0.0000 C   0  0  0  0  0  0  0  0  0  0  0  0
   -1.5000    2.5981    0.0000 C   0  0  0  0  0  0  0  0  0  0  0  0
    0.7500    1.2990    0.0000 C   0  0  0  0  0  0  0  0  0  0  0  0
  1  2  1  0
  2  3  2  0
  3  4  1  0
  4  5  2  0
  5  6  1  0
  6  7  2  0
  7  8  1  0
  8  9  2  0
  9 10  1  0
  5 11  1  0
 11 12  1  0
 11 13  2  0
 13  2  1  0
 10  6  1  0
M  END
>  <Title>  (390) 
idAANBgen9

$$$$

     RDKit          2D

 44 50  0  0  0  0  0  0  0  0999 V2000
    4.3881   -6.6982    0.0000 C   0  0  0  0  0  0  0  0  0  0  0  0
    3.0367   -6.0474    0.0000 C   0  0  0  0  0  0  0  0  0  0  0  0
    3.3705   -4.5850    0.0000 C   0  0  0  0  0  0  0  0  0  0  0  0
    3.0367   -3.1226    0.0000 C   0  0  0  0  0  0  0  0  0  0  0  0
    2.1015   -1.9499    0.0000 C   0  0  0  0  0  0  0  0  0  0  0  0
    3.0367   -0.7771    0.0000 C   0  0  0  0  0  0  0  0  0  0  0  0
    2.4887    0.6192    0.0000 O   0  0  0  0  0  0  0  0  0  0  0  0
    4.5199   -1.0007    0.0000 N   0  0  0  0  0  0  0  0  0  0  0  0
    5.4552    0.1721    0.0000 C   0  0  0  0  0  0  0  0  0  0  0  0
    6.9384   -0.0515    0.0000 N   0  0  0  0  0  0  0  0  0  0  0  0
    7.8736    1.1213    0.0000 N   0  0  0  0  0  0  0  0  0  0  0  0
    7.3256    2.5176    0.0000 N   0  0  0  0  0  0  0  0  0  0  0  0
    5.8424    2.7411    0.0000 N   0  0  0  0  0  0  0  0  0  0  0  0
    4.9072    1.5684    0.0000 N   0  0  0  0  0  0  0  0  0  0  0  0
    0.7500   -1.2990    0.0000 C   0  0  0  0  0  0  0  0  0  0  0  0
    1.5000    0.0000    0.0000 C   0  0  0  0  0  0  0  0  0  0  0  0
    0.7500    1.2990    0.0000 C   0  0  0  0  0  0  0  0  0  0  0  0
   -0.7500    1.2990    0.0000 C   0  0  0  0  0  0  0  0  0  0  0  0
   -1.5000    0.0000    0.0000 C   0  0  0  0  0  0  0  0  0  0  0  0
   -0.7500   -1.2990    0.0000 C   0  0  0  0  0  0  0  0  0  0  0  0
   -2.1015   -1.9499    0.0000 C   0  0  0  0  0  0  0  0  0  0  0  0
   -2.6495   -0.5536    0.0000 C   0  0  0  0  0  0  0  0  0  0  0  0
   -4.1327   -0.3300    0.0000 C   0  0  0  0  0  0  0  0  0  0  0  0
   -5.0679   -1.5027    0.0000 C   0  0  0  0  0  0  0  0  0  0  0  0
   -4.5199   -2.8990    0.0000 C   0  0  0  0  0  0  0  0  0  0  0  0
   -3.0367   -3.1226    0.0000 C   0  0  0  0  0  0  0  0  0  0  0  0
   -3.3705   -4.5850    0.0000 C   0  0  0  0  0  0  0  0  0  0  0  0
   -4.8038   -4.1429    0.0000 C   0  0  0  0  0  0  0  0  0  0  0  0
   -5.9034   -5.1631    0.0000 C   0  0  0  0  0  0  0  0  0  0  0  0
   -5.5696   -6.6255    0.0000 C   0  0  0  0  0  0  0  0  0  0  0  0
   -4.1363   -7.0677    0.0000 C   0  0  0  0  0  0  0  0  0  0  0  0
   -3.0367   -6.0474    0.0000 C   0  0  0  0  0  0  0  0  0  0  0  0
   -2.1015   -7.2201    0.0000 C   0  0  0  0  0  0  0  0  0  0  0  0
   -3.3408   -8.0651    0.0000 C   0  0  0  0  0  0  0  0  0  0  0  0
   -3.2287   -9.5609    0.0000 C   0  0  0  0  0  0  0  0  0  0  0  0
   -1.8773  -10.2118    0.0000 C   0  0  0  0  0  0  0  0  0  0  0  0
   -0.6379   -9.3668    0.0000 C   0  0  0  0  0  0  0  0  0  0  0  0
   -0.7500   -7.8710    0.0000 C   0  0  0  0  0  0  0  0  0  0  0  0
    0.7500   -7.8710    0.0000 C   0  0  0  0  0  0  0  0  0  0  0  0
    0.6379   -9.3668    0.0000 C   0  0  0  0  0  0  0  0  0  0  0  0
    1.8773  -10.2118    0.0000 C   0  0  0  0  0  0  0  0  0  0  0  0
    3.2287   -9.5609    0.0000 C   0  0  0  0  0  0  0  0  0  0  0  0
    3.3408   -8.0651    0.0000 C   0  0  0  0  0  0  0  0  0  0  0  0
    2.1015   -7.2201    0.0000 C   0  0  0  0  0  0  0  0  0  0  0  0
  1  2  1  0
  2  3  2  0
  3  4  1  0
  4  5  2  0
  5  6  1  0
  6  7  2  0
  6  8  1  0
  8  9  1  0
  9 10  2  0
 10 11  1  0
 11 12  2  0
 12 13  1  0
 13 14  2  0
  5 15  1  0
 15 16  2  0
 16 17  1  0
 17 18  2  0
 18 19  1  0
 19 20  2  0
 20 21  1  0
 21 22  2  0
 22 23  1  0
 23 24  2  0
 24 25  1  0
 25 26  2  0
 26 27  1  0
 27 28  2  0
 28 29  1  0
 29 30  2  0
 30 31  1  0
 31 32  2  0
 32 33  1  0
 33 34  2  0
 34 35  1  0
 35 36  2  0
 36 37  1  0
 37 38  2  0
 38 39  1  0
 39 40  2  0
 40 41  1  0
 41 42  2  0
 42 43  1  0
 43 44  2  0
 44  2  1  0
 14  9  1  0
 20 15  1  0
 26 21  1  0
 32 27  1  0
 38 33  1  0
 44 39  1  0
M  END
>  <Title>  (391) 
idAANCgen9

$$$$

     RDKit          2D

  8  8  0  0  0  0  0  0  0  0999 V2000
    4.5000    0.0000    0.0000 N   0  0  0  0  0  0  0  0  0  0  0  0
    3.0000    0.0000    0.0000 C   0  0  0  0  0  0  0  0  0  0  0  0
    1.5000    0.0000    0.0000 C   0  0  0  0  0  0  0  0  0  0  0  0
    0.7500   -1.2990    0.0000 C   0  0  0  0  0  0  0  0  0  0  0  0
   -0.7500   -1.2990    0.0000 C   0  0  0  0  0  0  0  0  0  0  0  0
   -1.5000    0.0000    0.0000 C   0  0  0  0  0  0  0  0  0  0  0  0
   -0.7500    1.2990    0.0000 C   0  0  0  0  0  0  0  0  0  0  0  0
    0.7500    1.2990    0.0000 C   0  0  0  0  0  0  0  0  0  0  0  0
  1  2  3  0
  2  3  1  0
  3  4  2  0
  4  5  1  0
  5  6  2  0
  6  7  1  0
  7  8  2  0
  8  3  1  0
M  END
>  <Title>  (392) 
idAANDgen9

$$$$

     RDKit          2D

 10 10  0  0  0  0  0  0  0  0999 V2000
    5.0260   -1.2990    0.0000 C   0  0  0  0  0  0  0  0  0  0  0  0
    3.5260   -1.2990    0.0000 N   0  0  0  0  0  0  0  0  0  0  0  0
    2.7760   -2.5981    0.0000 C   0  0  0  0  0  0  0  0  0  0  0  0
    2.7760    0.0000    0.0000 C   0  0  0  0  0  0  0  0  0  0  0  0
    3.5260    1.2990    0.0000 O   0  0  0  0  0  0  0  0  0  0  0  0
    1.2760    0.0000    0.0000 C   0  0  0  0  0  0  0  0  0  0  0  0
    0.3943    1.2135    0.0000 C   0  0  0  0  0  0  0  0  0  0  0  0
   -1.0323    0.7500    0.0000 C   0  0  0  0  0  0  0  0  0  0  0  0
   -1.0323   -0.7500    0.0000 C   0  0  0  0  0  0  0  0  0  0  0  0
    0.3943   -1.2135    0.0000 C   0  0  0  0  0  0  0  0  0  0  0  0
  1  2  1  0
  2  3  1  0
  2  4  1  0
  4  5  2  0
  4  6  1  0
  6  7  1  0
  7  8  1  0
  8  9  1  0
  9 10  1  0
 10  6  1  0
M  END
>  <Title>  (393) 
idAANEgen9

$$$$

     RDKit          2D

110110  0  0  0  0  0  0  0  0999 V2000
   27.5254    0.0000    0.0000 C   0  0  0  0  0  0  0  0  0  0  0  0
   26.0254    0.0000    0.0000 C   0  0  0  0  0  0  0  0  0  0  0  0
   25.9822    1.4994    0.0000 C   0  0  0  0  0  0  0  0  0  0  0  0
   25.8527    2.9938    0.0000 C   0  0  0  0  0  0  0  0  0  0  0  0
   25.6373    4.4782    0.0000 C   0  0  0  0  0  0  0  0  0  0  0  0
   25.3367    5.9478    0.0000 C   0  0  0  0  0  0  0  0  0  0  0  0
   24.9519    7.3976    0.0000 C   0  0  0  0  0  0  0  0  0  0  0  0
   24.4843    8.8229    0.0000 C   0  0  0  0  0  0  0  0  0  0  0  0
   23.9353   10.2188    0.0000 C   0  0  0  0  0  0  0  0  0  0  0  0
   23.3068   11.5808    0.0000 C   0  0  0  0  0  0  0  0  0  0  0  0
   22.6009   12.9043    0.0000 C   0  0  0  0  0  0  0  0  0  0  0  0
   21.8200   14.1850    0.0000 C   0  0  0  0  0  0  0  0  0  0  0  0
   20.9665   15.4185    0.0000 C   0  0  0  0  0  0  0  0  0  0  0  0
   20.0434   16.6008    0.0000 C   0  0  0  0  0  0  0  0  0  0  0  0
   19.0537   17.7280    0.0000 C   0  0  0  0  0  0  0  0  0  0  0  0
   18.0007   18.7962    0.0000 C   0  0  0  0  0  0  0  0  0  0  0  0
   16.8879   19.8021    0.0000 C   0  0  0  0  0  0  0  0  0  0  0  0
   15.7190   20.7421    0.0000 C   0  0  0  0  0  0  0  0  0  0  0  0
   14.4979   21.6133    0.0000 C   0  0  0  0  0  0  0  0  0  0  0  0
   13.2287   22.4126    0.0000 C   0  0  0  0  0  0  0  0  0  0  0  0
   11.9154   23.1375    0.0000 C   0  0  0  0  0  0  0  0  0  0  0  0
   10.5627   23.7856    0.0000 C   0  0  0  0  0  0  0  0  0  0  0  0
    9.1748   24.3546    0.0000 C   0  0  0  0  0  0  0  0  0  0  0  0
    7.7564   24.8427    0.0000 C   0  0  0  0  0  0  0  0  0  0  0  0
    6.3123   25.2483    0.0000 C   0  0  0  0  0  0  0  0  0  0  0  0
    4.8472   25.5701    0.0000 C   0  0  0  0  0  0  0  0  0  0  0  0
    3.3660   25.8068    0.0000 C   0  0  0  0  0  0  0  0  0  0  0  0
    1.8736   25.9579    0.0000 C   0  0  0  0  0  0  0  0  0  0  0  0
    0.3750   26.0227    0.0000 C   0  0  0  0  0  0  0  0  0  0  0  0
   -1.1248   26.0011    0.0000 C   0  0  0  0  0  0  0  0  0  0  0  0
   -2.6209   25.8931    0.0000 C   0  0  0  0  0  0  0  0  0  0  0  0
   -4.1083   25.6991    0.0000 C   0  0  0  0  0  0  0  0  0  0  0  0
   -5.5821   25.4198    0.0000 C   0  0  0  0  0  0  0  0  0  0  0  0
   -7.0373   25.0559    0.0000 C   0  0  0  0  0  0  0  0  0  0  0  0
   -8.4691   24.6089    0.0000 C   0  0  0  0  0  0  0  0  0  0  0  0
   -9.8728   24.0801    0.0000 C   0  0  0  0  0  0  0  0  0  0  0  0
  -11.2437   23.4713    0.0000 C   0  0  0  0  0  0  0  0  0  0  0  0
  -12.5773   22.7845    0.0000 C   0  0  0  0  0  0  0  0  0  0  0  0
  -13.8690   22.0221    0.0000 C   0  0  0  0  0  0  0  0  0  0  0  0
  -15.1147   21.1865    0.0000 C   0  0  0  0  0  0  0  0  0  0  0  0
  -16.3102   20.2805    0.0000 C   0  0  0  0  0  0  0  0  0  0  0  0
  -17.4515   19.3072    0.0000 C   0  0  0  0  0  0  0  0  0  0  0  0
  -18.5349   18.2697    0.0000 C   0  0  0  0  0  0  0  0  0  0  0  0
  -19.5567   17.1715    0.0000 C   0  0  0  0  0  0  0  0  0  0  0  0
  -20.5135   16.0163    0.0000 C   0  0  0  0  0  0  0  0  0  0  0  0
  -21.4021   14.8079    0.0000 C   0  0  0  0  0  0  0  0  0  0  0  0
  -22.2197   13.5503    0.0000 C   0  0  0  0  0  0  0  0  0  0  0  0
  -22.9634   12.2476    0.0000 C   0  0  0  0  0  0  0  0  0  0  0  0
  -23.6309   10.9043    0.0000 C   0  0  0  0  0  0  0  0  0  0  0  0
  -24.2199    9.5248    0.0000 C   0  0  0  0  0  0  0  0  0  0  0  0
  -24.7284    8.1136    0.0000 C   0  0  0  0  0  0  0  0  0  0  0  0
  -25.1547    6.6755    0.0000 C   0  0  0  0  0  0  0  0  0  0  0  0
  -25.4976    5.2152    0.0000 C   0  0  0  0  0  0  0  0  0  0  0  0
  -25.7557    3.7376    0.0000 C   0  0  0  0  0  0  0  0  0  0  0  0
  -25.9282    2.2475    0.0000 C   0  0  0  0  0  0  0  0  0  0  0  0
  -26.0146    0.7500    0.0000 C   0  0  0  0  0  0  0  0  0  0  0  0
  -26.0146   -0.7500    0.0000 C   0  0  0  0  0  0  0  0  0  0  0  0
  -25.9282   -2.2475    0.0000 C   0  0  0  0  0  0  0  0  0  0  0  0
  -25.7557   -3.7376    0.0000 C   0  0  0  0  0  0  0  0  0  0  0  0
  -25.4976   -5.2152    0.0000 C   0  0  0  0  0  0  0  0  0  0  0  0
  -25.1547   -6.6755    0.0000 C   0  0  0  0  0  0  0  0  0  0  0  0
  -24.7284   -8.1136    0.0000 C   0  0  0  0  0  0  0  0  0  0  0  0
  -24.2199   -9.5248    0.0000 C   0  0  0  0  0  0  0  0  0  0  0  0
  -23.6309  -10.9043    0.0000 C   0  0  0  0  0  0  0  0  0  0  0  0
  -22.9634  -12.2476    0.0000 C   0  0  0  0  0  0  0  0  0  0  0  0
  -22.2197  -13.5503    0.0000 C   0  0  0  0  0  0  0  0  0  0  0  0
  -21.4021  -14.8079    0.0000 C   0  0  0  0  0  0  0  0  0  0  0  0
  -20.5135  -16.0163    0.0000 C   0  0  0  0  0  0  0  0  0  0  0  0
  -19.5567  -17.1715    0.0000 C   0  0  0  0  0  0  0  0  0  0  0  0
  -18.5349  -18.2697    0.0000 C   0  0  0  0  0  0  0  0  0  0  0  0
  -17.4515  -19.3072    0.0000 C   0  0  0  0  0  0  0  0  0  0  0  0
  -16.3102  -20.2805    0.0000 C   0  0  0  0  0  0  0  0  0  0  0  0
  -15.1147  -21.1865    0.0000 C   0  0  0  0  0  0  0  0  0  0  0  0
  -13.8690  -22.0221    0.0000 C   0  0  0  0  0  0  0  0  0  0  0  0
  -12.5773  -22.7845    0.0000 C   0  0  0  0  0  0  0  0  0  0  0  0
  -11.2437  -23.4713    0.0000 C   0  0  0  0  0  0  0  0  0  0  0  0
   -9.8728  -24.0801    0.0000 C   0  0  0  0  0  0  0  0  0  0  0  0
   -8.4691  -24.6089    0.0000 C   0  0  0  0  0  0  0  0  0  0  0  0
   -7.0373  -25.0559    0.0000 C   0  0  0  0  0  0  0  0  0  0  0  0
   -5.5821  -25.4198    0.0000 C   0  0  0  0  0  0  0  0  0  0  0  0
   -4.1083  -25.6991    0.0000 C   0  0  0  0  0  0  0  0  0  0  0  0
   -2.6209  -25.8931    0.0000 C   0  0  0  0  0  0  0  0  0  0  0  0
   -1.1248  -26.0011    0.0000 C   0  0  0  0  0  0  0  0  0  0  0  0
    0.3750  -26.0227    0.0000 C   0  0  0  0  0  0  0  0  0  0  0  0
    1.8736  -25.9579    0.0000 C   0  0  0  0  0  0  0  0  0  0  0  0
    3.3660  -25.8068    0.0000 C   0  0  0  0  0  0  0  0  0  0  0  0
    4.8472  -25.5701    0.0000 C   0  0  0  0  0  0  0  0  0  0  0  0
    6.3123  -25.2483    0.0000 C   0  0  0  0  0  0  0  0  0  0  0  0
    7.7564  -24.8427    0.0000 C   0  0  0  0  0  0  0  0  0  0  0  0
    9.1748  -24.3546    0.0000 C   0  0  0  0  0  0  0  0  0  0  0  0
   10.5627  -23.7856    0.0000 C   0  0  0  0  0  0  0  0  0  0  0  0
   11.9154  -23.1375    0.0000 C   0  0  0  0  0  0  0  0  0  0  0  0
   13.2287  -22.4126    0.0000 C   0  0  0  0  0  0  0  0  0  0  0  0
   14.4979  -21.6133    0.0000 C   0  0  0  0  0  0  0  0  0  0  0  0
   15.7190  -20.7421    0.0000 C   0  0  0  0  0  0  0  0  0  0  0  0
   16.8879  -19.8021    0.0000 C   0  0  0  0  0  0  0  0  0  0  0  0
   18.0007  -18.7962    0.0000 C   0  0  0  0  0  0  0  0  0  0  0  0
   19.0537  -17.7280    0.0000 C   0  0  0  0  0  0  0  0  0  0  0  0
   20.0434  -16.6008    0.0000 C   0  0  0  0  0  0  0  0  0  0  0  0
   20.9665  -15.4185    0.0000 C   0  0  0  0  0  0  0  0  0  0  0  0
   21.8200  -14.1850    0.0000 C   0  0  0  0  0  0  0  0  0  0  0  0
   22.6009  -12.9043    0.0000 C   0  0  0  0  0  0  0  0  0  0  0  0
   23.3068  -11.5808    0.0000 C   0  0  0  0  0  0  0  0  0  0  0  0
   23.9353  -10.2188    0.0000 C   0  0  0  0  0  0  0  0  0  0  0  0
   24.4843   -8.8229    0.0000 C   0  0  0  0  0  0  0  0  0  0  0  0
   24.9519   -7.3976    0.0000 C   0  0  0  0  0  0  0  0  0  0  0  0
   25.3367   -5.9478    0.0000 C   0  0  0  0  0  0  0  0  0  0  0  0
   25.6373   -4.4782    0.0000 C   0  0  0  0  0  0  0  0  0  0  0  0
   25.8527   -2.9938    0.0000 C   0  0  0  0  0  0  0  0  0  0  0  0
   25.9822   -1.4994    0.0000 C   0  0  0  0  0  0  0  0  0  0  0  0
  1  2  1  0
  2  3  1  0
  3  4  2  0
  4  5  1  0
  5  6  2  0
  6  7  1  0
  7  8  1  0
  8  9  1  0
  9 10  1  0
 10 11  1  0
 11 12  1  0
 12 13  1  0
 13 14  1  0
 14 15  1  0
 15 16  1  0
 16 17  1  0
 17 18  1  0
 18 19  1  0
 19 20  1  0
 20 21  1  0
 21 22  1  0
 22 23  1  0
 23 24  1  0
 24 25  1  0
 25 26  1  0
 26 27  1  0
 27 28  1  0
 28 29  1  0
 29 30  1  0
 30 31  1  0
 31 32  1  0
 32 33  1  0
 33 34  1  0
 34 35  1  0
 35 36  1  0
 36 37  1  0
 37 38  1  0
 38 39  1  0
 39 40  1  0
 40 41  1  0
 41 42  1  0
 42 43  1  0
 43 44  1  0
 44 45  1  0
 45 46  1  0
 46 47  1  0
 47 48  1  0
 48 49  1  0
 49 50  1  0
 50 51  1  0
 51 52  1  0
 52 53  1  0
 53 54  1  0
 54 55  1  0
 55 56  1  0
 56 57  1  0
 57 58  1  0
 58 59  1  0
 59 60  1  0
 60 61  1  0
 61 62  1  0
 62 63  1  0
 63 64  1  0
 64 65  1  0
 65 66  1  0
 66 67  1  0
 67 68  1  0
 68 69  1  0
 69 70  1  0
 70 71  1  0
 71 72  1  0
 72 73  1  0
 73 74  1  0
 74 75  1  0
 75 76  1  0
 76 77  1  0
 77 78  1  0
 78 79  1  0
 79 80  1  0
 80 81  1  0
 81 82  1  0
 82 83  1  0
 83 84  1  0
 84 85  1  0
 85 86  1  0
 86 87  1  0
 87 88  1  0
 88 89  1  0
 89 90  1  0
 90 91  1  0
 91 92  1  0
 92 93  1  0
 93 94  1  0
 94 95  1  0
 95 96  1  0
 96 97  1  0
 97 98  1  0
 98 99  1  0
 99100  1  0
100101  1  0
101102  1  0
102103  1  0
103104  1  0
104105  1  0
105106  1  0
106107  1  0
107108  1  0
108109  1  0
109110  1  0
110  2  1  0
M  END
>  <Title>  (394) 
idAANFgen9

$$$$

     RDKit          2D

  9  9  0  0  0  0  0  0  0  0999 V2000
    2.7760   -2.5981    0.0000 O   0  0  0  0  0  0  0  0  0  0  0  0
    3.5260   -1.2990    0.0000 C   0  0  0  0  0  0  0  0  0  0  0  0
    5.0260   -1.2990    0.0000 O   0  0  0  0  0  0  0  0  0  0  0  0
    2.7760    0.0000    0.0000 C   0  0  0  0  0  0  0  0  0  0  0  0
    1.2760    0.0000    0.0000 C   0  0  0  0  0  0  0  0  0  0  0  0
    0.3943    1.2135    0.0000 C   0  0  0  0  0  0  0  0  0  0  0  0
   -1.0323    0.7500    0.0000 C   0  0  0  0  0  0  0  0  0  0  0  0
   -1.0323   -0.7500    0.0000 C   0  0  0  0  0  0  0  0  0  0  0  0
    0.3943   -1.2135    0.0000 C   0  0  0  0  0  0  0  0  0  0  0  0
  1  2  2  0
  2  3  1  0
  2  4  1  0
  4  5  1  0
  5  6  1  0
  6  7  2  0
  7  8  1  0
  8  9  1  0
  9  5  1  0
M  END
>  <Title>  (395) 
idAANGgen9

$$$$

     RDKit          2D

  6  6  0  0  0  0  0  0  0  0999 V2000
    2.7760    0.0000    0.0000 O   0  0  0  0  0  0  0  0  0  0  0  0
    1.2760    0.0000    0.0000 C   0  0  0  0  0  0  0  0  0  0  0  0
    0.3943    1.2135    0.0000 C   0  0  0  0  0  0  0  0  0  0  0  0
   -1.0323    0.7500    0.0000 C   0  0  0  0  0  0  0  0  0  0  0  0
   -1.0323   -0.7500    0.0000 C   0  0  0  0  0  0  0  0  0  0  0  0
    0.3943   -1.2135    0.0000 O   0  0  0  0  0  0  0  0  0  0  0  0
  1  2  2  0
  2  3  1  0
  3  4  1  0
  4  5  1  0
  5  6  1  0
  6  2  1  0
M  END
>  <Title>  (396) 
idAANHgen9

$$$$

     RDKit          2D

 20 21  0  0  0  0  0  0  0  0999 V2000
    5.1929   -0.0000    0.0000 N   0  0  0  0  0  0  0  0  0  0  0  0
    3.6929    0.0000    0.0000 C   0  0  0  0  0  0  0  0  0  0  0  0
    2.1929    0.0000    0.0000 C   0  0  0  0  0  0  0  0  0  0  0  0
    1.6798    1.4095    0.0000 C   0  0  0  0  0  0  0  0  0  0  0  0
    0.3808    2.1595    0.0000 C   0  0  0  0  0  0  0  0  0  0  0  0
    0.6413    3.6368    0.0000 C   0  0  0  0  0  0  0  0  0  0  0  0
   -0.4007    4.7158    0.0000 C   0  0  0  0  0  0  0  0  0  0  0  0
    0.3035    6.0402    0.0000 C   0  0  0  0  0  0  0  0  0  0  0  0
    1.7807    5.7797    0.0000 C   0  0  0  0  0  0  0  0  0  0  0  0
    1.9894    4.2943    0.0000 C   0  0  0  0  0  0  0  0  0  0  0  0
   -1.0964    1.8991    0.0000 C   0  0  0  0  0  0  0  0  0  0  0  0
   -1.8464    3.1981    0.0000 O   0  0  0  0  0  0  0  0  0  0  0  0
   -3.3464    3.1981    0.0000 C   0  0  0  0  0  0  0  0  0  0  0  0
   -4.0964    1.8991    0.0000 O   0  0  0  0  0  0  0  0  0  0  0  0
   -4.0964    4.4971    0.0000 O   0  0  0  0  0  0  0  0  0  0  0  0
   -2.0606    0.7500    0.0000 C   0  0  0  0  0  0  0  0  0  0  0  0
   -2.0606   -0.7500    0.0000 C   0  0  0  0  0  0  0  0  0  0  0  0
   -1.0964   -1.8991    0.0000 C   0  0  0  0  0  0  0  0  0  0  0  0
    0.3808   -2.1595    0.0000 C   0  0  0  0  0  0  0  0  0  0  0  0
    1.6798   -1.4095    0.0000 C   0  0  0  0  0  0  0  0  0  0  0  0
  1  2  3  0
  2  3  1  0
  3  4  1  0
  4  5  2  0
  5  6  1  0
  6  7  2  0
  7  8  1  0
  8  9  2  0
  9 10  1  0
  5 11  1  0
 11 12  1  0
 12 13  1  0
 13 14  2  0
 13 15  1  0
 11 16  1  0
 16 17  2  0
 17 18  1  0
 18 19  1  0
 19 20  1  0
 20  3  1  0
 10  6  1  0
M  END
>  <Title>  (397) 
idAANIgen9

$$$$

     RDKit          2D

 21 21  0  0  0  0  0  0  0  0999 V2000
   25.2760   -0.0000    0.0000 C   0  0  0  0  0  0  0  0  0  0  0  0
   23.7760   -0.0000    0.0000 C   0  0  0  0  0  0  0  0  0  0  0  0
   22.2760   -0.0000    0.0000 C   0  0  0  0  0  0  0  0  0  0  0  0
   20.7760   -0.0000    0.0000 C   0  0  0  0  0  0  0  0  0  0  0  0
   19.2760   -0.0000    0.0000 C   0  0  0  0  0  0  0  0  0  0  0  0
   17.7760   -0.0000    0.0000 C   0  0  0  0  0  0  0  0  0  0  0  0
   16.2760   -0.0000    0.0000 C   0  0  0  0  0  0  0  0  0  0  0  0
   14.7760   -0.0000    0.0000 C   0  0  0  0  0  0  0  0  0  0  0  0
   13.2760   -0.0000    0.0000 C   0  0  0  0  0  0  0  0  0  0  0  0
   11.7760   -0.0000    0.0000 C   0  0  0  0  0  0  0  0  0  0  0  0
   10.2760   -0.0000    0.0000 C   0  0  0  0  0  0  0  0  0  0  0  0
    8.7760   -0.0000    0.0000 C   0  0  0  0  0  0  0  0  0  0  0  0
    7.2760   -0.0000    0.0000 C   0  0  0  0  0  0  0  0  0  0  0  0
    5.7760   -0.0000    0.0000 C   0  0  0  0  0  0  0  0  0  0  0  0
    4.2760   -0.0000    0.0000 C   0  0  0  0  0  0  0  0  0  0  0  0
    2.7760    0.0000    0.0000 C   0  0  0  0  0  0  0  0  0  0  0  0
    1.2760    0.0000    0.0000 C   0  0  0  0  0  0  0  0  0  0  0  0
    0.3943    1.2135    0.0000 C   0  0  0  0  0  0  0  0  0  0  0  0
   -1.0323    0.7500    0.0000 C   0  0  0  0  0  0  0  0  0  0  0  0
   -1.0323   -0.7500    0.0000 C   0  0  0  0  0  0  0  0  0  0  0  0
    0.3943   -1.2135    0.0000 C   0  0  0  0  0  0  0  0  0  0  0  0
  1  2  3  0
  2  3  1  0
  3  4  3  0
  4  5  1  0
  5  6  3  0
  6  7  1  0
  7  8  3  0
  8  9  1  0
  9 10  3  0
 10 11  1  0
 11 12  3  0
 12 13  1  0
 13 14  3  0
 14 15  1  0
 15 16  3  0
 16 17  1  0
 17 18  2  0
 18 19  1  0
 19 20  2  0
 20 21  1  0
 21 17  1  0
M  END
>  <Title>  (398) 
idAANJgen9

$$$$

     RDKit          2D

  7  7  0  0  0  0  0  0  0  0999 V2000
    3.5260   -1.2990    0.0000 C   0  0  0  0  0  0  0  0  0  0  0  0
    2.7760    0.0000    0.0000 O   0  0  0  0  0  0  0  0  0  0  0  0
    1.2760    0.0000    0.0000 C   0  0  0  0  0  0  0  0  0  0  0  0
    0.3943    1.2135    0.0000 C   0  0  0  0  0  0  0  0  0  0  0  0
   -1.0323    0.7500    0.0000 C   0  0  0  0  0  0  0  0  0  0  0  0
   -1.0323   -0.7500    0.0000 C   0  0  0  0  0  0  0  0  0  0  0  0
    0.3943   -1.2135    0.0000 C   0  0  0  0  0  0  0  0  0  0  0  0
  1  2  1  0
  2  3  1  0
  3  4  2  0
  4  5  1  0
  5  6  2  0
  6  7  1  0
  7  3  1  0
M  END
>  <Title>  (399) 
idAANKgen9

$$$$

     RDKit          2D

 44 50  0  0  0  0  0  0  0  0999 V2000
    4.3881   -6.6982    0.0000 C   0  0  0  0  0  0  0  0  0  0  0  0
    3.0367   -6.0474    0.0000 C   0  0  0  0  0  0  0  0  0  0  0  0
    3.3705   -4.5850    0.0000 C   0  0  0  0  0  0  0  0  0  0  0  0
    3.0367   -3.1226    0.0000 C   0  0  0  0  0  0  0  0  0  0  0  0
    2.1015   -1.9499    0.0000 C   0  0  0  0  0  0  0  0  0  0  0  0
    3.0367   -0.7771    0.0000 C   0  0  0  0  0  0  0  0  0  0  0  0
    2.4887    0.6192    0.0000 O   0  0  0  0  0  0  0  0  0  0  0  0
    4.5199   -1.0007    0.0000 O   0  0  0  0  0  0  0  0  0  0  0  0
    5.4552    0.1721    0.0000 C   0  0  0  0  0  0  0  0  0  0  0  0
    6.9384   -0.0515    0.0000 N   0  0  0  0  0  0  0  0  0  0  0  0
    7.8736    1.1213    0.0000 N   0  0  0  0  0  0  0  0  0  0  0  0
    7.3256    2.5176    0.0000 N   0  0  0  0  0  0  0  0  0  0  0  0
    5.8424    2.7411    0.0000 N   0  0  0  0  0  0  0  0  0  0  0  0
    4.9072    1.5684    0.0000 N   0  0  0  0  0  0  0  0  0  0  0  0
    0.7500   -1.2990    0.0000 C   0  0  0  0  0  0  0  0  0  0  0  0
    1.5000    0.0000    0.0000 C   0  0  0  0  0  0  0  0  0  0  0  0
    0.7500    1.2990    0.0000 C   0  0  0  0  0  0  0  0  0  0  0  0
   -0.7500    1.2990    0.0000 C   0  0  0  0  0  0  0  0  0  0  0  0
   -1.5000    0.0000    0.0000 C   0  0  0  0  0  0  0  0  0  0  0  0
   -0.7500   -1.2990    0.0000 C   0  0  0  0  0  0  0  0  0  0  0  0
   -2.1015   -1.9499    0.0000 C   0  0  0  0  0  0  0  0  0  0  0  0
   -2.6495   -0.5536    0.0000 C   0  0  0  0  0  0  0  0  0  0  0  0
   -4.1327   -0.3300    0.0000 C   0  0  0  0  0  0  0  0  0  0  0  0
   -5.0679   -1.5027    0.0000 C   0  0  0  0  0  0  0  0  0  0  0  0
   -4.5199   -2.8990    0.0000 C   0  0  0  0  0  0  0  0  0  0  0  0
   -3.0367   -3.1226    0.0000 C   0  0  0  0  0  0  0  0  0  0  0  0
   -3.3705   -4.5850    0.0000 C   0  0  0  0  0  0  0  0  0  0  0  0
   -4.8038   -4.1429    0.0000 C   0  0  0  0  0  0  0  0  0  0  0  0
   -5.9034   -5.1631    0.0000 C   0  0  0  0  0  0  0  0  0  0  0  0
   -5.5696   -6.6255    0.0000 C   0  0  0  0  0  0  0  0  0  0  0  0
   -4.1363   -7.0677    0.0000 C   0  0  0  0  0  0  0  0  0  0  0  0
   -3.0367   -6.0474    0.0000 C   0  0  0  0  0  0  0  0  0  0  0  0
   -2.1015   -7.2201    0.0000 C   0  0  0  0  0  0  0  0  0  0  0  0
   -3.3408   -8.0651    0.0000 C   0  0  0  0  0  0  0  0  0  0  0  0
   -3.2287   -9.5609    0.0000 C   0  0  0  0  0  0  0  0  0  0  0  0
   -1.8773  -10.2118    0.0000 C   0  0  0  0  0  0  0  0  0  0  0  0
   -0.6379   -9.3668    0.0000 C   0  0  0  0  0  0  0  0  0  0  0  0
   -0.7500   -7.8710    0.0000 C   0  0  0  0  0  0  0  0  0  0  0  0
    0.7500   -7.8710    0.0000 C   0  0  0  0  0  0  0  0  0  0  0  0
    0.6379   -9.3668    0.0000 C   0  0  0  0  0  0  0  0  0  0  0  0
    1.8773  -10.2118    0.0000 C   0  0  0  0  0  0  0  0  0  0  0  0
    3.2287   -9.5609    0.0000 C   0  0  0  0  0  0  0  0  0  0  0  0
    3.3408   -8.0651    0.0000 C   0  0  0  0  0  0  0  0  0  0  0  0
    2.1015   -7.2201    0.0000 C   0  0  0  0  0  0  0  0  0  0  0  0
  1  2  1  0
  2  3  2  0
  3  4  1  0
  4  5  1  0
  5  6  1  0
  6  7  2  0
  6  8  1  0
  8  9  1  0
  9 10  2  0
 10 11  1  0
 11 12  2  0
 12 13  1  0
 13 14  2  0
  5 15  1  0
 15 16  2  0
 16 17  1  0
 17 18  2  0
 18 19  1  0
 19 20  2  0
 20 21  1  0
 21 22  2  0
 22 23  1  0
 23 24  2  0
 24 25  1  0
 25 26  2  0
 26 27  1  0
 27 28  2  0
 28 29  1  0
 29 30  2  0
 30 31  1  0
 31 32  2  0
 32 33  1  0
 33 34  2  0
 34 35  1  0
 35 36  2  0
 36 37  1  0
 37 38  2  0
 38 39  1  0
 39 40  2  0
 40 41  1  0
 41 42  2  0
 42 43  1  0
 43 44  2  0
 44  2  1  0
 14  9  1  0
 20 15  1  0
 26 21  1  0
 32 27  1  0
 38 33  1  0
 44 39  1  0
M  END
>  <Title>  (400) 
idAANLgen9

$$$$

     RDKit          2D

  8  8  0  0  0  0  0  0  0  0999 V2000
    3.0000    0.0000    0.0000 C   0  0  0  0  0  0  0  0  0  0  0  0
    1.5000    0.0000    0.0000 C   0  0  0  0  0  0  0  0  0  0  0  0
    0.7500   -1.2990    0.0000 C   0  0  0  0  0  0  0  0  0  0  0  0
   -0.7500   -1.2990    0.0000 C   0  0  0  0  0  0  0  0  0  0  0  0
   -1.5000    0.0000    0.0000 C   0  0  0  0  0  0  0  0  0  0  0  0
   -0.7500    1.2990    0.0000 C   0  0  0  0  0  0  0  0  0  0  0  0
    0.7500    1.2990    0.0000 C   0  0  0  0  0  0  0  0  0  0  0  0
    1.5000    2.5981    0.0000 O   0  0  0  0  0  0  0  0  0  0  0  0
  1  2  1  0
  2  3  1  0
  3  4  2  0
  4  5  1  0
  5  6  2  0
  6  7  1  0
  7  8  1  0
  7  2  1  0
M  END
>  <Title>  (401) 
idAANMgen9

$$$$

     RDKit          2D

103103  0  0  0  0  0  0  0  0999 V2000
   25.8546    0.0000    0.0000 C   0  0  0  0  0  0  0  0  0  0  0  0
   24.3546    0.0000    0.0000 C   0  0  0  0  0  0  0  0  0  0  0  0
   24.3084   -1.4993    0.0000 C   0  0  0  0  0  0  0  0  0  0  0  0
   24.1700   -2.9929    0.0000 C   0  0  0  0  0  0  0  0  0  0  0  0
   23.9399   -4.4751    0.0000 C   0  0  0  0  0  0  0  0  0  0  0  0
   23.6190   -5.9404    0.0000 C   0  0  0  0  0  0  0  0  0  0  0  0
   23.2085   -7.3831    0.0000 C   0  0  0  0  0  0  0  0  0  0  0  0
   22.7099   -8.7979    0.0000 C   0  0  0  0  0  0  0  0  0  0  0  0
   22.1253  -10.1792    0.0000 C   0  0  0  0  0  0  0  0  0  0  0  0
   21.4567  -11.5220    0.0000 C   0  0  0  0  0  0  0  0  0  0  0  0
   20.7067  -12.8210    0.0000 C   0  0  0  0  0  0  0  0  0  0  0  0
   19.8781  -14.0714    0.0000 C   0  0  0  0  0  0  0  0  0  0  0  0
   18.9742  -15.2685    0.0000 C   0  0  0  0  0  0  0  0  0  0  0  0
   17.9982  -16.4076    0.0000 C   0  0  0  0  0  0  0  0  0  0  0  0
   16.9540  -17.4844    0.0000 C   0  0  0  0  0  0  0  0  0  0  0  0
   15.8455  -18.4950    0.0000 C   0  0  0  0  0  0  0  0  0  0  0  0
   14.6769  -19.4354    0.0000 C   0  0  0  0  0  0  0  0  0  0  0  0
   13.4526  -20.3020    0.0000 C   0  0  0  0  0  0  0  0  0  0  0  0
   12.1773  -21.0917    0.0000 C   0  0  0  0  0  0  0  0  0  0  0  0
   10.8558  -21.8013    0.0000 C   0  0  0  0  0  0  0  0  0  0  0  0
    9.4931  -22.4282    0.0000 C   0  0  0  0  0  0  0  0  0  0  0  0
    8.0944  -22.9701    0.0000 C   0  0  0  0  0  0  0  0  0  0  0  0
    6.6649  -23.4248    0.0000 C   0  0  0  0  0  0  0  0  0  0  0  0
    5.2102  -23.7907    0.0000 C   0  0  0  0  0  0  0  0  0  0  0  0
    3.7358  -24.0663    0.0000 C   0  0  0  0  0  0  0  0  0  0  0  0
    2.2472  -24.2507    0.0000 C   0  0  0  0  0  0  0  0  0  0  0  0
    0.7500  -24.3430    0.0000 C   0  0  0  0  0  0  0  0  0  0  0  0
   -0.7500  -24.3430    0.0000 C   0  0  0  0  0  0  0  0  0  0  0  0
   -2.2472  -24.2507    0.0000 C   0  0  0  0  0  0  0  0  0  0  0  0
   -3.7358  -24.0663    0.0000 C   0  0  0  0  0  0  0  0  0  0  0  0
   -5.2102  -23.7907    0.0000 C   0  0  0  0  0  0  0  0  0  0  0  0
   -6.6649  -23.4248    0.0000 C   0  0  0  0  0  0  0  0  0  0  0  0
   -8.0944  -22.9701    0.0000 C   0  0  0  0  0  0  0  0  0  0  0  0
   -9.4931  -22.4282    0.0000 C   0  0  0  0  0  0  0  0  0  0  0  0
  -10.8558  -21.8013    0.0000 C   0  0  0  0  0  0  0  0  0  0  0  0
  -12.1773  -21.0917    0.0000 C   0  0  0  0  0  0  0  0  0  0  0  0
  -13.4526  -20.3020    0.0000 C   0  0  0  0  0  0  0  0  0  0  0  0
  -14.6769  -19.4354    0.0000 C   0  0  0  0  0  0  0  0  0  0  0  0
  -15.8455  -18.4950    0.0000 C   0  0  0  0  0  0  0  0  0  0  0  0
  -16.9540  -17.4844    0.0000 C   0  0  0  0  0  0  0  0  0  0  0  0
  -17.9982  -16.4076    0.0000 C   0  0  0  0  0  0  0  0  0  0  0  0
  -18.9742  -15.2685    0.0000 C   0  0  0  0  0  0  0  0  0  0  0  0
  -19.8781  -14.0714    0.0000 C   0  0  0  0  0  0  0  0  0  0  0  0
  -20.7067  -12.8210    0.0000 C   0  0  0  0  0  0  0  0  0  0  0  0
  -21.4567  -11.5220    0.0000 C   0  0  0  0  0  0  0  0  0  0  0  0
  -22.1253  -10.1792    0.0000 C   0  0  0  0  0  0  0  0  0  0  0  0
  -22.7099   -8.7979    0.0000 C   0  0  0  0  0  0  0  0  0  0  0  0
  -23.2085   -7.3831    0.0000 C   0  0  0  0  0  0  0  0  0  0  0  0
  -23.6190   -5.9404    0.0000 C   0  0  0  0  0  0  0  0  0  0  0  0
  -23.9399   -4.4751    0.0000 C   0  0  0  0  0  0  0  0  0  0  0  0
  -24.1700   -2.9929    0.0000 C   0  0  0  0  0  0  0  0  0  0  0  0
  -24.3084   -1.4993    0.0000 C   0  0  0  0  0  0  0  0  0  0  0  0
  -24.3546    0.0000    0.0000 C   0  0  0  0  0  0  0  0  0  0  0  0
  -24.3084    1.4993    0.0000 C   0  0  0  0  0  0  0  0  0  0  0  0
  -24.1700    2.9929    0.0000 C   0  0  0  0  0  0  0  0  0  0  0  0
  -23.9399    4.4751    0.0000 C   0  0  0  0  0  0  0  0  0  0  0  0
  -23.6190    5.9404    0.0000 C   0  0  0  0  0  0  0  0  0  0  0  0
  -23.2085    7.3831    0.0000 C   0  0  0  0  0  0  0  0  0  0  0  0
  -22.7099    8.7979    0.0000 C   0  0  0  0  0  0  0  0  0  0  0  0
  -22.1253   10.1792    0.0000 C   0  0  0  0  0  0  0  0  0  0  0  0
  -21.4567   11.5220    0.0000 C   0  0  0  0  0  0  0  0  0  0  0  0
  -20.7067   12.8210    0.0000 C   0  0  0  0  0  0  0  0  0  0  0  0
  -19.8781   14.0714    0.0000 C   0  0  0  0  0  0  0  0  0  0  0  0
  -18.9742   15.2685    0.0000 C   0  0  0  0  0  0  0  0  0  0  0  0
  -17.9982   16.4076    0.0000 C   0  0  0  0  0  0  0  0  0  0  0  0
  -16.9540   17.4844    0.0000 C   0  0  0  0  0  0  0  0  0  0  0  0
  -15.8455   18.4950    0.0000 C   0  0  0  0  0  0  0  0  0  0  0  0
  -14.6769   19.4354    0.0000 C   0  0  0  0  0  0  0  0  0  0  0  0
  -13.4526   20.3020    0.0000 C   0  0  0  0  0  0  0  0  0  0  0  0
  -12.1773   21.0917    0.0000 C   0  0  0  0  0  0  0  0  0  0  0  0
  -10.8558   21.8013    0.0000 C   0  0  0  0  0  0  0  0  0  0  0  0
   -9.4931   22.4282    0.0000 C   0  0  0  0  0  0  0  0  0  0  0  0
   -8.0944   22.9701    0.0000 C   0  0  0  0  0  0  0  0  0  0  0  0
   -6.6649   23.4248    0.0000 C   0  0  0  0  0  0  0  0  0  0  0  0
   -5.2102   23.7907    0.0000 C   0  0  0  0  0  0  0  0  0  0  0  0
   -3.7358   24.0663    0.0000 C   0  0  0  0  0  0  0  0  0  0  0  0
   -2.2472   24.2507    0.0000 C   0  0  0  0  0  0  0  0  0  0  0  0
   -0.7500   24.3430    0.0000 C   0  0  0  0  0  0  0  0  0  0  0  0
    0.7500   24.3430    0.0000 C   0  0  0  0  0  0  0  0  0  0  0  0
    2.2472   24.2507    0.0000 C   0  0  0  0  0  0  0  0  0  0  0  0
    3.7358   24.0663    0.0000 C   0  0  0  0  0  0  0  0  0  0  0  0
    5.2102   23.7907    0.0000 C   0  0  0  0  0  0  0  0  0  0  0  0
    6.6649   23.4248    0.0000 C   0  0  0  0  0  0  0  0  0  0  0  0
    8.0944   22.9701    0.0000 C   0  0  0  0  0  0  0  0  0  0  0  0
    9.4931   22.4282    0.0000 C   0  0  0  0  0  0  0  0  0  0  0  0
   10.8558   21.8013    0.0000 C   0  0  0  0  0  0  0  0  0  0  0  0
   12.1773   21.0917    0.0000 C   0  0  0  0  0  0  0  0  0  0  0  0
   13.4526   20.3020    0.0000 C   0  0  0  0  0  0  0  0  0  0  0  0
   14.6769   19.4354    0.0000 C   0  0  0  0  0  0  0  0  0  0  0  0
   15.8455   18.4950    0.0000 C   0  0  0  0  0  0  0  0  0  0  0  0
   16.9540   17.4844    0.0000 C   0  0  0  0  0  0  0  0  0  0  0  0
   17.9982   16.4076    0.0000 C   0  0  0  0  0  0  0  0  0  0  0  0
   18.9742   15.2685    0.0000 C   0  0  0  0  0  0  0  0  0  0  0  0
   19.8781   14.0714    0.0000 C   0  0  0  0  0  0  0  0  0  0  0  0
   20.7067   12.8210    0.0000 C   0  0  0  0  0  0  0  0  0  0  0  0
   21.4567   11.5220    0.0000 C   0  0  0  0  0  0  0  0  0  0  0  0
   22.1253   10.1792    0.0000 C   0  0  0  0  0  0  0  0  0  0  0  0
   22.7099    8.7979    0.0000 C   0  0  0  0  0  0  0  0  0  0  0  0
   23.2085    7.3831    0.0000 C   0  0  0  0  0  0  0  0  0  0  0  0
   23.6190    5.9404    0.0000 C   0  0  0  0  0  0  0  0  0  0  0  0
   23.9399    4.4751    0.0000 C   0  0  0  0  0  0  0  0  0  0  0  0
   24.1700    2.9929    0.0000 C   0  0  0  0  0  0  0  0  0  0  0  0
   24.3084    1.4993    0.0000 C   0  0  0  0  0  0  0  0  0  0  0  0
  1  2  1  0
  2  3  1  0
  3  4  1  0
  4  5  1  0
  5  6  1  0
  6  7  1  0
  7  8  1  0
  8  9  1  0
  9 10  1  0
 10 11  1  0
 11 12  1  0
 12 13  1  0
 13 14  1  0
 14 15  1  0
 15 16  1  0
 16 17  1  0
 17 18  1  0
 18 19  1  0
 19 20  1  0
 20 21  1  0
 21 22  1  0
 22 23  1  0
 23 24  1  0
 24 25  1  0
 25 26  1  0
 26 27  1  0
 27 28  1  0
 28 29  1  0
 29 30  1  0
 30 31  1  0
 31 32  1  0
 32 33  1  0
 33 34  1  0
 34 35  1  0
 35 36  1  0
 36 37  1  0
 37 38  1  0
 38 39  1  0
 39 40  1  0
 40 41  1  0
 41 42  1  0
 42 43  1  0
 43 44  1  0
 44 45  1  0
 45 46  1  0
 46 47  1  0
 47 48  1  0
 48 49  1  0
 49 50  1  0
 50 51  1  0
 51 52  1  0
 52 53  1  0
 53 54  1  0
 54 55  1  0
 55 56  1  0
 56 57  1  0
 57 58  1  0
 58 59  1  0
 59 60  1  0
 60 61  1  0
 61 62  1  0
 62 63  1  0
 63 64  1  0
 64 65  1  0
 65 66  1  0
 66 67  1  0
 67 68  1  0
 68 69  1  0
 69 70  1  0
 70 71  1  0
 71 72  1  0
 72 73  1  0
 73 74  1  0
 74 75  1  0
 75 76  1  0
 76 77  1  0
 77 78  1  0
 78 79  1  0
 79 80  1  0
 80 81  1  0
 81 82  1  0
 82 83  1  0
 83 84  1  0
 84 85  1  0
 85 86  1  0
 86 87  1  0
 87 88  1  0
 88 89  1  0
 89 90  1  0
 90 91  1  0
 91 92  1  0
 92 93  1  0
 93 94  1  0
 94 95  1  0
 95 96  1  0
 96 97  1  0
 97 98  1  0
 98 99  1  0
 99100  1  0
100101  1  0
101102  1  0
102103  1  0
103  2  1  0
M  END
>  <Title>  (402) 
idAANNgen9

$$$$

     RDKit          2D

117117  0  0  0  0  0  0  0  0999 V2000
   29.1963    0.0000    0.0000 C   0  0  0  0  0  0  0  0  0  0  0  0
   27.6963    0.0000    0.0000 C   0  0  0  0  0  0  0  0  0  0  0  0
   27.6557   -1.4994    0.0000 C   0  0  0  0  0  0  0  0  0  0  0  0
   27.5340   -2.9945    0.0000 C   0  0  0  0  0  0  0  0  0  0  0  0
   27.3315   -4.4808    0.0000 C   0  0  0  0  0  0  0  0  0  0  0  0
   27.0488   -5.9539    0.0000 C   0  0  0  0  0  0  0  0  0  0  0  0
   26.6868   -7.4096    0.0000 C   0  0  0  0  0  0  0  0  0  0  0  0
   26.2465   -8.8435    0.0000 C   0  0  0  0  0  0  0  0  0  0  0  0
   25.7293  -10.2515    0.0000 C   0  0  0  0  0  0  0  0  0  0  0  0
   25.1365  -11.6294    0.0000 C   0  0  0  0  0  0  0  0  0  0  0  0
   24.4701  -12.9732    0.0000 C   0  0  0  0  0  0  0  0  0  0  0  0
   23.7318  -14.2790    0.0000 C   0  0  0  0  0  0  0  0  0  0  0  0
   22.9240  -15.5428    0.0000 C   0  0  0  0  0  0  0  0  0  0  0  0
   22.0489  -16.7611    0.0000 C   0  0  0  0  0  0  0  0  0  0  0  0
   21.1091  -17.9302    0.0000 C   0  0  0  0  0  0  0  0  0  0  0  0
   20.1074  -19.0468    0.0000 C   0  0  0  0  0  0  0  0  0  0  0  0
   19.0468  -20.1074    0.0000 C   0  0  0  0  0  0  0  0  0  0  0  0
   17.9302  -21.1091    0.0000 C   0  0  0  0  0  0  0  0  0  0  0  0
   16.7611  -22.0489    0.0000 C   0  0  0  0  0  0  0  0  0  0  0  0
   15.5428  -22.9240    0.0000 C   0  0  0  0  0  0  0  0  0  0  0  0
   14.2790  -23.7318    0.0000 C   0  0  0  0  0  0  0  0  0  0  0  0
   12.9732  -24.4701    0.0000 C   0  0  0  0  0  0  0  0  0  0  0  0
   11.6294  -25.1365    0.0000 C   0  0  0  0  0  0  0  0  0  0  0  0
   10.2515  -25.7293    0.0000 C   0  0  0  0  0  0  0  0  0  0  0  0
    8.8435  -26.2465    0.0000 C   0  0  0  0  0  0  0  0  0  0  0  0
    7.4096  -26.6868    0.0000 C   0  0  0  0  0  0  0  0  0  0  0  0
    5.9539  -27.0488    0.0000 C   0  0  0  0  0  0  0  0  0  0  0  0
    4.4808  -27.3315    0.0000 C   0  0  0  0  0  0  0  0  0  0  0  0
    2.9945  -27.5340    0.0000 C   0  0  0  0  0  0  0  0  0  0  0  0
    1.4994  -27.6557    0.0000 C   0  0  0  0  0  0  0  0  0  0  0  0
   -0.0000  -27.6963    0.0000 C   0  0  0  0  0  0  0  0  0  0  0  0
   -1.4994  -27.6557    0.0000 C   0  0  0  0  0  0  0  0  0  0  0  0
   -2.9945  -27.5340    0.0000 C   0  0  0  0  0  0  0  0  0  0  0  0
   -4.4808  -27.3315    0.0000 C   0  0  0  0  0  0  0  0  0  0  0  0
   -5.9539  -27.0488    0.0000 C   0  0  0  0  0  0  0  0  0  0  0  0
   -7.4096  -26.6868    0.0000 C   0  0  0  0  0  0  0  0  0  0  0  0
   -8.8435  -26.2465    0.0000 C   0  0  0  0  0  0  0  0  0  0  0  0
  -10.2515  -25.7293    0.0000 C   0  0  0  0  0  0  0  0  0  0  0  0
  -11.6294  -25.1365    0.0000 C   0  0  0  0  0  0  0  0  0  0  0  0
  -12.9732  -24.4701    0.0000 C   0  0  0  0  0  0  0  0  0  0  0  0
  -14.2790  -23.7318    0.0000 C   0  0  0  0  0  0  0  0  0  0  0  0
  -15.5428  -22.9240    0.0000 C   0  0  0  0  0  0  0  0  0  0  0  0
  -16.7611  -22.0489    0.0000 C   0  0  0  0  0  0  0  0  0  0  0  0
  -17.9302  -21.1091    0.0000 C   0  0  0  0  0  0  0  0  0  0  0  0
  -19.0468  -20.1074    0.0000 C   0  0  0  0  0  0  0  0  0  0  0  0
  -20.1074  -19.0468    0.0000 C   0  0  0  0  0  0  0  0  0  0  0  0
  -21.1091  -17.9302    0.0000 C   0  0  0  0  0  0  0  0  0  0  0  0
  -22.0489  -16.7611    0.0000 C   0  0  0  0  0  0  0  0  0  0  0  0
  -22.9240  -15.5428    0.0000 C   0  0  0  0  0  0  0  0  0  0  0  0
  -23.7318  -14.2790    0.0000 C   0  0  0  0  0  0  0  0  0  0  0  0
  -24.4701  -12.9732    0.0000 C   0  0  0  0  0  0  0  0  0  0  0  0
  -25.1365  -11.6294    0.0000 C   0  0  0  0  0  0  0  0  0  0  0  0
  -25.7293  -10.2515    0.0000 C   0  0  0  0  0  0  0  0  0  0  0  0
  -26.2465   -8.8435    0.0000 C   0  0  0  0  0  0  0  0  0  0  0  0
  -26.6868   -7.4096    0.0000 C   0  0  0  0  0  0  0  0  0  0  0  0
  -27.0488   -5.9539    0.0000 C   0  0  0  0  0  0  0  0  0  0  0  0
  -27.3315   -4.4808    0.0000 C   0  0  0  0  0  0  0  0  0  0  0  0
  -27.5340   -2.9945    0.0000 C   0  0  0  0  0  0  0  0  0  0  0  0
  -27.6557   -1.4994    0.0000 C   0  0  0  0  0  0  0  0  0  0  0  0
  -27.6963    0.0000    0.0000 C   0  0  0  0  0  0  0  0  0  0  0  0
  -27.6557    1.4994    0.0000 C   0  0  0  0  0  0  0  0  0  0  0  0
  -27.5340    2.9945    0.0000 C   0  0  0  0  0  0  0  0  0  0  0  0
  -27.3315    4.4808    0.0000 C   0  0  0  0  0  0  0  0  0  0  0  0
  -27.0488    5.9539    0.0000 C   0  0  0  0  0  0  0  0  0  0  0  0
  -26.6868    7.4096    0.0000 C   0  0  0  0  0  0  0  0  0  0  0  0
  -26.2465    8.8435    0.0000 C   0  0  0  0  0  0  0  0  0  0  0  0
  -25.7293   10.2515    0.0000 C   0  0  0  0  0  0  0  0  0  0  0  0
  -25.1365   11.6294    0.0000 C   0  0  0  0  0  0  0  0  0  0  0  0
  -24.4701   12.9732    0.0000 C   0  0  0  0  0  0  0  0  0  0  0  0
  -23.7318   14.2790    0.0000 C   0  0  0  0  0  0  0  0  0  0  0  0
  -22.9240   15.5428    0.0000 C   0  0  0  0  0  0  0  0  0  0  0  0
  -22.0489   16.7611    0.0000 C   0  0  0  0  0  0  0  0  0  0  0  0
  -21.1091   17.9302    0.0000 C   0  0  0  0  0  0  0  0  0  0  0  0
  -20.1074   19.0468    0.0000 C   0  0  0  0  0  0  0  0  0  0  0  0
  -19.0468   20.1074    0.0000 C   0  0  0  0  0  0  0  0  0  0  0  0
  -17.9302   21.1091    0.0000 C   0  0  0  0  0  0  0  0  0  0  0  0
  -16.7611   22.0489    0.0000 C   0  0  0  0  0  0  0  0  0  0  0  0
  -15.5428   22.9240    0.0000 C   0  0  0  0  0  0  0  0  0  0  0  0
  -14.2790   23.7318    0.0000 C   0  0  0  0  0  0  0  0  0  0  0  0
  -12.9732   24.4701    0.0000 C   0  0  0  0  0  0  0  0  0  0  0  0
  -11.6294   25.1365    0.0000 C   0  0  0  0  0  0  0  0  0  0  0  0
  -10.2515   25.7293    0.0000 C   0  0  0  0  0  0  0  0  0  0  0  0
   -8.8435   26.2465    0.0000 C   0  0  0  0  0  0  0  0  0  0  0  0
   -7.4096   26.6868    0.0000 C   0  0  0  0  0  0  0  0  0  0  0  0
   -5.9539   27.0488    0.0000 C   0  0  0  0  0  0  0  0  0  0  0  0
   -4.4808   27.3315    0.0000 C   0  0  0  0  0  0  0  0  0  0  0  0
   -2.9945   27.5340    0.0000 C   0  0  0  0  0  0  0  0  0  0  0  0
   -1.4994   27.6557    0.0000 C   0  0  0  0  0  0  0  0  0  0  0  0
    0.0000   27.6963    0.0000 C   0  0  0  0  0  0  0  0  0  0  0  0
    1.4994   27.6557    0.0000 C   0  0  0  0  0  0  0  0  0  0  0  0
    2.9945   27.5340    0.0000 C   0  0  0  0  0  0  0  0  0  0  0  0
    4.4808   27.3315    0.0000 C   0  0  0  0  0  0  0  0  0  0  0  0
    5.9539   27.0488    0.0000 C   0  0  0  0  0  0  0  0  0  0  0  0
    7.4096   26.6868    0.0000 C   0  0  0  0  0  0  0  0  0  0  0  0
    8.8435   26.2465    0.0000 C   0  0  0  0  0  0  0  0  0  0  0  0
   10.2515   25.7293    0.0000 C   0  0  0  0  0  0  0  0  0  0  0  0
   11.6294   25.1365    0.0000 C   0  0  0  0  0  0  0  0  0  0  0  0
   12.9732   24.4701    0.0000 C   0  0  0  0  0  0  0  0  0  0  0  0
   14.2790   23.7318    0.0000 C   0  0  0  0  0  0  0  0  0  0  0  0
   15.5428   22.9240    0.0000 C   0  0  0  0  0  0  0  0  0  0  0  0
   16.7611   22.0489    0.0000 C   0  0  0  0  0  0  0  0  0  0  0  0
   17.9302   21.1091    0.0000 C   0  0  0  0  0  0  0  0  0  0  0  0
   19.0468   20.1074    0.0000 C   0  0  0  0  0  0  0  0  0  0  0  0
   20.1074   19.0468    0.0000 C   0  0  0  0  0  0  0  0  0  0  0  0
   21.1091   17.9302    0.0000 C   0  0  0  0  0  0  0  0  0  0  0  0
   22.0489   16.7611    0.0000 C   0  0  0  0  0  0  0  0  0  0  0  0
   22.9240   15.5428    0.0000 C   0  0  0  0  0  0  0  0  0  0  0  0
   23.7318   14.2790    0.0000 C   0  0  0  0  0  0  0  0  0  0  0  0
   24.4701   12.9732    0.0000 C   0  0  0  0  0  0  0  0  0  0  0  0
   25.1365   11.6294    0.0000 C   0  0  0  0  0  0  0  0  0  0  0  0
   25.7293   10.2515    0.0000 C   0  0  0  0  0  0  0  0  0  0  0  0
   26.2465    8.8435    0.0000 C   0  0  0  0  0  0  0  0  0  0  0  0
   26.6868    7.4096    0.0000 C   0  0  0  0  0  0  0  0  0  0  0  0
   27.0488    5.9539    0.0000 C   0  0  0  0  0  0  0  0  0  0  0  0
   27.3315    4.4808    0.0000 C   0  0  0  0  0  0  0  0  0  0  0  0
   27.5340    2.9945    0.0000 C   0  0  0  0  0  0  0  0  0  0  0  0
   27.6557    1.4994    0.0000 C   0  0  0  0  0  0  0  0  0  0  0  0
  1  2  1  0
  2  3  1  0
  3  4  2  0
  4  5  1  0
  5  6  1  0
  6  7  1  0
  7  8  1  0
  8  9  1  0
  9 10  1  0
 10 11  1  0
 11 12  1  0
 12 13  1  0
 13 14  1  0
 14 15  1  0
 15 16  1  0
 16 17  1  0
 17 18  1  0
 18 19  1  0
 19 20  1  0
 20 21  1  0
 21 22  1  0
 22 23  1  0
 23 24  1  0
 24 25  1  0
 25 26  1  0
 26 27  1  0
 27 28  1  0
 28 29  1  0
 29 30  1  0
 30 31  1  0
 31 32  1  0
 32 33  1  0
 33 34  1  0
 34 35  1  0
 35 36  1  0
 36 37  1  0
 37 38  1  0
 38 39  1  0
 39 40  1  0
 40 41  1  0
 41 42  1  0
 42 43  1  0
 43 44  1  0
 44 45  1  0
 45 46  1  0
 46 47  1  0
 47 48  1  0
 48 49  1  0
 49 50  1  0
 50 51  1  0
 51 52  1  0
 52 53  1  0
 53 54  1  0
 54 55  1  0
 55 56  1  0
 56 57  1  0
 57 58  1  0
 58 59  1  0
 59 60  1  0
 60 61  1  0
 61 62  1  0
 62 63  1  0
 63 64  1  0
 64 65  1  0
 65 66  1  0
 66 67  1  0
 67 68  1  0
 68 69  1  0
 69 70  1  0
 70 71  1  0
 71 72  1  0
 72 73  1  0
 73 74  1  0
 74 75  1  0
 75 76  1  0
 76 77  1  0
 77 78  1  0
 78 79  1  0
 79 80  1  0
 80 81  1  0
 81 82  1  0
 82 83  1  0
 83 84  1  0
 84 85  1  0
 85 86  1  0
 86 87  1  0
 87 88  1  0
 88 89  1  0
 89 90  1  0
 90 91  1  0
 91 92  1  0
 92 93  1  0
 93 94  1  0
 94 95  1  0
 95 96  1  0
 96 97  1  0
 97 98  1  0
 98 99  1  0
 99100  1  0
100101  1  0
101102  1  0
102103  1  0
103104  1  0
104105  2  0
105106  1  0
106107  2  0
107108  1  0
108109  2  0
109110  1  0
110111  2  0
111112  1  0
112113  2  0
113114  1  0
114115  2  0
115116  1  0
116117  1  0
117  2  1  0
M  END
>  <Title>  (403) 
idAANOgen9

$$$$

     RDKit          2D

 11 11  0  0  0  0  0  0  0  0999 V2000
    3.2286   -2.5981    0.0000 O   0  0  0  0  0  0  0  0  0  0  0  0
    3.9786   -1.2990    0.0000 C   0  0  0  0  0  0  0  0  0  0  0  0
    5.4786   -1.2990    0.0000 O   0  0  0  0  0  0  0  0  0  0  0  0
    3.2286   -0.0000    0.0000 O   0  0  0  0  0  0  0  0  0  0  0  0
    1.7286    0.0000    0.0000 C   0  0  0  0  0  0  0  0  0  0  0  0
    1.0777    1.3515    0.0000 C   0  0  0  0  0  0  0  0  0  0  0  0
   -0.3846    1.6852    0.0000 C   0  0  0  0  0  0  0  0  0  0  0  0
   -1.5574    0.7500    0.0000 C   0  0  0  0  0  0  0  0  0  0  0  0
   -1.5574   -0.7500    0.0000 C   0  0  0  0  0  0  0  0  0  0  0  0
   -0.3846   -1.6852    0.0000 C   0  0  0  0  0  0  0  0  0  0  0  0
    1.0777   -1.3515    0.0000 C   0  0  0  0  0  0  0  0  0  0  0  0
  1  2  2  0
  2  3  1  0
  2  4  1  0
  4  5  1  0
  5  6  1  0
  6  7  2  0
  7  8  1  0
  8  9  1  0
  9 10  1  0
 10 11  1  0
 11  5  1  0
M  END
>  <Title>  (404) 
idAANPgen9

$$$$

     RDKit          2D

  3  2  0  0  0  0  0  0  0  0999 V2000
    0.0000    0.0000    0.0000 C   0  0  0  0  0  0  0  0  0  0  0  0
    1.2990    0.7500    0.0000 C   0  0  0  0  0  0  0  0  0  0  0  0
    2.5981   -0.0000    0.0000 C   0  0  0  0  0  0  0  0  0  0  0  0
  1  2  1  0
  2  3  1  0
M  END
>  <Title>  (405) 
idAANQgen9

$$$$

     RDKit          2D

 37 42  0  0  0  0  0  0  0  0999 V2000
    4.9133   -2.3213    0.0000 O   0  0  0  0  0  0  0  0  0  0  0  0
    5.5013   -3.7013    0.0000 C   0  0  0  0  0  0  0  0  0  0  0  0
    6.9903   -3.8821    0.0000 O   0  0  0  0  0  0  0  0  0  0  0  0
    4.6001   -4.9005    0.0000 O   0  0  0  0  0  0  0  0  0  0  0  0
    3.1111   -4.7197    0.0000 C   0  0  0  0  0  0  0  0  0  0  0  0
    2.9303   -3.2306    0.0000 C   0  0  0  0  0  0  0  0  0  0  0  0
    2.0782   -1.9961    0.0000 C   0  0  0  0  0  0  0  0  0  0  0  0
    0.7500   -1.2990    0.0000 C   0  0  0  0  0  0  0  0  0  0  0  0
    1.5000    0.0000    0.0000 C   0  0  0  0  0  0  0  0  0  0  0  0
    0.7500    1.2990    0.0000 C   0  0  0  0  0  0  0  0  0  0  0  0
   -0.7500    1.2990    0.0000 C   0  0  0  0  0  0  0  0  0  0  0  0
   -1.5000    0.0000    0.0000 C   0  0  0  0  0  0  0  0  0  0  0  0
   -0.7500   -1.2990    0.0000 C   0  0  0  0  0  0  0  0  0  0  0  0
   -2.0782   -1.9961    0.0000 C   0  0  0  0  0  0  0  0  0  0  0  0
   -2.7212   -0.6409    0.0000 C   0  0  0  0  0  0  0  0  0  0  0  0
   -4.2164   -0.5202    0.0000 C   0  0  0  0  0  0  0  0  0  0  0  0
   -5.0685   -1.7547    0.0000 C   0  0  0  0  0  0  0  0  0  0  0  0
   -4.4254   -3.1099    0.0000 C   0  0  0  0  0  0  0  0  0  0  0  0
   -2.9303   -3.2306    0.0000 C   0  0  0  0  0  0  0  0  0  0  0  0
   -3.1111   -4.7197    0.0000 C   0  0  0  0  0  0  0  0  0  0  0  0
   -4.5917   -4.4790    0.0000 C   0  0  0  0  0  0  0  0  0  0  0  0
   -5.5403   -5.6410    0.0000 C   0  0  0  0  0  0  0  0  0  0  0  0
   -5.0084   -7.0435    0.0000 C   0  0  0  0  0  0  0  0  0  0  0  0
   -3.5278   -7.2841    0.0000 C   0  0  0  0  0  0  0  0  0  0  0  0
   -2.5792   -6.1222    0.0000 C   0  0  0  0  0  0  0  0  0  0  0  0
   -1.4564   -7.1169    0.0000 C   0  0  0  0  0  0  0  0  0  0  0  0
   -2.4955   -8.1987    0.0000 C   0  0  0  0  0  0  0  0  0  0  0  0
   -2.0782   -9.6395    0.0000 C   0  0  0  0  0  0  0  0  0  0  0  0
   -0.6218   -9.9984    0.0000 C   0  0  0  0  0  0  0  0  0  0  0  0
    0.4173   -8.9166    0.0000 C   0  0  0  0  0  0  0  0  0  0  0  0
   -0.0000   -7.4758    0.0000 C   0  0  0  0  0  0  0  0  0  0  0  0
    1.4564   -7.1169    0.0000 C   0  0  0  0  0  0  0  0  0  0  0  0
    1.7565   -8.5866    0.0000 C   0  0  0  0  0  0  0  0  0  0  0  0
    3.1793   -9.0616    0.0000 C   0  0  0  0  0  0  0  0  0  0  0  0
    4.3020   -8.0669    0.0000 C   0  0  0  0  0  0  0  0  0  0  0  0
    4.0020   -6.5972    0.0000 C   0  0  0  0  0  0  0  0  0  0  0  0
    2.5792   -6.1222    0.0000 C   0  0  0  0  0  0  0  0  0  0  0  0
  1  2  2  0
  2  3  1  0
  2  4  1  0
  4  5  1  0
  5  6  1  0
  6  7  2  0
  7  8  1  0
  8  9  2  0
  9 10  1  0
 10 11  2  0
 11 12  1  0
 12 13  2  0
 13 14  1  0
 14 15  2  0
 15 16  1  0
 16 17  2  0
 17 18  1  0
 18 19  2  0
 19 20  1  0
 20 21  2  0
 21 22  1  0
 22 23  2  0
 23 24  1  0
 24 25  2  0
 25 26  1  0
 26 27  2  0
 27 28  1  0
 28 29  2  0
 29 30  1  0
 30 31  2  0
 31 32  1  0
 32 33  2  0
 33 34  1  0
 34 35  2  0
 35 36  1  0
 36 37  2  0
 37  5  1  0
 13  8  1  0
 19 14  1  0
 25 20  1  0
 31 26  1  0
 37 32  1  0
M  END
>  <Title>  (406) 
idAANRgen9

$$$$

     RDKit          2D

 45 50  0  0  0  0  0  0  0  0999 V2000
   -3.7201  -10.5731    0.0000 C   0  0  0  0  0  0  0  0  0  0  0  0
   -2.7988   -9.3894    0.0000 C   0  0  0  0  0  0  0  0  0  0  0  0
   -1.4795  -10.1033    0.0000 C   0  0  0  0  0  0  0  0  0  0  0  0
   -0.0000  -10.3502    0.0000 C   0  0  0  0  0  0  0  0  0  0  0  0
    1.4795  -10.1033    0.0000 C   0  0  0  0  0  0  0  0  0  0  0  0
    2.7988   -9.3894    0.0000 C   0  0  0  0  0  0  0  0  0  0  0  0
    3.8147   -8.2858    0.0000 C   0  0  0  0  0  0  0  0  0  0  0  0
    4.4172   -6.9121    0.0000 C   0  0  0  0  0  0  0  0  0  0  0  0
    4.5411   -5.4173    0.0000 C   0  0  0  0  0  0  0  0  0  0  0  0
    4.1729   -3.9632    0.0000 C   0  0  0  0  0  0  0  0  0  0  0  0
    3.3524   -2.7074    0.0000 C   0  0  0  0  0  0  0  0  0  0  0  0
    2.1687   -1.7861    0.0000 C   0  0  0  0  0  0  0  0  0  0  0  0
    2.8826   -0.4669    0.0000 C   0  0  0  0  0  0  0  0  0  0  0  0
    2.0971    0.8110    0.0000 O   0  0  0  0  0  0  0  0  0  0  0  0
    4.3821   -0.4255    0.0000 N   0  0  0  0  0  0  0  0  0  0  0  0
    5.0960    0.8937    0.0000 C   0  0  0  0  0  0  0  0  0  0  0  0
    6.5954    0.9350    0.0000 N   0  0  0  0  0  0  0  0  0  0  0  0
    7.3094    2.2542    0.0000 N   0  0  0  0  0  0  0  0  0  0  0  0
    6.5238    3.5321    0.0000 N   0  0  0  0  0  0  0  0  0  0  0  0
    5.0244    3.4908    0.0000 N   0  0  0  0  0  0  0  0  0  0  0  0
    4.3105    2.1715    0.0000 N   0  0  0  0  0  0  0  0  0  0  0  0
    0.7500   -1.2990    0.0000 C   0  0  0  0  0  0  0  0  0  0  0  0
    1.5000    0.0000    0.0000 C   0  0  0  0  0  0  0  0  0  0  0  0
    0.7500    1.2990    0.0000 C   0  0  0  0  0  0  0  0  0  0  0  0
   -0.7500    1.2990    0.0000 C   0  0  0  0  0  0  0  0  0  0  0  0
   -1.5000    0.0000    0.0000 C   0  0  0  0  0  0  0  0  0  0  0  0
   -0.7500   -1.2990    0.0000 C   0  0  0  0  0  0  0  0  0  0  0  0
   -2.1687   -1.7861    0.0000 C   0  0  0  0  0  0  0  0  0  0  0  0
   -2.3748   -0.3003    0.0000 C   0  0  0  0  0  0  0  0  0  0  0  0
   -3.7645    0.2642    0.0000 C   0  0  0  0  0  0  0  0  0  0  0  0
   -4.9482   -0.6572    0.0000 C   0  0  0  0  0  0  0  0  0  0  0  0
   -4.7422   -2.1429    0.0000 C   0  0  0  0  0  0  0  0  0  0  0  0
   -3.3524   -2.7074    0.0000 C   0  0  0  0  0  0  0  0  0  0  0  0
   -4.1729   -3.9632    0.0000 C   0  0  0  0  0  0  0  0  0  0  0  0
   -5.2480   -2.9172    0.0000 C   0  0  0  0  0  0  0  0  0  0  0  0
   -6.6914   -3.3254    0.0000 C   0  0  0  0  0  0  0  0  0  0  0  0
   -7.0597   -4.7795    0.0000 C   0  0  0  0  0  0  0  0  0  0  0  0
   -5.9845   -5.8254    0.0000 C   0  0  0  0  0  0  0  0  0  0  0  0
   -4.5411   -5.4173    0.0000 C   0  0  0  0  0  0  0  0  0  0  0  0
   -4.4172   -6.9121    0.0000 C   0  0  0  0  0  0  0  0  0  0  0  0
   -5.9081   -6.7471    0.0000 C   0  0  0  0  0  0  0  0  0  0  0  0
   -6.7965   -7.9558    0.0000 C   0  0  0  0  0  0  0  0  0  0  0  0
   -6.1939   -9.3294    0.0000 C   0  0  0  0  0  0  0  0  0  0  0  0
   -4.7030   -9.4944    0.0000 C   0  0  0  0  0  0  0  0  0  0  0  0
   -3.8147   -8.2858    0.0000 C   0  0  0  0  0  0  0  0  0  0  0  0
  1  2  1  0
  2  3  1  0
  3  4  1  0
  4  5  1  0
  5  6  1  0
  6  7  1  0
  7  8  1  0
  8  9  1  0
  9 10  1  0
 10 11  1  0
 11 12  1  0
 12 13  1  0
 13 14  2  0
 13 15  1  0
 15 16  1  0
 16 17  2  0
 17 18  1  0
 18 19  2  0
 19 20  1  0
 20 21  2  0
 12 22  1  0
 22 23  2  0
 23 24  1  0
 24 25  2  0
 25 26  1  0
 26 27  2  0
 27 28  1  0
 28 29  2  0
 29 30  1  0
 30 31  2  0
 31 32  1  0
 32 33  2  0
 33 34  1  0
 34 35  2  0
 35 36  1  0
 36 37  2  0
 37 38  1  0
 38 39  2  0
 39 40  1  0
 40 41  2  0
 41 42  1  0
 42 43  2  0
 43 44  1  0
 44 45  2  0
 45  2  1  0
 21 16  1  0
 27 22  1  0
 33 28  1  0
 39 34  1  0
 45 40  1  0
M  END
>  <Title>  (407) 
idAANSgen9

$$$$

     RDKit          2D

  9  9  0  0  0  0  0  0  0  0999 V2000
    6.5260   -1.2990    0.0000 C   0  0  0  0  0  0  0  0  0  0  0  0
    5.7760   -0.0000    0.0000 C   0  0  0  0  0  0  0  0  0  0  0  0
    4.2760   -0.0000    0.0000 C   0  0  0  0  0  0  0  0  0  0  0  0
    2.7760    0.0000    0.0000 C   0  0  0  0  0  0  0  0  0  0  0  0
    1.2760    0.0000    0.0000 C   0  0  0  0  0  0  0  0  0  0  0  0
    0.3943    1.2135    0.0000 C   0  0  0  0  0  0  0  0  0  0  0  0
   -1.0323    0.7500    0.0000 C   0  0  0  0  0  0  0  0  0  0  0  0
   -1.0323   -0.7500    0.0000 C   0  0  0  0  0  0  0  0  0  0  0  0
    0.3943   -1.2135    0.0000 C   0  0  0  0  0  0  0  0  0  0  0  0
  1  2  2  0
  2  3  1  0
  3  4  3  0
  4  5  1  0
  5  6  2  0
  6  7  1  0
  7  8  1  0
  8  9  2  0
  9  5  1  0
M  END
>  <Title>  (408) 
idAANTgen9

$$$$

     RDKit          2D

  9  9  0  0  0  0  0  0  0  0999 V2000
    5.2500   -1.2990    0.0000 C   0  0  0  0  0  0  0  0  0  0  0  0
    3.7500   -1.2990    0.0000 C   0  0  0  0  0  0  0  0  0  0  0  0
    3.0000    0.0000    0.0000 C   0  0  0  0  0  0  0  0  0  0  0  0
    1.5000    0.0000    0.0000 C   0  0  0  0  0  0  0  0  0  0  0  0
    0.7500   -1.2990    0.0000 C   0  0  0  0  0  0  0  0  0  0  0  0
   -0.7500   -1.2990    0.0000 C   0  0  0  0  0  0  0  0  0  0  0  0
   -1.5000    0.0000    0.0000 C   0  0  0  0  0  0  0  0  0  0  0  0
   -0.7500    1.2990    0.0000 C   0  0  0  0  0  0  0  0  0  0  0  0
    0.7500    1.2990    0.0000 C   0  0  0  0  0  0  0  0  0  0  0  0
  1  2  1  0
  2  3  1  0
  3  4  1  0
  4  5  2  0
  5  6  1  0
  6  7  2  0
  7  8  1  0
  8  9  2  0
  9  4  1  0
M  END
>  <Title>  (409) 
idAANUgen9

$$$$

     RDKit          2D

 12 12  0  0  0  0  0  0  0  0999 V2000
    9.5260   -1.2990    0.0000 C   0  0  0  0  0  0  0  0  0  0  0  0
    8.7760   -0.0000    0.0000 C   0  0  0  0  0  0  0  0  0  0  0  0
    9.5260    1.2990    0.0000 C   0  0  0  0  0  0  0  0  0  0  0  0
    7.2760   -0.0000    0.0000 C   0  0  0  0  0  0  0  0  0  0  0  0
    5.7760   -0.0000    0.0000 C   0  0  0  0  0  0  0  0  0  0  0  0
    4.2760   -0.0000    0.0000 C   0  0  0  0  0  0  0  0  0  0  0  0
    2.7760    0.0000    0.0000 C   0  0  0  0  0  0  0  0  0  0  0  0
    1.2760    0.0000    0.0000 C   0  0  0  0  0  0  0  0  0  0  0  0
    0.3943    1.2135    0.0000 C   0  0  0  0  0  0  0  0  0  0  0  0
   -1.0323    0.7500    0.0000 C   0  0  0  0  0  0  0  0  0  0  0  0
   -1.0323   -0.7500    0.0000 C   0  0  0  0  0  0  0  0  0  0  0  0
    0.3943   -1.2135    0.0000 C   0  0  0  0  0  0  0  0  0  0  0  0
  1  2  1  0
  2  3  1  0
  2  4  1  0
  4  5  3  0
  5  6  1  0
  6  7  3  0
  7  8  1  0
  8  9  2  0
  9 10  1  0
 10 11  1  0
 11 12  2  0
 12  8  1  0
M  END
>  <Title>  (410) 
idAANVgen9

$$$$

     RDKit          2D

  9  9  0  0  0  0  0  0  0  0999 V2000
    5.7760   -2.5981    0.0000 C   0  0  0  0  0  0  0  0  0  0  0  0
    5.0260   -1.2990    0.0000 C   0  0  0  0  0  0  0  0  0  0  0  0
    3.5260   -1.2990    0.0000 C   0  0  0  0  0  0  0  0  0  0  0  0
    2.7760    0.0000    0.0000 N   0  0  0  0  0  0  0  0  0  0  0  0
    1.2760    0.0000    0.0000 C   0  0  0  0  0  0  0  0  0  0  0  0
    0.3943    1.2135    0.0000 C   0  0  0  0  0  0  0  0  0  0  0  0
   -1.0323    0.7500    0.0000 C   0  0  0  0  0  0  0  0  0  0  0  0
   -1.0323   -0.7500    0.0000 C   0  0  0  0  0  0  0  0  0  0  0  0
    0.3943   -1.2135    0.0000 C   0  0  0  0  0  0  0  0  0  0  0  0
  1  2  2  0
  2  3  1  0
  3  4  1  0
  4  5  1  0
  5  6  2  0
  6  7  1  0
  7  8  2  0
  8  9  1  0
  9  5  1  0
M  END
>  <Title>  (411) 
idAANWgen9

$$$$

     RDKit          2D

 42 42  0  0  0  0  0  0  0  0999 V2000
   11.0591    0.0000    0.0000 C   0  0  0  0  0  0  0  0  0  0  0  0
    9.5591    0.0000    0.0000 C   0  0  0  0  0  0  0  0  0  0  0  0
    9.4414   -1.4954    0.0000 C   0  0  0  0  0  0  0  0  0  0  0  0
    9.0913   -2.9539    0.0000 C   0  0  0  0  0  0  0  0  0  0  0  0
    8.5172   -4.3398    0.0000 C   0  0  0  0  0  0  0  0  0  0  0  0
    7.7335   -5.6187    0.0000 C   0  0  0  0  0  0  0  0  0  0  0  0
    6.7593   -6.7593    0.0000 C   0  0  0  0  0  0  0  0  0  0  0  0
    5.6187   -7.7335    0.0000 C   0  0  0  0  0  0  0  0  0  0  0  0
    4.3398   -8.5172    0.0000 C   0  0  0  0  0  0  0  0  0  0  0  0
    2.9539   -9.0913    0.0000 C   0  0  0  0  0  0  0  0  0  0  0  0
    1.4954   -9.4414    0.0000 C   0  0  0  0  0  0  0  0  0  0  0  0
   -0.0000   -9.5591    0.0000 C   0  0  0  0  0  0  0  0  0  0  0  0
   -1.4954   -9.4414    0.0000 C   0  0  0  0  0  0  0  0  0  0  0  0
   -2.9539   -9.0913    0.0000 C   0  0  0  0  0  0  0  0  0  0  0  0
   -4.3398   -8.5172    0.0000 C   0  0  0  0  0  0  0  0  0  0  0  0
   -5.6187   -7.7335    0.0000 C   0  0  0  0  0  0  0  0  0  0  0  0
   -6.7593   -6.7593    0.0000 C   0  0  0  0  0  0  0  0  0  0  0  0
   -7.7335   -5.6187    0.0000 C   0  0  0  0  0  0  0  0  0  0  0  0
   -8.5172   -4.3398    0.0000 C   0  0  0  0  0  0  0  0  0  0  0  0
   -9.0913   -2.9539    0.0000 C   0  0  0  0  0  0  0  0  0  0  0  0
   -9.4414   -1.4954    0.0000 C   0  0  0  0  0  0  0  0  0  0  0  0
   -9.5591    0.0000    0.0000 C   0  0  0  0  0  0  0  0  0  0  0  0
   -9.4414    1.4954    0.0000 C   0  0  0  0  0  0  0  0  0  0  0  0
   -9.0913    2.9539    0.0000 C   0  0  0  0  0  0  0  0  0  0  0  0
   -8.5172    4.3398    0.0000 C   0  0  0  0  0  0  0  0  0  0  0  0
   -7.7335    5.6187    0.0000 C   0  0  0  0  0  0  0  0  0  0  0  0
   -6.7593    6.7593    0.0000 C   0  0  0  0  0  0  0  0  0  0  0  0
   -5.6187    7.7335    0.0000 C   0  0  0  0  0  0  0  0  0  0  0  0
   -4.3398    8.5172    0.0000 C   0  0  0  0  0  0  0  0  0  0  0  0
   -2.9539    9.0913    0.0000 C   0  0  0  0  0  0  0  0  0  0  0  0
   -1.4954    9.4414    0.0000 C   0  0  0  0  0  0  0  0  0  0  0  0
    0.0000    9.5591    0.0000 C   0  0  0  0  0  0  0  0  0  0  0  0
    1.4954    9.4414    0.0000 C   0  0  0  0  0  0  0  0  0  0  0  0
    2.9539    9.0913    0.0000 C   0  0  0  0  0  0  0  0  0  0  0  0
    4.3398    8.5172    0.0000 C   0  0  0  0  0  0  0  0  0  0  0  0
    5.6187    7.7335    0.0000 C   0  0  0  0  0  0  0  0  0  0  0  0
    6.7593    6.7593    0.0000 C   0  0  0  0  0  0  0  0  0  0  0  0
    7.7335    5.6187    0.0000 C   0  0  0  0  0  0  0  0  0  0  0  0
    8.5172    4.3398    0.0000 C   0  0  0  0  0  0  0  0  0  0  0  0
    9.0913    2.9539    0.0000 C   0  0  0  0  0  0  0  0  0  0  0  0
    9.4414    1.4954    0.0000 C   0  0  0  0  0  0  0  0  0  0  0  0
   10.9230    1.7300    0.0000 C   0  0  0  0  0  0  0  0  0  0  0  0
  1  2  1  0
  2  3  2  0
  3  4  1  0
  4  5  2  0
  5  6  1  0
  6  7  2  0
  7  8  1  0
  8  9  2  0
  9 10  1  0
 10 11  2  0
 11 12  1  0
 12 13  2  0
 13 14  1  0
 14 15  2  0
 15 16  1  0
 16 17  2  0
 17 18  1  0
 18 19  2  0
 19 20  1  0
 20 21  2  0
 21 22  1  0
 22 23  2  0
 23 24  1  0
 24 25  2  0
 25 26  1  0
 26 27  2  0
 27 28  1  0
 28 29  2  0
 29 30  1  0
 30 31  2  0
 31 32  1  0
 32 33  2  0
 33 34  1  0
 34 35  2  0
 35 36  1  0
 36 37  2  0
 37 38  1  0
 38 39  2  0
 39 40  1  0
 40 41  2  0
 41 42  1  0
 41  2  1  0
M  END
>  <Title>  (412) 
idAANXgen9

$$$$

     RDKit          2D

 47 53  0  0  0  0  0  0  0  0999 V2000
    3.7955   -8.2450    0.0000 C   0  0  0  0  0  0  0  0  0  0  0  0
    2.6807   -7.2413    0.0000 C   0  0  0  0  0  0  0  0  0  0  0  0
    3.4307   -5.9422    0.0000 C   0  0  0  0  0  0  0  0  0  0  0  0
    3.5875   -4.4504    0.0000 C   0  0  0  0  0  0  0  0  0  0  0  0
    3.1240   -3.0239    0.0000 C   0  0  0  0  0  0  0  0  0  0  0  0
    4.4231   -2.2739    0.0000 C   0  0  0  0  0  0  0  0  0  0  0  0
    5.7221   -1.5239    0.0000 N   0  0  0  0  0  0  0  0  0  0  0  0
    2.1203   -1.9091    0.0000 C   0  0  0  0  0  0  0  0  0  0  0  0
    3.0020   -0.6956    0.0000 C   0  0  0  0  0  0  0  0  0  0  0  0
    2.3919    0.6747    0.0000 O   0  0  0  0  0  0  0  0  0  0  0  0
    4.4938   -0.8524    0.0000 N   0  0  0  0  0  0  0  0  0  0  0  0
    5.3755    0.3611    0.0000 C   0  0  0  0  0  0  0  0  0  0  0  0
    6.8672    0.2043    0.0000 N   0  0  0  0  0  0  0  0  0  0  0  0
    7.7489    1.4178    0.0000 N   0  0  0  0  0  0  0  0  0  0  0  0
    7.1388    2.7882    0.0000 N   0  0  0  0  0  0  0  0  0  0  0  0
    5.6470    2.9450    0.0000 N   0  0  0  0  0  0  0  0  0  0  0  0
    4.7654    1.7314    0.0000 N   0  0  0  0  0  0  0  0  0  0  0  0
    0.7500   -1.2990    0.0000 C   0  0  0  0  0  0  0  0  0  0  0  0
    1.5000    0.0000    0.0000 C   0  0  0  0  0  0  0  0  0  0  0  0
    0.7500    1.2990    0.0000 C   0  0  0  0  0  0  0  0  0  0  0  0
   -0.7500    1.2990    0.0000 C   0  0  0  0  0  0  0  0  0  0  0  0
   -1.5000    0.0000    0.0000 C   0  0  0  0  0  0  0  0  0  0  0  0
   -0.7500   -1.2990    0.0000 C   0  0  0  0  0  0  0  0  0  0  0  0
   -2.1203   -1.9091    0.0000 C   0  0  0  0  0  0  0  0  0  0  0  0
   -2.5838   -0.4826    0.0000 C   0  0  0  0  0  0  0  0  0  0  0  0
   -4.0511   -0.1707    0.0000 C   0  0  0  0  0  0  0  0  0  0  0  0
   -5.0548   -1.2854    0.0000 C   0  0  0  0  0  0  0  0  0  0  0  0
   -4.5912   -2.7120    0.0000 C   0  0  0  0  0  0  0  0  0  0  0  0
   -3.1240   -3.0239    0.0000 C   0  0  0  0  0  0  0  0  0  0  0  0
   -3.5875   -4.4504    0.0000 C   0  0  0  0  0  0  0  0  0  0  0  0
   -4.9579   -3.8403    0.0000 C   0  0  0  0  0  0  0  0  0  0  0  0
   -6.1714   -4.7220    0.0000 C   0  0  0  0  0  0  0  0  0  0  0  0
   -6.0146   -6.2138    0.0000 C   0  0  0  0  0  0  0  0  0  0  0  0
   -4.6443   -6.8239    0.0000 C   0  0  0  0  0  0  0  0  0  0  0  0
   -3.4307   -5.9422    0.0000 C   0  0  0  0  0  0  0  0  0  0  0  0
   -2.6807   -7.2413    0.0000 C   0  0  0  0  0  0  0  0  0  0  0  0
   -4.0511   -7.8514    0.0000 C   0  0  0  0  0  0  0  0  0  0  0  0
   -4.2079   -9.3432    0.0000 C   0  0  0  0  0  0  0  0  0  0  0  0
   -2.9943  -10.2248    0.0000 C   0  0  0  0  0  0  0  0  0  0  0  0
   -1.6240   -9.6147    0.0000 C   0  0  0  0  0  0  0  0  0  0  0  0
   -1.4672   -8.1229    0.0000 C   0  0  0  0  0  0  0  0  0  0  0  0
   -0.0000   -8.4348    0.0000 C   0  0  0  0  0  0  0  0  0  0  0  0
   -0.4635   -9.8614    0.0000 C   0  0  0  0  0  0  0  0  0  0  0  0
    0.5402  -10.9761    0.0000 C   0  0  0  0  0  0  0  0  0  0  0  0
    2.0074  -10.6642    0.0000 C   0  0  0  0  0  0  0  0  0  0  0  0
    2.4709   -9.2377    0.0000 C   0  0  0  0  0  0  0  0  0  0  0  0
    1.4672   -8.1229    0.0000 C   0  0  0  0  0  0  0  0  0  0  0  0
  1  2  1  0
  2  3  1  0
  3  4  1  0
  4  5  1  0
  5  6  1  0
  6  7  3  0
  5  8  1  0
  8  9  1  0
  9 10  2  0
  9 11  1  0
 11 12  1  0
 12 13  2  0
 13 14  1  0
 14 15  2  0
 15 16  1  0
 16 17  2  0
  8 18  1  0
 18 19  2  0
 19 20  1  0
 20 21  2  0
 21 22  1  0
 22 23  2  0
 23 24  1  0
 24 25  2  0
 25 26  1  0
 26 27  2  0
 27 28  1  0
 28 29  2  0
 29 30  1  0
 30 31  2  0
 31 32  1  0
 32 33  2  0
 33 34  1  0
 34 35  2  0
 35 36  1  0
 36 37  2  0
 37 38  1  0
 38 39  2  0
 39 40  1  0
 40 41  2  0
 41 42  1  0
 42 43  2  0
 43 44  1  0
 44 45  2  0
 45 46  1  0
 46 47  2  0
 47  2  1  0
 17 12  1  0
 23 18  1  0
 29 24  1  0
 35 30  1  0
 41 36  1  0
 47 42  1  0
M  END
>  <Title>  (413) 
idAANYgen9

$$$$

     RDKit          2D

 23 25  0  0  0  0  0  0  0  0999 V2000
    3.0000    0.0000    0.0000 C   0  0  0  0  0  0  0  0  0  0  0  0
    1.5000    0.0000    0.0000 C   0  0  0  0  0  0  0  0  0  0  0  0
    0.7500   -1.2990    0.0000 C   0  0  0  0  0  0  0  0  0  0  0  0
   -0.7500   -1.2990    0.0000 C   0  0  0  0  0  0  0  0  0  0  0  0
   -1.5000    0.0000    0.0000 C   0  0  0  0  0  0  0  0  0  0  0  0
   -0.7500    1.2990    0.0000 C   0  0  0  0  0  0  0  0  0  0  0  0
    0.7500    1.2990    0.0000 C   0  0  0  0  0  0  0  0  0  0  0  0
    1.5000    2.5981    0.0000 C   0  0  0  0  0  0  0  0  0  0  0  0
    3.0000    2.5981    0.0000 O   0  0  0  0  0  0  0  0  0  0  0  0
    0.7500    3.8971    0.0000 N   0  0  0  0  0  0  0  0  0  0  0  0
    1.5000    5.1962    0.0000 C   0  0  0  0  0  0  0  0  0  0  0  0
    3.0000    5.1962    0.0000 N   0  0  0  0  0  0  0  0  0  0  0  0
    3.7500    6.4952    0.0000 N   0  0  0  0  0  0  0  0  0  0  0  0
    3.0000    7.7942    0.0000 C   0  0  0  0  0  0  0  0  0  0  0  0
    3.7500    9.0933    0.0000 C   0  0  0  0  0  0  0  0  0  0  0  0
    5.2500    9.0933    0.0000 C   0  0  0  0  0  0  0  0  0  0  0  0
    6.0000   10.3923    0.0000 C   0  0  0  0  0  0  0  0  0  0  0  0
    5.2500   11.6913    0.0000 C   0  0  0  0  0  0  0  0  0  0  0  0
    3.7500   11.6913    0.0000 C   0  0  0  0  0  0  0  0  0  0  0  0
    3.0000   10.3923    0.0000 C   0  0  0  0  0  0  0  0  0  0  0  0
    1.5000    7.7942    0.0000 C   0  0  0  0  0  0  0  0  0  0  0  0
    0.7500    6.4952    0.0000 C   0  0  0  0  0  0  0  0  0  0  0  0
   -0.7500    6.4952    0.0000 O   0  0  0  0  0  0  0  0  0  0  0  0
  1  2  1  0
  2  3  2  0
  3  4  1  0
  4  5  2  0
  5  6  1  0
  6  7  2  0
  7  8  1  0
  8  9  2  0
  8 10  1  0
 10 11  1  0
 11 12  2  0
 12 13  1  0
 13 14  2  0
 14 15  1  0
 15 16  2  0
 16 17  1  0
 17 18  2  0
 18 19  1  0
 19 20  2  0
 14 21  1  0
 21 22  2  0
 22 23  1  0
  7  2  1  0
 22 11  1  0
 20 15  1  0
M  END
>  <Title>  (414) 
idAANZgen9

$$$$

     RDKit          2D

 23 25  0  0  0  0  0  0  0  0999 V2000
    3.4598   -0.0000    0.0000 C   0  0  0  0  0  0  0  0  0  0  0  0
    1.9598    0.0000    0.0000 C   0  0  0  0  0  0  0  0  0  0  0  0
    1.3858   -1.3858    0.0000 C   0  0  0  0  0  0  0  0  0  0  0  0
   -0.0000   -1.9598    0.0000 C   0  0  0  0  0  0  0  0  0  0  0  0
   -0.0000   -3.4598    0.0000 C   0  0  0  0  0  0  0  0  0  0  0  0
    1.2990   -4.2098    0.0000 O   0  0  0  0  0  0  0  0  0  0  0  0
   -1.2990   -4.2098    0.0000 N   0  0  0  0  0  0  0  0  0  0  0  0
   -1.2990   -5.7098    0.0000 C   0  0  0  0  0  0  0  0  0  0  0  0
   -0.0855   -6.5915    0.0000 N   0  0  0  0  0  0  0  0  0  0  0  0
   -0.5490   -8.0181    0.0000 N   0  0  0  0  0  0  0  0  0  0  0  0
   -2.0490   -8.0181    0.0000 N   0  0  0  0  0  0  0  0  0  0  0  0
   -2.5126   -6.5915    0.0000 N   0  0  0  0  0  0  0  0  0  0  0  0
   -3.9391   -6.1280    0.0000 C   0  0  0  0  0  0  0  0  0  0  0  0
   -4.2510   -4.6608    0.0000 C   0  0  0  0  0  0  0  0  0  0  0  0
   -5.6776   -4.1972    0.0000 C   0  0  0  0  0  0  0  0  0  0  0  0
   -6.7923   -5.2009    0.0000 C   0  0  0  0  0  0  0  0  0  0  0  0
   -6.4805   -6.6682    0.0000 C   0  0  0  0  0  0  0  0  0  0  0  0
   -5.0539   -7.1317    0.0000 C   0  0  0  0  0  0  0  0  0  0  0  0
   -1.3858   -1.3858    0.0000 C   0  0  0  0  0  0  0  0  0  0  0  0
   -1.9598    0.0000    0.0000 C   0  0  0  0  0  0  0  0  0  0  0  0
   -1.3858    1.3858    0.0000 C   0  0  0  0  0  0  0  0  0  0  0  0
    0.0000    1.9598    0.0000 C   0  0  0  0  0  0  0  0  0  0  0  0
    1.3858    1.3858    0.0000 C   0  0  0  0  0  0  0  0  0  0  0  0
  1  2  1  0
  2  3  1  0
  3  4  2  0
  4  5  1  0
  5  6  2  0
  5  7  1  0
  7  8  1  0
  8  9  2  0
  9 10  1  0
 10 11  2  0
 11 12  1  0
 12 13  1  0
 13 14  2  0
 14 15  1  0
 15 16  2  0
 16 17  1  0
 17 18  2  0
  4 19  1  0
 19 20  1  0
 20 21  1  0
 21 22  1  0
 22 23  1  0
 23  2  1  0
 12  8  1  0
 18 13  1  0
M  END
>  <Title>  (415) 
idAAOAgen9

$$$$

     RDKit          2D

 80 80  0  0  0  0  0  0  0  0999 V2000
   19.6488   -2.5981    0.0000 O   0  0  0  0  0  0  0  0  0  0  0  0
   20.3988   -1.2990    0.0000 C   0  0  0  0  0  0  0  0  0  0  0  0
   21.8988   -1.2990    0.0000 O   0  0  0  0  0  0  0  0  0  0  0  0
   19.6488    0.0000    0.0000 O   0  0  0  0  0  0  0  0  0  0  0  0
   18.1488    0.0000    0.0000 C   0  0  0  0  0  0  0  0  0  0  0  0
   18.0868   -1.4987    0.0000 C   0  0  0  0  0  0  0  0  0  0  0  0
   17.9013   -2.9872    0.0000 C   0  0  0  0  0  0  0  0  0  0  0  0
   17.5935   -4.4553    0.0000 C   0  0  0  0  0  0  0  0  0  0  0  0
   17.1655   -5.8929    0.0000 C   0  0  0  0  0  0  0  0  0  0  0  0
   16.6202   -7.2903    0.0000 C   0  0  0  0  0  0  0  0  0  0  0  0
   15.9614   -8.6379    0.0000 C   0  0  0  0  0  0  0  0  0  0  0  0
   15.1936   -9.9265    0.0000 C   0  0  0  0  0  0  0  0  0  0  0  0
   14.3220  -11.1472    0.0000 C   0  0  0  0  0  0  0  0  0  0  0  0
   13.3525  -12.2919    0.0000 C   0  0  0  0  0  0  0  0  0  0  0  0
   12.2919  -13.3525    0.0000 C   0  0  0  0  0  0  0  0  0  0  0  0
   11.1472  -14.3220    0.0000 C   0  0  0  0  0  0  0  0  0  0  0  0
    9.9265  -15.1936    0.0000 C   0  0  0  0  0  0  0  0  0  0  0  0
    8.6379  -15.9614    0.0000 C   0  0  0  0  0  0  0  0  0  0  0  0
    7.2903  -16.6202    0.0000 C   0  0  0  0  0  0  0  0  0  0  0  0
    5.8929  -17.1655    0.0000 C   0  0  0  0  0  0  0  0  0  0  0  0
    4.4553  -17.5935    0.0000 C   0  0  0  0  0  0  0  0  0  0  0  0
    2.9872  -17.9013    0.0000 C   0  0  0  0  0  0  0  0  0  0  0  0
    1.4987  -18.0868    0.0000 C   0  0  0  0  0  0  0  0  0  0  0  0
   -0.0000  -18.1488    0.0000 C   0  0  0  0  0  0  0  0  0  0  0  0
   -1.4987  -18.0868    0.0000 C   0  0  0  0  0  0  0  0  0  0  0  0
   -2.9872  -17.9013    0.0000 C   0  0  0  0  0  0  0  0  0  0  0  0
   -4.4553  -17.5935    0.0000 C   0  0  0  0  0  0  0  0  0  0  0  0
   -5.8929  -17.1655    0.0000 C   0  0  0  0  0  0  0  0  0  0  0  0
   -7.2903  -16.6202    0.0000 C   0  0  0  0  0  0  0  0  0  0  0  0
   -8.6379  -15.9614    0.0000 C   0  0  0  0  0  0  0  0  0  0  0  0
   -9.9265  -15.1936    0.0000 C   0  0  0  0  0  0  0  0  0  0  0  0
  -11.1472  -14.3220    0.0000 C   0  0  0  0  0  0  0  0  0  0  0  0
  -12.2919  -13.3525    0.0000 C   0  0  0  0  0  0  0  0  0  0  0  0
  -13.3525  -12.2919    0.0000 C   0  0  0  0  0  0  0  0  0  0  0  0
  -14.3220  -11.1472    0.0000 C   0  0  0  0  0  0  0  0  0  0  0  0
  -15.1936   -9.9265    0.0000 C   0  0  0  0  0  0  0  0  0  0  0  0
  -15.9614   -8.6379    0.0000 C   0  0  0  0  0  0  0  0  0  0  0  0
  -16.6202   -7.2903    0.0000 C   0  0  0  0  0  0  0  0  0  0  0  0
  -17.1655   -5.8929    0.0000 C   0  0  0  0  0  0  0  0  0  0  0  0
  -17.5935   -4.4553    0.0000 C   0  0  0  0  0  0  0  0  0  0  0  0
  -17.9013   -2.9872    0.0000 C   0  0  0  0  0  0  0  0  0  0  0  0
  -18.0868   -1.4987    0.0000 C   0  0  0  0  0  0  0  0  0  0  0  0
  -18.1488    0.0000    0.0000 C   0  0  0  0  0  0  0  0  0  0  0  0
  -18.0868    1.4987    0.0000 C   0  0  0  0  0  0  0  0  0  0  0  0
  -17.9013    2.9872    0.0000 C   0  0  0  0  0  0  0  0  0  0  0  0
  -17.5935    4.4553    0.0000 C   0  0  0  0  0  0  0  0  0  0  0  0
  -17.1655    5.8929    0.0000 C   0  0  0  0  0  0  0  0  0  0  0  0
  -16.6202    7.2903    0.0000 C   0  0  0  0  0  0  0  0  0  0  0  0
  -15.9614    8.6379    0.0000 C   0  0  0  0  0  0  0  0  0  0  0  0
  -15.1936    9.9265    0.0000 C   0  0  0  0  0  0  0  0  0  0  0  0
  -14.3220   11.1472    0.0000 C   0  0  0  0  0  0  0  0  0  0  0  0
  -13.3525   12.2919    0.0000 C   0  0  0  0  0  0  0  0  0  0  0  0
  -12.2919   13.3525    0.0000 C   0  0  0  0  0  0  0  0  0  0  0  0
  -11.1472   14.3220    0.0000 C   0  0  0  0  0  0  0  0  0  0  0  0
   -9.9265   15.1936    0.0000 C   0  0  0  0  0  0  0  0  0  0  0  0
   -8.6379   15.9614    0.0000 C   0  0  0  0  0  0  0  0  0  0  0  0
   -7.2903   16.6202    0.0000 C   0  0  0  0  0  0  0  0  0  0  0  0
   -5.8929   17.1655    0.0000 C   0  0  0  0  0  0  0  0  0  0  0  0
   -4.4553   17.5935    0.0000 C   0  0  0  0  0  0  0  0  0  0  0  0
   -2.9872   17.9013    0.0000 C   0  0  0  0  0  0  0  0  0  0  0  0
   -1.4987   18.0868    0.0000 C   0  0  0  0  0  0  0  0  0  0  0  0
    0.0000   18.1488    0.0000 C   0  0  0  0  0  0  0  0  0  0  0  0
    1.4987   18.0868    0.0000 C   0  0  0  0  0  0  0  0  0  0  0  0
    2.9872   17.9013    0.0000 C   0  0  0  0  0  0  0  0  0  0  0  0
    4.4553   17.5935    0.0000 C   0  0  0  0  0  0  0  0  0  0  0  0
    5.8929   17.1655    0.0000 C   0  0  0  0  0  0  0  0  0  0  0  0
    7.2903   16.6202    0.0000 C   0  0  0  0  0  0  0  0  0  0  0  0
    8.6379   15.9614    0.0000 C   0  0  0  0  0  0  0  0  0  0  0  0
    9.9265   15.1936    0.0000 C   0  0  0  0  0  0  0  0  0  0  0  0
   11.1472   14.3220    0.0000 C   0  0  0  0  0  0  0  0  0  0  0  0
   12.2919   13.3525    0.0000 C   0  0  0  0  0  0  0  0  0  0  0  0
   13.3525   12.2919    0.0000 C   0  0  0  0  0  0  0  0  0  0  0  0
   14.3220   11.1472    0.0000 C   0  0  0  0  0  0  0  0  0  0  0  0
   15.1936    9.9265    0.0000 C   0  0  0  0  0  0  0  0  0  0  0  0
   15.9614    8.6379    0.0000 C   0  0  0  0  0  0  0  0  0  0  0  0
   16.6202    7.2903    0.0000 C   0  0  0  0  0  0  0  0  0  0  0  0
   17.1655    5.8929    0.0000 C   0  0  0  0  0  0  0  0  0  0  0  0
   17.5935    4.4553    0.0000 C   0  0  0  0  0  0  0  0  0  0  0  0
   17.9013    2.9872    0.0000 C   0  0  0  0  0  0  0  0  0  0  0  0
   18.0868    1.4987    0.0000 C   0  0  0  0  0  0  0  0  0  0  0  0
  1  2  2  0
  2  3  1  0
  2  4  1  0
  4  5  1  0
  5  6  1  0
  6  7  2  0
  7  8  1  0
  8  9  1  0
  9 10  1  0
 10 11  1  0
 11 12  1  0
 12 13  1  0
 13 14  1  0
 14 15  1  0
 15 16  1  0
 16 17  1  0
 17 18  1  0
 18 19  1  0
 19 20  1  0
 20 21  1  0
 21 22  1  0
 22 23  1  0
 23 24  1  0
 24 25  1  0
 25 26  1  0
 26 27  1  0
 27 28  1  0
 28 29  1  0
 29 30  1  0
 30 31  1  0
 31 32  1  0
 32 33  1  0
 33 34  1  0
 34 35  1  0
 35 36  1  0
 36 37  1  0
 37 38  1  0
 38 39  1  0
 39 40  1  0
 40 41  1  0
 41 42  1  0
 42 43  1  0
 43 44  1  0
 44 45  1  0
 45 46  1  0
 46 47  1  0
 47 48  1  0
 48 49  1  0
 49 50  1  0
 50 51  1  0
 51 52  1  0
 52 53  1  0
 53 54  1  0
 54 55  1  0
 55 56  1  0
 56 57  1  0
 57 58  1  0
 58 59  1  0
 59 60  1  0
 60 61  1  0
 61 62  1  0
 62 63  1  0
 63 64  1  0
 64 65  1  0
 65 66  1  0
 66 67  1  0
 67 68  1  0
 68 69  1  0
 69 70  1  0
 70 71  1  0
 71 72  1  0
 72 73  1  0
 73 74  1  0
 74 75  1  0
 75 76  1  0
 76 77  1  0
 77 78  1  0
 78 79  1  0
 79 80  1  0
 80  5  1  0
M  END
>  <Title>  (416) 
idAAOBgen9

$$$$

     RDKit          2D

 16 16  0  0  0  0  0  0  0  0999 V2000
   16.5000    0.0000    0.0000 C   0  0  0  0  0  0  0  0  0  0  0  0
   15.0000    0.0000    0.0000 C   0  0  0  0  0  0  0  0  0  0  0  0
   13.5000    0.0000    0.0000 C   0  0  0  0  0  0  0  0  0  0  0  0
   12.0000    0.0000    0.0000 C   0  0  0  0  0  0  0  0  0  0  0  0
   10.5000    0.0000    0.0000 C   0  0  0  0  0  0  0  0  0  0  0  0
    9.0000    0.0000    0.0000 C   0  0  0  0  0  0  0  0  0  0  0  0
    7.5000    0.0000    0.0000 C   0  0  0  0  0  0  0  0  0  0  0  0
    6.0000    0.0000    0.0000 C   0  0  0  0  0  0  0  0  0  0  0  0
    4.5000    0.0000    0.0000 C   0  0  0  0  0  0  0  0  0  0  0  0
    3.0000    0.0000    0.0000 C   0  0  0  0  0  0  0  0  0  0  0  0
    1.5000    0.0000    0.0000 C   0  0  0  0  0  0  0  0  0  0  0  0
    0.7500   -1.2990    0.0000 C   0  0  0  0  0  0  0  0  0  0  0  0
   -0.7500   -1.2990    0.0000 C   0  0  0  0  0  0  0  0  0  0  0  0
   -1.5000    0.0000    0.0000 C   0  0  0  0  0  0  0  0  0  0  0  0
   -0.7500    1.2990    0.0000 C   0  0  0  0  0  0  0  0  0  0  0  0
    0.7500    1.2990    0.0000 C   0  0  0  0  0  0  0  0  0  0  0  0
  1  2  3  0
  2  3  1  0
  3  4  3  0
  4  5  1  0
  5  6  3  0
  6  7  1  0
  7  8  3  0
  8  9  1  0
  9 10  3  0
 10 11  1  0
 11 12  2  0
 12 13  1  0
 13 14  2  0
 14 15  1  0
 15 16  2  0
 16 11  1  0
M  END
>  <Title>  (417) 
idAAOCgen9

$$$$

     RDKit          2D

 20 22  0  0  0  0  0  0  0  0999 V2000
   10.0355    0.6881    0.0000 C   0  0  0  0  0  0  0  0  0  0  0  0
    8.5683    0.3762    0.0000 C   0  0  0  0  0  0  0  0  0  0  0  0
    7.4536    1.3799    0.0000 C   0  0  0  0  0  0  0  0  0  0  0  0
    6.1545    0.6299    0.0000 C   0  0  0  0  0  0  0  0  0  0  0  0
    6.4664   -0.8373    0.0000 C   0  0  0  0  0  0  0  0  0  0  0  0
    5.4627   -1.9520    0.0000 C   0  0  0  0  0  0  0  0  0  0  0  0
    5.9262   -3.3786    0.0000 O   0  0  0  0  0  0  0  0  0  0  0  0
    3.9955   -1.6402    0.0000 N   0  0  0  0  0  0  0  0  0  0  0  0
    2.9918   -2.7549    0.0000 C   0  0  0  0  0  0  0  0  0  0  0  0
    3.3037   -4.2221    0.0000 N   0  0  0  0  0  0  0  0  0  0  0  0
    2.0046   -4.9721    0.0000 N   0  0  0  0  0  0  0  0  0  0  0  0
    0.8899   -3.9684    0.0000 N   0  0  0  0  0  0  0  0  0  0  0  0
    1.5000   -2.5981    0.0000 N   0  0  0  0  0  0  0  0  0  0  0  0
    0.7500   -1.2990    0.0000 C   0  0  0  0  0  0  0  0  0  0  0  0
    1.5000    0.0000    0.0000 N   0  0  0  0  0  0  0  0  0  0  0  0
    0.7500    1.2990    0.0000 N   0  0  0  0  0  0  0  0  0  0  0  0
   -0.7500    1.2990    0.0000 N   0  0  0  0  0  0  0  0  0  0  0  0
   -1.5000    0.0000    0.0000 N   0  0  0  0  0  0  0  0  0  0  0  0
   -0.7500   -1.2990    0.0000 N   0  0  0  0  0  0  0  0  0  0  0  0
    7.9582   -0.9941    0.0000 C   0  0  0  0  0  0  0  0  0  0  0  0
  1  2  1  0
  2  3  1  0
  3  4  2  0
  4  5  1  0
  5  6  1  0
  6  7  2  0
  6  8  1  0
  8  9  1  0
  9 10  2  0
 10 11  1  0
 11 12  2  0
 12 13  1  0
 13 14  1  0
 14 15  2  0
 15 16  1  0
 16 17  2  0
 17 18  1  0
 18 19  2  0
  5 20  1  0
 20  2  1  0
 13  9  1  0
 19 14  1  0
M  END
>  <Title>  (418) 
idAAODgen9

$$$$

     RDKit          2D

 21 23  0  0  0  0  0  0  0  0999 V2000
   -4.2479   -5.2363    0.0000 C   0  0  0  0  0  0  0  0  0  0  0  0
   -2.7990   -4.8481    0.0000 C   0  0  0  0  0  0  0  0  0  0  0  0
   -2.0490   -6.1471    0.0000 C   0  0  0  0  0  0  0  0  0  0  0  0
   -0.7500   -6.8971    0.0000 C   0  0  0  0  0  0  0  0  0  0  0  0
    0.7500   -6.8971    0.0000 C   0  0  0  0  0  0  0  0  0  0  0  0
    2.0490   -6.1471    0.0000 C   0  0  0  0  0  0  0  0  0  0  0  0
    2.7990   -4.8481    0.0000 C   0  0  0  0  0  0  0  0  0  0  0  0
    2.7990   -3.3481    0.0000 C   0  0  0  0  0  0  0  0  0  0  0  0
    2.0490   -2.0490    0.0000 C   0  0  0  0  0  0  0  0  0  0  0  0
    0.7500   -1.2990    0.0000 C   0  0  0  0  0  0  0  0  0  0  0  0
    1.5000    0.0000    0.0000 C   0  0  0  0  0  0  0  0  0  0  0  0
    0.7500    1.2990    0.0000 C   0  0  0  0  0  0  0  0  0  0  0  0
   -0.7500    1.2990    0.0000 C   0  0  0  0  0  0  0  0  0  0  0  0
   -1.5000    0.0000    0.0000 C   0  0  0  0  0  0  0  0  0  0  0  0
   -0.7500   -1.2990    0.0000 C   0  0  0  0  0  0  0  0  0  0  0  0
   -2.0490   -2.0490    0.0000 C   0  0  0  0  0  0  0  0  0  0  0  0
   -2.7990   -0.7500    0.0000 C   0  0  0  0  0  0  0  0  0  0  0  0
   -4.2990   -0.7500    0.0000 C   0  0  0  0  0  0  0  0  0  0  0  0
   -5.0490   -2.0490    0.0000 C   0  0  0  0  0  0  0  0  0  0  0  0
   -4.2990   -3.3481    0.0000 C   0  0  0  0  0  0  0  0  0  0  0  0
   -2.7990   -3.3481    0.0000 C   0  0  0  0  0  0  0  0  0  0  0  0
  1  2  1  0
  2  3  2  0
  3  4  1  0
  4  5  1  0
  5  6  1  0
  6  7  1  0
  7  8  1  0
  8  9  1  0
  9 10  1  0
 10 11  2  0
 11 12  1  0
 12 13  2  0
 13 14  1  0
 14 15  2  0
 15 16  1  0
 16 17  2  0
 17 18  1  0
 18 19  2  0
 19 20  1  0
 20 21  2  0
 21  2  1  0
 15 10  1  0
 21 16  1  0
M  END
>  <Title>  (419) 
idAAOEgen9

$$$$

     RDKit          2D

 10 10  0  0  0  0  0  0  0  0999 V2000
    5.0260   -1.2990    0.0000 C   0  0  0  0  0  0  0  0  0  0  0  0
    3.5260   -1.2990    0.0000 N   0  0  0  0  0  0  0  0  0  0  0  0
    2.7760   -2.5981    0.0000 C   0  0  0  0  0  0  0  0  0  0  0  0
    2.7760    0.0000    0.0000 C   0  0  0  0  0  0  0  0  0  0  0  0
    3.5260    1.2990    0.0000 O   0  0  0  0  0  0  0  0  0  0  0  0
    1.2760    0.0000    0.0000 C   0  0  0  0  0  0  0  0  0  0  0  0
    0.3943    1.2135    0.0000 C   0  0  0  0  0  0  0  0  0  0  0  0
   -1.0323    0.7500    0.0000 C   0  0  0  0  0  0  0  0  0  0  0  0
   -1.0323   -0.7500    0.0000 C   0  0  0  0  0  0  0  0  0  0  0  0
    0.3943   -1.2135    0.0000 C   0  0  0  0  0  0  0  0  0  0  0  0
  1  2  1  0
  2  3  1  0
  2  4  1  0
  4  5  2  0
  4  6  1  0
  6  7  2  0
  7  8  1  0
  8  9  2  0
  9 10  1  0
 10  6  1  0
M  END
>  <Title>  (420) 
idAAOFgen9

$$$$

     RDKit          2D

  8  8  0  0  0  0  0  0  0  0999 V2000
    2.7938   -3.5702    0.0000 C   0  0  0  0  0  0  0  0  0  0  0  0
    1.7331   -2.5095    0.0000 C   0  0  0  0  0  0  0  0  0  0  0  0
    2.1213   -1.0607    0.0000 C   0  0  0  0  0  0  0  0  0  0  0  0
    1.0607    0.0000    0.0000 C   0  0  0  0  0  0  0  0  0  0  0  0
    2.1213    1.0607    0.0000 C   0  0  0  0  0  0  0  0  0  0  0  0
   -0.0000   -1.0607    0.0000 C   0  0  0  0  0  0  0  0  0  0  0  0
   -1.0607    0.0000    0.0000 C   0  0  0  0  0  0  0  0  0  0  0  0
    0.0000    1.0607    0.0000 C   0  0  0  0  0  0  0  0  0  0  0  0
  1  2  1  0
  2  3  1  0
  3  4  1  0
  4  5  1  0
  4  6  1  0
  6  7  2  0
  7  8  1  0
  8  4  1  0
M  END
>  <Title>  (421) 
idAAOGgen9

$$$$

     RDKit          2D

 50 56  0  0  0  0  0  0  0  0999 V2000
   15.5218   -3.1961    0.0000 C   0  0  0  0  0  0  0  0  0  0  0  0
   14.0300   -3.3529    0.0000 C   0  0  0  0  0  0  0  0  0  0  0  0
   12.5382   -3.5097    0.0000 C   0  0  0  0  0  0  0  0  0  0  0  0
   11.0465   -3.6665    0.0000 C   0  0  0  0  0  0  0  0  0  0  0  0
    9.5547   -3.8233    0.0000 C   0  0  0  0  0  0  0  0  0  0  0  0
    8.0629   -3.9801    0.0000 C   0  0  0  0  0  0  0  0  0  0  0  0
    6.5711   -4.1369    0.0000 C   0  0  0  0  0  0  0  0  0  0  0  0
    5.0793   -4.2937    0.0000 C   0  0  0  0  0  0  0  0  0  0  0  0
    3.5875   -4.4504    0.0000 C   0  0  0  0  0  0  0  0  0  0  0  0
    3.1240   -3.0239    0.0000 C   0  0  0  0  0  0  0  0  0  0  0  0
    2.1203   -1.9091    0.0000 C   0  0  0  0  0  0  0  0  0  0  0  0
    3.0020   -0.6956    0.0000 C   0  0  0  0  0  0  0  0  0  0  0  0
    2.3919    0.6747    0.0000 O   0  0  0  0  0  0  0  0  0  0  0  0
    4.4938   -0.8524    0.0000 O   0  0  0  0  0  0  0  0  0  0  0  0
    0.7500   -1.2990    0.0000 C   0  0  0  0  0  0  0  0  0  0  0  0
    1.5000    0.0000    0.0000 C   0  0  0  0  0  0  0  0  0  0  0  0
    0.7500    1.2990    0.0000 C   0  0  0  0  0  0  0  0  0  0  0  0
   -0.7500    1.2990    0.0000 C   0  0  0  0  0  0  0  0  0  0  0  0
   -1.5000    0.0000    0.0000 C   0  0  0  0  0  0  0  0  0  0  0  0
   -0.7500   -1.2990    0.0000 C   0  0  0  0  0  0  0  0  0  0  0  0
   -2.1203   -1.9091    0.0000 C   0  0  0  0  0  0  0  0  0  0  0  0
   -2.5838   -0.4826    0.0000 C   0  0  0  0  0  0  0  0  0  0  0  0
   -4.0511   -0.1707    0.0000 C   0  0  0  0  0  0  0  0  0  0  0  0
   -5.0548   -1.2854    0.0000 C   0  0  0  0  0  0  0  0  0  0  0  0
   -4.5912   -2.7120    0.0000 C   0  0  0  0  0  0  0  0  0  0  0  0
   -3.1240   -3.0239    0.0000 C   0  0  0  0  0  0  0  0  0  0  0  0
   -3.5875   -4.4504    0.0000 C   0  0  0  0  0  0  0  0  0  0  0  0
   -4.9579   -3.8403    0.0000 C   0  0  0  0  0  0  0  0  0  0  0  0
   -6.1714   -4.7220    0.0000 C   0  0  0  0  0  0  0  0  0  0  0  0
   -6.0146   -6.2138    0.0000 C   0  0  0  0  0  0  0  0  0  0  0  0
   -4.6443   -6.8239    0.0000 C   0  0  0  0  0  0  0  0  0  0  0  0
   -3.4307   -5.9422    0.0000 C   0  0  0  0  0  0  0  0  0  0  0  0
   -2.6807   -7.2413    0.0000 C   0  0  0  0  0  0  0  0  0  0  0  0
   -4.0511   -7.8514    0.0000 C   0  0  0  0  0  0  0  0  0  0  0  0
   -4.2079   -9.3432    0.0000 C   0  0  0  0  0  0  0  0  0  0  0  0
   -2.9943  -10.2248    0.0000 C   0  0  0  0  0  0  0  0  0  0  0  0
   -1.6240   -9.6147    0.0000 C   0  0  0  0  0  0  0  0  0  0  0  0
   -1.4672   -8.1229    0.0000 C   0  0  0  0  0  0  0  0  0  0  0  0
   -0.0000   -8.4348    0.0000 C   0  0  0  0  0  0  0  0  0  0  0  0
   -0.4635   -9.8614    0.0000 C   0  0  0  0  0  0  0  0  0  0  0  0
    0.5402  -10.9761    0.0000 C   0  0  0  0  0  0  0  0  0  0  0  0
    2.0074  -10.6642    0.0000 C   0  0  0  0  0  0  0  0  0  0  0  0
    2.4709   -9.2377    0.0000 C   0  0  0  0  0  0  0  0  0  0  0  0
    1.4672   -8.1229    0.0000 C   0  0  0  0  0  0  0  0  0  0  0  0
    2.6807   -7.2413    0.0000 C   0  0  0  0  0  0  0  0  0  0  0  0
    3.4307   -8.5403    0.0000 C   0  0  0  0  0  0  0  0  0  0  0  0
    4.9307   -8.5403    0.0000 C   0  0  0  0  0  0  0  0  0  0  0  0
    5.6807   -7.2413    0.0000 C   0  0  0  0  0  0  0  0  0  0  0  0
    4.9307   -5.9422    0.0000 C   0  0  0  0  0  0  0  0  0  0  0  0
    3.4307   -5.9422    0.0000 C   0  0  0  0  0  0  0  0  0  0  0  0
  1  2  3  0
  2  3  1  0
  3  4  3  0
  4  5  1  0
  5  6  3  0
  6  7  1  0
  7  8  3  0
  8  9  1  0
  9 10  2  0
 10 11  1  0
 11 12  1  0
 12 13  2  0
 12 14  1  0
 11 15  1  0
 15 16  2  0
 16 17  1  0
 17 18  2  0
 18 19  1  0
 19 20  2  0
 20 21  1  0
 21 22  2  0
 22 23  1  0
 23 24  2  0
 24 25  1  0
 25 26  2  0
 26 27  1  0
 27 28  2  0
 28 29  1  0
 29 30  2  0
 30 31  1  0
 31 32  2  0
 32 33  1  0
 33 34  2  0
 34 35  1  0
 35 36  2  0
 36 37  1  0
 37 38  2  0
 38 39  1  0
 39 40  2  0
 40 41  1  0
 41 42  2  0
 42 43  1  0
 43 44  2  0
 44 45  1  0
 45 46  2  0
 46 47  1  0
 47 48  2  0
 48 49  1  0
 49 50  2  0
 50  9  1  0
 20 15  1  0
 26 21  1  0
 32 27  1  0
 38 33  1  0
 44 39  1  0
 50 45  1  0
M  END
>  <Title>  (422) 
idAAOHgen9

$$$$

     RDKit          2D

 85 85  0  0  0  0  0  0  0  0999 V2000
   21.3195    0.0000    0.0000 C   0  0  0  0  0  0  0  0  0  0  0  0
   19.8195    0.0000    0.0000 C   0  0  0  0  0  0  0  0  0  0  0  0
   19.7628    1.4989    0.0000 C   0  0  0  0  0  0  0  0  0  0  0  0
   19.5928    2.9893    0.0000 C   0  0  0  0  0  0  0  0  0  0  0  0
   19.3106    4.4625    0.0000 C   0  0  0  0  0  0  0  0  0  0  0  0
   18.9178    5.9101    0.0000 C   0  0  0  0  0  0  0  0  0  0  0  0
   18.4167    7.3239    0.0000 C   0  0  0  0  0  0  0  0  0  0  0  0
   17.8100    8.6958    0.0000 C   0  0  0  0  0  0  0  0  0  0  0  0
   17.1014   10.0178    0.0000 C   0  0  0  0  0  0  0  0  0  0  0  0
   16.2947   11.2825    0.0000 C   0  0  0  0  0  0  0  0  0  0  0  0
   15.3948   12.4825    0.0000 C   0  0  0  0  0  0  0  0  0  0  0  0
   14.4067   13.6111    0.0000 C   0  0  0  0  0  0  0  0  0  0  0  0
   13.3360   14.6617    0.0000 C   0  0  0  0  0  0  0  0  0  0  0  0
   12.1890   15.6283    0.0000 C   0  0  0  0  0  0  0  0  0  0  0  0
   10.9721   16.5053    0.0000 C   0  0  0  0  0  0  0  0  0  0  0  0
    9.6924   17.2879    0.0000 C   0  0  0  0  0  0  0  0  0  0  0  0
    8.3572   17.9714    0.0000 C   0  0  0  0  0  0  0  0  0  0  0  0
    6.9741   18.5520    0.0000 C   0  0  0  0  0  0  0  0  0  0  0  0
    5.5511   19.0263    0.0000 C   0  0  0  0  0  0  0  0  0  0  0  0
    4.0962   19.3916    0.0000 C   0  0  0  0  0  0  0  0  0  0  0  0
    2.6180   19.6459    0.0000 C   0  0  0  0  0  0  0  0  0  0  0  0
    1.1247   19.7876    0.0000 C   0  0  0  0  0  0  0  0  0  0  0  0
   -0.3751   19.8160    0.0000 C   0  0  0  0  0  0  0  0  0  0  0  0
   -1.8727   19.7309    0.0000 C   0  0  0  0  0  0  0  0  0  0  0  0
   -3.3595   19.5327    0.0000 C   0  0  0  0  0  0  0  0  0  0  0  0
   -4.8271   19.2227    0.0000 C   0  0  0  0  0  0  0  0  0  0  0  0
   -6.2671   18.8026    0.0000 C   0  0  0  0  0  0  0  0  0  0  0  0
   -7.6712   18.2748    0.0000 C   0  0  0  0  0  0  0  0  0  0  0  0
   -9.0313   17.6423    0.0000 C   0  0  0  0  0  0  0  0  0  0  0  0
  -10.3397   16.9087    0.0000 C   0  0  0  0  0  0  0  0  0  0  0  0
  -11.5888   16.0783    0.0000 C   0  0  0  0  0  0  0  0  0  0  0  0
  -12.7716   15.1558    0.0000 C   0  0  0  0  0  0  0  0  0  0  0  0
  -13.8813   14.1465    0.0000 C   0  0  0  0  0  0  0  0  0  0  0  0
  -14.9114   13.0562    0.0000 C   0  0  0  0  0  0  0  0  0  0  0  0
  -15.8561   11.8910    0.0000 C   0  0  0  0  0  0  0  0  0  0  0  0
  -16.7100   10.6578    0.0000 C   0  0  0  0  0  0  0  0  0  0  0  0
  -17.4682    9.3635    0.0000 C   0  0  0  0  0  0  0  0  0  0  0  0
  -18.1263    8.0156    0.0000 C   0  0  0  0  0  0  0  0  0  0  0  0
  -18.6806    6.6218    0.0000 C   0  0  0  0  0  0  0  0  0  0  0  0
  -19.1279    5.1900    0.0000 C   0  0  0  0  0  0  0  0  0  0  0  0
  -19.4656    3.7285    0.0000 C   0  0  0  0  0  0  0  0  0  0  0  0
  -19.6919    2.2457    0.0000 C   0  0  0  0  0  0  0  0  0  0  0  0
  -19.8053    0.7500    0.0000 C   0  0  0  0  0  0  0  0  0  0  0  0
  -19.8053   -0.7500    0.0000 C   0  0  0  0  0  0  0  0  0  0  0  0
  -19.6919   -2.2457    0.0000 C   0  0  0  0  0  0  0  0  0  0  0  0
  -19.4656   -3.7285    0.0000 C   0  0  0  0  0  0  0  0  0  0  0  0
  -19.1279   -5.1900    0.0000 C   0  0  0  0  0  0  0  0  0  0  0  0
  -18.6806   -6.6218    0.0000 C   0  0  0  0  0  0  0  0  0  0  0  0
  -18.1263   -8.0156    0.0000 C   0  0  0  0  0  0  0  0  0  0  0  0
  -17.4682   -9.3635    0.0000 C   0  0  0  0  0  0  0  0  0  0  0  0
  -16.7100  -10.6578    0.0000 C   0  0  0  0  0  0  0  0  0  0  0  0
  -15.8561  -11.8910    0.0000 C   0  0  0  0  0  0  0  0  0  0  0  0
  -14.9114  -13.0562    0.0000 C   0  0  0  0  0  0  0  0  0  0  0  0
  -13.8813  -14.1465    0.0000 C   0  0  0  0  0  0  0  0  0  0  0  0
  -12.7716  -15.1558    0.0000 C   0  0  0  0  0  0  0  0  0  0  0  0
  -11.5888  -16.0783    0.0000 C   0  0  0  0  0  0  0  0  0  0  0  0
  -10.3397  -16.9087    0.0000 C   0  0  0  0  0  0  0  0  0  0  0  0
   -9.0313  -17.6423    0.0000 C   0  0  0  0  0  0  0  0  0  0  0  0
   -7.6712  -18.2748    0.0000 C   0  0  0  0  0  0  0  0  0  0  0  0
   -6.2671  -18.8026    0.0000 C   0  0  0  0  0  0  0  0  0  0  0  0
   -4.8271  -19.2227    0.0000 C   0  0  0  0  0  0  0  0  0  0  0  0
   -3.3595  -19.5327    0.0000 C   0  0  0  0  0  0  0  0  0  0  0  0
   -1.8727  -19.7309    0.0000 C   0  0  0  0  0  0  0  0  0  0  0  0
   -0.3751  -19.8160    0.0000 C   0  0  0  0  0  0  0  0  0  0  0  0
    1.1247  -19.7876    0.0000 C   0  0  0  0  0  0  0  0  0  0  0  0
    2.6180  -19.6459    0.0000 C   0  0  0  0  0  0  0  0  0  0  0  0
    4.0962  -19.3916    0.0000 C   0  0  0  0  0  0  0  0  0  0  0  0
    5.5511  -19.0263    0.0000 C   0  0  0  0  0  0  0  0  0  0  0  0
    6.9741  -18.5520    0.0000 C   0  0  0  0  0  0  0  0  0  0  0  0
    8.3572  -17.9714    0.0000 C   0  0  0  0  0  0  0  0  0  0  0  0
    9.6924  -17.2879    0.0000 C   0  0  0  0  0  0  0  0  0  0  0  0
   10.9721  -16.5053    0.0000 C   0  0  0  0  0  0  0  0  0  0  0  0
   12.1890  -15.6283    0.0000 C   0  0  0  0  0  0  0  0  0  0  0  0
   13.3360  -14.6617    0.0000 C   0  0  0  0  0  0  0  0  0  0  0  0
   14.4067  -13.6111    0.0000 C   0  0  0  0  0  0  0  0  0  0  0  0
   15.3948  -12.4825    0.0000 C   0  0  0  0  0  0  0  0  0  0  0  0
   16.2947  -11.2825    0.0000 C   0  0  0  0  0  0  0  0  0  0  0  0
   17.1014  -10.0178    0.0000 C   0  0  0  0  0  0  0  0  0  0  0  0
   17.8100   -8.6958    0.0000 C   0  0  0  0  0  0  0  0  0  0  0  0
   18.4167   -7.3239    0.0000 C   0  0  0  0  0  0  0  0  0  0  0  0
   18.9178   -5.9101    0.0000 C   0  0  0  0  0  0  0  0  0  0  0  0
   19.3106   -4.4625    0.0000 C   0  0  0  0  0  0  0  0  0  0  0  0
   19.5928   -2.9893    0.0000 C   0  0  0  0  0  0  0  0  0  0  0  0
   19.7628   -1.4989    0.0000 C   0  0  0  0  0  0  0  0  0  0  0  0
   21.2585   -1.6124    0.0000 C   0  0  0  0  0  0  0  0  0  0  0  0
  1  2  1  0
  2  3  2  0
  3  4  1  0
  4  5  2  0
  5  6  1  0
  6  7  2  0
  7  8  1  0
  8  9  2  0
  9 10  1  0
 10 11  2  0
 11 12  1  0
 12 13  2  0
 13 14  1  0
 14 15  2  0
 15 16  1  0
 16 17  2  0
 17 18  1  0
 18 19  2  0
 19 20  1  0
 20 21  2  0
 21 22  1  0
 22 23  2  0
 23 24  1  0
 24 25  2  0
 25 26  1  0
 26 27  2  0
 27 28  1  0
 28 29  2  0
 29 30  1  0
 30 31  2  0
 31 32  1  0
 32 33  2  0
 33 34  1  0
 34 35  2  0
 35 36  1  0
 36 37  2  0
 37 38  1  0
 38 39  2  0
 39 40  1  0
 40 41  2  0
 41 42  1  0
 42 43  2  0
 43 44  1  0
 44 45  2  0
 45 46  1  0
 46 47  2  0
 47 48  1  0
 48 49  2  0
 49 50  1  0
 50 51  2  0
 51 52  1  0
 52 53  2  0
 53 54  1  0
 54 55  2  0
 55 56  1  0
 56 57  2  0
 57 58  1  0
 58 59  2  0
 59 60  1  0
 60 61  2  0
 61 62  1  0
 62 63  2  0
 63 64  1  0
 64 65  2  0
 65 66  1  0
 66 67  2  0
 67 68  1  0
 68 69  2  0
 69 70  1  0
 70 71  2  0
 71 72  1  0
 72 73  2  0
 73 74  1  0
 74 75  2  0
 75 76  1  0
 76 77  2  0
 77 78  1  0
 78 79  2  0
 79 80  1  0
 80 81  2  0
 81 82  1  0
 82 83  2  0
 83 84  1  0
 84 85  1  0
 84  2  1  0
M  END
>  <Title>  (423) 
idAAOIgen9

$$$$

     RDKit          2D

  7  7  0  0  0  0  0  0  0  0999 V2000
    3.5260   -1.2990    0.0000 C   0  0  0  0  0  0  0  0  0  0  0  0
    2.7760    0.0000    0.0000 C   0  0  0  0  0  0  0  0  0  0  0  0
    1.2760    0.0000    0.0000 C   0  0  0  0  0  0  0  0  0  0  0  0
    0.3943    1.2135    0.0000 C   0  0  0  0  0  0  0  0  0  0  0  0
   -1.0323    0.7500    0.0000 C   0  0  0  0  0  0  0  0  0  0  0  0
   -1.0323   -0.7500    0.0000 C   0  0  0  0  0  0  0  0  0  0  0  0
    0.3943   -1.2135    0.0000 C   0  0  0  0  0  0  0  0  0  0  0  0
  1  2  2  0
  2  3  1  0
  3  4  2  0
  4  5  1  0
  5  6  2  0
  6  7  1  0
  7  3  1  0
M  END
>  <Title>  (424) 
idAAOJgen9

$$$$

     RDKit          2D

 18 18  0  0  0  0  0  0  0  0999 V2000
   19.5000    0.0000    0.0000 C   0  0  0  0  0  0  0  0  0  0  0  0
   18.0000    0.0000    0.0000 C   0  0  0  0  0  0  0  0  0  0  0  0
   16.5000    0.0000    0.0000 C   0  0  0  0  0  0  0  0  0  0  0  0
   15.0000    0.0000    0.0000 C   0  0  0  0  0  0  0  0  0  0  0  0
   13.5000    0.0000    0.0000 C   0  0  0  0  0  0  0  0  0  0  0  0
   12.0000    0.0000    0.0000 C   0  0  0  0  0  0  0  0  0  0  0  0
   10.5000    0.0000    0.0000 C   0  0  0  0  0  0  0  0  0  0  0  0
    9.0000    0.0000    0.0000 C   0  0  0  0  0  0  0  0  0  0  0  0
    7.5000    0.0000    0.0000 C   0  0  0  0  0  0  0  0  0  0  0  0
    6.0000    0.0000    0.0000 C   0  0  0  0  0  0  0  0  0  0  0  0
    4.5000    0.0000    0.0000 C   0  0  0  0  0  0  0  0  0  0  0  0
    3.0000    0.0000    0.0000 C   0  0  0  0  0  0  0  0  0  0  0  0
    1.5000    0.0000    0.0000 C   0  0  0  0  0  0  0  0  0  0  0  0
    0.7500   -1.2990    0.0000 C   0  0  0  0  0  0  0  0  0  0  0  0
   -0.7500   -1.2990    0.0000 C   0  0  0  0  0  0  0  0  0  0  0  0
   -1.5000    0.0000    0.0000 C   0  0  0  0  0  0  0  0  0  0  0  0
   -0.7500    1.2990    0.0000 C   0  0  0  0  0  0  0  0  0  0  0  0
    0.7500    1.2990    0.0000 C   0  0  0  0  0  0  0  0  0  0  0  0
  1  2  3  0
  2  3  1  0
  3  4  3  0
  4  5  1  0
  5  6  3  0
  6  7  1  0
  7  8  3  0
  8  9  1  0
  9 10  3  0
 10 11  1  0
 11 12  3  0
 12 13  1  0
 13 14  2  0
 14 15  1  0
 15 16  2  0
 16 17  1  0
 17 18  1  0
 18 13  1  0
M  END
>  <Title>  (425) 
idAAOKgen9

$$$$

     RDKit          2D

  9  9  0  0  0  0  0  0  0  0999 V2000
    3.2286   -0.0000    0.0000 C   0  0  0  0  0  0  0  0  0  0  0  0
    1.7286    0.0000    0.0000 C   0  0  0  0  0  0  0  0  0  0  0  0
    1.0777    1.3515    0.0000 C   0  0  0  0  0  0  0  0  0  0  0  0
   -0.3846    1.6852    0.0000 C   0  0  0  0  0  0  0  0  0  0  0  0
   -1.5574    0.7500    0.0000 C   0  0  0  0  0  0  0  0  0  0  0  0
   -1.5574   -0.7500    0.0000 C   0  0  0  0  0  0  0  0  0  0  0  0
   -0.3846   -1.6852    0.0000 C   0  0  0  0  0  0  0  0  0  0  0  0
    1.0777   -1.3515    0.0000 C   0  0  0  0  0  0  0  0  0  0  0  0
    2.0130   -2.5242    0.0000 O   0  0  0  0  0  0  0  0  0  0  0  0
  1  2  1  0
  2  3  1  0
  3  4  1  0
  4  5  1  0
  5  6  2  0
  6  7  1  0
  7  8  1  0
  8  9  2  0
  8  2  1  0
M  END
>  <Title>  (426) 
idAAOLgen9

$$$$

     RDKit          2D

 69 79  0  0  0  0  0  0  0  0999 V2000
    6.2168   -5.0497    0.0000 C   0  0  0  0  0  0  0  0  0  0  0  0
    4.7353   -5.2844    0.0000 C   0  0  0  0  0  0  0  0  0  0  0  0
    4.2718   -3.8578    0.0000 C   0  0  0  0  0  0  0  0  0  0  0  0
    3.3901   -2.6442    0.0000 C   0  0  0  0  0  0  0  0  0  0  0  0
    2.1766   -1.7626    0.0000 C   0  0  0  0  0  0  0  0  0  0  0  0
    2.8576   -0.4261    0.0000 C   0  0  0  0  0  0  0  0  0  0  0  0
    2.0406    0.8320    0.0000 O   0  0  0  0  0  0  0  0  0  0  0  0
    4.3555   -0.3475    0.0000 O   0  0  0  0  0  0  0  0  0  0  0  0
    5.0365    0.9890    0.0000 C   0  0  0  0  0  0  0  0  0  0  0  0
    4.3555    2.3255    0.0000 N   0  0  0  0  0  0  0  0  0  0  0  0
    5.4162    3.3861    0.0000 N   0  0  0  0  0  0  0  0  0  0  0  0
    6.7527    2.7051    0.0000 N   0  0  0  0  0  0  0  0  0  0  0  0
    6.5180    1.2236    0.0000 N   0  0  0  0  0  0  0  0  0  0  0  0
    7.5787    0.1630    0.0000 C   0  0  0  0  0  0  0  0  0  0  0  0
    7.1905   -1.2859    0.0000 C   0  0  0  0  0  0  0  0  0  0  0  0
    8.2511   -2.3466    0.0000 C   0  0  0  0  0  0  0  0  0  0  0  0
    9.7000   -1.9584    0.0000 C   0  0  0  0  0  0  0  0  0  0  0  0
   10.0882   -0.5095    0.0000 C   0  0  0  0  0  0  0  0  0  0  0  0
    9.0276    0.5512    0.0000 C   0  0  0  0  0  0  0  0  0  0  0  0
    0.7500   -1.2990    0.0000 C   0  0  0  0  0  0  0  0  0  0  0  0
    1.5000    0.0000    0.0000 C   0  0  0  0  0  0  0  0  0  0  0  0
    0.7500    1.2990    0.0000 C   0  0  0  0  0  0  0  0  0  0  0  0
   -0.7500    1.2990    0.0000 C   0  0  0  0  0  0  0  0  0  0  0  0
   -1.5000    0.0000    0.0000 C   0  0  0  0  0  0  0  0  0  0  0  0
   -0.7500   -1.2990    0.0000 C   0  0  0  0  0  0  0  0  0  0  0  0
   -2.1766   -1.7626    0.0000 C   0  0  0  0  0  0  0  0  0  0  0  0
   -2.3334   -0.2708    0.0000 C   0  0  0  0  0  0  0  0  0  0  0  0
   -3.7037    0.3393    0.0000 C   0  0  0  0  0  0  0  0  0  0  0  0
   -4.9172   -0.5424    0.0000 C   0  0  0  0  0  0  0  0  0  0  0  0
   -6.2875    0.0678    0.0000 C   0  0  0  0  0  0  0  0  0  0  0  0
   -7.6579    0.6779    0.0000 N   0  0  0  0  0  0  0  0  0  0  0  0
   -4.7604   -2.0341    0.0000 C   0  0  0  0  0  0  0  0  0  0  0  0
   -3.3901   -2.6442    0.0000 C   0  0  0  0  0  0  0  0  0  0  0  0
   -4.2718   -3.8578    0.0000 C   0  0  0  0  0  0  0  0  0  0  0  0
   -5.2755   -2.7430    0.0000 C   0  0  0  0  0  0  0  0  0  0  0  0
   -6.7427   -3.0549    0.0000 C   0  0  0  0  0  0  0  0  0  0  0  0
   -7.2062   -4.4815    0.0000 C   0  0  0  0  0  0  0  0  0  0  0  0
   -6.2025   -5.5962    0.0000 C   0  0  0  0  0  0  0  0  0  0  0  0
   -4.7353   -5.2844    0.0000 C   0  0  0  0  0  0  0  0  0  0  0  0
   -4.7353   -6.7844    0.0000 C   0  0  0  0  0  0  0  0  0  0  0  0
   -6.2025   -6.4725    0.0000 C   0  0  0  0  0  0  0  0  0  0  0  0
   -7.2062   -7.5872    0.0000 C   0  0  0  0  0  0  0  0  0  0  0  0
   -6.7427   -9.0138    0.0000 C   0  0  0  0  0  0  0  0  0  0  0  0
   -5.2755   -9.3257    0.0000 C   0  0  0  0  0  0  0  0  0  0  0  0
   -4.2718   -8.2109    0.0000 C   0  0  0  0  0  0  0  0  0  0  0  0
   -3.3901   -9.4245    0.0000 C   0  0  0  0  0  0  0  0  0  0  0  0
   -4.7604  -10.0346    0.0000 C   0  0  0  0  0  0  0  0  0  0  0  0
   -4.9172  -11.5263    0.0000 C   0  0  0  0  0  0  0  0  0  0  0  0
   -3.7037  -12.4080    0.0000 C   0  0  0  0  0  0  0  0  0  0  0  0
   -2.3334  -11.7979    0.0000 C   0  0  0  0  0  0  0  0  0  0  0  0
   -2.1766  -10.3061    0.0000 C   0  0  0  0  0  0  0  0  0  0  0  0
   -0.7500  -10.7697    0.0000 C   0  0  0  0  0  0  0  0  0  0  0  0
   -1.5000  -12.0687    0.0000 C   0  0  0  0  0  0  0  0  0  0  0  0
   -0.7500  -13.3677    0.0000 C   0  0  0  0  0  0  0  0  0  0  0  0
    0.7500  -13.3677    0.0000 C   0  0  0  0  0  0  0  0  0  0  0  0
    1.5000  -12.0687    0.0000 C   0  0  0  0  0  0  0  0  0  0  0  0
    0.7500  -10.7697    0.0000 C   0  0  0  0  0  0  0  0  0  0  0  0
    2.1766  -10.3061    0.0000 C   0  0  0  0  0  0  0  0  0  0  0  0
    2.3334  -11.7979    0.0000 C   0  0  0  0  0  0  0  0  0  0  0  0
    3.7037  -12.4080    0.0000 C   0  0  0  0  0  0  0  0  0  0  0  0
    4.9172  -11.5263    0.0000 C   0  0  0  0  0  0  0  0  0  0  0  0
    4.7604  -10.0346    0.0000 C   0  0  0  0  0  0  0  0  0  0  0  0
    3.3901   -9.4245    0.0000 C   0  0  0  0  0  0  0  0  0  0  0  0
    4.2718   -8.2109    0.0000 C   0  0  0  0  0  0  0  0  0  0  0  0
    5.2755   -9.3257    0.0000 C   0  0  0  0  0  0  0  0  0  0  0  0
    6.7427   -9.0138    0.0000 C   0  0  0  0  0  0  0  0  0  0  0  0
    7.2062   -7.5872    0.0000 C   0  0  0  0  0  0  0  0  0  0  0  0
    6.2025   -6.4725    0.0000 C   0  0  0  0  0  0  0  0  0  0  0  0
    4.7353   -6.7844    0.0000 C   0  0  0  0  0  0  0  0  0  0  0  0
  1  2  1  0
  2  3  1  0
  3  4  1  0
  4  5  1  0
  5  6  1  0
  6  7  2  0
  6  8  1  0
  8  9  1  0
  9 10  2  0
 10 11  1  0
 11 12  2  0
 12 13  1  0
 13 14  1  0
 14 15  2  0
 15 16  1  0
 16 17  2  0
 17 18  1  0
 18 19  2  0
  5 20  1  0
 20 21  2  0
 21 22  1  0
 22 23  2  0
 23 24  1  0
 24 25  2  0
 25 26  1  0
 26 27  2  0
 27 28  1  0
 28 29  2  0
 29 30  1  0
 30 31  3  0
 29 32  1  0
 32 33  2  0
 33 34  1  0
 34 35  2  0
 35 36  1  0
 36 37  2  0
 37 38  1  0
 38 39  2  0
 39 40  1  0
 40 41  2  0
 41 42  1  0
 42 43  2  0
 43 44  1  0
 44 45  2  0
 45 46  1  0
 46 47  2  0
 47 48  1  0
 48 49  2  0
 49 50  1  0
 50 51  2  0
 51 52  1  0
 52 53  2  0
 53 54  1  0
 54 55  2  0
 55 56  1  0
 56 57  2  0
 57 58  1  0
 58 59  2  0
 59 60  1  0
 60 61  2  0
 61 62  1  0
 62 63  2  0
 63 64  1  0
 64 65  2  0
 65 66  1  0
 66 67  2  0
 67 68  1  0
 68 69  2  0
 69  2  1  0
 13  9  1  0
 19 14  1  0
 25 20  1  0
 33 26  1  0
 39 34  1  0
 45 40  1  0
 51 46  1  0
 57 52  1  0
 63 58  1  0
 69 64  1  0
M  END
>  <Title>  (427) 
idAAOMgen9

$$$$

     RDKit          2D

 11 11  0  0  0  0  0  0  0  0999 V2000
    3.0000    0.0000    0.0000 O   0  0  0  0  0  0  0  0  0  0  0  0
    1.5000    0.0000    0.0000 C   0  0  0  0  0  0  0  0  0  0  0  0
    0.7500   -1.2990    0.0000 C   0  0  0  0  0  0  0  0  0  0  0  0
   -0.7500   -1.2990    0.0000 C   0  0  0  0  0  0  0  0  0  0  0  0
   -1.5000    0.0000    0.0000 C   0  0  0  0  0  0  0  0  0  0  0  0
   -0.7500    1.2990    0.0000 C   0  0  0  0  0  0  0  0  0  0  0  0
   -1.5000    2.5981    0.0000 O   0  0  0  0  0  0  0  0  0  0  0  0
   -0.7500    3.8971    0.0000 C   0  0  0  0  0  0  0  0  0  0  0  0
    0.7500    3.8971    0.0000 O   0  0  0  0  0  0  0  0  0  0  0  0
   -1.5000    5.1962    0.0000 O   0  0  0  0  0  0  0  0  0  0  0  0
    0.7500    1.2990    0.0000 N   0  0  0  0  0  0  0  0  0  0  0  0
  1  2  2  0
  2  3  1  0
  3  4  1  0
  4  5  2  0
  5  6  1  0
  6  7  1  0
  7  8  1  0
  8  9  2  0
  8 10  1  0
  6 11  1  0
 11  2  1  0
M  END
>  <Title>  (428) 
idAAONgen9

$$$$

     RDKit          2D

 29 32  0  0  0  0  0  0  0  0999 V2000
   -3.7860   -5.5823    0.0000 C   0  0  0  0  0  0  0  0  0  0  0  0
   -2.4215   -4.9592    0.0000 C   0  0  0  0  0  0  0  0  0  0  0  0
   -1.4392   -6.0928    0.0000 C   0  0  0  0  0  0  0  0  0  0  0  0
   -0.0000   -6.5154    0.0000 C   0  0  0  0  0  0  0  0  0  0  0  0
    1.4392   -6.0928    0.0000 C   0  0  0  0  0  0  0  0  0  0  0  0
    2.4215   -4.9592    0.0000 C   0  0  0  0  0  0  0  0  0  0  0  0
    2.6350   -3.4744    0.0000 C   0  0  0  0  0  0  0  0  0  0  0  0
    2.0119   -2.1100    0.0000 C   0  0  0  0  0  0  0  0  0  0  0  0
    3.1455   -1.1277    0.0000 C   0  0  0  0  0  0  0  0  0  0  0  0
    2.8616    0.3452    0.0000 O   0  0  0  0  0  0  0  0  0  0  0  0
    4.5630   -1.6183    0.0000 N   0  0  0  0  0  0  0  0  0  0  0  0
    5.6966   -0.6360    0.0000 C   0  0  0  0  0  0  0  0  0  0  0  0
    7.1141   -1.1266    0.0000 N   0  0  0  0  0  0  0  0  0  0  0  0
    8.2478   -0.1443    0.0000 N   0  0  0  0  0  0  0  0  0  0  0  0
    7.9639    1.3286    0.0000 N   0  0  0  0  0  0  0  0  0  0  0  0
    6.5464    1.8192    0.0000 N   0  0  0  0  0  0  0  0  0  0  0  0
    5.4128    0.8369    0.0000 N   0  0  0  0  0  0  0  0  0  0  0  0
    0.7500   -1.2990    0.0000 C   0  0  0  0  0  0  0  0  0  0  0  0
    1.5000    0.0000    0.0000 C   0  0  0  0  0  0  0  0  0  0  0  0
    0.7500    1.2990    0.0000 C   0  0  0  0  0  0  0  0  0  0  0  0
   -0.7500    1.2990    0.0000 C   0  0  0  0  0  0  0  0  0  0  0  0
   -1.5000    0.0000    0.0000 C   0  0  0  0  0  0  0  0  0  0  0  0
   -0.7500   -1.2990    0.0000 C   0  0  0  0  0  0  0  0  0  0  0  0
   -2.0119   -2.1100    0.0000 C   0  0  0  0  0  0  0  0  0  0  0  0
   -2.8820   -0.8881    0.0000 C   0  0  0  0  0  0  0  0  0  0  0  0
   -4.3752   -1.0307    0.0000 C   0  0  0  0  0  0  0  0  0  0  0  0
   -4.9983   -2.3952    0.0000 C   0  0  0  0  0  0  0  0  0  0  0  0
   -4.1282   -3.6170    0.0000 C   0  0  0  0  0  0  0  0  0  0  0  0
   -2.6350   -3.4744    0.0000 C   0  0  0  0  0  0  0  0  0  0  0  0
  1  2  1  0
  2  3  2  0
  3  4  1  0
  4  5  1  0
  5  6  1  0
  6  7  1  0
  7  8  1  0
  8  9  1  0
  9 10  2  0
  9 11  1  0
 11 12  1  0
 12 13  2  0
 13 14  1  0
 14 15  2  0
 15 16  1  0
 16 17  2  0
  8 18  1  0
 18 19  2  0
 19 20  1  0
 20 21  2  0
 21 22  1  0
 22 23  2  0
 23 24  1  0
 24 25  2  0
 25 26  1  0
 26 27  2  0
 27 28  1  0
 28 29  2  0
 29  2  1  0
 17 12  1  0
 23 18  1  0
 29 24  1  0
M  END
>  <Title>  (429) 
idAAOOgen9

$$$$

     RDKit          2D

110110  0  0  0  0  0  0  0  0999 V2000
   27.5254    0.0000    0.0000 C   0  0  0  0  0  0  0  0  0  0  0  0
   26.0254    0.0000    0.0000 C   0  0  0  0  0  0  0  0  0  0  0  0
   25.9822    1.4994    0.0000 C   0  0  0  0  0  0  0  0  0  0  0  0
   25.8527    2.9938    0.0000 C   0  0  0  0  0  0  0  0  0  0  0  0
   25.6373    4.4782    0.0000 C   0  0  0  0  0  0  0  0  0  0  0  0
   25.3367    5.9478    0.0000 C   0  0  0  0  0  0  0  0  0  0  0  0
   24.9519    7.3976    0.0000 C   0  0  0  0  0  0  0  0  0  0  0  0
   24.4843    8.8229    0.0000 C   0  0  0  0  0  0  0  0  0  0  0  0
   23.9353   10.2188    0.0000 C   0  0  0  0  0  0  0  0  0  0  0  0
   23.3068   11.5808    0.0000 C   0  0  0  0  0  0  0  0  0  0  0  0
   22.6009   12.9043    0.0000 C   0  0  0  0  0  0  0  0  0  0  0  0
   21.8200   14.1850    0.0000 C   0  0  0  0  0  0  0  0  0  0  0  0
   20.9665   15.4185    0.0000 C   0  0  0  0  0  0  0  0  0  0  0  0
   20.0434   16.6008    0.0000 C   0  0  0  0  0  0  0  0  0  0  0  0
   19.0537   17.7280    0.0000 C   0  0  0  0  0  0  0  0  0  0  0  0
   18.0007   18.7962    0.0000 C   0  0  0  0  0  0  0  0  0  0  0  0
   16.8879   19.8021    0.0000 C   0  0  0  0  0  0  0  0  0  0  0  0
   15.7190   20.7421    0.0000 C   0  0  0  0  0  0  0  0  0  0  0  0
   14.4979   21.6133    0.0000 C   0  0  0  0  0  0  0  0  0  0  0  0
   13.2287   22.4126    0.0000 C   0  0  0  0  0  0  0  0  0  0  0  0
   11.9154   23.1375    0.0000 C   0  0  0  0  0  0  0  0  0  0  0  0
   10.5627   23.7856    0.0000 C   0  0  0  0  0  0  0  0  0  0  0  0
    9.1748   24.3546    0.0000 C   0  0  0  0  0  0  0  0  0  0  0  0
    7.7564   24.8427    0.0000 C   0  0  0  0  0  0  0  0  0  0  0  0
    6.3123   25.2483    0.0000 C   0  0  0  0  0  0  0  0  0  0  0  0
    4.8472   25.5701    0.0000 C   0  0  0  0  0  0  0  0  0  0  0  0
    3.3660   25.8068    0.0000 C   0  0  0  0  0  0  0  0  0  0  0  0
    1.8736   25.9579    0.0000 C   0  0  0  0  0  0  0  0  0  0  0  0
    0.3750   26.0227    0.0000 C   0  0  0  0  0  0  0  0  0  0  0  0
   -1.1248   26.0011    0.0000 C   0  0  0  0  0  0  0  0  0  0  0  0
   -2.6209   25.8931    0.0000 C   0  0  0  0  0  0  0  0  0  0  0  0
   -4.1083   25.6991    0.0000 C   0  0  0  0  0  0  0  0  0  0  0  0
   -5.5821   25.4198    0.0000 C   0  0  0  0  0  0  0  0  0  0  0  0
   -7.0373   25.0559    0.0000 C   0  0  0  0  0  0  0  0  0  0  0  0
   -8.4691   24.6089    0.0000 C   0  0  0  0  0  0  0  0  0  0  0  0
   -9.8728   24.0801    0.0000 C   0  0  0  0  0  0  0  0  0  0  0  0
  -11.2437   23.4713    0.0000 C   0  0  0  0  0  0  0  0  0  0  0  0
  -12.5773   22.7845    0.0000 C   0  0  0  0  0  0  0  0  0  0  0  0
  -13.8690   22.0221    0.0000 C   0  0  0  0  0  0  0  0  0  0  0  0
  -15.1147   21.1865    0.0000 C   0  0  0  0  0  0  0  0  0  0  0  0
  -16.3102   20.2805    0.0000 C   0  0  0  0  0  0  0  0  0  0  0  0
  -17.4515   19.3072    0.0000 C   0  0  0  0  0  0  0  0  0  0  0  0
  -18.5349   18.2697    0.0000 C   0  0  0  0  0  0  0  0  0  0  0  0
  -19.5567   17.1715    0.0000 C   0  0  0  0  0  0  0  0  0  0  0  0
  -20.5135   16.0163    0.0000 C   0  0  0  0  0  0  0  0  0  0  0  0
  -21.4021   14.8079    0.0000 C   0  0  0  0  0  0  0  0  0  0  0  0
  -22.2197   13.5503    0.0000 C   0  0  0  0  0  0  0  0  0  0  0  0
  -22.9634   12.2476    0.0000 C   0  0  0  0  0  0  0  0  0  0  0  0
  -23.6309   10.9043    0.0000 C   0  0  0  0  0  0  0  0  0  0  0  0
  -24.2199    9.5248    0.0000 C   0  0  0  0  0  0  0  0  0  0  0  0
  -24.7284    8.1136    0.0000 C   0  0  0  0  0  0  0  0  0  0  0  0
  -25.1547    6.6755    0.0000 C   0  0  0  0  0  0  0  0  0  0  0  0
  -25.4976    5.2152    0.0000 C   0  0  0  0  0  0  0  0  0  0  0  0
  -25.7557    3.7376    0.0000 C   0  0  0  0  0  0  0  0  0  0  0  0
  -25.9282    2.2475    0.0000 C   0  0  0  0  0  0  0  0  0  0  0  0
  -26.0146    0.7500    0.0000 C   0  0  0  0  0  0  0  0  0  0  0  0
  -26.0146   -0.7500    0.0000 C   0  0  0  0  0  0  0  0  0  0  0  0
  -25.9282   -2.2475    0.0000 C   0  0  0  0  0  0  0  0  0  0  0  0
  -25.7557   -3.7376    0.0000 C   0  0  0  0  0  0  0  0  0  0  0  0
  -25.4976   -5.2152    0.0000 C   0  0  0  0  0  0  0  0  0  0  0  0
  -25.1547   -6.6755    0.0000 C   0  0  0  0  0  0  0  0  0  0  0  0
  -24.7284   -8.1136    0.0000 C   0  0  0  0  0  0  0  0  0  0  0  0
  -24.2199   -9.5248    0.0000 C   0  0  0  0  0  0  0  0  0  0  0  0
  -23.6309  -10.9043    0.0000 C   0  0  0  0  0  0  0  0  0  0  0  0
  -22.9634  -12.2476    0.0000 C   0  0  0  0  0  0  0  0  0  0  0  0
  -22.2197  -13.5503    0.0000 C   0  0  0  0  0  0  0  0  0  0  0  0
  -21.4021  -14.8079    0.0000 C   0  0  0  0  0  0  0  0  0  0  0  0
  -20.5135  -16.0163    0.0000 C   0  0  0  0  0  0  0  0  0  0  0  0
  -19.5567  -17.1715    0.0000 C   0  0  0  0  0  0  0  0  0  0  0  0
  -18.5349  -18.2697    0.0000 C   0  0  0  0  0  0  0  0  0  0  0  0
  -17.4515  -19.3072    0.0000 C   0  0  0  0  0  0  0  0  0  0  0  0
  -16.3102  -20.2805    0.0000 C   0  0  0  0  0  0  0  0  0  0  0  0
  -15.1147  -21.1865    0.0000 C   0  0  0  0  0  0  0  0  0  0  0  0
  -13.8690  -22.0221    0.0000 C   0  0  0  0  0  0  0  0  0  0  0  0
  -12.5773  -22.7845    0.0000 C   0  0  0  0  0  0  0  0  0  0  0  0
  -11.2437  -23.4713    0.0000 C   0  0  0  0  0  0  0  0  0  0  0  0
   -9.8728  -24.0801    0.0000 C   0  0  0  0  0  0  0  0  0  0  0  0
   -8.4691  -24.6089    0.0000 C   0  0  0  0  0  0  0  0  0  0  0  0
   -7.0373  -25.0559    0.0000 C   0  0  0  0  0  0  0  0  0  0  0  0
   -5.5821  -25.4198    0.0000 C   0  0  0  0  0  0  0  0  0  0  0  0
   -4.1083  -25.6991    0.0000 C   0  0  0  0  0  0  0  0  0  0  0  0
   -2.6209  -25.8931    0.0000 C   0  0  0  0  0  0  0  0  0  0  0  0
   -1.1248  -26.0011    0.0000 C   0  0  0  0  0  0  0  0  0  0  0  0
    0.3750  -26.0227    0.0000 C   0  0  0  0  0  0  0  0  0  0  0  0
    1.8736  -25.9579    0.0000 C   0  0  0  0  0  0  0  0  0  0  0  0
    3.3660  -25.8068    0.0000 C   0  0  0  0  0  0  0  0  0  0  0  0
    4.8472  -25.5701    0.0000 C   0  0  0  0  0  0  0  0  0  0  0  0
    6.3123  -25.2483    0.0000 C   0  0  0  0  0  0  0  0  0  0  0  0
    7.7564  -24.8427    0.0000 C   0  0  0  0  0  0  0  0  0  0  0  0
    9.1748  -24.3546    0.0000 C   0  0  0  0  0  0  0  0  0  0  0  0
   10.5627  -23.7856    0.0000 C   0  0  0  0  0  0  0  0  0  0  0  0
   11.9154  -23.1375    0.0000 C   0  0  0  0  0  0  0  0  0  0  0  0
   13.2287  -22.4126    0.0000 C   0  0  0  0  0  0  0  0  0  0  0  0
   14.4979  -21.6133    0.0000 C   0  0  0  0  0  0  0  0  0  0  0  0
   15.7190  -20.7421    0.0000 C   0  0  0  0  0  0  0  0  0  0  0  0
   16.8879  -19.8021    0.0000 C   0  0  0  0  0  0  0  0  0  0  0  0
   18.0007  -18.7962    0.0000 C   0  0  0  0  0  0  0  0  0  0  0  0
   19.0537  -17.7280    0.0000 C   0  0  0  0  0  0  0  0  0  0  0  0
   20.0434  -16.6008    0.0000 C   0  0  0  0  0  0  0  0  0  0  0  0
   20.9665  -15.4185    0.0000 C   0  0  0  0  0  0  0  0  0  0  0  0
   21.8200  -14.1850    0.0000 C   0  0  0  0  0  0  0  0  0  0  0  0
   22.6009  -12.9043    0.0000 C   0  0  0  0  0  0  0  0  0  0  0  0
   23.3068  -11.5808    0.0000 C   0  0  0  0  0  0  0  0  0  0  0  0
   23.9353  -10.2188    0.0000 C   0  0  0  0  0  0  0  0  0  0  0  0
   24.4843   -8.8229    0.0000 C   0  0  0  0  0  0  0  0  0  0  0  0
   24.9519   -7.3976    0.0000 C   0  0  0  0  0  0  0  0  0  0  0  0
   25.3367   -5.9478    0.0000 C   0  0  0  0  0  0  0  0  0  0  0  0
   25.6373   -4.4782    0.0000 C   0  0  0  0  0  0  0  0  0  0  0  0
   25.8527   -2.9938    0.0000 C   0  0  0  0  0  0  0  0  0  0  0  0
   25.9822   -1.4994    0.0000 C   0  0  0  0  0  0  0  0  0  0  0  0
  1  2  1  0
  2  3  1  0
  3  4  1  0
  4  5  1  0
  5  6  1  0
  6  7  1  0
  7  8  1  0
  8  9  1  0
  9 10  1  0
 10 11  1  0
 11 12  1  0
 12 13  1  0
 13 14  1  0
 14 15  1  0
 15 16  1  0
 16 17  1  0
 17 18  1  0
 18 19  1  0
 19 20  1  0
 20 21  1  0
 21 22  1  0
 22 23  1  0
 23 24  1  0
 24 25  1  0
 25 26  1  0
 26 27  1  0
 27 28  1  0
 28 29  1  0
 29 30  1  0
 30 31  1  0
 31 32  1  0
 32 33  1  0
 33 34  1  0
 34 35  1  0
 35 36  1  0
 36 37  1  0
 37 38  1  0
 38 39  1  0
 39 40  1  0
 40 41  1  0
 41 42  1  0
 42 43  1  0
 43 44  1  0
 44 45  1  0
 45 46  1  0
 46 47  1  0
 47 48  1  0
 48 49  1  0
 49 50  1  0
 50 51  1  0
 51 52  1  0
 52 53  1  0
 53 54  1  0
 54 55  1  0
 55 56  1  0
 56 57  1  0
 57 58  1  0
 58 59  1  0
 59 60  1  0
 60 61  1  0
 61 62  1  0
 62 63  1  0
 63 64  1  0
 64 65  1  0
 65 66  1  0
 66 67  1  0
 67 68  1  0
 68 69  1  0
 69 70  1  0
 70 71  1  0
 71 72  1  0
 72 73  1  0
 73 74  1  0
 74 75  1  0
 75 76  1  0
 76 77  1  0
 77 78  1  0
 78 79  1  0
 79 80  1  0
 80 81  1  0
 81 82  1  0
 82 83  1  0
 83 84  1  0
 84 85  1  0
 85 86  1  0
 86 87  1  0
 87 88  1  0
 88 89  1  0
 89 90  1  0
 90 91  1  0
 91 92  1  0
 92 93  1  0
 93 94  1  0
 94 95  1  0
 95 96  1  0
 96 97  1  0
 97 98  1  0
 98 99  1  0
 99100  1  0
100101  1  0
101102  1  0
102103  1  0
103104  1  0
104105  1  0
105106  1  0
106107  1  0
107108  1  0
108109  1  0
109110  1  0
110  2  1  0
M  END
>  <Title>  (430) 
idAAOPgen9

$$$$

     RDKit          2D

 96 98  0  0  0  0  0  0  0  0999 V2000
    3.8947   -7.3490    0.0000 C   0  0  0  0  0  0  0  0  0  0  0  0
    5.3947   -7.3464    0.0000 C   0  0  0  0  0  0  0  0  0  0  0  0
    5.4697   -8.8445    0.0000 C   0  0  0  0  0  0  0  0  0  0  0  0
    5.6890  -10.3284    0.0000 C   0  0  0  0  0  0  0  0  0  0  0  0
    6.0505  -11.7842    0.0000 C   0  0  0  0  0  0  0  0  0  0  0  0
    6.5508  -13.1983    0.0000 C   0  0  0  0  0  0  0  0  0  0  0  0
    7.1853  -14.5575    0.0000 C   0  0  0  0  0  0  0  0  0  0  0  0
    7.9479  -15.8492    0.0000 C   0  0  0  0  0  0  0  0  0  0  0  0
    8.8317  -17.0612    0.0000 C   0  0  0  0  0  0  0  0  0  0  0  0
    9.8283  -18.1822    0.0000 C   0  0  0  0  0  0  0  0  0  0  0  0
   10.9285  -19.2019    0.0000 C   0  0  0  0  0  0  0  0  0  0  0  0
   12.1219  -20.1105    0.0000 C   0  0  0  0  0  0  0  0  0  0  0  0
   13.3975  -20.8998    0.0000 C   0  0  0  0  0  0  0  0  0  0  0  0
   14.7433  -21.5623    0.0000 C   0  0  0  0  0  0  0  0  0  0  0  0
   16.1467  -22.0918    0.0000 C   0  0  0  0  0  0  0  0  0  0  0  0
   17.5947  -22.4833    0.0000 C   0  0  0  0  0  0  0  0  0  0  0  0
   19.0737  -22.7333    0.0000 C   0  0  0  0  0  0  0  0  0  0  0  0
   20.5700  -22.8394    0.0000 C   0  0  0  0  0  0  0  0  0  0  0  0
   22.0695  -22.8005    0.0000 C   0  0  0  0  0  0  0  0  0  0  0  0
   23.5582  -22.6172    0.0000 C   0  0  0  0  0  0  0  0  0  0  0  0
   25.0223  -22.2910    0.0000 C   0  0  0  0  0  0  0  0  0  0  0  0
   26.4481  -21.8250    0.0000 C   0  0  0  0  0  0  0  0  0  0  0  0
   27.8223  -21.2236    0.0000 C   0  0  0  0  0  0  0  0  0  0  0  0
   29.1320  -20.4923    0.0000 C   0  0  0  0  0  0  0  0  0  0  0  0
   30.3650  -19.6381    0.0000 C   0  0  0  0  0  0  0  0  0  0  0  0
   31.5098  -18.6688    0.0000 C   0  0  0  0  0  0  0  0  0  0  0  0
   32.5557  -17.5936    0.0000 C   0  0  0  0  0  0  0  0  0  0  0  0
   33.4929  -16.4225    0.0000 C   0  0  0  0  0  0  0  0  0  0  0  0
   34.3128  -15.1664    0.0000 C   0  0  0  0  0  0  0  0  0  0  0  0
   35.0076  -13.8370    0.0000 C   0  0  0  0  0  0  0  0  0  0  0  0
   35.5708  -12.4468    0.0000 C   0  0  0  0  0  0  0  0  0  0  0  0
   35.9973  -11.0087    0.0000 C   0  0  0  0  0  0  0  0  0  0  0  0
   36.2829   -9.5361    0.0000 C   0  0  0  0  0  0  0  0  0  0  0  0
   36.4251   -8.0429    0.0000 C   0  0  0  0  0  0  0  0  0  0  0  0
   36.4225   -6.5429    0.0000 C   0  0  0  0  0  0  0  0  0  0  0  0
   36.2752   -5.0501    0.0000 C   0  0  0  0  0  0  0  0  0  0  0  0
   35.9844   -3.5786    0.0000 C   0  0  0  0  0  0  0  0  0  0  0  0
   35.5530   -2.1419    0.0000 C   0  0  0  0  0  0  0  0  0  0  0  0
   34.9850   -0.7537    0.0000 C   0  0  0  0  0  0  0  0  0  0  0  0
   34.2856    0.5733    0.0000 C   0  0  0  0  0  0  0  0  0  0  0  0
   33.4614    1.8266    0.0000 C   0  0  0  0  0  0  0  0  0  0  0  0
   32.5201    2.9945    0.0000 C   0  0  0  0  0  0  0  0  0  0  0  0
   31.4705    4.0661    0.0000 C   0  0  0  0  0  0  0  0  0  0  0  0
   30.3224    5.0314    0.0000 C   0  0  0  0  0  0  0  0  0  0  0  0
   29.0864    5.8813    0.0000 C   0  0  0  0  0  0  0  0  0  0  0  0
   27.7742    6.6080    0.0000 C   0  0  0  0  0  0  0  0  0  0  0  0
   26.3980    7.2047    0.0000 C   0  0  0  0  0  0  0  0  0  0  0  0
   24.9706    7.6658    0.0000 C   0  0  0  0  0  0  0  0  0  0  0  0
   23.5054    7.9869    0.0000 C   0  0  0  0  0  0  0  0  0  0  0  0
   22.0160    8.1652    0.0000 C   0  0  0  0  0  0  0  0  0  0  0  0
   20.5164    8.1988    0.0000 C   0  0  0  0  0  0  0  0  0  0  0  0
   19.0205    8.0876    0.0000 C   0  0  0  0  0  0  0  0  0  0  0  0
   17.5424    7.8325    0.0000 C   0  0  0  0  0  0  0  0  0  0  0  0
   16.0958    7.4359    0.0000 C   0  0  0  0  0  0  0  0  0  0  0  0
   14.6941    6.9016    0.0000 C   0  0  0  0  0  0  0  0  0  0  0  0
   13.3507    6.2345    0.0000 C   0  0  0  0  0  0  0  0  0  0  0  0
   12.0778    5.4408    0.0000 C   0  0  0  0  0  0  0  0  0  0  0  0
   10.8875    4.5280    0.0000 C   0  0  0  0  0  0  0  0  0  0  0  0
    9.7909    3.5046    0.0000 C   0  0  0  0  0  0  0  0  0  0  0  0
    8.7981    2.3801    0.0000 C   0  0  0  0  0  0  0  0  0  0  0  0
    7.9186    1.1651    0.0000 C   0  0  0  0  0  0  0  0  0  0  0  0
    7.1604   -0.1292    0.0000 C   0  0  0  0  0  0  0  0  0  0  0  0
    6.5306   -1.4906    0.0000 C   0  0  0  0  0  0  0  0  0  0  0  0
    5.9986   -0.0000    0.0000 C   0  0  0  0  0  0  0  0  0  0  0  0
    5.8482    1.3348    0.0000 C   0  0  0  0  0  0  0  0  0  0  0  0
    5.4045    2.6027    0.0000 C   0  0  0  0  0  0  0  0  0  0  0  0
    4.6899    3.7400    0.0000 C   0  0  0  0  0  0  0  0  0  0  0  0
    3.7400    4.6899    0.0000 C   0  0  0  0  0  0  0  0  0  0  0  0
    2.6027    5.4045    0.0000 C   0  0  0  0  0  0  0  0  0  0  0  0
    1.3348    5.8482    0.0000 C   0  0  0  0  0  0  0  0  0  0  0  0
    0.0000    5.9986    0.0000 C   0  0  0  0  0  0  0  0  0  0  0  0
   -1.3348    5.8482    0.0000 C   0  0  0  0  0  0  0  0  0  0  0  0
   -2.6027    5.4045    0.0000 C   0  0  0  0  0  0  0  0  0  0  0  0
   -3.7400    4.6899    0.0000 C   0  0  0  0  0  0  0  0  0  0  0  0
   -4.6899    3.7400    0.0000 C   0  0  0  0  0  0  0  0  0  0  0  0
   -5.4045    2.6027    0.0000 C   0  0  0  0  0  0  0  0  0  0  0  0
   -5.8482    1.3348    0.0000 C   0  0  0  0  0  0  0  0  0  0  0  0
   -5.9986    0.0000    0.0000 C   0  0  0  0  0  0  0  0  0  0  0  0
   -5.8482   -1.3348    0.0000 C   0  0  0  0  0  0  0  0  0  0  0  0
   -5.4045   -2.6027    0.0000 C   0  0  0  0  0  0  0  0  0  0  0  0
   -4.6899   -3.7400    0.0000 C   0  0  0  0  0  0  0  0  0  0  0  0
   -3.7400   -4.6899    0.0000 C   0  0  0  0  0  0  0  0  0  0  0  0
   -2.6027   -5.4045    0.0000 C   0  0  0  0  0  0  0  0  0  0  0  0
   -1.3348   -5.8482    0.0000 C   0  0  0  0  0  0  0  0  0  0  0  0
   -0.0000   -5.9986    0.0000 C   0  0  0  0  0  0  0  0  0  0  0  0
    1.3348   -5.8482    0.0000 C   0  0  0  0  0  0  0  0  0  0  0  0
    2.6027   -5.4045    0.0000 C   0  0  0  0  0  0  0  0  0  0  0  0
    3.7400   -4.6899    0.0000 C   0  0  0  0  0  0  0  0  0  0  0  0
    4.6899   -3.7400    0.0000 C   0  0  0  0  0  0  0  0  0  0  0  0
    6.0352   -2.9064    0.0000 C   0  0  0  0  0  0  0  0  0  0  0  0
    5.6787   -4.3634    0.0000 C   0  0  0  0  0  0  0  0  0  0  0  0
    7.0715   -3.8066    0.0000 C   0  0  0  0  0  0  0  0  0  0  0  0
    8.2502   -4.7344    0.0000 C   0  0  0  0  0  0  0  0  0  0  0  0
    8.0360   -6.2190    0.0000 C   0  0  0  0  0  0  0  0  0  0  0  0
    6.6432   -6.7758    0.0000 C   0  0  0  0  0  0  0  0  0  0  0  0
    5.4646   -5.8481    0.0000 C   0  0  0  0  0  0  0  0  0  0  0  0
  1  2  1  0
  2  3  1  0
  3  4  2  0
  4  5  1  0
  5  6  1  0
  6  7  1  0
  7  8  1  0
  8  9  1  0
  9 10  1  0
 10 11  1  0
 11 12  1  0
 12 13  1  0
 13 14  1  0
 14 15  1  0
 15 16  1  0
 16 17  1  0
 17 18  1  0
 18 19  1  0
 19 20  1  0
 20 21  1  0
 21 22  1  0
 22 23  1  0
 23 24  1  0
 24 25  1  0
 25 26  1  0
 26 27  1  0
 27 28  1  0
 28 29  1  0
 29 30  1  0
 30 31  1  0
 31 32  1  0
 32 33  1  0
 33 34  1  0
 34 35  1  0
 35 36  1  0
 36 37  1  0
 37 38  1  0
 38 39  1  0
 39 40  1  0
 40 41  1  0
 41 42  1  0
 42 43  1  0
 43 44  1  0
 44 45  1  0
 45 46  1  0
 46 47  1  0
 47 48  1  0
 48 49  1  0
 49 50  1  0
 50 51  1  0
 51 52  1  0
 52 53  1  0
 53 54  1  0
 54 55  1  0
 55 56  1  0
 56 57  1  0
 57 58  1  0
 58 59  1  0
 59 60  1  0
 60 61  1  0
 61 62  1  0
 62 63  1  0
 63 64  1  0
 64 65  1  0
 65 66  1  0
 66 67  1  0
 67 68  1  0
 68 69  1  0
 69 70  1  0
 70 71  1  0
 71 72  1  0
 72 73  1  0
 73 74  1  0
 74 75  1  0
 75 76  1  0
 76 77  1  0
 77 78  1  0
 78 79  1  0
 79 80  1  0
 80 81  1  0
 81 82  1  0
 82 83  1  0
 83 84  1  0
 84 85  1  0
 85 86  1  0
 86 87  1  0
 87 88  1  0
 88 89  1  0
 89 90  1  0
 90 91  1  0
 91 92  2  0
 92 93  1  0
 93 94  2  0
 94 95  1  0
 95 96  2  0
 96  2  1  0
 90 63  1  0
 96 91  1  0
M  END
>  <Title>  (431) 
idAAOQgen9

$$$$

     RDKit          2D

 11 12  0  0  0  0  0  0  0  0999 V2000
   -0.1873   -4.7970    0.0000 C   0  0  0  0  0  0  0  0  0  0  0  0
    1.1118   -4.0470    0.0000 C   0  0  0  0  0  0  0  0  0  0  0  0
    1.5000   -2.5981    0.0000 C   0  0  0  0  0  0  0  0  0  0  0  0
    0.7500   -1.2990    0.0000 C   0  0  0  0  0  0  0  0  0  0  0  0
    1.5000    0.0000    0.0000 C   0  0  0  0  0  0  0  0  0  0  0  0
    0.7500    1.2990    0.0000 C   0  0  0  0  0  0  0  0  0  0  0  0
   -0.7500    1.2990    0.0000 C   0  0  0  0  0  0  0  0  0  0  0  0
   -1.5000    0.0000    0.0000 C   0  0  0  0  0  0  0  0  0  0  0  0
   -0.7500   -1.2990    0.0000 C   0  0  0  0  0  0  0  0  0  0  0  0
    2.9489   -2.9863    0.0000 C   0  0  0  0  0  0  0  0  0  0  0  0
    2.5607   -4.4352    0.0000 C   0  0  0  0  0  0  0  0  0  0  0  0
  1  2  1  0
  2  3  2  0
  3  4  1  0
  4  5  2  0
  5  6  1  0
  6  7  2  0
  7  8  1  0
  8  9  2  0
  3 10  1  0
 10 11  2  0
 11  2  1  0
  9  4  1  0
M  END
>  <Title>  (432) 
idAAORgen9

$$$$

     RDKit          2D

 27 30  0  0  0  0  0  0  0  0999 V2000
   -2.3737   -6.1885    0.0000 C   0  0  0  0  0  0  0  0  0  0  0  0
   -1.4095   -5.0395    0.0000 C   0  0  0  0  0  0  0  0  0  0  0  0
   -0.0000   -5.5525    0.0000 C   0  0  0  0  0  0  0  0  0  0  0  0
    1.4095   -5.0395    0.0000 C   0  0  0  0  0  0  0  0  0  0  0  0
    2.1595   -3.7404    0.0000 C   0  0  0  0  0  0  0  0  0  0  0  0
    1.8991   -2.2632    0.0000 C   0  0  0  0  0  0  0  0  0  0  0  0
    3.1981   -1.5132    0.0000 C   0  0  0  0  0  0  0  0  0  0  0  0
    3.1981   -0.0132    0.0000 O   0  0  0  0  0  0  0  0  0  0  0  0
    4.4971   -2.2632    0.0000 N   0  0  0  0  0  0  0  0  0  0  0  0
    5.7962   -1.5132    0.0000 C   0  0  0  0  0  0  0  0  0  0  0  0
    7.0952   -2.2632    0.0000 N   0  0  0  0  0  0  0  0  0  0  0  0
    8.3943   -1.5132    0.0000 N   0  0  0  0  0  0  0  0  0  0  0  0
    8.3943   -0.0132    0.0000 N   0  0  0  0  0  0  0  0  0  0  0  0
    7.0952    0.7368    0.0000 N   0  0  0  0  0  0  0  0  0  0  0  0
    5.7962   -0.0132    0.0000 N   0  0  0  0  0  0  0  0  0  0  0  0
    0.7500   -1.2990    0.0000 C   0  0  0  0  0  0  0  0  0  0  0  0
    1.5000    0.0000    0.0000 C   0  0  0  0  0  0  0  0  0  0  0  0
    0.7500    1.2990    0.0000 C   0  0  0  0  0  0  0  0  0  0  0  0
   -0.7500    1.2990    0.0000 C   0  0  0  0  0  0  0  0  0  0  0  0
   -1.5000    0.0000    0.0000 C   0  0  0  0  0  0  0  0  0  0  0  0
   -0.7500   -1.2990    0.0000 C   0  0  0  0  0  0  0  0  0  0  0  0
   -1.8991   -2.2632    0.0000 C   0  0  0  0  0  0  0  0  0  0  0  0
   -3.0481   -1.2990    0.0000 C   0  0  0  0  0  0  0  0  0  0  0  0
   -4.4577   -1.8121    0.0000 C   0  0  0  0  0  0  0  0  0  0  0  0
   -4.7181   -3.2893    0.0000 C   0  0  0  0  0  0  0  0  0  0  0  0
   -3.5691   -4.2535    0.0000 C   0  0  0  0  0  0  0  0  0  0  0  0
   -2.1595   -3.7404    0.0000 C   0  0  0  0  0  0  0  0  0  0  0  0
  1  2  1  0
  2  3  1  0
  3  4  2  0
  4  5  1  0
  5  6  1  0
  6  7  1  0
  7  8  2  0
  7  9  1  0
  9 10  1  0
 10 11  2  0
 11 12  1  0
 12 13  2  0
 13 14  1  0
 14 15  2  0
  6 16  1  0
 16 17  2  0
 17 18  1  0
 18 19  2  0
 19 20  1  0
 20 21  2  0
 21 22  1  0
 22 23  2  0
 23 24  1  0
 24 25  2  0
 25 26  1  0
 26 27  2  0
 27  2  1  0
 15 10  1  0
 21 16  1  0
 27 22  1  0
M  END
>  <Title>  (433) 
idAAOSgen9

$$$$

     RDKit          2D

  9  9  0  0  0  0  0  0  0  0999 V2000
    3.2286   -0.0000    0.0000 C   0  0  0  0  0  0  0  0  0  0  0  0
    1.7286    0.0000    0.0000 C   0  0  0  0  0  0  0  0  0  0  0  0
    1.0777    1.3515    0.0000 C   0  0  0  0  0  0  0  0  0  0  0  0
   -0.3846    1.6852    0.0000 C   0  0  0  0  0  0  0  0  0  0  0  0
   -1.5574    0.7500    0.0000 C   0  0  0  0  0  0  0  0  0  0  0  0
   -1.5574   -0.7500    0.0000 C   0  0  0  0  0  0  0  0  0  0  0  0
   -0.3846   -1.6852    0.0000 C   0  0  0  0  0  0  0  0  0  0  0  0
    1.0777   -1.3515    0.0000 C   0  0  0  0  0  0  0  0  0  0  0  0
    2.0130   -2.5242    0.0000 N   0  0  0  0  0  0  0  0  0  0  0  0
  1  2  1  0
  2  3  1  0
  3  4  1  0
  4  5  1  0
  5  6  1  0
  6  7  1  0
  7  8  1  0
  8  9  1  0
  8  2  1  0
M  END
>  <Title>  (434) 
idAAOTgen9

$$$$

     RDKit          2D

 55 63  0  0  0  0  0  0  0  0999 V2000
    4.3881   -6.6982    0.0000 C   0  0  0  0  0  0  0  0  0  0  0  0
    3.0367   -6.0474    0.0000 C   0  0  0  0  0  0  0  0  0  0  0  0
    3.3705   -4.5850    0.0000 C   0  0  0  0  0  0  0  0  0  0  0  0
    3.0367   -3.1226    0.0000 C   0  0  0  0  0  0  0  0  0  0  0  0
    2.1015   -1.9499    0.0000 C   0  0  0  0  0  0  0  0  0  0  0  0
    3.0367   -0.7771    0.0000 C   0  0  0  0  0  0  0  0  0  0  0  0
    2.4887    0.6192    0.0000 O   0  0  0  0  0  0  0  0  0  0  0  0
    4.5199   -1.0007    0.0000 N   0  0  0  0  0  0  0  0  0  0  0  0
    5.4552    0.1721    0.0000 C   0  0  0  0  0  0  0  0  0  0  0  0
    5.0561    1.6180    0.0000 N   0  0  0  0  0  0  0  0  0  0  0  0
    6.3080    2.4444    0.0000 N   0  0  0  0  0  0  0  0  0  0  0  0
    7.4807    1.5091    0.0000 N   0  0  0  0  0  0  0  0  0  0  0  0
    6.9537    0.1048    0.0000 N   0  0  0  0  0  0  0  0  0  0  0  0
    7.7800   -1.1471    0.0000 C   0  0  0  0  0  0  0  0  0  0  0  0
    7.1090   -2.4887    0.0000 C   0  0  0  0  0  0  0  0  0  0  0  0
    7.9354   -3.7405    0.0000 C   0  0  0  0  0  0  0  0  0  0  0  0
    9.4327   -3.6508    0.0000 C   0  0  0  0  0  0  0  0  0  0  0  0
   10.1037   -2.3092    0.0000 C   0  0  0  0  0  0  0  0  0  0  0  0
    9.2773   -1.0574    0.0000 C   0  0  0  0  0  0  0  0  0  0  0  0
    9.9483    0.2842    0.0000 C   0  0  0  0  0  0  0  0  0  0  0  0
   11.4456    0.3739    0.0000 C   0  0  0  0  0  0  0  0  0  0  0  0
   12.1166    1.7155    0.0000 C   0  0  0  0  0  0  0  0  0  0  0  0
   11.2902    2.9673    0.0000 C   0  0  0  0  0  0  0  0  0  0  0  0
    9.7929    2.8776    0.0000 C   0  0  0  0  0  0  0  0  0  0  0  0
    9.1219    1.5360    0.0000 C   0  0  0  0  0  0  0  0  0  0  0  0
    0.7500   -1.2990    0.0000 C   0  0  0  0  0  0  0  0  0  0  0  0
    1.5000    0.0000    0.0000 C   0  0  0  0  0  0  0  0  0  0  0  0
    0.7500    1.2990    0.0000 C   0  0  0  0  0  0  0  0  0  0  0  0
   -0.7500    1.2990    0.0000 C   0  0  0  0  0  0  0  0  0  0  0  0
   -1.5000    0.0000    0.0000 C   0  0  0  0  0  0  0  0  0  0  0  0
   -0.7500   -1.2990    0.0000 C   0  0  0  0  0  0  0  0  0  0  0  0
   -2.1015   -1.9499    0.0000 C   0  0  0  0  0  0  0  0  0  0  0  0
   -2.6495   -0.5536    0.0000 C   0  0  0  0  0  0  0  0  0  0  0  0
   -4.1327   -0.3300    0.0000 C   0  0  0  0  0  0  0  0  0  0  0  0
   -5.0679   -1.5027    0.0000 C   0  0  0  0  0  0  0  0  0  0  0  0
   -4.5199   -2.8990    0.0000 C   0  0  0  0  0  0  0  0  0  0  0  0
   -3.0367   -3.1226    0.0000 C   0  0  0  0  0  0  0  0  0  0  0  0
   -3.3705   -4.5850    0.0000 C   0  0  0  0  0  0  0  0  0  0  0  0
   -4.8038   -4.1429    0.0000 C   0  0  0  0  0  0  0  0  0  0  0  0
   -5.9034   -5.1631    0.0000 C   0  0  0  0  0  0  0  0  0  0  0  0
   -5.5696   -6.6255    0.0000 C   0  0  0  0  0  0  0  0  0  0  0  0
   -4.1363   -7.0677    0.0000 C   0  0  0  0  0  0  0  0  0  0  0  0
   -3.0367   -6.0474    0.0000 C   0  0  0  0  0  0  0  0  0  0  0  0
   -2.1015   -7.2201    0.0000 C   0  0  0  0  0  0  0  0  0  0  0  0
   -3.3408   -8.0651    0.0000 C   0  0  0  0  0  0  0  0  0  0  0  0
   -3.2287   -9.5609    0.0000 C   0  0  0  0  0  0  0  0  0  0  0  0
   -1.8773  -10.2118    0.0000 C   0  0  0  0  0  0  0  0  0  0  0  0
   -0.6379   -9.3668    0.0000 C   0  0  0  0  0  0  0  0  0  0  0  0
   -0.7500   -7.8710    0.0000 C   0  0  0  0  0  0  0  0  0  0  0  0
    0.7500   -7.8710    0.0000 C   0  0  0  0  0  0  0  0  0  0  0  0
    0.6379   -9.3668    0.0000 C   0  0  0  0  0  0  0  0  0  0  0  0
    1.8773  -10.2118    0.0000 C   0  0  0  0  0  0  0  0  0  0  0  0
    3.2287   -9.5609    0.0000 C   0  0  0  0  0  0  0  0  0  0  0  0
    3.3408   -8.0651    0.0000 C   0  0  0  0  0  0  0  0  0  0  0  0
    2.1015   -7.2201    0.0000 C   0  0  0  0  0  0  0  0  0  0  0  0
  1  2  1  0
  2  3  1  0
  3  4  2  0
  4  5  1  0
  5  6  1  0
  6  7  2  0
  6  8  1  0
  8  9  1  0
  9 10  2  0
 10 11  1  0
 11 12  2  0
 12 13  1  0
 13 14  1  0
 14 15  2  0
 15 16  1  0
 16 17  2  0
 17 18  1  0
 18 19  2  0
 19 20  1  0
 20 21  2  0
 21 22  1  0
 22 23  2  0
 23 24  1  0
 24 25  2  0
  5 26  1  0
 26 27  2  0
 27 28  1  0
 28 29  2  0
 29 30  1  0
 30 31  2  0
 31 32  1  0
 32 33  2  0
 33 34  1  0
 34 35  2  0
 35 36  1  0
 36 37  2  0
 37 38  1  0
 38 39  2  0
 39 40  1  0
 40 41  2  0
 41 42  1  0
 42 43  2  0
 43 44  1  0
 44 45  2  0
 45 46  1  0
 46 47  2  0
 47 48  1  0
 48 49  2  0
 49 50  1  0
 50 51  2  0
 51 52  1  0
 52 53  2  0
 53 54  1  0
 54 55  2  0
 55  2  1  0
 13  9  1  0
 19 14  1  0
 25 20  1  0
 31 26  1  0
 37 32  1  0
 43 38  1  0
 49 44  1  0
 55 50  1  0
M  END
>  <Title>  (435) 
idAAOUgen9

$$$$

     RDKit          2D

 87 90  0  0  0  0  0  0  0  0999 V2000
   -8.6311   -1.8359    0.0000 C   0  0  0  0  0  0  0  0  0  0  0  0
   -7.9558   -3.1753    0.0000 C   0  0  0  0  0  0  0  0  0  0  0  0
   -9.2653   -3.9068    0.0000 C   0  0  0  0  0  0  0  0  0  0  0  0
  -10.5081   -4.7468    0.0000 C   0  0  0  0  0  0  0  0  0  0  0  0
  -11.6751   -5.6891    0.0000 C   0  0  0  0  0  0  0  0  0  0  0  0
  -12.7581   -6.7270    0.0000 C   0  0  0  0  0  0  0  0  0  0  0  0
  -13.7491   -7.8530    0.0000 C   0  0  0  0  0  0  0  0  0  0  0  0
  -14.6410   -9.0590    0.0000 C   0  0  0  0  0  0  0  0  0  0  0  0
  -15.4275  -10.3363    0.0000 C   0  0  0  0  0  0  0  0  0  0  0  0
  -16.1028  -11.6757    0.0000 C   0  0  0  0  0  0  0  0  0  0  0  0
  -16.6621  -13.0675    0.0000 C   0  0  0  0  0  0  0  0  0  0  0  0
  -17.1013  -14.5018    0.0000 C   0  0  0  0  0  0  0  0  0  0  0  0
  -17.4173  -15.9681    0.0000 C   0  0  0  0  0  0  0  0  0  0  0  0
  -17.6078  -17.4560    0.0000 C   0  0  0  0  0  0  0  0  0  0  0  0
  -17.6715  -18.9546    0.0000 C   0  0  0  0  0  0  0  0  0  0  0  0
  -17.6078  -20.4533    0.0000 C   0  0  0  0  0  0  0  0  0  0  0  0
  -17.4173  -21.9411    0.0000 C   0  0  0  0  0  0  0  0  0  0  0  0
  -17.1013  -23.4075    0.0000 C   0  0  0  0  0  0  0  0  0  0  0  0
  -16.6621  -24.8417    0.0000 C   0  0  0  0  0  0  0  0  0  0  0  0
  -16.1028  -26.2335    0.0000 C   0  0  0  0  0  0  0  0  0  0  0  0
  -15.4275  -27.5729    0.0000 C   0  0  0  0  0  0  0  0  0  0  0  0
  -14.6410  -28.8502    0.0000 C   0  0  0  0  0  0  0  0  0  0  0  0
  -13.7491  -30.0562    0.0000 C   0  0  0  0  0  0  0  0  0  0  0  0
  -12.7581  -31.1822    0.0000 C   0  0  0  0  0  0  0  0  0  0  0  0
  -11.6751  -32.2201    0.0000 C   0  0  0  0  0  0  0  0  0  0  0  0
  -10.5081  -33.1625    0.0000 C   0  0  0  0  0  0  0  0  0  0  0  0
   -9.2653  -34.0024    0.0000 C   0  0  0  0  0  0  0  0  0  0  0  0
   -7.9558  -34.7340    0.0000 C   0  0  0  0  0  0  0  0  0  0  0  0
   -6.5889  -35.3518    0.0000 C   0  0  0  0  0  0  0  0  0  0  0  0
   -5.1746  -35.8515    0.0000 C   0  0  0  0  0  0  0  0  0  0  0  0
   -3.7230  -36.2295    0.0000 C   0  0  0  0  0  0  0  0  0  0  0  0
   -2.2446  -36.4830    0.0000 C   0  0  0  0  0  0  0  0  0  0  0  0
   -0.7500  -36.6102    0.0000 C   0  0  0  0  0  0  0  0  0  0  0  0
    0.7500  -36.6102    0.0000 C   0  0  0  0  0  0  0  0  0  0  0  0
    2.2446  -36.4830    0.0000 C   0  0  0  0  0  0  0  0  0  0  0  0
    3.7230  -36.2295    0.0000 C   0  0  0  0  0  0  0  0  0  0  0  0
    5.1746  -35.8515    0.0000 C   0  0  0  0  0  0  0  0  0  0  0  0
    6.5889  -35.3518    0.0000 C   0  0  0  0  0  0  0  0  0  0  0  0
    7.9558  -34.7340    0.0000 C   0  0  0  0  0  0  0  0  0  0  0  0
    9.2653  -34.0024    0.0000 C   0  0  0  0  0  0  0  0  0  0  0  0
   10.5081  -33.1625    0.0000 C   0  0  0  0  0  0  0  0  0  0  0  0
   11.6751  -32.2201    0.0000 C   0  0  0  0  0  0  0  0  0  0  0  0
   12.7581  -31.1822    0.0000 C   0  0  0  0  0  0  0  0  0  0  0  0
   13.7491  -30.0562    0.0000 C   0  0  0  0  0  0  0  0  0  0  0  0
   14.6410  -28.8502    0.0000 C   0  0  0  0  0  0  0  0  0  0  0  0
   15.4275  -27.5729    0.0000 C   0  0  0  0  0  0  0  0  0  0  0  0
   16.1028  -26.2335    0.0000 C   0  0  0  0  0  0  0  0  0  0  0  0
   16.6621  -24.8417    0.0000 C   0  0  0  0  0  0  0  0  0  0  0  0
   17.1013  -23.4075    0.0000 C   0  0  0  0  0  0  0  0  0  0  0  0
   17.4173  -21.9411    0.0000 C   0  0  0  0  0  0  0  0  0  0  0  0
   17.6078  -20.4533    0.0000 C   0  0  0  0  0  0  0  0  0  0  0  0
   17.6715  -18.9546    0.0000 C   0  0  0  0  0  0  0  0  0  0  0  0
   17.6078  -17.4560    0.0000 C   0  0  0  0  0  0  0  0  0  0  0  0
   17.4173  -15.9681    0.0000 C   0  0  0  0  0  0  0  0  0  0  0  0
   17.1013  -14.5018    0.0000 C   0  0  0  0  0  0  0  0  0  0  0  0
   16.6621  -13.0675    0.0000 C   0  0  0  0  0  0  0  0  0  0  0  0
   16.1028  -11.6757    0.0000 C   0  0  0  0  0  0  0  0  0  0  0  0
   15.4275  -10.3363    0.0000 C   0  0  0  0  0  0  0  0  0  0  0  0
   14.6410   -9.0590    0.0000 C   0  0  0  0  0  0  0  0  0  0  0  0
   13.7491   -7.8530    0.0000 C   0  0  0  0  0  0  0  0  0  0  0  0
   12.7581   -6.7270    0.0000 C   0  0  0  0  0  0  0  0  0  0  0  0
   11.6751   -5.6891    0.0000 C   0  0  0  0  0  0  0  0  0  0  0  0
   10.5081   -4.7468    0.0000 C   0  0  0  0  0  0  0  0  0  0  0  0
    9.2653   -3.9068    0.0000 C   0  0  0  0  0  0  0  0  0  0  0  0
    7.9558   -3.1753    0.0000 C   0  0  0  0  0  0  0  0  0  0  0  0
    6.5889   -2.5574    0.0000 C   0  0  0  0  0  0  0  0  0  0  0  0
    5.1746   -2.0577    0.0000 C   0  0  0  0  0  0  0  0  0  0  0  0
    3.7230   -1.6797    0.0000 C   0  0  0  0  0  0  0  0  0  0  0  0
    2.2446   -1.4262    0.0000 C   0  0  0  0  0  0  0  0  0  0  0  0
    0.7500   -1.2990    0.0000 C   0  0  0  0  0  0  0  0  0  0  0  0
    1.5000    0.0000    0.0000 C   0  0  0  0  0  0  0  0  0  0  0  0
    0.7500    1.2990    0.0000 C   0  0  0  0  0  0  0  0  0  0  0  0
   -0.7500    1.2990    0.0000 C   0  0  0  0  0  0  0  0  0  0  0  0
   -1.5000    0.0000    0.0000 C   0  0  0  0  0  0  0  0  0  0  0  0
   -0.7500   -1.2990    0.0000 C   0  0  0  0  0  0  0  0  0  0  0  0
   -2.2446   -1.4262    0.0000 C   0  0  0  0  0  0  0  0  0  0  0  0
   -1.2858   -2.5798    0.0000 C   0  0  0  0  0  0  0  0  0  0  0  0
   -1.8055   -3.9870    0.0000 C   0  0  0  0  0  0  0  0  0  0  0  0
   -3.2839   -4.2405    0.0000 C   0  0  0  0  0  0  0  0  0  0  0  0
   -4.2427   -3.0869    0.0000 C   0  0  0  0  0  0  0  0  0  0  0  0
   -3.7230   -1.6797    0.0000 C   0  0  0  0  0  0  0  0  0  0  0  0
   -5.1746   -2.0577    0.0000 C   0  0  0  0  0  0  0  0  0  0  0  0
   -4.9002   -0.5830    0.0000 C   0  0  0  0  0  0  0  0  0  0  0  0
   -6.0401    0.3920    0.0000 C   0  0  0  0  0  0  0  0  0  0  0  0
   -7.4545   -0.1078    0.0000 C   0  0  0  0  0  0  0  0  0  0  0  0
   -7.7289   -1.5824    0.0000 C   0  0  0  0  0  0  0  0  0  0  0  0
   -6.5889   -2.5574    0.0000 C   0  0  0  0  0  0  0  0  0  0  0  0
  1  2  1  0
  2  3  1  0
  3  4  1  0
  4  5  1  0
  5  6  1  0
  6  7  1  0
  7  8  1  0
  8  9  1  0
  9 10  1  0
 10 11  1  0
 11 12  1  0
 12 13  1  0
 13 14  1  0
 14 15  1  0
 15 16  1  0
 16 17  1  0
 17 18  1  0
 18 19  1  0
 19 20  1  0
 20 21  1  0
 21 22  1  0
 22 23  1  0
 23 24  1  0
 24 25  1  0
 25 26  1  0
 26 27  1  0
 27 28  1  0
 28 29  1  0
 29 30  1  0
 30 31  1  0
 31 32  1  0
 32 33  1  0
 33 34  1  0
 34 35  1  0
 35 36  1  0
 36 37  1  0
 37 38  1  0
 38 39  1  0
 39 40  1  0
 40 41  1  0
 41 42  1  0
 42 43  1  0
 43 44  1  0
 44 45  1  0
 45 46  1  0
 46 47  1  0
 47 48  1  0
 48 49  1  0
 49 50  1  0
 50 51  1  0
 51 52  1  0
 52 53  1  0
 53 54  1  0
 54 55  1  0
 55 56  1  0
 56 57  1  0
 57 58  1  0
 58 59  1  0
 59 60  1  0
 60 61  1  0
 61 62  1  0
 62 63  1  0
 63 64  1  0
 64 65  1  0
 65 66  1  0
 66 67  1  0
 67 68  1  0
 68 69  1  0
 69 70  1  0
 70 71  2  0
 71 72  1  0
 72 73  2  0
 73 74  1  0
 74 75  2  0
 75 76  1  0
 76 77  2  0
 77 78  1  0
 78 79  2  0
 79 80  1  0
 80 81  2  0
 81 82  1  0
 82 83  2  0
 83 84  1  0
 84 85  2  0
 85 86  1  0
 86 87  2  0
 87  2  1  0
 75 70  1  0
 81 76  1  0
 87 82  1  0
M  END
>  <Title>  (436) 
idAAOVgen9

$$$$

     RDKit          2D

 41 46  0  0  0  0  0  0  0  0999 V2000
    5.6192   -7.8802    0.0000 C   0  0  0  0  0  0  0  0  0  0  0  0
    4.5586   -6.8195    0.0000 C   0  0  0  0  0  0  0  0  0  0  0  0
    4.9468   -5.3707    0.0000 O   0  0  0  0  0  0  0  0  0  0  0  0
    3.1097   -7.2078    0.0000 N   0  0  0  0  0  0  0  0  0  0  0  0
    2.0490   -6.1471    0.0000 C   0  0  0  0  0  0  0  0  0  0  0  0
    2.7990   -4.8481    0.0000 C   0  0  0  0  0  0  0  0  0  0  0  0
    2.7990   -3.3481    0.0000 C   0  0  0  0  0  0  0  0  0  0  0  0
    2.0490   -2.0490    0.0000 C   0  0  0  0  0  0  0  0  0  0  0  0
    3.1097   -0.9884    0.0000 C   0  0  0  0  0  0  0  0  0  0  0  0
    2.7215    0.4605    0.0000 O   0  0  0  0  0  0  0  0  0  0  0  0
    4.5586   -1.3766    0.0000 N   0  0  0  0  0  0  0  0  0  0  0  0
    5.6192   -0.3159    0.0000 C   0  0  0  0  0  0  0  0  0  0  0  0
    7.0681   -0.7042    0.0000 N   0  0  0  0  0  0  0  0  0  0  0  0
    8.1288    0.3565    0.0000 N   0  0  0  0  0  0  0  0  0  0  0  0
    7.7406    1.8054    0.0000 N   0  0  0  0  0  0  0  0  0  0  0  0
    6.2917    2.1936    0.0000 N   0  0  0  0  0  0  0  0  0  0  0  0
    5.2310    1.1329    0.0000 N   0  0  0  0  0  0  0  0  0  0  0  0
    0.7500   -1.2990    0.0000 C   0  0  0  0  0  0  0  0  0  0  0  0
    1.5000    0.0000    0.0000 C   0  0  0  0  0  0  0  0  0  0  0  0
    0.7500    1.2990    0.0000 C   0  0  0  0  0  0  0  0  0  0  0  0
   -0.7500    1.2990    0.0000 C   0  0  0  0  0  0  0  0  0  0  0  0
   -1.5000    0.0000    0.0000 C   0  0  0  0  0  0  0  0  0  0  0  0
   -0.7500   -1.2990    0.0000 C   0  0  0  0  0  0  0  0  0  0  0  0
   -2.0490   -2.0490    0.0000 C   0  0  0  0  0  0  0  0  0  0  0  0
   -2.7990   -0.7500    0.0000 C   0  0  0  0  0  0  0  0  0  0  0  0
   -4.2990   -0.7500    0.0000 C   0  0  0  0  0  0  0  0  0  0  0  0
   -5.0490   -2.0490    0.0000 C   0  0  0  0  0  0  0  0  0  0  0  0
   -4.2990   -3.3481    0.0000 C   0  0  0  0  0  0  0  0  0  0  0  0
   -2.7990   -3.3481    0.0000 C   0  0  0  0  0  0  0  0  0  0  0  0
   -2.7990   -4.8481    0.0000 C   0  0  0  0  0  0  0  0  0  0  0  0
   -4.2990   -4.8481    0.0000 C   0  0  0  0  0  0  0  0  0  0  0  0
   -5.0490   -6.1471    0.0000 C   0  0  0  0  0  0  0  0  0  0  0  0
   -4.2990   -7.4462    0.0000 C   0  0  0  0  0  0  0  0  0  0  0  0
   -2.7990   -7.4462    0.0000 C   0  0  0  0  0  0  0  0  0  0  0  0
   -2.0490   -6.1471    0.0000 C   0  0  0  0  0  0  0  0  0  0  0  0
   -0.7500   -6.8971    0.0000 C   0  0  0  0  0  0  0  0  0  0  0  0
   -1.5000   -8.1962    0.0000 C   0  0  0  0  0  0  0  0  0  0  0  0
   -0.7500   -9.4952    0.0000 C   0  0  0  0  0  0  0  0  0  0  0  0
    0.7500   -9.4952    0.0000 C   0  0  0  0  0  0  0  0  0  0  0  0
    1.5000   -8.1962    0.0000 C   0  0  0  0  0  0  0  0  0  0  0  0
    0.7500   -6.8971    0.0000 C   0  0  0  0  0  0  0  0  0  0  0  0
  1  2  1  0
  2  3  2  0
  2  4  1  0
  4  5  1  0
  5  6  1  0
  6  7  1  0
  7  8  1  0
  8  9  1  0
  9 10  2  0
  9 11  1  0
 11 12  1  0
 12 13  2  0
 13 14  1  0
 14 15  2  0
 15 16  1  0
 16 17  2  0
  8 18  1  0
 18 19  2  0
 19 20  1  0
 20 21  2  0
 21 22  1  0
 22 23  2  0
 23 24  1  0
 24 25  2  0
 25 26  1  0
 26 27  2  0
 27 28  1  0
 28 29  2  0
 29 30  1  0
 30 31  2  0
 31 32  1  0
 32 33  2  0
 33 34  1  0
 34 35  2  0
 35 36  1  0
 36 37  2  0
 37 38  1  0
 38 39  2  0
 39 40  1  0
 40 41  2  0
 41  5  1  0
 17 12  1  0
 23 18  1  0
 29 24  1  0
 35 30  1  0
 41 36  1  0
M  END
>  <Title>  (437) 
idAAOWgen9

$$$$

     RDKit          2D

 23 23  0  0  0  0  0  0  0  0999 V2000
   28.2760   -0.0000    0.0000 C   0  0  0  0  0  0  0  0  0  0  0  0
   26.7760   -0.0000    0.0000 C   0  0  0  0  0  0  0  0  0  0  0  0
   25.2760   -0.0000    0.0000 C   0  0  0  0  0  0  0  0  0  0  0  0
   23.7760   -0.0000    0.0000 C   0  0  0  0  0  0  0  0  0  0  0  0
   22.2760   -0.0000    0.0000 C   0  0  0  0  0  0  0  0  0  0  0  0
   20.7760   -0.0000    0.0000 C   0  0  0  0  0  0  0  0  0  0  0  0
   19.2760   -0.0000    0.0000 C   0  0  0  0  0  0  0  0  0  0  0  0
   17.7760   -0.0000    0.0000 C   0  0  0  0  0  0  0  0  0  0  0  0
   16.2760   -0.0000    0.0000 C   0  0  0  0  0  0  0  0  0  0  0  0
   14.7760   -0.0000    0.0000 C   0  0  0  0  0  0  0  0  0  0  0  0
   13.2760   -0.0000    0.0000 C   0  0  0  0  0  0  0  0  0  0  0  0
   11.7760   -0.0000    0.0000 C   0  0  0  0  0  0  0  0  0  0  0  0
   10.2760   -0.0000    0.0000 C   0  0  0  0  0  0  0  0  0  0  0  0
    8.7760   -0.0000    0.0000 C   0  0  0  0  0  0  0  0  0  0  0  0
    7.2760   -0.0000    0.0000 C   0  0  0  0  0  0  0  0  0  0  0  0
    5.7760   -0.0000    0.0000 C   0  0  0  0  0  0  0  0  0  0  0  0
    4.2760   -0.0000    0.0000 C   0  0  0  0  0  0  0  0  0  0  0  0
    2.7760    0.0000    0.0000 C   0  0  0  0  0  0  0  0  0  0  0  0
    1.2760    0.0000    0.0000 C   0  0  0  0  0  0  0  0  0  0  0  0
    0.3943    1.2135    0.0000 C   0  0  0  0  0  0  0  0  0  0  0  0
   -1.0323    0.7500    0.0000 C   0  0  0  0  0  0  0  0  0  0  0  0
   -1.0323   -0.7500    0.0000 C   0  0  0  0  0  0  0  0  0  0  0  0
    0.3943   -1.2135    0.0000 C   0  0  0  0  0  0  0  0  0  0  0  0
  1  2  3  0
  2  3  1  0
  3  4  3  0
  4  5  1  0
  5  6  3  0
  6  7  1  0
  7  8  3  0
  8  9  1  0
  9 10  3  0
 10 11  1  0
 11 12  3  0
 12 13  1  0
 13 14  3  0
 14 15  1  0
 15 16  3  0
 16 17  1  0
 17 18  3  0
 18 19  1  0
 19 20  2  0
 20 21  1  0
 21 22  1  0
 22 23  2  0
 23 19  1  0
M  END
>  <Title>  (438) 
idAAOXgen9

$$$$

     RDKit          2D

 22 24  0  0  0  0  0  0  0  0999 V2000
   -3.0000   -2.5981    0.0000 C   0  0  0  0  0  0  0  0  0  0  0  0
   -1.5000   -2.5981    0.0000 C   0  0  0  0  0  0  0  0  0  0  0  0
   -0.7500   -3.8971    0.0000 C   0  0  0  0  0  0  0  0  0  0  0  0
    0.7500   -3.8971    0.0000 C   0  0  0  0  0  0  0  0  0  0  0  0
    1.5000   -2.5981    0.0000 C   0  0  0  0  0  0  0  0  0  0  0  0
    3.0000   -2.5981    0.0000 C   0  0  0  0  0  0  0  0  0  0  0  0
    3.7500   -1.2990    0.0000 O   0  0  0  0  0  0  0  0  0  0  0  0
    3.7500   -3.8971    0.0000 N   0  0  0  0  0  0  0  0  0  0  0  0
    5.2500   -3.8971    0.0000 C   0  0  0  0  0  0  0  0  0  0  0  0
    6.0000   -5.1962    0.0000 N   0  0  0  0  0  0  0  0  0  0  0  0
    7.5000   -5.1962    0.0000 N   0  0  0  0  0  0  0  0  0  0  0  0
    8.2500   -3.8971    0.0000 N   0  0  0  0  0  0  0  0  0  0  0  0
    7.5000   -2.5981    0.0000 N   0  0  0  0  0  0  0  0  0  0  0  0
    6.0000   -2.5981    0.0000 N   0  0  0  0  0  0  0  0  0  0  0  0
    0.7500   -1.2990    0.0000 C   0  0  0  0  0  0  0  0  0  0  0  0
    1.5000    0.0000    0.0000 C   0  0  0  0  0  0  0  0  0  0  0  0
    0.7500    1.2990    0.0000 C   0  0  0  0  0  0  0  0  0  0  0  0
   -0.7500    1.2990    0.0000 C   0  0  0  0  0  0  0  0  0  0  0  0
   -1.5000    2.5981    0.0000 C   0  0  0  0  0  0  0  0  0  0  0  0
   -2.2500    3.8971    0.0000 N   0  0  0  0  0  0  0  0  0  0  0  0
   -1.5000    0.0000    0.0000 C   0  0  0  0  0  0  0  0  0  0  0  0
   -0.7500   -1.2990    0.0000 C   0  0  0  0  0  0  0  0  0  0  0  0
  1  2  1  0
  2  3  1  0
  3  4  1  0
  4  5  1  0
  5  6  1  0
  6  7  2  0
  6  8  1  0
  8  9  1  0
  9 10  2  0
 10 11  1  0
 11 12  2  0
 12 13  1  0
 13 14  2  0
  5 15  1  0
 15 16  1  0
 16 17  1  0
 17 18  1  0
 18 19  1  0
 19 20  3  0
 18 21  1  0
 21 22  2  0
 22  2  1  0
 14  9  1  0
 22 15  1  0
M  END
>  <Title>  (439) 
idAAOYgen9

$$$$

     RDKit          2D

 67 67  0  0  0  0  0  0  0  0999 V2000
   17.2623    0.0000    0.0000 C   0  0  0  0  0  0  0  0  0  0  0  0
   15.7623    0.0000    0.0000 C   0  0  0  0  0  0  0  0  0  0  0  0
   15.6909   -1.4983    0.0000 C   0  0  0  0  0  0  0  0  0  0  0  0
   15.4774   -2.9830    0.0000 C   0  0  0  0  0  0  0  0  0  0  0  0
   15.1238   -4.4408    0.0000 C   0  0  0  0  0  0  0  0  0  0  0  0
   14.6332   -5.8583    0.0000 C   0  0  0  0  0  0  0  0  0  0  0  0
   14.0101   -7.2227    0.0000 C   0  0  0  0  0  0  0  0  0  0  0  0
   13.2601   -8.5217    0.0000 C   0  0  0  0  0  0  0  0  0  0  0  0
   12.3900   -9.7436    0.0000 C   0  0  0  0  0  0  0  0  0  0  0  0
   11.4077  -10.8772    0.0000 C   0  0  0  0  0  0  0  0  0  0  0  0
   10.3221  -11.9123    0.0000 C   0  0  0  0  0  0  0  0  0  0  0  0
    9.1430  -12.8396    0.0000 C   0  0  0  0  0  0  0  0  0  0  0  0
    7.8811  -13.6505    0.0000 C   0  0  0  0  0  0  0  0  0  0  0  0
    6.5479  -14.3379    0.0000 C   0  0  0  0  0  0  0  0  0  0  0  0
    5.1553  -14.8954    0.0000 C   0  0  0  0  0  0  0  0  0  0  0  0
    3.7161  -15.3180    0.0000 C   0  0  0  0  0  0  0  0  0  0  0  0
    2.2432  -15.6019    0.0000 C   0  0  0  0  0  0  0  0  0  0  0  0
    0.7500  -15.7444    0.0000 C   0  0  0  0  0  0  0  0  0  0  0  0
   -0.7500  -15.7444    0.0000 C   0  0  0  0  0  0  0  0  0  0  0  0
   -2.2432  -15.6019    0.0000 C   0  0  0  0  0  0  0  0  0  0  0  0
   -3.7161  -15.3180    0.0000 C   0  0  0  0  0  0  0  0  0  0  0  0
   -5.1553  -14.8954    0.0000 C   0  0  0  0  0  0  0  0  0  0  0  0
   -6.5479  -14.3379    0.0000 C   0  0  0  0  0  0  0  0  0  0  0  0
   -7.8811  -13.6505    0.0000 C   0  0  0  0  0  0  0  0  0  0  0  0
   -9.1430  -12.8396    0.0000 C   0  0  0  0  0  0  0  0  0  0  0  0
  -10.3221  -11.9123    0.0000 C   0  0  0  0  0  0  0  0  0  0  0  0
  -11.4077  -10.8772    0.0000 C   0  0  0  0  0  0  0  0  0  0  0  0
  -12.3900   -9.7436    0.0000 C   0  0  0  0  0  0  0  0  0  0  0  0
  -13.2601   -8.5217    0.0000 C   0  0  0  0  0  0  0  0  0  0  0  0
  -14.0101   -7.2227    0.0000 C   0  0  0  0  0  0  0  0  0  0  0  0
  -14.6332   -5.8583    0.0000 C   0  0  0  0  0  0  0  0  0  0  0  0
  -15.1238   -4.4408    0.0000 C   0  0  0  0  0  0  0  0  0  0  0  0
  -15.4774   -2.9830    0.0000 C   0  0  0  0  0  0  0  0  0  0  0  0
  -15.6909   -1.4983    0.0000 C   0  0  0  0  0  0  0  0  0  0  0  0
  -15.7623    0.0000    0.0000 C   0  0  0  0  0  0  0  0  0  0  0  0
  -15.6909    1.4983    0.0000 C   0  0  0  0  0  0  0  0  0  0  0  0
  -15.4774    2.9830    0.0000 C   0  0  0  0  0  0  0  0  0  0  0  0
  -15.1238    4.4408    0.0000 C   0  0  0  0  0  0  0  0  0  0  0  0
  -14.6332    5.8583    0.0000 C   0  0  0  0  0  0  0  0  0  0  0  0
  -14.0101    7.2227    0.0000 C   0  0  0  0  0  0  0  0  0  0  0  0
  -13.2601    8.5217    0.0000 C   0  0  0  0  0  0  0  0  0  0  0  0
  -12.3900    9.7436    0.0000 C   0  0  0  0  0  0  0  0  0  0  0  0
  -11.4077   10.8772    0.0000 C   0  0  0  0  0  0  0  0  0  0  0  0
  -10.3221   11.9123    0.0000 C   0  0  0  0  0  0  0  0  0  0  0  0
   -9.1430   12.8396    0.0000 C   0  0  0  0  0  0  0  0  0  0  0  0
   -7.8811   13.6505    0.0000 C   0  0  0  0  0  0  0  0  0  0  0  0
   -6.5479   14.3379    0.0000 C   0  0  0  0  0  0  0  0  0  0  0  0
   -5.1553   14.8954    0.0000 C   0  0  0  0  0  0  0  0  0  0  0  0
   -3.7161   15.3180    0.0000 C   0  0  0  0  0  0  0  0  0  0  0  0
   -2.2432   15.6019    0.0000 C   0  0  0  0  0  0  0  0  0  0  0  0
   -0.7500   15.7444    0.0000 C   0  0  0  0  0  0  0  0  0  0  0  0
    0.7500   15.7444    0.0000 C   0  0  0  0  0  0  0  0  0  0  0  0
    2.2432   15.6019    0.0000 C   0  0  0  0  0  0  0  0  0  0  0  0
    3.7161   15.3180    0.0000 C   0  0  0  0  0  0  0  0  0  0  0  0
    5.1553   14.8954    0.0000 C   0  0  0  0  0  0  0  0  0  0  0  0
    6.5479   14.3379    0.0000 C   0  0  0  0  0  0  0  0  0  0  0  0
    7.8811   13.6505    0.0000 C   0  0  0  0  0  0  0  0  0  0  0  0
    9.1430   12.8396    0.0000 C   0  0  0  0  0  0  0  0  0  0  0  0
   10.3221   11.9123    0.0000 C   0  0  0  0  0  0  0  0  0  0  0  0
   11.4077   10.8772    0.0000 C   0  0  0  0  0  0  0  0  0  0  0  0
   12.3900    9.7436    0.0000 C   0  0  0  0  0  0  0  0  0  0  0  0
   13.2601    8.5217    0.0000 C   0  0  0  0  0  0  0  0  0  0  0  0
   14.0101    7.2227    0.0000 C   0  0  0  0  0  0  0  0  0  0  0  0
   14.6332    5.8583    0.0000 C   0  0  0  0  0  0  0  0  0  0  0  0
   15.1238    4.4408    0.0000 C   0  0  0  0  0  0  0  0  0  0  0  0
   15.4774    2.9830    0.0000 C   0  0  0  0  0  0  0  0  0  0  0  0
   15.6909    1.4983    0.0000 C   0  0  0  0  0  0  0  0  0  0  0  0
  1  2  1  0
  2  3  1  0
  3  4  1  0
  4  5  2  0
  5  6  1  0
  6  7  2  0
  7  8  1  0
  8  9  2  0
  9 10  1  0
 10 11  2  0
 11 12  1  0
 12 13  1  0
 13 14  1  0
 14 15  1  0
 15 16  1  0
 16 17  1  0
 17 18  1  0
 18 19  1  0
 19 20  1  0
 20 21  1  0
 21 22  1  0
 22 23  1  0
 23 24  1  0
 24 25  1  0
 25 26  1  0
 26 27  1  0
 27 28  1  0
 28 29  1  0
 29 30  1  0
 30 31  1  0
 31 32  1  0
 32 33  1  0
 33 34  1  0
 34 35  1  0
 35 36  1  0
 36 37  1  0
 37 38  1  0
 38 39  1  0
 39 40  1  0
 40 41  1  0
 41 42  1  0
 42 43  1  0
 43 44  1  0
 44 45  1  0
 45 46  1  0
 46 47  1  0
 47 48  1  0
 48 49  1  0
 49 50  1  0
 50 51  1  0
 51 52  1  0
 52 53  1  0
 53 54  1  0
 54 55  1  0
 55 56  1  0
 56 57  1  0
 57 58  1  0
 58 59  1  0
 59 60  1  0
 60 61  1  0
 61 62  1  0
 62 63  1  0
 63 64  1  0
 64 65  1  0
 65 66  1  0
 66 67  1  0
 67  2  1  0
M  END
>  <Title>  (440) 
idAAOZgen9

$$$$

     RDKit          2D

 20 22  0  0  0  0  0  0  0  0999 V2000
   -2.6401   -3.1891    0.0000 C   0  0  0  0  0  0  0  0  0  0  0  0
   -1.2135   -2.7256    0.0000 C   0  0  0  0  0  0  0  0  0  0  0  0
   -0.0000   -3.6073    0.0000 C   0  0  0  0  0  0  0  0  0  0  0  0
    1.2135   -2.7256    0.0000 C   0  0  0  0  0  0  0  0  0  0  0  0
    2.6401   -3.1891    0.0000 C   0  0  0  0  0  0  0  0  0  0  0  0
    2.9520   -4.6564    0.0000 C   0  0  0  0  0  0  0  0  0  0  0  0
    1.8373   -5.6601    0.0000 O   0  0  0  0  0  0  0  0  0  0  0  0
    4.3786   -5.1199    0.0000 N   0  0  0  0  0  0  0  0  0  0  0  0
    4.6904   -6.5871    0.0000 C   0  0  0  0  0  0  0  0  0  0  0  0
    3.5757   -7.5908    0.0000 N   0  0  0  0  0  0  0  0  0  0  0  0
    3.8876   -9.0580    0.0000 N   0  0  0  0  0  0  0  0  0  0  0  0
    5.3142   -9.5216    0.0000 N   0  0  0  0  0  0  0  0  0  0  0  0
    6.4289   -8.5179    0.0000 N   0  0  0  0  0  0  0  0  0  0  0  0
    6.1170   -7.0506    0.0000 N   0  0  0  0  0  0  0  0  0  0  0  0
    0.7500   -1.2990    0.0000 C   0  0  0  0  0  0  0  0  0  0  0  0
    1.5000    0.0000    0.0000 C   0  0  0  0  0  0  0  0  0  0  0  0
    0.7500    1.2990    0.0000 C   0  0  0  0  0  0  0  0  0  0  0  0
   -0.7500    1.2990    0.0000 C   0  0  0  0  0  0  0  0  0  0  0  0
   -1.5000    0.0000    0.0000 C   0  0  0  0  0  0  0  0  0  0  0  0
   -0.7500   -1.2990    0.0000 C   0  0  0  0  0  0  0  0  0  0  0  0
  1  2  1  0
  2  3  2  0
  3  4  1  0
  4  5  1  0
  5  6  1  0
  6  7  2  0
  6  8  1  0
  8  9  1  0
  9 10  2  0
 10 11  1  0
 11 12  2  0
 12 13  1  0
 13 14  2  0
  4 15  1  0
 15 16  2  0
 16 17  1  0
 17 18  2  0
 18 19  1  0
 19 20  2  0
 20  2  1  0
 14  9  1  0
 20 15  1  0
M  END
>  <Title>  (441) 
idAAPAgen9

$$$$

     RDKit          2D

 69 79  0  0  0  0  0  0  0  0999 V2000
    6.9560   -0.7589    0.0000 C   0  0  0  0  0  0  0  0  0  0  0  0
    5.6570   -1.5089    0.0000 C   0  0  0  0  0  0  0  0  0  0  0  0
    5.6570   -3.0089    0.0000 C   0  0  0  0  0  0  0  0  0  0  0  0
    4.3580   -3.7589    0.0000 C   0  0  0  0  0  0  0  0  0  0  0  0
    3.4227   -2.5862    0.0000 C   0  0  0  0  0  0  0  0  0  0  0  0
    2.1834   -1.7412    0.0000 C   0  0  0  0  0  0  0  0  0  0  0  0
    2.8342   -0.3897    0.0000 C   0  0  0  0  0  0  0  0  0  0  0  0
    1.9892    0.8496    0.0000 O   0  0  0  0  0  0  0  0  0  0  0  0
    4.3300   -0.2776    0.0000 N   0  0  0  0  0  0  0  0  0  0  0  0
    4.9808    1.0738    0.0000 C   0  0  0  0  0  0  0  0  0  0  0  0
    6.4766    1.1859    0.0000 N   0  0  0  0  0  0  0  0  0  0  0  0
    7.1274    2.5374    0.0000 N   0  0  0  0  0  0  0  0  0  0  0  0
    6.2825    3.7767    0.0000 N   0  0  0  0  0  0  0  0  0  0  0  0
    4.7867    3.6646    0.0000 N   0  0  0  0  0  0  0  0  0  0  0  0
    4.1358    2.3132    0.0000 N   0  0  0  0  0  0  0  0  0  0  0  0
    0.7500   -1.2990    0.0000 C   0  0  0  0  0  0  0  0  0  0  0  0
    1.5000    0.0000    0.0000 C   0  0  0  0  0  0  0  0  0  0  0  0
    0.7500    1.2990    0.0000 C   0  0  0  0  0  0  0  0  0  0  0  0
   -0.7500    1.2990    0.0000 C   0  0  0  0  0  0  0  0  0  0  0  0
   -1.5000    0.0000    0.0000 C   0  0  0  0  0  0  0  0  0  0  0  0
   -0.7500   -1.2990    0.0000 C   0  0  0  0  0  0  0  0  0  0  0  0
   -2.1834   -1.7412    0.0000 C   0  0  0  0  0  0  0  0  0  0  0  0
   -2.2955   -0.2454    0.0000 C   0  0  0  0  0  0  0  0  0  0  0  0
   -3.6469    0.4055    0.0000 C   0  0  0  0  0  0  0  0  0  0  0  0
   -4.8863   -0.4395    0.0000 C   0  0  0  0  0  0  0  0  0  0  0  0
   -4.7742   -1.9353    0.0000 C   0  0  0  0  0  0  0  0  0  0  0  0
   -3.4227   -2.5862    0.0000 C   0  0  0  0  0  0  0  0  0  0  0  0
   -4.3580   -3.7589    0.0000 C   0  0  0  0  0  0  0  0  0  0  0  0
   -5.2932   -2.5862    0.0000 C   0  0  0  0  0  0  0  0  0  0  0  0
   -6.7764   -2.8097    0.0000 C   0  0  0  0  0  0  0  0  0  0  0  0
   -7.3244   -4.2060    0.0000 C   0  0  0  0  0  0  0  0  0  0  0  0
   -6.3892   -5.3788    0.0000 C   0  0  0  0  0  0  0  0  0  0  0  0
   -4.9060   -5.1552    0.0000 C   0  0  0  0  0  0  0  0  0  0  0  0
   -5.0181   -6.6510    0.0000 C   0  0  0  0  0  0  0  0  0  0  0  0
   -6.4514   -6.2089    0.0000 C   0  0  0  0  0  0  0  0  0  0  0  0
   -7.5510   -7.2291    0.0000 C   0  0  0  0  0  0  0  0  0  0  0  0
   -7.2172   -8.6915    0.0000 C   0  0  0  0  0  0  0  0  0  0  0  0
   -5.7839   -9.1337    0.0000 C   0  0  0  0  0  0  0  0  0  0  0  0
   -4.6843   -8.1134    0.0000 C   0  0  0  0  0  0  0  0  0  0  0  0
   -3.9343   -9.4124    0.0000 C   0  0  0  0  0  0  0  0  0  0  0  0
   -5.3676   -9.8546    0.0000 C   0  0  0  0  0  0  0  0  0  0  0  0
   -5.7014  -11.3170    0.0000 C   0  0  0  0  0  0  0  0  0  0  0  0
   -4.6018  -12.3372    0.0000 C   0  0  0  0  0  0  0  0  0  0  0  0
   -3.1685  -11.8951    0.0000 C   0  0  0  0  0  0  0  0  0  0  0  0
   -2.8347  -10.4327    0.0000 C   0  0  0  0  0  0  0  0  0  0  0  0
   -1.4832  -11.0835    0.0000 C   0  0  0  0  0  0  0  0  0  0  0  0
   -2.4185  -12.2563    0.0000 C   0  0  0  0  0  0  0  0  0  0  0  0
   -1.8705  -13.6526    0.0000 C   0  0  0  0  0  0  0  0  0  0  0  0
   -0.3872  -13.8762    0.0000 C   0  0  0  0  0  0  0  0  0  0  0  0
    0.5480  -12.7034    0.0000 C   0  0  0  0  0  0  0  0  0  0  0  0
   -0.0000  -11.3071    0.0000 C   0  0  0  0  0  0  0  0  0  0  0  0
    1.4832  -11.0835    0.0000 C   0  0  0  0  0  0  0  0  0  0  0  0
    1.3712  -12.5793    0.0000 C   0  0  0  0  0  0  0  0  0  0  0  0
    2.6105  -13.4243    0.0000 C   0  0  0  0  0  0  0  0  0  0  0  0
    3.9620  -12.7735    0.0000 C   0  0  0  0  0  0  0  0  0  0  0  0
    4.0741  -11.2777    0.0000 C   0  0  0  0  0  0  0  0  0  0  0  0
    2.8347  -10.4327    0.0000 C   0  0  0  0  0  0  0  0  0  0  0  0
    3.9343   -9.4124    0.0000 C   0  0  0  0  0  0  0  0  0  0  0  0
    4.6843  -10.7115    0.0000 C   0  0  0  0  0  0  0  0  0  0  0  0
    6.1843  -10.7115    0.0000 C   0  0  0  0  0  0  0  0  0  0  0  0
    6.9343   -9.4124    0.0000 C   0  0  0  0  0  0  0  0  0  0  0  0
    6.1843   -8.1134    0.0000 C   0  0  0  0  0  0  0  0  0  0  0  0
    4.6843   -8.1134    0.0000 C   0  0  0  0  0  0  0  0  0  0  0  0
    5.0181   -6.6510    0.0000 C   0  0  0  0  0  0  0  0  0  0  0  0
    6.3695   -7.3018    0.0000 C   0  0  0  0  0  0  0  0  0  0  0  0
    7.6089   -6.4569    0.0000 C   0  0  0  0  0  0  0  0  0  0  0  0
    7.4968   -4.9611    0.0000 C   0  0  0  0  0  0  0  0  0  0  0  0
    6.1453   -4.3102    0.0000 C   0  0  0  0  0  0  0  0  0  0  0  0
    4.9060   -5.1552    0.0000 C   0  0  0  0  0  0  0  0  0  0  0  0
  1  2  1  0
  2  3  1  0
  3  4  1  0
  4  5  2  0
  5  6  1  0
  6  7  1  0
  7  8  2  0
  7  9  1  0
  9 10  1  0
 10 11  2  0
 11 12  1  0
 12 13  2  0
 13 14  1  0
 14 15  2  0
  6 16  1  0
 16 17  2  0
 17 18  1  0
 18 19  2  0
 19 20  1  0
 20 21  2  0
 21 22  1  0
 22 23  2  0
 23 24  1  0
 24 25  2  0
 25 26  1  0
 26 27  2  0
 27 28  1  0
 28 29  2  0
 29 30  1  0
 30 31  2  0
 31 32  1  0
 32 33  2  0
 33 34  1  0
 34 35  2  0
 35 36  1  0
 36 37  2  0
 37 38  1  0
 38 39  2  0
 39 40  1  0
 40 41  2  0
 41 42  1  0
 42 43  2  0
 43 44  1  0
 44 45  2  0
 45 46  1  0
 46 47  2  0
 47 48  1  0
 48 49  2  0
 49 50  1  0
 50 51  2  0
 51 52  1  0
 52 53  2  0
 53 54  1  0
 54 55  2  0
 55 56  1  0
 56 57  2  0
 57 58  1  0
 58 59  2  0
 59 60  1  0
 60 61  2  0
 61 62  1  0
 62 63  2  0
 63 64  1  0
 64 65  2  0
 65 66  1  0
 66 67  2  0
 67 68  1  0
 68 69  2  0
 69  4  1  0
 15 10  1  0
 21 16  1  0
 27 22  1  0
 33 28  1  0
 39 34  1  0
 45 40  1  0
 51 46  1  0
 57 52  1  0
 63 58  1  0
 69 64  1  0
M  END
>  <Title>  (442) 
idAAPBgen9

$$$$

     RDKit          2D

 15 15  0  0  0  0  0  0  0  0999 V2000
   13.0607    0.0000    0.0000 C   0  0  0  0  0  0  0  0  0  0  0  0
   11.5607    0.0000    0.0000 C   0  0  0  0  0  0  0  0  0  0  0  0
   10.0607    0.0000    0.0000 C   0  0  0  0  0  0  0  0  0  0  0  0
    8.5607    0.0000    0.0000 C   0  0  0  0  0  0  0  0  0  0  0  0
    7.0607    0.0000    0.0000 C   0  0  0  0  0  0  0  0  0  0  0  0
    5.5607    0.0000    0.0000 C   0  0  0  0  0  0  0  0  0  0  0  0
    4.0607    0.0000    0.0000 C   0  0  0  0  0  0  0  0  0  0  0  0
    2.5607    0.0000    0.0000 C   0  0  0  0  0  0  0  0  0  0  0  0
    1.0607    0.0000    0.0000 C   0  0  0  0  0  0  0  0  0  0  0  0
   -0.0000   -1.0607    0.0000 C   0  0  0  0  0  0  0  0  0  0  0  0
   -1.0607    0.0000    0.0000 C   0  0  0  0  0  0  0  0  0  0  0  0
   -2.5607    0.0000    0.0000 C   0  0  0  0  0  0  0  0  0  0  0  0
   -3.3107   -1.2990    0.0000 O   0  0  0  0  0  0  0  0  0  0  0  0
   -3.3107    1.2990    0.0000 O   0  0  0  0  0  0  0  0  0  0  0  0
    0.0000    1.0607    0.0000 C   0  0  0  0  0  0  0  0  0  0  0  0
  1  2  3  0
  2  3  1  0
  3  4  3  0
  4  5  1  0
  5  6  3  0
  6  7  1  0
  7  8  3  0
  8  9  1  0
  9 10  2  0
 10 11  1  0
 11 12  1  0
 12 13  2  0
 12 14  1  0
 11 15  1  0
 15  9  1  0
M  END
>  <Title>  (443) 
idAAPCgen9

$$$$

     RDKit          2D

 12 12  0  0  0  0  0  0  0  0999 V2000
   10.2760   -0.0000    0.0000 C   0  0  0  0  0  0  0  0  0  0  0  0
    8.7760   -0.0000    0.0000 C   0  0  0  0  0  0  0  0  0  0  0  0
    7.2760   -0.0000    0.0000 C   0  0  0  0  0  0  0  0  0  0  0  0
    5.7760   -0.0000    0.0000 C   0  0  0  0  0  0  0  0  0  0  0  0
    4.2760   -0.0000    0.0000 C   0  0  0  0  0  0  0  0  0  0  0  0
    2.7760    0.0000    0.0000 C   0  0  0  0  0  0  0  0  0  0  0  0
    1.2760    0.0000    0.0000 C   0  0  0  0  0  0  0  0  0  0  0  0
    0.3943    1.2135    0.0000 C   0  0  0  0  0  0  0  0  0  0  0  0
   -1.0323    0.7500    0.0000 C   0  0  0  0  0  0  0  0  0  0  0  0
   -1.0323   -0.7500    0.0000 C   0  0  0  0  0  0  0  0  0  0  0  0
   -2.2458   -1.6317    0.0000 O   0  0  0  0  0  0  0  0  0  0  0  0
    0.3943   -1.2135    0.0000 C   0  0  0  0  0  0  0  0  0  0  0  0
  1  2  3  0
  2  3  1  0
  3  4  3  0
  4  5  1  0
  5  6  3  0
  6  7  1  0
  7  8  2  0
  8  9  1  0
  9 10  2  0
 10 11  1  0
 10 12  1  0
 12  7  1  0
M  END
>  <Title>  (444) 
idAAPDgen9

$$$$

     RDKit          2D

116117  0  0  0  0  0  0  0  0999 V2000
   -2.3748    0.1107    0.0000 C   0  0  0  0  0  0  0  0  0  0  0  0
   -2.2476   -1.3839    0.0000 C   0  0  0  0  0  0  0  0  0  0  0  0
   -3.7380   -1.5534    0.0000 C   0  0  0  0  0  0  0  0  0  0  0  0
   -5.2164   -1.8069    0.0000 C   0  0  0  0  0  0  0  0  0  0  0  0
   -6.6781   -2.1436    0.0000 C   0  0  0  0  0  0  0  0  0  0  0  0
   -8.1185   -2.5625    0.0000 C   0  0  0  0  0  0  0  0  0  0  0  0
   -9.5328   -3.0622    0.0000 C   0  0  0  0  0  0  0  0  0  0  0  0
  -10.9166   -3.6411    0.0000 C   0  0  0  0  0  0  0  0  0  0  0  0
  -12.2654   -4.2974    0.0000 C   0  0  0  0  0  0  0  0  0  0  0  0
  -13.5749   -5.0289    0.0000 C   0  0  0  0  0  0  0  0  0  0  0  0
  -14.8409   -5.8334    0.0000 C   0  0  0  0  0  0  0  0  0  0  0  0
  -16.0594   -6.7082    0.0000 C   0  0  0  0  0  0  0  0  0  0  0  0
  -17.2265   -7.6505    0.0000 C   0  0  0  0  0  0  0  0  0  0  0  0
  -18.3383   -8.6574    0.0000 C   0  0  0  0  0  0  0  0  0  0  0  0
  -19.3915   -9.7255    0.0000 C   0  0  0  0  0  0  0  0  0  0  0  0
  -20.3825  -10.8515    0.0000 C   0  0  0  0  0  0  0  0  0  0  0  0
  -21.3082  -12.0318    0.0000 C   0  0  0  0  0  0  0  0  0  0  0  0
  -22.1657  -13.2625    0.0000 C   0  0  0  0  0  0  0  0  0  0  0  0
  -22.9521  -14.5398    0.0000 C   0  0  0  0  0  0  0  0  0  0  0  0
  -23.6651  -15.8596    0.0000 C   0  0  0  0  0  0  0  0  0  0  0  0
  -24.3022  -17.2175    0.0000 C   0  0  0  0  0  0  0  0  0  0  0  0
  -24.8615  -18.6094    0.0000 C   0  0  0  0  0  0  0  0  0  0  0  0
  -25.3411  -20.0306    0.0000 C   0  0  0  0  0  0  0  0  0  0  0  0
  -25.7396  -21.4767    0.0000 C   0  0  0  0  0  0  0  0  0  0  0  0
  -26.0556  -22.9431    0.0000 C   0  0  0  0  0  0  0  0  0  0  0  0
  -26.2882  -24.4249    0.0000 C   0  0  0  0  0  0  0  0  0  0  0  0
  -26.4365  -25.9176    0.0000 C   0  0  0  0  0  0  0  0  0  0  0  0
  -26.5002  -27.4162    0.0000 C   0  0  0  0  0  0  0  0  0  0  0  0
  -26.4790  -28.9161    0.0000 C   0  0  0  0  0  0  0  0  0  0  0  0
  -26.3729  -30.4123    0.0000 C   0  0  0  0  0  0  0  0  0  0  0  0
  -26.1824  -31.9002    0.0000 C   0  0  0  0  0  0  0  0  0  0  0  0
  -25.9080  -33.3749    0.0000 C   0  0  0  0  0  0  0  0  0  0  0  0
  -25.5506  -34.8317    0.0000 C   0  0  0  0  0  0  0  0  0  0  0  0
  -25.1114  -36.2659    0.0000 C   0  0  0  0  0  0  0  0  0  0  0  0
  -24.5917  -37.6730    0.0000 C   0  0  0  0  0  0  0  0  0  0  0  0
  -23.9932  -39.0485    0.0000 C   0  0  0  0  0  0  0  0  0  0  0  0
  -23.3179  -40.3879    0.0000 C   0  0  0  0  0  0  0  0  0  0  0  0
  -22.5679  -41.6869    0.0000 C   0  0  0  0  0  0  0  0  0  0  0  0
  -21.7456  -42.9414    0.0000 C   0  0  0  0  0  0  0  0  0  0  0  0
  -20.8537  -44.1474    0.0000 C   0  0  0  0  0  0  0  0  0  0  0  0
  -19.8949  -45.3010    0.0000 C   0  0  0  0  0  0  0  0  0  0  0  0
  -18.8725  -46.3985    0.0000 C   0  0  0  0  0  0  0  0  0  0  0  0
  -17.7895  -47.4364    0.0000 C   0  0  0  0  0  0  0  0  0  0  0  0
  -16.6496  -48.4114    0.0000 C   0  0  0  0  0  0  0  0  0  0  0  0
  -15.4564  -49.3203    0.0000 C   0  0  0  0  0  0  0  0  0  0  0  0
  -14.2136  -50.1603    0.0000 C   0  0  0  0  0  0  0  0  0  0  0  0
  -12.9253  -50.9286    0.0000 C   0  0  0  0  0  0  0  0  0  0  0  0
  -11.5956  -51.6228    0.0000 C   0  0  0  0  0  0  0  0  0  0  0  0
  -10.2288  -52.2407    0.0000 C   0  0  0  0  0  0  0  0  0  0  0  0
   -8.8291  -52.7802    0.0000 C   0  0  0  0  0  0  0  0  0  0  0  0
   -7.4013  -53.2397    0.0000 C   0  0  0  0  0  0  0  0  0  0  0  0
   -5.9497  -53.6176    0.0000 C   0  0  0  0  0  0  0  0  0  0  0  0
   -4.4790  -53.9129    0.0000 C   0  0  0  0  0  0  0  0  0  0  0  0
   -2.9940  -54.1244    0.0000 C   0  0  0  0  0  0  0  0  0  0  0  0
   -1.4994  -54.2516    0.0000 C   0  0  0  0  0  0  0  0  0  0  0  0
   -0.0000  -54.2941    0.0000 C   0  0  0  0  0  0  0  0  0  0  0  0
    1.4994  -54.2516    0.0000 C   0  0  0  0  0  0  0  0  0  0  0  0
    2.9940  -54.1244    0.0000 C   0  0  0  0  0  0  0  0  0  0  0  0
    4.4790  -53.9129    0.0000 C   0  0  0  0  0  0  0  0  0  0  0  0
    5.9497  -53.6176    0.0000 C   0  0  0  0  0  0  0  0  0  0  0  0
    7.4013  -53.2397    0.0000 C   0  0  0  0  0  0  0  0  0  0  0  0
    8.8291  -52.7802    0.0000 C   0  0  0  0  0  0  0  0  0  0  0  0
   10.2288  -52.2407    0.0000 C   0  0  0  0  0  0  0  0  0  0  0  0
   11.5956  -51.6228    0.0000 C   0  0  0  0  0  0  0  0  0  0  0  0
   12.9253  -50.9286    0.0000 C   0  0  0  0  0  0  0  0  0  0  0  0
   14.2136  -50.1603    0.0000 C   0  0  0  0  0  0  0  0  0  0  0  0
   15.4564  -49.3203    0.0000 C   0  0  0  0  0  0  0  0  0  0  0  0
   16.6496  -48.4114    0.0000 C   0  0  0  0  0  0  0  0  0  0  0  0
   17.7895  -47.4364    0.0000 C   0  0  0  0  0  0  0  0  0  0  0  0
   18.8725  -46.3985    0.0000 C   0  0  0  0  0  0  0  0  0  0  0  0
   19.8949  -45.3010    0.0000 C   0  0  0  0  0  0  0  0  0  0  0  0
   20.8537  -44.1474    0.0000 C   0  0  0  0  0  0  0  0  0  0  0  0
   21.7456  -42.9414    0.0000 C   0  0  0  0  0  0  0  0  0  0  0  0
   22.5679  -41.6869    0.0000 C   0  0  0  0  0  0  0  0  0  0  0  0
   23.3179  -40.3879    0.0000 C   0  0  0  0  0  0  0  0  0  0  0  0
   23.9932  -39.0485    0.0000 C   0  0  0  0  0  0  0  0  0  0  0  0
   24.5917  -37.6730    0.0000 C   0  0  0  0  0  0  0  0  0  0  0  0
   25.1114  -36.2659    0.0000 C   0  0  0  0  0  0  0  0  0  0  0  0
   25.5506  -34.8317    0.0000 C   0  0  0  0  0  0  0  0  0  0  0  0
   25.9080  -33.3749    0.0000 C   0  0  0  0  0  0  0  0  0  0  0  0
   26.1824  -31.9002    0.0000 C   0  0  0  0  0  0  0  0  0  0  0  0
   26.3729  -30.4123    0.0000 C   0  0  0  0  0  0  0  0  0  0  0  0
   26.4790  -28.9161    0.0000 C   0  0  0  0  0  0  0  0  0  0  0  0
   26.5002  -27.4162    0.0000 C   0  0  0  0  0  0  0  0  0  0  0  0
   26.4365  -25.9176    0.0000 C   0  0  0  0  0  0  0  0  0  0  0  0
   26.2882  -24.4249    0.0000 C   0  0  0  0  0  0  0  0  0  0  0  0
   26.0556  -22.9431    0.0000 C   0  0  0  0  0  0  0  0  0  0  0  0
   25.7396  -21.4767    0.0000 C   0  0  0  0  0  0  0  0  0  0  0  0
   25.3411  -20.0306    0.0000 C   0  0  0  0  0  0  0  0  0  0  0  0
   24.8615  -18.6094    0.0000 C   0  0  0  0  0  0  0  0  0  0  0  0
   24.3022  -17.2175    0.0000 C   0  0  0  0  0  0  0  0  0  0  0  0
   23.6651  -15.8596    0.0000 C   0  0  0  0  0  0  0  0  0  0  0  0
   22.9521  -14.5398    0.0000 C   0  0  0  0  0  0  0  0  0  0  0  0
   22.1657  -13.2625    0.0000 C   0  0  0  0  0  0  0  0  0  0  0  0
   21.3082  -12.0318    0.0000 C   0  0  0  0  0  0  0  0  0  0  0  0
   20.3825  -10.8515    0.0000 C   0  0  0  0  0  0  0  0  0  0  0  0
   19.3915   -9.7255    0.0000 C   0  0  0  0  0  0  0  0  0  0  0  0
   18.3383   -8.6574    0.0000 C   0  0  0  0  0  0  0  0  0  0  0  0
   17.2265   -7.6505    0.0000 C   0  0  0  0  0  0  0  0  0  0  0  0
   16.0594   -6.7082    0.0000 C   0  0  0  0  0  0  0  0  0  0  0  0
   14.8409   -5.8334    0.0000 C   0  0  0  0  0  0  0  0  0  0  0  0
   13.5749   -5.0289    0.0000 C   0  0  0  0  0  0  0  0  0  0  0  0
   12.2654   -4.2974    0.0000 C   0  0  0  0  0  0  0  0  0  0  0  0
   10.9166   -3.6411    0.0000 C   0  0  0  0  0  0  0  0  0  0  0  0
    9.5328   -3.0622    0.0000 C   0  0  0  0  0  0  0  0  0  0  0  0
    8.1185   -2.5625    0.0000 C   0  0  0  0  0  0  0  0  0  0  0  0
    6.6781   -2.1436    0.0000 C   0  0  0  0  0  0  0  0  0  0  0  0
    5.2164   -1.8069    0.0000 C   0  0  0  0  0  0  0  0  0  0  0  0
    3.7380   -1.5534    0.0000 C   0  0  0  0  0  0  0  0  0  0  0  0
    2.2476   -1.3839    0.0000 C   0  0  0  0  0  0  0  0  0  0  0  0
    0.7500   -1.2990    0.0000 C   0  0  0  0  0  0  0  0  0  0  0  0
    1.5000    0.0000    0.0000 C   0  0  0  0  0  0  0  0  0  0  0  0
    0.7500    1.2990    0.0000 C   0  0  0  0  0  0  0  0  0  0  0  0
   -0.7500    1.2990    0.0000 C   0  0  0  0  0  0  0  0  0  0  0  0
   -1.5000    0.0000    0.0000 C   0  0  0  0  0  0  0  0  0  0  0  0
   -0.7500   -1.2990    0.0000 C   0  0  0  0  0  0  0  0  0  0  0  0
  1  2  1  0
  2  3  1  0
  3  4  1  0
  4  5  1  0
  5  6  1  0
  6  7  1  0
  7  8  1  0
  8  9  1  0
  9 10  1  0
 10 11  1  0
 11 12  1  0
 12 13  1  0
 13 14  1  0
 14 15  1  0
 15 16  1  0
 16 17  1  0
 17 18  1  0
 18 19  1  0
 19 20  1  0
 20 21  1  0
 21 22  1  0
 22 23  1  0
 23 24  1  0
 24 25  1  0
 25 26  1  0
 26 27  1  0
 27 28  1  0
 28 29  1  0
 29 30  1  0
 30 31  1  0
 31 32  1  0
 32 33  1  0
 33 34  1  0
 34 35  1  0
 35 36  1  0
 36 37  1  0
 37 38  1  0
 38 39  1  0
 39 40  1  0
 40 41  1  0
 41 42  1  0
 42 43  1  0
 43 44  1  0
 44 45  1  0
 45 46  1  0
 46 47  1  0
 47 48  1  0
 48 49  1  0
 49 50  1  0
 50 51  1  0
 51 52  1  0
 52 53  1  0
 53 54  1  0
 54 55  1  0
 55 56  1  0
 56 57  1  0
 57 58  1  0
 58 59  1  0
 59 60  1  0
 60 61  1  0
 61 62  1  0
 62 63  1  0
 63 64  1  0
 64 65  1  0
 65 66  1  0
 66 67  1  0
 67 68  1  0
 68 69  1  0
 69 70  1  0
 70 71  1  0
 71 72  1  0
 72 73  1  0
 73 74  1  0
 74 75  1  0
 75 76  1  0
 76 77  1  0
 77 78  1  0
 78 79  1  0
 79 80  1  0
 80 81  1  0
 81 82  1  0
 82 83  1  0
 83 84  1  0
 84 85  1  0
 85 86  1  0
 86 87  1  0
 87 88  1  0
 88 89  1  0
 89 90  1  0
 90 91  1  0
 91 92  1  0
 92 93  1  0
 93 94  1  0
 94 95  1  0
 95 96  1  0
 96 97  1  0
 97 98  1  0
 98 99  1  0
 99100  1  0
100101  1  0
101102  1  0
102103  1  0
103104  1  0
104105  1  0
105106  1  0
106107  1  0
107108  1  0
108109  1  0
109110  1  0
110111  1  0
111112  2  0
112113  1  0
113114  2  0
114115  1  0
115116  2  0
116  2  1  0
116111  1  0
M  END
>  <Title>  (445) 
idAAPEgen9

$$$$

     RDKit          2D

 11 11  0  0  0  0  0  0  0  0999 V2000
   10.0607    0.0000    0.0000 C   0  0  0  0  0  0  0  0  0  0  0  0
    8.5607    0.0000    0.0000 C   0  0  0  0  0  0  0  0  0  0  0  0
    7.0607    0.0000    0.0000 C   0  0  0  0  0  0  0  0  0  0  0  0
    5.5607    0.0000    0.0000 C   0  0  0  0  0  0  0  0  0  0  0  0
    4.0607    0.0000    0.0000 C   0  0  0  0  0  0  0  0  0  0  0  0
    2.5607    0.0000    0.0000 C   0  0  0  0  0  0  0  0  0  0  0  0
    1.0607    0.0000    0.0000 C   0  0  0  0  0  0  0  0  0  0  0  0
   -0.0000   -1.0607    0.0000 C   0  0  0  0  0  0  0  0  0  0  0  0
   -1.0607    0.0000    0.0000 C   0  0  0  0  0  0  0  0  0  0  0  0
   -2.5607    0.0000    0.0000 C   0  0  0  0  0  0  0  0  0  0  0  0
    0.0000    1.0607    0.0000 C   0  0  0  0  0  0  0  0  0  0  0  0
  1  2  3  0
  2  3  1  0
  3  4  3  0
  4  5  1  0
  5  6  3  0
  6  7  1  0
  7  8  2  0
  8  9  1  0
  9 10  1  0
  9 11  2  0
 11  7  1  0
M  END
>  <Title>  (446) 
idAAPFgen9

$$$$

     RDKit          2D

 84 85  0  0  0  0  0  0  0  0999 V2000
   -3.8268    1.3396    0.0000 C   0  0  0  0  0  0  0  0  0  0  0  0
   -3.2037    2.7041    0.0000 C   0  0  0  0  0  0  0  0  0  0  0  0
   -4.5416    3.3823    0.0000 C   0  0  0  0  0  0  0  0  0  0  0  0
   -5.8197    4.1674    0.0000 C   0  0  0  0  0  0  0  0  0  0  0  0
   -7.0297    5.0540    0.0000 C   0  0  0  0  0  0  0  0  0  0  0  0
   -8.1633    6.0363    0.0000 C   0  0  0  0  0  0  0  0  0  0  0  0
   -9.2131    7.1077    0.0000 C   0  0  0  0  0  0  0  0  0  0  0  0
  -10.1720    8.2611    0.0000 C   0  0  0  0  0  0  0  0  0  0  0  0
  -11.0338    9.4889    0.0000 C   0  0  0  0  0  0  0  0  0  0  0  0
  -11.7926   10.7828    0.0000 C   0  0  0  0  0  0  0  0  0  0  0  0
  -12.4434   12.1342    0.0000 C   0  0  0  0  0  0  0  0  0  0  0  0
  -12.9819   13.5342    0.0000 C   0  0  0  0  0  0  0  0  0  0  0  0
  -13.4045   14.9735    0.0000 C   0  0  0  0  0  0  0  0  0  0  0  0
  -13.7084   16.4424    0.0000 C   0  0  0  0  0  0  0  0  0  0  0  0
  -13.8916   17.9312    0.0000 C   0  0  0  0  0  0  0  0  0  0  0  0
  -13.9527   19.4299    0.0000 C   0  0  0  0  0  0  0  0  0  0  0  0
  -13.8916   20.9287    0.0000 C   0  0  0  0  0  0  0  0  0  0  0  0
  -13.7084   22.4174    0.0000 C   0  0  0  0  0  0  0  0  0  0  0  0
  -13.4045   23.8863    0.0000 C   0  0  0  0  0  0  0  0  0  0  0  0
  -12.9819   25.3256    0.0000 C   0  0  0  0  0  0  0  0  0  0  0  0
  -12.4434   26.7256    0.0000 C   0  0  0  0  0  0  0  0  0  0  0  0
  -11.7926   28.0770    0.0000 C   0  0  0  0  0  0  0  0  0  0  0  0
  -11.0338   29.3709    0.0000 C   0  0  0  0  0  0  0  0  0  0  0  0
  -10.1720   30.5987    0.0000 C   0  0  0  0  0  0  0  0  0  0  0  0
   -9.2131   31.7521    0.0000 C   0  0  0  0  0  0  0  0  0  0  0  0
   -8.1633   32.8235    0.0000 C   0  0  0  0  0  0  0  0  0  0  0  0
   -7.0297   33.8058    0.0000 C   0  0  0  0  0  0  0  0  0  0  0  0
   -5.8197   34.6925    0.0000 C   0  0  0  0  0  0  0  0  0  0  0  0
   -4.5416   35.4775    0.0000 C   0  0  0  0  0  0  0  0  0  0  0  0
   -3.2037   36.1558    0.0000 C   0  0  0  0  0  0  0  0  0  0  0  0
   -1.8150   36.7227    0.0000 C   0  0  0  0  0  0  0  0  0  0  0  0
   -0.3846   37.1746    0.0000 C   0  0  0  0  0  0  0  0  0  0  0  0
    1.0777   37.5084    0.0000 C   0  0  0  0  0  0  0  0  0  0  0  0
    2.5625   37.7218    0.0000 C   0  0  0  0  0  0  0  0  0  0  0  0
    4.0597   37.8136    0.0000 C   0  0  0  0  0  0  0  0  0  0  0  0
    5.5594   37.7830    0.0000 C   0  0  0  0  0  0  0  0  0  0  0  0
    7.0516   37.6302    0.0000 C   0  0  0  0  0  0  0  0  0  0  0  0
    8.5264   37.3564    0.0000 C   0  0  0  0  0  0  0  0  0  0  0  0
    9.9739   36.9632    0.0000 C   0  0  0  0  0  0  0  0  0  0  0  0
   11.3846   36.4534    0.0000 C   0  0  0  0  0  0  0  0  0  0  0  0
   12.7491   35.8303    0.0000 C   0  0  0  0  0  0  0  0  0  0  0  0
   14.0582   35.0980    0.0000 C   0  0  0  0  0  0  0  0  0  0  0  0
   15.3033   34.2615    0.0000 C   0  0  0  0  0  0  0  0  0  0  0  0
   16.4760   33.3263    0.0000 C   0  0  0  0  0  0  0  0  0  0  0  0
   17.5686   32.2985    0.0000 C   0  0  0  0  0  0  0  0  0  0  0  0
   18.5738   31.1852    0.0000 C   0  0  0  0  0  0  0  0  0  0  0  0
   19.4849   29.9936    0.0000 C   0  0  0  0  0  0  0  0  0  0  0  0
   20.2959   28.7317    0.0000 C   0  0  0  0  0  0  0  0  0  0  0  0
   21.0013   27.4079    0.0000 C   0  0  0  0  0  0  0  0  0  0  0  0
   21.5965   26.0311    0.0000 C   0  0  0  0  0  0  0  0  0  0  0  0
   22.0774   24.6103    0.0000 C   0  0  0  0  0  0  0  0  0  0  0  0
   22.4410   23.1550    0.0000 C   0  0  0  0  0  0  0  0  0  0  0  0
   22.6847   21.6749    0.0000 C   0  0  0  0  0  0  0  0  0  0  0  0
   22.8069   20.1799    0.0000 C   0  0  0  0  0  0  0  0  0  0  0  0
   22.8069   18.6799    0.0000 C   0  0  0  0  0  0  0  0  0  0  0  0
   22.6847   17.1849    0.0000 C   0  0  0  0  0  0  0  0  0  0  0  0
   22.4410   15.7048    0.0000 C   0  0  0  0  0  0  0  0  0  0  0  0
   22.0774   14.2496    0.0000 C   0  0  0  0  0  0  0  0  0  0  0  0
   21.5965   12.8287    0.0000 C   0  0  0  0  0  0  0  0  0  0  0  0
   21.0013   11.4519    0.0000 C   0  0  0  0  0  0  0  0  0  0  0  0
   20.2959   10.1281    0.0000 C   0  0  0  0  0  0  0  0  0  0  0  0
   19.4849    8.8662    0.0000 C   0  0  0  0  0  0  0  0  0  0  0  0
   18.5738    7.6746    0.0000 C   0  0  0  0  0  0  0  0  0  0  0  0
   17.5686    6.5613    0.0000 C   0  0  0  0  0  0  0  0  0  0  0  0
   16.4760    5.5336    0.0000 C   0  0  0  0  0  0  0  0  0  0  0  0
   15.3033    4.5983    0.0000 C   0  0  0  0  0  0  0  0  0  0  0  0
   14.0582    3.7618    0.0000 C   0  0  0  0  0  0  0  0  0  0  0  0
   12.7491    3.0295    0.0000 C   0  0  0  0  0  0  0  0  0  0  0  0
   11.3846    2.4064    0.0000 C   0  0  0  0  0  0  0  0  0  0  0  0
    9.9739    1.8966    0.0000 C   0  0  0  0  0  0  0  0  0  0  0  0
    8.5264    1.5034    0.0000 C   0  0  0  0  0  0  0  0  0  0  0  0
    7.0516    1.2296    0.0000 C   0  0  0  0  0  0  0  0  0  0  0  0
    5.5594    1.0768    0.0000 C   0  0  0  0  0  0  0  0  0  0  0  0
    4.0597    1.0462    0.0000 C   0  0  0  0  0  0  0  0  0  0  0  0
    2.5625    1.1380    0.0000 C   0  0  0  0  0  0  0  0  0  0  0  0
    2.4097   -0.3542    0.0000 C   0  0  0  0  0  0  0  0  0  0  0  0
    1.0777    1.3515    0.0000 C   0  0  0  0  0  0  0  0  0  0  0  0
    1.7286    0.0000    0.0000 C   0  0  0  0  0  0  0  0  0  0  0  0
    1.0777   -1.3515    0.0000 C   0  0  0  0  0  0  0  0  0  0  0  0
   -0.3846   -1.6852    0.0000 C   0  0  0  0  0  0  0  0  0  0  0  0
   -1.5574   -0.7500    0.0000 C   0  0  0  0  0  0  0  0  0  0  0  0
   -1.5574    0.7500    0.0000 N   0  0  0  0  0  0  0  0  0  0  0  0
   -0.3846    1.6852    0.0000 C   0  0  0  0  0  0  0  0  0  0  0  0
   -1.8150    2.1371    0.0000 C   0  0  0  0  0  0  0  0  0  0  0  0
  1  2  1  0
  2  3  1  0
  3  4  1  0
  4  5  1  0
  5  6  1  0
  6  7  1  0
  7  8  1  0
  8  9  1  0
  9 10  1  0
 10 11  1  0
 11 12  1  0
 12 13  1  0
 13 14  1  0
 14 15  1  0
 15 16  1  0
 16 17  1  0
 17 18  1  0
 18 19  1  0
 19 20  1  0
 20 21  1  0
 21 22  1  0
 22 23  1  0
 23 24  1  0
 24 25  1  0
 25 26  1  0
 26 27  1  0
 27 28  1  0
 28 29  1  0
 29 30  1  0
 30 31  1  0
 31 32  1  0
 32 33  1  0
 33 34  1  0
 34 35  1  0
 35 36  1  0
 36 37  1  0
 37 38  1  0
 38 39  1  0
 39 40  1  0
 40 41  1  0
 41 42  1  0
 42 43  1  0
 43 44  1  0
 44 45  1  0
 45 46  1  0
 46 47  1  0
 47 48  1  0
 48 49  1  0
 49 50  1  0
 50 51  1  0
 51 52  1  0
 52 53  1  0
 53 54  1  0
 54 55  1  0
 55 56  1  0
 56 57  1  0
 57 58  1  0
 58 59  1  0
 59 60  1  0
 60 61  1  0
 61 62  1  0
 62 63  1  0
 63 64  1  0
 64 65  1  0
 65 66  1  0
 66 67  1  0
 67 68  1  0
 68 69  1  0
 69 70  1  0
 70 71  1  0
 71 72  1  0
 72 73  1  0
 73 74  1  0
 74 75  1  0
 75 76  1  0
 75 77  1  0
 77 78  2  0
 78 79  1  0
 79 80  2  0
 80 81  1  0
 81 82  1  0
 82 83  1  0
 83 84  1  0
 84  2  1  0
 83 77  1  0
M  END
>  <Title>  (447) 
idAAPGgen9

$$$$

     RDKit          2D

 25 27  0  0  0  0  0  0  0  0999 V2000
   -2.4240   -8.7293    0.0000 C   0  0  0  0  0  0  0  0  0  0  0  0
   -1.0537   -8.1192    0.0000 N   0  0  0  0  0  0  0  0  0  0  0  0
    0.2454   -8.8692    0.0000 C   0  0  0  0  0  0  0  0  0  0  0  0
    1.3601   -7.8655    0.0000 C   0  0  0  0  0  0  0  0  0  0  0  0
    0.7500   -6.4952    0.0000 C   0  0  0  0  0  0  0  0  0  0  0  0
    1.5000   -5.1962    0.0000 C   0  0  0  0  0  0  0  0  0  0  0  0
    0.7500   -3.8971    0.0000 C   0  0  0  0  0  0  0  0  0  0  0  0
    1.5000   -2.5981    0.0000 C   0  0  0  0  0  0  0  0  0  0  0  0
    3.0000   -2.5981    0.0000 O   0  0  0  0  0  0  0  0  0  0  0  0
    0.7500   -1.2990    0.0000 N   0  0  0  0  0  0  0  0  0  0  0  0
    1.5000    0.0000    0.0000 C   0  0  0  0  0  0  0  0  0  0  0  0
    0.7500    1.2990    0.0000 C   0  0  0  0  0  0  0  0  0  0  0  0
   -0.7500    1.2990    0.0000 C   0  0  0  0  0  0  0  0  0  0  0  0
   -1.5000    2.5981    0.0000 C   0  0  0  0  0  0  0  0  0  0  0  0
   -3.0000    2.5981    0.0000 O   0  0  0  0  0  0  0  0  0  0  0  0
   -0.7500    3.8971    0.0000 N   0  0  0  0  0  0  0  0  0  0  0  0
   -1.5000    5.1962    0.0000 C   0  0  0  0  0  0  0  0  0  0  0  0
   -0.7500    6.4952    0.0000 N   0  0  0  0  0  0  0  0  0  0  0  0
   -1.5000    7.7942    0.0000 N   0  0  0  0  0  0  0  0  0  0  0  0
   -3.0000    7.7942    0.0000 N   0  0  0  0  0  0  0  0  0  0  0  0
   -3.7500    6.4952    0.0000 N   0  0  0  0  0  0  0  0  0  0  0  0
   -3.0000    5.1962    0.0000 N   0  0  0  0  0  0  0  0  0  0  0  0
   -1.5000    0.0000    0.0000 C   0  0  0  0  0  0  0  0  0  0  0  0
   -0.7500   -1.2990    0.0000 C   0  0  0  0  0  0  0  0  0  0  0  0
   -0.7418   -6.6520    0.0000 C   0  0  0  0  0  0  0  0  0  0  0  0
  1  2  1  0
  2  3  1  0
  3  4  2  0
  4  5  1  0
  5  6  1  0
  6  7  1  0
  7  8  1  0
  8  9  2  0
  8 10  1  0
 10 11  1  0
 11 12  2  0
 12 13  1  0
 13 14  1  0
 14 15  2  0
 14 16  1  0
 16 17  1  0
 17 18  2  0
 18 19  1  0
 19 20  2  0
 20 21  1  0
 21 22  2  0
 13 23  1  0
 23 24  1  0
  5 25  1  0
 25  2  1  0
 24 10  1  0
 22 17  1  0
M  END
>  <Title>  (448) 
idAAPHgen9

$$$$

     RDKit          2D

 11 11  0  0  0  0  0  0  0  0999 V2000
    5.0260   -3.8971    0.0000 O   0  0  0  0  0  0  0  0  0  0  0  0
    5.7760   -2.5981    0.0000 C   0  0  0  0  0  0  0  0  0  0  0  0
    7.2760   -2.5981    0.0000 O   0  0  0  0  0  0  0  0  0  0  0  0
    5.0260   -1.2990    0.0000 C   0  0  0  0  0  0  0  0  0  0  0  0
    3.5260   -1.2990    0.0000 C   0  0  0  0  0  0  0  0  0  0  0  0
    2.7760    0.0000    0.0000 O   0  0  0  0  0  0  0  0  0  0  0  0
    1.2760    0.0000    0.0000 C   0  0  0  0  0  0  0  0  0  0  0  0
    0.3943    1.2135    0.0000 C   0  0  0  0  0  0  0  0  0  0  0  0
   -1.0323    0.7500    0.0000 C   0  0  0  0  0  0  0  0  0  0  0  0
   -1.0323   -0.7500    0.0000 C   0  0  0  0  0  0  0  0  0  0  0  0
    0.3943   -1.2135    0.0000 C   0  0  0  0  0  0  0  0  0  0  0  0
  1  2  2  0
  2  3  1  0
  2  4  1  0
  4  5  1  0
  5  6  1  0
  6  7  1  0
  7  8  1  0
  8  9  2  0
  9 10  1  0
 10 11  1  0
 11  7  1  0
M  END
>  <Title>  (449) 
idAAPIgen9

$$$$

     RDKit          2D

 87 93  0  0  0  0  0  0  0  0999 V2000
  -14.9861   -9.6567    0.0000 C   0  0  0  0  0  0  0  0  0  0  0  0
  -13.6077  -10.2483    0.0000 C   0  0  0  0  0  0  0  0  0  0  0  0
  -14.1287  -11.6549    0.0000 C   0  0  0  0  0  0  0  0  0  0  0  0
  -14.5046  -13.1070    0.0000 C   0  0  0  0  0  0  0  0  0  0  0  0
  -14.7318  -14.5897    0.0000 C   0  0  0  0  0  0  0  0  0  0  0  0
  -14.8077  -16.0878    0.0000 C   0  0  0  0  0  0  0  0  0  0  0  0
  -14.7318  -17.5859    0.0000 C   0  0  0  0  0  0  0  0  0  0  0  0
  -14.5046  -19.0686    0.0000 C   0  0  0  0  0  0  0  0  0  0  0  0
  -14.1287  -20.5207    0.0000 C   0  0  0  0  0  0  0  0  0  0  0  0
  -13.6077  -21.9273    0.0000 C   0  0  0  0  0  0  0  0  0  0  0  0
  -12.9471  -23.2740    0.0000 C   0  0  0  0  0  0  0  0  0  0  0  0
  -12.1537  -24.5470    0.0000 C   0  0  0  0  0  0  0  0  0  0  0  0
  -11.2355  -25.7331    0.0000 C   0  0  0  0  0  0  0  0  0  0  0  0
  -10.2020  -26.8203    0.0000 C   0  0  0  0  0  0  0  0  0  0  0  0
   -9.0639  -27.7974    0.0000 C   0  0  0  0  0  0  0  0  0  0  0  0
   -7.8328  -28.6543    0.0000 C   0  0  0  0  0  0  0  0  0  0  0  0
   -6.5212  -29.3822    0.0000 C   0  0  0  0  0  0  0  0  0  0  0  0
   -5.1428  -29.9738    0.0000 C   0  0  0  0  0  0  0  0  0  0  0  0
   -3.7116  -30.4228    0.0000 C   0  0  0  0  0  0  0  0  0  0  0  0
   -2.2423  -30.7248    0.0000 C   0  0  0  0  0  0  0  0  0  0  0  0
   -0.7500  -30.8765    0.0000 C   0  0  0  0  0  0  0  0  0  0  0  0
    0.7500  -30.8765    0.0000 C   0  0  0  0  0  0  0  0  0  0  0  0
    2.2423  -30.7248    0.0000 C   0  0  0  0  0  0  0  0  0  0  0  0
    3.7116  -30.4228    0.0000 C   0  0  0  0  0  0  0  0  0  0  0  0
    5.1428  -29.9738    0.0000 C   0  0  0  0  0  0  0  0  0  0  0  0
    6.5212  -29.3822    0.0000 C   0  0  0  0  0  0  0  0  0  0  0  0
    7.8328  -28.6543    0.0000 C   0  0  0  0  0  0  0  0  0  0  0  0
    9.0639  -27.7974    0.0000 C   0  0  0  0  0  0  0  0  0  0  0  0
   10.2020  -26.8203    0.0000 C   0  0  0  0  0  0  0  0  0  0  0  0
   11.2355  -25.7331    0.0000 C   0  0  0  0  0  0  0  0  0  0  0  0
   12.1537  -24.5470    0.0000 C   0  0  0  0  0  0  0  0  0  0  0  0
   12.9471  -23.2740    0.0000 C   0  0  0  0  0  0  0  0  0  0  0  0
   13.6077  -21.9273    0.0000 C   0  0  0  0  0  0  0  0  0  0  0  0
   14.1287  -20.5207    0.0000 C   0  0  0  0  0  0  0  0  0  0  0  0
   14.5046  -19.0686    0.0000 C   0  0  0  0  0  0  0  0  0  0  0  0
   14.7318  -17.5859    0.0000 C   0  0  0  0  0  0  0  0  0  0  0  0
   14.8077  -16.0878    0.0000 C   0  0  0  0  0  0  0  0  0  0  0  0
   14.7318  -14.5897    0.0000 C   0  0  0  0  0  0  0  0  0  0  0  0
   14.5046  -13.1070    0.0000 C   0  0  0  0  0  0  0  0  0  0  0  0
   14.1287  -11.6549    0.0000 C   0  0  0  0  0  0  0  0  0  0  0  0
   13.6077  -10.2483    0.0000 C   0  0  0  0  0  0  0  0  0  0  0  0
   12.9471   -8.9015    0.0000 C   0  0  0  0  0  0  0  0  0  0  0  0
   12.1537   -7.6286    0.0000 C   0  0  0  0  0  0  0  0  0  0  0  0
   11.2355   -6.4424    0.0000 C   0  0  0  0  0  0  0  0  0  0  0  0
   10.2020   -5.3552    0.0000 C   0  0  0  0  0  0  0  0  0  0  0  0
    9.0639   -4.3782    0.0000 C   0  0  0  0  0  0  0  0  0  0  0  0
    7.8328   -3.5213    0.0000 C   0  0  0  0  0  0  0  0  0  0  0  0
    6.5212   -2.7933    0.0000 C   0  0  0  0  0  0  0  0  0  0  0  0
    5.1428   -2.2018    0.0000 C   0  0  0  0  0  0  0  0  0  0  0  0
    3.7116   -1.7527    0.0000 C   0  0  0  0  0  0  0  0  0  0  0  0
    2.2423   -1.4508    0.0000 C   0  0  0  0  0  0  0  0  0  0  0  0
    0.7500   -1.2990    0.0000 C   0  0  0  0  0  0  0  0  0  0  0  0
    1.5000    0.0000    0.0000 C   0  0  0  0  0  0  0  0  0  0  0  0
    0.7500    1.2990    0.0000 C   0  0  0  0  0  0  0  0  0  0  0  0
   -0.7500    1.2990    0.0000 C   0  0  0  0  0  0  0  0  0  0  0  0
   -1.5000    0.0000    0.0000 C   0  0  0  0  0  0  0  0  0  0  0  0
   -0.7500   -1.2990    0.0000 C   0  0  0  0  0  0  0  0  0  0  0  0
   -2.2423   -1.4508    0.0000 C   0  0  0  0  0  0  0  0  0  0  0  0
   -1.2462   -2.5723    0.0000 C   0  0  0  0  0  0  0  0  0  0  0  0
   -1.7193   -3.9957    0.0000 C   0  0  0  0  0  0  0  0  0  0  0  0
   -3.1886   -4.2976    0.0000 C   0  0  0  0  0  0  0  0  0  0  0  0
   -4.1848   -3.1762    0.0000 C   0  0  0  0  0  0  0  0  0  0  0  0
   -3.7116   -1.7527    0.0000 C   0  0  0  0  0  0  0  0  0  0  0  0
   -5.1428   -2.2018    0.0000 C   0  0  0  0  0  0  0  0  0  0  0  0
   -4.9659   -0.7123    0.0000 C   0  0  0  0  0  0  0  0  0  0  0  0
   -6.1674    0.1857    0.0000 C   0  0  0  0  0  0  0  0  0  0  0  0
   -7.5458   -0.4058    0.0000 C   0  0  0  0  0  0  0  0  0  0  0  0
   -7.7227   -1.8953    0.0000 C   0  0  0  0  0  0  0  0  0  0  0  0
   -6.5212   -2.7933    0.0000 C   0  0  0  0  0  0  0  0  0  0  0  0
   -7.8328   -3.5213    0.0000 C   0  0  0  0  0  0  0  0  0  0  0  0
   -6.4751   -4.1590    0.0000 C   0  0  0  0  0  0  0  0  0  0  0  0
   -6.3486   -5.6537    0.0000 C   0  0  0  0  0  0  0  0  0  0  0  0
   -7.5797   -6.5106    0.0000 C   0  0  0  0  0  0  0  0  0  0  0  0
   -8.9374   -5.8728    0.0000 C   0  0  0  0  0  0  0  0  0  0  0  0
   -9.0639   -4.3782    0.0000 C   0  0  0  0  0  0  0  0  0  0  0  0
  -10.2020   -5.3552    0.0000 C   0  0  0  0  0  0  0  0  0  0  0  0
  -10.6269   -3.9166    0.0000 C   0  0  0  0  0  0  0  0  0  0  0  0
  -12.0851   -3.5652    0.0000 C   0  0  0  0  0  0  0  0  0  0  0  0
  -13.1186   -4.6524    0.0000 C   0  0  0  0  0  0  0  0  0  0  0  0
  -12.6938   -6.0910    0.0000 C   0  0  0  0  0  0  0  0  0  0  0  0
  -11.2355   -6.4424    0.0000 C   0  0  0  0  0  0  0  0  0  0  0  0
  -12.1537   -7.6286    0.0000 C   0  0  0  0  0  0  0  0  0  0  0  0
  -10.6545   -7.6792    0.0000 C   0  0  0  0  0  0  0  0  0  0  0  0
   -9.9488   -9.0029    0.0000 C   0  0  0  0  0  0  0  0  0  0  0  0
  -10.7423  -10.2758    0.0000 C   0  0  0  0  0  0  0  0  0  0  0  0
  -12.2414  -10.2252    0.0000 C   0  0  0  0  0  0  0  0  0  0  0  0
  -12.9471   -8.9015    0.0000 C   0  0  0  0  0  0  0  0  0  0  0  0
  1  2  1  0
  2  3  1  0
  3  4  1  0
  4  5  1  0
  5  6  1  0
  6  7  1  0
  7  8  1  0
  8  9  1  0
  9 10  1  0
 10 11  1  0
 11 12  1  0
 12 13  1  0
 13 14  1  0
 14 15  1  0
 15 16  1  0
 16 17  1  0
 17 18  1  0
 18 19  1  0
 19 20  1  0
 20 21  1  0
 21 22  1  0
 22 23  1  0
 23 24  1  0
 24 25  1  0
 25 26  1  0
 26 27  1  0
 27 28  1  0
 28 29  1  0
 29 30  1  0
 30 31  1  0
 31 32  1  0
 32 33  1  0
 33 34  1  0
 34 35  1  0
 35 36  1  0
 36 37  1  0
 37 38  1  0
 38 39  1  0
 39 40  1  0
 40 41  1  0
 41 42  1  0
 42 43  1  0
 43 44  1  0
 44 45  1  0
 45 46  1  0
 46 47  1  0
 47 48  1  0
 48 49  1  0
 49 50  1  0
 50 51  1  0
 51 52  1  0
 52 53  2  0
 53 54  1  0
 54 55  2  0
 55 56  1  0
 56 57  2  0
 57 58  1  0
 58 59  2  0
 59 60  1  0
 60 61  2  0
 61 62  1  0
 62 63  2  0
 63 64  1  0
 64 65  2  0
 65 66  1  0
 66 67  2  0
 67 68  1  0
 68 69  2  0
 69 70  1  0
 70 71  2  0
 71 72  1  0
 72 73  2  0
 73 74  1  0
 74 75  2  0
 75 76  1  0
 76 77  2  0
 77 78  1  0
 78 79  2  0
 79 80  1  0
 80 81  2  0
 81 82  1  0
 82 83  2  0
 83 84  1  0
 84 85  2  0
 85 86  1  0
 86 87  2  0
 87  2  1  0
 57 52  1  0
 63 58  1  0
 69 64  1  0
 75 70  1  0
 81 76  1  0
 87 82  1  0
M  END
>  <Title>  (450) 
idAAPJgen9

$$$$

     RDKit          2D

 20 22  0  0  0  0  0  0  0  0999 V2000
   10.0355    0.6881    0.0000 C   0  0  0  0  0  0  0  0  0  0  0  0
    8.5683    0.3762    0.0000 N   0  0  0  0  0  0  0  0  0  0  0  0
    7.4536    1.3799    0.0000 C   0  0  0  0  0  0  0  0  0  0  0  0
    6.1545    0.6299    0.0000 C   0  0  0  0  0  0  0  0  0  0  0  0
    6.4664   -0.8373    0.0000 C   0  0  0  0  0  0  0  0  0  0  0  0
    5.4627   -1.9520    0.0000 C   0  0  0  0  0  0  0  0  0  0  0  0
    5.9262   -3.3786    0.0000 O   0  0  0  0  0  0  0  0  0  0  0  0
    3.9955   -1.6402    0.0000 N   0  0  0  0  0  0  0  0  0  0  0  0
    2.9918   -2.7549    0.0000 C   0  0  0  0  0  0  0  0  0  0  0  0
    3.3037   -4.2221    0.0000 N   0  0  0  0  0  0  0  0  0  0  0  0
    2.0046   -4.9721    0.0000 N   0  0  0  0  0  0  0  0  0  0  0  0
    0.8899   -3.9684    0.0000 N   0  0  0  0  0  0  0  0  0  0  0  0
    1.5000   -2.5981    0.0000 N   0  0  0  0  0  0  0  0  0  0  0  0
    0.7500   -1.2990    0.0000 C   0  0  0  0  0  0  0  0  0  0  0  0
    1.5000    0.0000    0.0000 C   0  0  0  0  0  0  0  0  0  0  0  0
    0.7500    1.2990    0.0000 C   0  0  0  0  0  0  0  0  0  0  0  0
   -0.7500    1.2990    0.0000 C   0  0  0  0  0  0  0  0  0  0  0  0
   -1.5000    0.0000    0.0000 C   0  0  0  0  0  0  0  0  0  0  0  0
   -0.7500   -1.2990    0.0000 C   0  0  0  0  0  0  0  0  0  0  0  0
    7.9582   -0.9941    0.0000 C   0  0  0  0  0  0  0  0  0  0  0  0
  1  2  1  0
  2  3  1  0
  3  4  2  0
  4  5  1  0
  5  6  1  0
  6  7  2  0
  6  8  1  0
  8  9  1  0
  9 10  2  0
 10 11  1  0
 11 12  2  0
 12 13  1  0
 13 14  1  0
 14 15  2  0
 15 16  1  0
 16 17  2  0
 17 18  1  0
 18 19  2  0
  5 20  1  0
 20  2  1  0
 13  9  1  0
 19 14  1  0
M  END
>  <Title>  (451) 
idAAPKgen9

$$$$

     RDKit          2D

123123  0  0  0  0  0  0  0  0999 V2000
   30.6286    0.0000    0.0000 C   0  0  0  0  0  0  0  0  0  0  0  0
   29.1286    0.0000    0.0000 C   0  0  0  0  0  0  0  0  0  0  0  0
   29.0900   -1.4995    0.0000 C   0  0  0  0  0  0  0  0  0  0  0  0
   28.9742   -2.9950    0.0000 C   0  0  0  0  0  0  0  0  0  0  0  0
   28.7816   -4.4826    0.0000 C   0  0  0  0  0  0  0  0  0  0  0  0
   28.5127   -5.9583    0.0000 C   0  0  0  0  0  0  0  0  0  0  0  0
   28.1681   -7.4182    0.0000 C   0  0  0  0  0  0  0  0  0  0  0  0
   27.7489   -8.8584    0.0000 C   0  0  0  0  0  0  0  0  0  0  0  0
   27.2561  -10.2752    0.0000 C   0  0  0  0  0  0  0  0  0  0  0  0
   26.6910  -11.6647    0.0000 C   0  0  0  0  0  0  0  0  0  0  0  0
   26.0551  -13.0232    0.0000 C   0  0  0  0  0  0  0  0  0  0  0  0
   25.3502  -14.3472    0.0000 C   0  0  0  0  0  0  0  0  0  0  0  0
   24.5780  -15.6332    0.0000 C   0  0  0  0  0  0  0  0  0  0  0  0
   23.7406  -16.8777    0.0000 C   0  0  0  0  0  0  0  0  0  0  0  0
   22.8403  -18.0775    0.0000 C   0  0  0  0  0  0  0  0  0  0  0  0
   21.8794  -19.2293    0.0000 C   0  0  0  0  0  0  0  0  0  0  0  0
   20.8605  -20.3301    0.0000 C   0  0  0  0  0  0  0  0  0  0  0  0
   19.7863  -21.3770    0.0000 C   0  0  0  0  0  0  0  0  0  0  0  0
   18.6596  -22.3673    0.0000 C   0  0  0  0  0  0  0  0  0  0  0  0
   17.4834  -23.2982    0.0000 C   0  0  0  0  0  0  0  0  0  0  0  0
   16.2608  -24.1673    0.0000 C   0  0  0  0  0  0  0  0  0  0  0  0
   14.9952  -24.9724    0.0000 C   0  0  0  0  0  0  0  0  0  0  0  0
   13.6898  -25.7112    0.0000 C   0  0  0  0  0  0  0  0  0  0  0  0
   12.3480  -26.3818    0.0000 C   0  0  0  0  0  0  0  0  0  0  0  0
   10.9735  -26.9825    0.0000 C   0  0  0  0  0  0  0  0  0  0  0  0
    9.5700  -27.5116    0.0000 C   0  0  0  0  0  0  0  0  0  0  0  0
    8.1410  -27.9678    0.0000 C   0  0  0  0  0  0  0  0  0  0  0  0
    6.6905  -28.3498    0.0000 C   0  0  0  0  0  0  0  0  0  0  0  0
    5.2222  -28.6566    0.0000 C   0  0  0  0  0  0  0  0  0  0  0  0
    3.7401  -28.8875    0.0000 C   0  0  0  0  0  0  0  0  0  0  0  0
    2.2480  -29.0417    0.0000 C   0  0  0  0  0  0  0  0  0  0  0  0
    0.7500  -29.1189    0.0000 C   0  0  0  0  0  0  0  0  0  0  0  0
   -0.7500  -29.1189    0.0000 C   0  0  0  0  0  0  0  0  0  0  0  0
   -2.2480  -29.0417    0.0000 C   0  0  0  0  0  0  0  0  0  0  0  0
   -3.7401  -28.8875    0.0000 C   0  0  0  0  0  0  0  0  0  0  0  0
   -5.2222  -28.6566    0.0000 C   0  0  0  0  0  0  0  0  0  0  0  0
   -6.6905  -28.3498    0.0000 C   0  0  0  0  0  0  0  0  0  0  0  0
   -8.1410  -27.9678    0.0000 C   0  0  0  0  0  0  0  0  0  0  0  0
   -9.5700  -27.5116    0.0000 C   0  0  0  0  0  0  0  0  0  0  0  0
  -10.9735  -26.9825    0.0000 C   0  0  0  0  0  0  0  0  0  0  0  0
  -12.3480  -26.3818    0.0000 C   0  0  0  0  0  0  0  0  0  0  0  0
  -13.6898  -25.7112    0.0000 C   0  0  0  0  0  0  0  0  0  0  0  0
  -14.9952  -24.9724    0.0000 C   0  0  0  0  0  0  0  0  0  0  0  0
  -16.2608  -24.1673    0.0000 C   0  0  0  0  0  0  0  0  0  0  0  0
  -17.4834  -23.2982    0.0000 C   0  0  0  0  0  0  0  0  0  0  0  0
  -18.6596  -22.3673    0.0000 C   0  0  0  0  0  0  0  0  0  0  0  0
  -19.7863  -21.3770    0.0000 C   0  0  0  0  0  0  0  0  0  0  0  0
  -20.8605  -20.3301    0.0000 C   0  0  0  0  0  0  0  0  0  0  0  0
  -21.8794  -19.2293    0.0000 C   0  0  0  0  0  0  0  0  0  0  0  0
  -22.8403  -18.0775    0.0000 C   0  0  0  0  0  0  0  0  0  0  0  0
  -23.7406  -16.8777    0.0000 C   0  0  0  0  0  0  0  0  0  0  0  0
  -24.5780  -15.6332    0.0000 C   0  0  0  0  0  0  0  0  0  0  0  0
  -25.3502  -14.3472    0.0000 C   0  0  0  0  0  0  0  0  0  0  0  0
  -26.0551  -13.0232    0.0000 C   0  0  0  0  0  0  0  0  0  0  0  0
  -26.6910  -11.6647    0.0000 C   0  0  0  0  0  0  0  0  0  0  0  0
  -27.2561  -10.2752    0.0000 C   0  0  0  0  0  0  0  0  0  0  0  0
  -27.7489   -8.8584    0.0000 C   0  0  0  0  0  0  0  0  0  0  0  0
  -28.1681   -7.4182    0.0000 C   0  0  0  0  0  0  0  0  0  0  0  0
  -28.5127   -5.9583    0.0000 C   0  0  0  0  0  0  0  0  0  0  0  0
  -28.7816   -4.4826    0.0000 C   0  0  0  0  0  0  0  0  0  0  0  0
  -28.9742   -2.9950    0.0000 C   0  0  0  0  0  0  0  0  0  0  0  0
  -29.0900   -1.4995    0.0000 C   0  0  0  0  0  0  0  0  0  0  0  0
  -29.1286    0.0000    0.0000 C   0  0  0  0  0  0  0  0  0  0  0  0
  -29.0900    1.4995    0.0000 C   0  0  0  0  0  0  0  0  0  0  0  0
  -28.9742    2.9950    0.0000 C   0  0  0  0  0  0  0  0  0  0  0  0
  -28.7816    4.4826    0.0000 C   0  0  0  0  0  0  0  0  0  0  0  0
  -28.5127    5.9583    0.0000 C   0  0  0  0  0  0  0  0  0  0  0  0
  -28.1681    7.4182    0.0000 C   0  0  0  0  0  0  0  0  0  0  0  0
  -27.7489    8.8584    0.0000 C   0  0  0  0  0  0  0  0  0  0  0  0
  -27.2561   10.2752    0.0000 C   0  0  0  0  0  0  0  0  0  0  0  0
  -26.6910   11.6647    0.0000 C   0  0  0  0  0  0  0  0  0  0  0  0
  -26.0551   13.0232    0.0000 C   0  0  0  0  0  0  0  0  0  0  0  0
  -25.3502   14.3472    0.0000 C   0  0  0  0  0  0  0  0  0  0  0  0
  -24.5780   15.6332    0.0000 C   0  0  0  0  0  0  0  0  0  0  0  0
  -23.7406   16.8777    0.0000 C   0  0  0  0  0  0  0  0  0  0  0  0
  -22.8403   18.0775    0.0000 C   0  0  0  0  0  0  0  0  0  0  0  0
  -21.8794   19.2293    0.0000 C   0  0  0  0  0  0  0  0  0  0  0  0
  -20.8605   20.3301    0.0000 C   0  0  0  0  0  0  0  0  0  0  0  0
  -19.7863   21.3770    0.0000 C   0  0  0  0  0  0  0  0  0  0  0  0
  -18.6596   22.3673    0.0000 C   0  0  0  0  0  0  0  0  0  0  0  0
  -17.4834   23.2982    0.0000 C   0  0  0  0  0  0  0  0  0  0  0  0
  -16.2608   24.1673    0.0000 C   0  0  0  0  0  0  0  0  0  0  0  0
  -14.9952   24.9724    0.0000 C   0  0  0  0  0  0  0  0  0  0  0  0
  -13.6898   25.7112    0.0000 C   0  0  0  0  0  0  0  0  0  0  0  0
  -12.3480   26.3818    0.0000 C   0  0  0  0  0  0  0  0  0  0  0  0
  -10.9735   26.9825    0.0000 C   0  0  0  0  0  0  0  0  0  0  0  0
   -9.5700   27.5116    0.0000 C   0  0  0  0  0  0  0  0  0  0  0  0
   -8.1410   27.9678    0.0000 C   0  0  0  0  0  0  0  0  0  0  0  0
   -6.6905   28.3498    0.0000 C   0  0  0  0  0  0  0  0  0  0  0  0
   -5.2222   28.6566    0.0000 C   0  0  0  0  0  0  0  0  0  0  0  0
   -3.7401   28.8875    0.0000 C   0  0  0  0  0  0  0  0  0  0  0  0
   -2.2480   29.0417    0.0000 C   0  0  0  0  0  0  0  0  0  0  0  0
   -0.7500   29.1189    0.0000 C   0  0  0  0  0  0  0  0  0  0  0  0
    0.7500   29.1189    0.0000 C   0  0  0  0  0  0  0  0  0  0  0  0
    2.2480   29.0417    0.0000 C   0  0  0  0  0  0  0  0  0  0  0  0
    3.7401   28.8875    0.0000 C   0  0  0  0  0  0  0  0  0  0  0  0
    5.2222   28.6566    0.0000 C   0  0  0  0  0  0  0  0  0  0  0  0
    6.6905   28.3498    0.0000 C   0  0  0  0  0  0  0  0  0  0  0  0
    8.1410   27.9678    0.0000 C   0  0  0  0  0  0  0  0  0  0  0  0
    9.5700   27.5116    0.0000 C   0  0  0  0  0  0  0  0  0  0  0  0
   10.9735   26.9825    0.0000 C   0  0  0  0  0  0  0  0  0  0  0  0
   12.3480   26.3818    0.0000 C   0  0  0  0  0  0  0  0  0  0  0  0
   13.6898   25.7112    0.0000 C   0  0  0  0  0  0  0  0  0  0  0  0
   14.9952   24.9724    0.0000 C   0  0  0  0  0  0  0  0  0  0  0  0
   16.2608   24.1673    0.0000 C   0  0  0  0  0  0  0  0  0  0  0  0
   17.4834   23.2982    0.0000 C   0  0  0  0  0  0  0  0  0  0  0  0
   18.6596   22.3673    0.0000 C   0  0  0  0  0  0  0  0  0  0  0  0
   19.7863   21.3770    0.0000 C   0  0  0  0  0  0  0  0  0  0  0  0
   20.8605   20.3301    0.0000 C   0  0  0  0  0  0  0  0  0  0  0  0
   21.8794   19.2293    0.0000 C   0  0  0  0  0  0  0  0  0  0  0  0
   22.8403   18.0775    0.0000 C   0  0  0  0  0  0  0  0  0  0  0  0
   23.7406   16.8777    0.0000 C   0  0  0  0  0  0  0  0  0  0  0  0
   24.5780   15.6332    0.0000 C   0  0  0  0  0  0  0  0  0  0  0  0
   25.3502   14.3472    0.0000 C   0  0  0  0  0  0  0  0  0  0  0  0
   26.0551   13.0232    0.0000 C   0  0  0  0  0  0  0  0  0  0  0  0
   26.6910   11.6647    0.0000 C   0  0  0  0  0  0  0  0  0  0  0  0
   27.2561   10.2752    0.0000 C   0  0  0  0  0  0  0  0  0  0  0  0
   27.7489    8.8584    0.0000 C   0  0  0  0  0  0  0  0  0  0  0  0
   28.1681    7.4182    0.0000 C   0  0  0  0  0  0  0  0  0  0  0  0
   28.5127    5.9583    0.0000 C   0  0  0  0  0  0  0  0  0  0  0  0
   28.7816    4.4826    0.0000 C   0  0  0  0  0  0  0  0  0  0  0  0
   28.9742    2.9950    0.0000 C   0  0  0  0  0  0  0  0  0  0  0  0
   29.0900    1.4995    0.0000 C   0  0  0  0  0  0  0  0  0  0  0  0
  1  2  1  0
  2  3  1  0
  3  4  1  0
  4  5  1  0
  5  6  1  0
  6  7  1  0
  7  8  1  0
  8  9  1  0
  9 10  1  0
 10 11  1  0
 11 12  1  0
 12 13  1  0
 13 14  1  0
 14 15  1  0
 15 16  1  0
 16 17  1  0
 17 18  1  0
 18 19  1  0
 19 20  1  0
 20 21  1  0
 21 22  1  0
 22 23  1  0
 23 24  1  0
 24 25  1  0
 25 26  1  0
 26 27  1  0
 27 28  1  0
 28 29  1  0
 29 30  1  0
 30 31  1  0
 31 32  1  0
 32 33  1  0
 33 34  1  0
 34 35  1  0
 35 36  1  0
 36 37  1  0
 37 38  1  0
 38 39  1  0
 39 40  1  0
 40 41  1  0
 41 42  1  0
 42 43  1  0
 43 44  1  0
 44 45  1  0
 45 46  1  0
 46 47  1  0
 47 48  1  0
 48 49  1  0
 49 50  1  0
 50 51  1  0
 51 52  1  0
 52 53  1  0
 53 54  1  0
 54 55  1  0
 55 56  1  0
 56 57  1  0
 57 58  1  0
 58 59  1  0
 59 60  1  0
 60 61  1  0
 61 62  1  0
 62 63  1  0
 63 64  1  0
 64 65  1  0
 65 66  1  0
 66 67  1  0
 67 68  1  0
 68 69  1  0
 69 70  1  0
 70 71  1  0
 71 72  1  0
 72 73  1  0
 73 74  1  0
 74 75  1  0
 75 76  1  0
 76 77  1  0
 77 78  1  0
 78 79  1  0
 79 80  1  0
 80 81  1  0
 81 82  1  0
 82 83  1  0
 83 84  1  0
 84 85  1  0
 85 86  1  0
 86 87  1  0
 87 88  1  0
 88 89  1  0
 89 90  1  0
 90 91  1  0
 91 92  1  0
 92 93  1  0
 93 94  1  0
 94 95  1  0
 95 96  1  0
 96 97  1  0
 97 98  1  0
 98 99  1  0
 99100  1  0
100101  1  0
101102  1  0
102103  1  0
103104  1  0
104105  1  0
105106  1  0
106107  1  0
107108  1  0
108109  1  0
109110  1  0
110111  1  0
111112  1  0
112113  1  0
113114  1  0
114115  1  0
115116  1  0
116117  1  0
117118  1  0
118119  1  0
119120  1  0
120121  1  0
121122  1  0
122123  1  0
123  2  1  0
M  END
>  <Title>  (452) 
idAAPLgen9

$$$$

     RDKit          2D

111111  0  0  0  0  0  0  0  0999 V2000
   27.2867    0.0000    0.0000 C   0  0  0  0  0  0  0  0  0  0  0  0
   25.7867    0.0000    0.0000 C   0  0  0  0  0  0  0  0  0  0  0  0
   25.7431   -1.4994    0.0000 C   0  0  0  0  0  0  0  0  0  0  0  0
   25.6124   -2.9937    0.0000 C   0  0  0  0  0  0  0  0  0  0  0  0
   25.3950   -4.4778    0.0000 C   0  0  0  0  0  0  0  0  0  0  0  0
   25.0917   -5.9468    0.0000 C   0  0  0  0  0  0  0  0  0  0  0  0
   24.7034   -7.3957    0.0000 C   0  0  0  0  0  0  0  0  0  0  0  0
   24.2316   -8.8196    0.0000 C   0  0  0  0  0  0  0  0  0  0  0  0
   23.6778  -10.2136    0.0000 C   0  0  0  0  0  0  0  0  0  0  0  0
   23.0439  -11.5731    0.0000 C   0  0  0  0  0  0  0  0  0  0  0  0
   22.3320  -12.8934    0.0000 C   0  0  0  0  0  0  0  0  0  0  0  0
   21.5445  -14.1700    0.0000 C   0  0  0  0  0  0  0  0  0  0  0  0
   20.6841  -15.3988    0.0000 C   0  0  0  0  0  0  0  0  0  0  0  0
   19.7538  -16.5754    0.0000 C   0  0  0  0  0  0  0  0  0  0  0  0
   18.7566  -17.6959    0.0000 C   0  0  0  0  0  0  0  0  0  0  0  0
   17.6959  -18.7566    0.0000 C   0  0  0  0  0  0  0  0  0  0  0  0
   16.5754  -19.7538    0.0000 C   0  0  0  0  0  0  0  0  0  0  0  0
   15.3988  -20.6841    0.0000 C   0  0  0  0  0  0  0  0  0  0  0  0
   14.1700  -21.5445    0.0000 C   0  0  0  0  0  0  0  0  0  0  0  0
   12.8934  -22.3320    0.0000 C   0  0  0  0  0  0  0  0  0  0  0  0
   11.5731  -23.0439    0.0000 C   0  0  0  0  0  0  0  0  0  0  0  0
   10.2136  -23.6778    0.0000 C   0  0  0  0  0  0  0  0  0  0  0  0
    8.8196  -24.2316    0.0000 C   0  0  0  0  0  0  0  0  0  0  0  0
    7.3957  -24.7034    0.0000 C   0  0  0  0  0  0  0  0  0  0  0  0
    5.9468  -25.0917    0.0000 C   0  0  0  0  0  0  0  0  0  0  0  0
    4.4778  -25.3950    0.0000 C   0  0  0  0  0  0  0  0  0  0  0  0
    2.9937  -25.6124    0.0000 C   0  0  0  0  0  0  0  0  0  0  0  0
    1.4994  -25.7431    0.0000 C   0  0  0  0  0  0  0  0  0  0  0  0
   -0.0000  -25.7867    0.0000 C   0  0  0  0  0  0  0  0  0  0  0  0
   -1.4994  -25.7431    0.0000 C   0  0  0  0  0  0  0  0  0  0  0  0
   -2.9937  -25.6124    0.0000 C   0  0  0  0  0  0  0  0  0  0  0  0
   -4.4778  -25.3950    0.0000 C   0  0  0  0  0  0  0  0  0  0  0  0
   -5.9468  -25.0917    0.0000 C   0  0  0  0  0  0  0  0  0  0  0  0
   -7.3957  -24.7034    0.0000 C   0  0  0  0  0  0  0  0  0  0  0  0
   -8.8196  -24.2316    0.0000 C   0  0  0  0  0  0  0  0  0  0  0  0
  -10.2136  -23.6778    0.0000 C   0  0  0  0  0  0  0  0  0  0  0  0
  -11.5731  -23.0439    0.0000 C   0  0  0  0  0  0  0  0  0  0  0  0
  -12.8934  -22.3320    0.0000 C   0  0  0  0  0  0  0  0  0  0  0  0
  -14.1700  -21.5445    0.0000 C   0  0  0  0  0  0  0  0  0  0  0  0
  -15.3988  -20.6841    0.0000 C   0  0  0  0  0  0  0  0  0  0  0  0
  -16.5754  -19.7538    0.0000 C   0  0  0  0  0  0  0  0  0  0  0  0
  -17.6959  -18.7566    0.0000 C   0  0  0  0  0  0  0  0  0  0  0  0
  -18.7566  -17.6959    0.0000 C   0  0  0  0  0  0  0  0  0  0  0  0
  -19.7538  -16.5754    0.0000 C   0  0  0  0  0  0  0  0  0  0  0  0
  -20.6841  -15.3988    0.0000 C   0  0  0  0  0  0  0  0  0  0  0  0
  -21.5445  -14.1700    0.0000 C   0  0  0  0  0  0  0  0  0  0  0  0
  -22.3320  -12.8934    0.0000 C   0  0  0  0  0  0  0  0  0  0  0  0
  -23.0439  -11.5731    0.0000 C   0  0  0  0  0  0  0  0  0  0  0  0
  -23.6778  -10.2136    0.0000 C   0  0  0  0  0  0  0  0  0  0  0  0
  -24.2316   -8.8196    0.0000 C   0  0  0  0  0  0  0  0  0  0  0  0
  -24.7034   -7.3957    0.0000 C   0  0  0  0  0  0  0  0  0  0  0  0
  -25.0917   -5.9468    0.0000 C   0  0  0  0  0  0  0  0  0  0  0  0
  -25.3950   -4.4778    0.0000 C   0  0  0  0  0  0  0  0  0  0  0  0
  -25.6124   -2.9937    0.0000 C   0  0  0  0  0  0  0  0  0  0  0  0
  -25.7431   -1.4994    0.0000 C   0  0  0  0  0  0  0  0  0  0  0  0
  -25.7867    0.0000    0.0000 C   0  0  0  0  0  0  0  0  0  0  0  0
  -25.7431    1.4994    0.0000 C   0  0  0  0  0  0  0  0  0  0  0  0
  -25.6124    2.9937    0.0000 C   0  0  0  0  0  0  0  0  0  0  0  0
  -25.3950    4.4778    0.0000 C   0  0  0  0  0  0  0  0  0  0  0  0
  -25.0917    5.9468    0.0000 C   0  0  0  0  0  0  0  0  0  0  0  0
  -24.7034    7.3957    0.0000 C   0  0  0  0  0  0  0  0  0  0  0  0
  -24.2316    8.8196    0.0000 C   0  0  0  0  0  0  0  0  0  0  0  0
  -23.6778   10.2136    0.0000 C   0  0  0  0  0  0  0  0  0  0  0  0
  -23.0439   11.5731    0.0000 C   0  0  0  0  0  0  0  0  0  0  0  0
  -22.3320   12.8934    0.0000 C   0  0  0  0  0  0  0  0  0  0  0  0
  -21.5445   14.1700    0.0000 C   0  0  0  0  0  0  0  0  0  0  0  0
  -20.6841   15.3988    0.0000 C   0  0  0  0  0  0  0  0  0  0  0  0
  -19.7538   16.5754    0.0000 C   0  0  0  0  0  0  0  0  0  0  0  0
  -18.7566   17.6959    0.0000 C   0  0  0  0  0  0  0  0  0  0  0  0
  -17.6959   18.7566    0.0000 C   0  0  0  0  0  0  0  0  0  0  0  0
  -16.5754   19.7538    0.0000 C   0  0  0  0  0  0  0  0  0  0  0  0
  -15.3988   20.6841    0.0000 C   0  0  0  0  0  0  0  0  0  0  0  0
  -14.1700   21.5445    0.0000 C   0  0  0  0  0  0  0  0  0  0  0  0
  -12.8934   22.3320    0.0000 C   0  0  0  0  0  0  0  0  0  0  0  0
  -11.5731   23.0439    0.0000 C   0  0  0  0  0  0  0  0  0  0  0  0
  -10.2136   23.6778    0.0000 C   0  0  0  0  0  0  0  0  0  0  0  0
   -8.8196   24.2316    0.0000 C   0  0  0  0  0  0  0  0  0  0  0  0
   -7.3957   24.7034    0.0000 C   0  0  0  0  0  0  0  0  0  0  0  0
   -5.9468   25.0917    0.0000 C   0  0  0  0  0  0  0  0  0  0  0  0
   -4.4778   25.3950    0.0000 C   0  0  0  0  0  0  0  0  0  0  0  0
   -2.9937   25.6124    0.0000 C   0  0  0  0  0  0  0  0  0  0  0  0
   -1.4994   25.7431    0.0000 C   0  0  0  0  0  0  0  0  0  0  0  0
    0.0000   25.7867    0.0000 C   0  0  0  0  0  0  0  0  0  0  0  0
    1.4994   25.7431    0.0000 C   0  0  0  0  0  0  0  0  0  0  0  0
    2.9937   25.6124    0.0000 C   0  0  0  0  0  0  0  0  0  0  0  0
    4.4778   25.3950    0.0000 C   0  0  0  0  0  0  0  0  0  0  0  0
    5.9468   25.0917    0.0000 C   0  0  0  0  0  0  0  0  0  0  0  0
    7.3957   24.7034    0.0000 C   0  0  0  0  0  0  0  0  0  0  0  0
    8.8196   24.2316    0.0000 C   0  0  0  0  0  0  0  0  0  0  0  0
   10.2136   23.6778    0.0000 C   0  0  0  0  0  0  0  0  0  0  0  0
   11.5731   23.0439    0.0000 C   0  0  0  0  0  0  0  0  0  0  0  0
   12.8934   22.3320    0.0000 C   0  0  0  0  0  0  0  0  0  0  0  0
   14.1700   21.5445    0.0000 C   0  0  0  0  0  0  0  0  0  0  0  0
   15.3988   20.6841    0.0000 C   0  0  0  0  0  0  0  0  0  0  0  0
   16.5754   19.7538    0.0000 C   0  0  0  0  0  0  0  0  0  0  0  0
   17.6959   18.7566    0.0000 C   0  0  0  0  0  0  0  0  0  0  0  0
   18.7566   17.6959    0.0000 C   0  0  0  0  0  0  0  0  0  0  0  0
   19.7538   16.5754    0.0000 C   0  0  0  0  0  0  0  0  0  0  0  0
   20.6841   15.3988    0.0000 C   0  0  0  0  0  0  0  0  0  0  0  0
   21.5445   14.1700    0.0000 C   0  0  0  0  0  0  0  0  0  0  0  0
   22.3320   12.8934    0.0000 C   0  0  0  0  0  0  0  0  0  0  0  0
   23.0439   11.5731    0.0000 C   0  0  0  0  0  0  0  0  0  0  0  0
   23.6778   10.2136    0.0000 C   0  0  0  0  0  0  0  0  0  0  0  0
   24.2316    8.8196    0.0000 C   0  0  0  0  0  0  0  0  0  0  0  0
   24.7034    7.3957    0.0000 C   0  0  0  0  0  0  0  0  0  0  0  0
   25.0917    5.9468    0.0000 C   0  0  0  0  0  0  0  0  0  0  0  0
   25.3950    4.4778    0.0000 C   0  0  0  0  0  0  0  0  0  0  0  0
   26.8722    4.7383    0.0000 C   0  0  0  0  0  0  0  0  0  0  0  0
   25.6124    2.9937    0.0000 C   0  0  0  0  0  0  0  0  0  0  0  0
   27.1022    3.1678    0.0000 O   0  0  0  0  0  0  0  0  0  0  0  0
   25.7431    1.4994    0.0000 N   0  0  0  0  0  0  0  0  0  0  0  0
  1  2  1  0
  2  3  1  0
  3  4  1  0
  4  5  1  0
  5  6  1  0
  6  7  1  0
  7  8  1  0
  8  9  1  0
  9 10  1  0
 10 11  1  0
 11 12  1  0
 12 13  1  0
 13 14  1  0
 14 15  1  0
 15 16  1  0
 16 17  1  0
 17 18  1  0
 18 19  1  0
 19 20  1  0
 20 21  1  0
 21 22  1  0
 22 23  1  0
 23 24  1  0
 24 25  1  0
 25 26  1  0
 26 27  1  0
 27 28  1  0
 28 29  1  0
 29 30  1  0
 30 31  1  0
 31 32  1  0
 32 33  1  0
 33 34  1  0
 34 35  1  0
 35 36  1  0
 36 37  1  0
 37 38  1  0
 38 39  1  0
 39 40  1  0
 40 41  1  0
 41 42  1  0
 42 43  1  0
 43 44  1  0
 44 45  1  0
 45 46  1  0
 46 47  1  0
 47 48  1  0
 48 49  1  0
 49 50  1  0
 50 51  1  0
 51 52  1  0
 52 53  1  0
 53 54  1  0
 54 55  1  0
 55 56  1  0
 56 57  1  0
 57 58  1  0
 58 59  1  0
 59 60  1  0
 60 61  1  0
 61 62  1  0
 62 63  1  0
 63 64  1  0
 64 65  1  0
 65 66  1  0
 66 67  1  0
 67 68  1  0
 68 69  1  0
 69 70  1  0
 70 71  1  0
 71 72  1  0
 72 73  1  0
 73 74  1  0
 74 75  1  0
 75 76  1  0
 76 77  1  0
 77 78  1  0
 78 79  1  0
 79 80  1  0
 80 81  1  0
 81 82  1  0
 82 83  1  0
 83 84  1  0
 84 85  1  0
 85 86  1  0
 86 87  1  0
 87 88  1  0
 88 89  1  0
 89 90  1  0
 90 91  1  0
 91 92  1  0
 92 93  1  0
 93 94  1  0
 94 95  1  0
 95 96  1  0
 96 97  1  0
 97 98  1  0
 98 99  1  0
 99100  1  0
100101  1  0
101102  1  0
102103  1  0
103104  1  0
104105  1  0
105106  1  0
106107  1  0
107108  1  0
107109  1  0
109110  2  0
109111  1  0
111  2  1  0
M  END
>  <Title>  (453) 
idAAPMgen9

$$$$

     RDKit          2D

 22 24  0  0  0  0  0  0  0  0999 V2000
    3.0000    0.0000    0.0000 C   0  0  0  0  0  0  0  0  0  0  0  0
    1.5000    0.0000    0.0000 C   0  0  0  0  0  0  0  0  0  0  0  0
    0.7500   -1.2990    0.0000 C   0  0  0  0  0  0  0  0  0  0  0  0
   -0.7500   -1.2990    0.0000 C   0  0  0  0  0  0  0  0  0  0  0  0
   -1.5000    0.0000    0.0000 C   0  0  0  0  0  0  0  0  0  0  0  0
   -0.7500    1.2990    0.0000 C   0  0  0  0  0  0  0  0  0  0  0  0
    0.7500    1.2990    0.0000 C   0  0  0  0  0  0  0  0  0  0  0  0
    1.5000    2.5981    0.0000 C   0  0  0  0  0  0  0  0  0  0  0  0
    0.7500    3.8971    0.0000 C   0  0  0  0  0  0  0  0  0  0  0  0
   -0.7500    3.8971    0.0000 O   0  0  0  0  0  0  0  0  0  0  0  0
    1.5000    5.1962    0.0000 N   0  0  0  0  0  0  0  0  0  0  0  0
    0.7500    6.4952    0.0000 C   0  0  0  0  0  0  0  0  0  0  0  0
   -0.7500    6.4952    0.0000 C   0  0  0  0  0  0  0  0  0  0  0  0
   -1.5000    7.7942    0.0000 C   0  0  0  0  0  0  0  0  0  0  0  0
   -0.7500    9.0933    0.0000 C   0  0  0  0  0  0  0  0  0  0  0  0
    0.7500    9.0933    0.0000 C   0  0  0  0  0  0  0  0  0  0  0  0
    1.5000    7.7942    0.0000 C   0  0  0  0  0  0  0  0  0  0  0  0
    3.0000    7.7942    0.0000 C   0  0  0  0  0  0  0  0  0  0  0  0
    3.8817    9.0078    0.0000 C   0  0  0  0  0  0  0  0  0  0  0  0
    5.3083    8.5442    0.0000 C   0  0  0  0  0  0  0  0  0  0  0  0
    5.3083    7.0442    0.0000 C   0  0  0  0  0  0  0  0  0  0  0  0
    3.8817    6.5807    0.0000 C   0  0  0  0  0  0  0  0  0  0  0  0
  1  2  1  0
  2  3  2  0
  3  4  1  0
  4  5  2  0
  5  6  1  0
  6  7  2  0
  7  8  1  0
  8  9  1  0
  9 10  2  0
  9 11  1  0
 11 12  1  0
 12 13  2  0
 13 14  1  0
 14 15  2  0
 15 16  1  0
 16 17  2  0
 17 18  1  0
 18 19  2  0
 19 20  1  0
 20 21  2  0
 21 22  1  0
  7  2  1  0
 17 12  1  0
 22 18  1  0
M  END
>  <Title>  (454) 
idAAPNgen9

$$$$

     RDKit          2D

 15 16  0  0  0  0  0  0  0  0999 V2000
   -0.7500   -3.8971    0.0000 O   0  0  0  0  0  0  0  0  0  0  0  0
    0.7500   -3.8971    0.0000 C   0  0  0  0  0  0  0  0  0  0  0  0
    1.5000   -2.5981    0.0000 C   0  0  0  0  0  0  0  0  0  0  0  0
    0.7500   -1.2990    0.0000 C   0  0  0  0  0  0  0  0  0  0  0  0
    1.5000    0.0000    0.0000 C   0  0  0  0  0  0  0  0  0  0  0  0
    0.7500    1.2990    0.0000 C   0  0  0  0  0  0  0  0  0  0  0  0
   -0.7500    1.2990    0.0000 C   0  0  0  0  0  0  0  0  0  0  0  0
   -1.5000    0.0000    0.0000 C   0  0  0  0  0  0  0  0  0  0  0  0
   -0.7500   -1.2990    0.0000 C   0  0  0  0  0  0  0  0  0  0  0  0
    1.5000   -5.1962    0.0000 N   0  0  0  0  0  0  0  0  0  0  0  0
    0.7500   -6.4952    0.0000 C   0  0  0  0  0  0  0  0  0  0  0  0
    1.3601   -7.8655    0.0000 C   0  0  0  0  0  0  0  0  0  0  0  0
    0.2454   -8.8692    0.0000 C   0  0  0  0  0  0  0  0  0  0  0  0
   -1.0537   -8.1192    0.0000 C   0  0  0  0  0  0  0  0  0  0  0  0
   -0.7418   -6.6520    0.0000 C   0  0  0  0  0  0  0  0  0  0  0  0
  1  2  2  0
  2  3  1  0
  3  4  1  0
  4  5  2  0
  5  6  1  0
  6  7  2  0
  7  8  1  0
  8  9  2  0
  2 10  1  0
 10 11  1  0
 11 12  2  0
 12 13  1  0
 13 14  2  0
 14 15  1  0
  9  4  1  0
 15 11  1  0
M  END
>  <Title>  (455) 
idAAPOgen9

$$$$

     RDKit          2D

 17 17  0  0  0  0  0  0  0  0999 V2000
   16.2760   -0.0000    0.0000 C   0  0  0  0  0  0  0  0  0  0  0  0
   14.7760   -0.0000    0.0000 C   0  0  0  0  0  0  0  0  0  0  0  0
   13.2760   -0.0000    0.0000 C   0  0  0  0  0  0  0  0  0  0  0  0
   11.7760   -0.0000    0.0000 C   0  0  0  0  0  0  0  0  0  0  0  0
   10.2760   -0.0000    0.0000 C   0  0  0  0  0  0  0  0  0  0  0  0
    8.7760   -0.0000    0.0000 C   0  0  0  0  0  0  0  0  0  0  0  0
    7.2760   -0.0000    0.0000 C   0  0  0  0  0  0  0  0  0  0  0  0
    5.7760   -0.0000    0.0000 C   0  0  0  0  0  0  0  0  0  0  0  0
    4.2760   -0.0000    0.0000 C   0  0  0  0  0  0  0  0  0  0  0  0
    2.7760    0.0000    0.0000 C   0  0  0  0  0  0  0  0  0  0  0  0
    1.2760    0.0000    0.0000 C   0  0  0  0  0  0  0  0  0  0  0  0
    0.3943    1.2135    0.0000 C   0  0  0  0  0  0  0  0  0  0  0  0
   -1.0323    0.7500    0.0000 C   0  0  0  0  0  0  0  0  0  0  0  0
   -2.2458    1.6317    0.0000 C   0  0  0  0  0  0  0  0  0  0  0  0
   -3.4593    2.5134    0.0000 N   0  0  0  0  0  0  0  0  0  0  0  0
   -1.0323   -0.7500    0.0000 C   0  0  0  0  0  0  0  0  0  0  0  0
    0.3943   -1.2135    0.0000 C   0  0  0  0  0  0  0  0  0  0  0  0
  1  2  3  0
  2  3  1  0
  3  4  3  0
  4  5  1  0
  5  6  3  0
  6  7  1  0
  7  8  3  0
  8  9  1  0
  9 10  3  0
 10 11  1  0
 11 12  2  0
 12 13  1  0
 13 14  1  0
 14 15  3  0
 13 16  1  0
 16 17  2  0
 17 11  1  0
M  END
>  <Title>  (456) 
idAAPPgen9

$$$$

     RDKit          2D

 21 23  0  0  0  0  0  0  0  0999 V2000
   -3.1476   -2.1380    0.0000 C   0  0  0  0  0  0  0  0  0  0  0  0
   -1.6852   -2.4718    0.0000 C   0  0  0  0  0  0  0  0  0  0  0  0
   -1.3515   -3.9342    0.0000 C   0  0  0  0  0  0  0  0  0  0  0  0
   -0.0000   -4.5850    0.0000 C   0  0  0  0  0  0  0  0  0  0  0  0
    1.3515   -3.9342    0.0000 C   0  0  0  0  0  0  0  0  0  0  0  0
    1.6852   -2.4718    0.0000 C   0  0  0  0  0  0  0  0  0  0  0  0
    3.1476   -2.1380    0.0000 C   0  0  0  0  0  0  0  0  0  0  0  0
    3.5898   -0.7046    0.0000 O   0  0  0  0  0  0  0  0  0  0  0  0
    4.1679   -3.2376    0.0000 N   0  0  0  0  0  0  0  0  0  0  0  0
    5.6303   -2.9038    0.0000 C   0  0  0  0  0  0  0  0  0  0  0  0
    6.6505   -4.0034    0.0000 N   0  0  0  0  0  0  0  0  0  0  0  0
    8.1129   -3.6696    0.0000 N   0  0  0  0  0  0  0  0  0  0  0  0
    8.5551   -2.2362    0.0000 N   0  0  0  0  0  0  0  0  0  0  0  0
    7.5348   -1.1367    0.0000 N   0  0  0  0  0  0  0  0  0  0  0  0
    6.0724   -1.4704    0.0000 N   0  0  0  0  0  0  0  0  0  0  0  0
    0.7500   -1.2990    0.0000 C   0  0  0  0  0  0  0  0  0  0  0  0
    1.5000    0.0000    0.0000 C   0  0  0  0  0  0  0  0  0  0  0  0
    0.7500    1.2990    0.0000 C   0  0  0  0  0  0  0  0  0  0  0  0
   -0.7500    1.2990    0.0000 C   0  0  0  0  0  0  0  0  0  0  0  0
   -1.5000    0.0000    0.0000 C   0  0  0  0  0  0  0  0  0  0  0  0
   -0.7500   -1.2990    0.0000 C   0  0  0  0  0  0  0  0  0  0  0  0
  1  2  1  0
  2  3  2  0
  3  4  1  0
  4  5  1  0
  5  6  1  0
  6  7  1  0
  7  8  2  0
  7  9  1  0
  9 10  1  0
 10 11  2  0
 11 12  1  0
 12 13  2  0
 13 14  1  0
 14 15  2  0
  6 16  1  0
 16 17  2  0
 17 18  1  0
 18 19  2  0
 19 20  1  0
 20 21  2  0
 21  2  1  0
 15 10  1  0
 21 16  1  0
M  END
>  <Title>  (457) 
idAAPQgen9

$$$$

     RDKit          2D

 45 51  0  0  0  0  0  0  0  0999 V2000
    3.7955   -8.2450    0.0000 C   0  0  0  0  0  0  0  0  0  0  0  0
    2.6807   -7.2413    0.0000 C   0  0  0  0  0  0  0  0  0  0  0  0
    3.4307   -5.9422    0.0000 C   0  0  0  0  0  0  0  0  0  0  0  0
    3.5875   -4.4504    0.0000 C   0  0  0  0  0  0  0  0  0  0  0  0
    3.1240   -3.0239    0.0000 C   0  0  0  0  0  0  0  0  0  0  0  0
    2.1203   -1.9091    0.0000 C   0  0  0  0  0  0  0  0  0  0  0  0
    3.0020   -0.6956    0.0000 C   0  0  0  0  0  0  0  0  0  0  0  0
    2.3919    0.6747    0.0000 O   0  0  0  0  0  0  0  0  0  0  0  0
    4.4938   -0.8524    0.0000 N   0  0  0  0  0  0  0  0  0  0  0  0
    5.3755    0.3611    0.0000 C   0  0  0  0  0  0  0  0  0  0  0  0
    6.8672    0.2043    0.0000 N   0  0  0  0  0  0  0  0  0  0  0  0
    7.7489    1.4178    0.0000 N   0  0  0  0  0  0  0  0  0  0  0  0
    7.1388    2.7882    0.0000 N   0  0  0  0  0  0  0  0  0  0  0  0
    5.6470    2.9450    0.0000 N   0  0  0  0  0  0  0  0  0  0  0  0
    4.7654    1.7314    0.0000 N   0  0  0  0  0  0  0  0  0  0  0  0
    0.7500   -1.2990    0.0000 C   0  0  0  0  0  0  0  0  0  0  0  0
    1.5000    0.0000    0.0000 C   0  0  0  0  0  0  0  0  0  0  0  0
    0.7500    1.2990    0.0000 C   0  0  0  0  0  0  0  0  0  0  0  0
   -0.7500    1.2990    0.0000 C   0  0  0  0  0  0  0  0  0  0  0  0
   -1.5000    0.0000    0.0000 C   0  0  0  0  0  0  0  0  0  0  0  0
   -0.7500   -1.2990    0.0000 C   0  0  0  0  0  0  0  0  0  0  0  0
   -2.1203   -1.9091    0.0000 C   0  0  0  0  0  0  0  0  0  0  0  0
   -2.5838   -0.4826    0.0000 C   0  0  0  0  0  0  0  0  0  0  0  0
   -4.0511   -0.1707    0.0000 C   0  0  0  0  0  0  0  0  0  0  0  0
   -5.0548   -1.2854    0.0000 C   0  0  0  0  0  0  0  0  0  0  0  0
   -4.5912   -2.7120    0.0000 C   0  0  0  0  0  0  0  0  0  0  0  0
   -3.1240   -3.0239    0.0000 C   0  0  0  0  0  0  0  0  0  0  0  0
   -3.5875   -4.4504    0.0000 C   0  0  0  0  0  0  0  0  0  0  0  0
   -4.9579   -3.8403    0.0000 C   0  0  0  0  0  0  0  0  0  0  0  0
   -6.1714   -4.7220    0.0000 C   0  0  0  0  0  0  0  0  0  0  0  0
   -6.0146   -6.2138    0.0000 C   0  0  0  0  0  0  0  0  0  0  0  0
   -4.6443   -6.8239    0.0000 C   0  0  0  0  0  0  0  0  0  0  0  0
   -3.4307   -5.9422    0.0000 C   0  0  0  0  0  0  0  0  0  0  0  0
   -2.6807   -7.2413    0.0000 C   0  0  0  0  0  0  0  0  0  0  0  0
   -4.0511   -7.8514    0.0000 C   0  0  0  0  0  0  0  0  0  0  0  0
   -4.2079   -9.3432    0.0000 C   0  0  0  0  0  0  0  0  0  0  0  0
   -2.9943  -10.2248    0.0000 C   0  0  0  0  0  0  0  0  0  0  0  0
   -1.6240   -9.6147    0.0000 C   0  0  0  0  0  0  0  0  0  0  0  0
   -1.4672   -8.1229    0.0000 C   0  0  0  0  0  0  0  0  0  0  0  0
   -0.0000   -8.4348    0.0000 C   0  0  0  0  0  0  0  0  0  0  0  0
   -0.4635   -9.8614    0.0000 C   0  0  0  0  0  0  0  0  0  0  0  0
    0.5402  -10.9761    0.0000 C   0  0  0  0  0  0  0  0  0  0  0  0
    2.0074  -10.6642    0.0000 C   0  0  0  0  0  0  0  0  0  0  0  0
    2.4709   -9.2377    0.0000 C   0  0  0  0  0  0  0  0  0  0  0  0
    1.4672   -8.1229    0.0000 C   0  0  0  0  0  0  0  0  0  0  0  0
  1  2  1  0
  2  3  1  0
  3  4  1  0
  4  5  1  0
  5  6  1  0
  6  7  1  0
  7  8  2  0
  7  9  1  0
  9 10  1  0
 10 11  2  0
 11 12  1  0
 12 13  2  0
 13 14  1  0
 14 15  2  0
  6 16  1  0
 16 17  2  0
 17 18  1  0
 18 19  2  0
 19 20  1  0
 20 21  2  0
 21 22  1  0
 22 23  2  0
 23 24  1  0
 24 25  2  0
 25 26  1  0
 26 27  2  0
 27 28  1  0
 28 29  2  0
 29 30  1  0
 30 31  2  0
 31 32  1  0
 32 33  2  0
 33 34  1  0
 34 35  2  0
 35 36  1  0
 36 37  2  0
 37 38  1  0
 38 39  2  0
 39 40  1  0
 40 41  2  0
 41 42  1  0
 42 43  2  0
 43 44  1  0
 44 45  2  0
 45  2  1  0
 15 10  1  0
 21 16  1  0
 27 22  1  0
 33 28  1  0
 39 34  1  0
 45 40  1  0
M  END
>  <Title>  (458) 
idAAPRgen9

$$$$

     RDKit          2D

 15 16  0  0  0  0  0  0  0  0999 V2000
   -0.7500   -3.8971    0.0000 O   0  0  0  0  0  0  0  0  0  0  0  0
    0.7500   -3.8971    0.0000 C   0  0  0  0  0  0  0  0  0  0  0  0
    1.5000   -2.5981    0.0000 N   0  0  0  0  0  0  0  0  0  0  0  0
    0.7500   -1.2990    0.0000 C   0  0  0  0  0  0  0  0  0  0  0  0
    1.5000    0.0000    0.0000 N   0  0  0  0  0  0  0  0  0  0  0  0
    0.7500    1.2990    0.0000 N   0  0  0  0  0  0  0  0  0  0  0  0
   -0.7500    1.2990    0.0000 N   0  0  0  0  0  0  0  0  0  0  0  0
   -1.5000    0.0000    0.0000 N   0  0  0  0  0  0  0  0  0  0  0  0
   -0.7500   -1.2990    0.0000 N   0  0  0  0  0  0  0  0  0  0  0  0
    1.5000   -5.1962    0.0000 C   0  0  0  0  0  0  0  0  0  0  0  0
    2.9918   -5.3529    0.0000 C   0  0  0  0  0  0  0  0  0  0  0  0
    3.3037   -6.8202    0.0000 C   0  0  0  0  0  0  0  0  0  0  0  0
    2.0046   -7.5702    0.0000 C   0  0  0  0  0  0  0  0  0  0  0  0
    1.8478   -9.0619    0.0000 O   0  0  0  0  0  0  0  0  0  0  0  0
    0.8899   -6.5665    0.0000 C   0  0  0  0  0  0  0  0  0  0  0  0
  1  2  2  0
  2  3  1  0
  3  4  1  0
  4  5  2  0
  5  6  1  0
  6  7  2  0
  7  8  1  0
  8  9  2  0
  2 10  1  0
 10 11  2  0
 11 12  1  0
 12 13  2  0
 13 14  1  0
 13 15  1  0
  9  4  1  0
 15 10  1  0
M  END
>  <Title>  (459) 
idAAPSgen9

$$$$

     RDKit          2D

 15 16  0  0  0  0  0  0  0  0999 V2000
    1.8478   -9.0619    0.0000 C   0  0  0  0  0  0  0  0  0  0  0  0
    2.0046   -7.5702    0.0000 N   0  0  0  0  0  0  0  0  0  0  0  0
    3.3037   -6.8202    0.0000 C   0  0  0  0  0  0  0  0  0  0  0  0
    2.9918   -5.3529    0.0000 C   0  0  0  0  0  0  0  0  0  0  0  0
    1.5000   -5.1962    0.0000 C   0  0  0  0  0  0  0  0  0  0  0  0
    0.7500   -3.8971    0.0000 C   0  0  0  0  0  0  0  0  0  0  0  0
   -0.7500   -3.8971    0.0000 O   0  0  0  0  0  0  0  0  0  0  0  0
    1.5000   -2.5981    0.0000 O   0  0  0  0  0  0  0  0  0  0  0  0
    0.7500   -1.2990    0.0000 C   0  0  0  0  0  0  0  0  0  0  0  0
    1.5000    0.0000    0.0000 N   0  0  0  0  0  0  0  0  0  0  0  0
    0.7500    1.2990    0.0000 N   0  0  0  0  0  0  0  0  0  0  0  0
   -0.7500    1.2990    0.0000 N   0  0  0  0  0  0  0  0  0  0  0  0
   -1.5000    0.0000    0.0000 N   0  0  0  0  0  0  0  0  0  0  0  0
   -0.7500   -1.2990    0.0000 N   0  0  0  0  0  0  0  0  0  0  0  0
    0.8899   -6.5665    0.0000 C   0  0  0  0  0  0  0  0  0  0  0  0
  1  2  1  0
  2  3  1  0
  3  4  2  0
  4  5  1  0
  5  6  1  0
  6  7  2  0
  6  8  1  0
  8  9  1  0
  9 10  2  0
 10 11  1  0
 11 12  2  0
 12 13  1  0
 13 14  2  0
  5 15  1  0
 15  2  1  0
 14  9  1  0
M  END
>  <Title>  (460) 
idAAPTgen9

$$$$

     RDKit          2D

  6  5  0  0  0  0  0  0  0  0999 V2000
    0.0000    0.0000    0.0000 C   0  0  0  0  0  0  0  0  0  0  0  0
    1.2990    0.7500    0.0000 C   0  0  0  0  0  0  0  0  0  0  0  0
    2.5981   -0.0000    0.0000 C   0  0  0  0  0  0  0  0  0  0  0  0
    3.8971    0.7500    0.0000 C   0  0  0  0  0  0  0  0  0  0  0  0
    2.5981   -1.5000    0.0000 C   0  0  0  0  0  0  0  0  0  0  0  0
    2.5981   -3.0000    0.0000 N   0  0  0  0  0  0  0  0  0  0  0  0
  1  2  1  0
  2  3  1  0
  3  4  1  0
  3  5  1  0
  5  6  3  0
M  END
>  <Title>  (461) 
idAAPUgen9

$$$$

     RDKit          2D

 17 18  0  0  0  0  0  0  0  0999 V2000
    7.2760    2.5981    0.0000 C   0  0  0  0  0  0  0  0  0  0  0  0
    6.5260    1.2990    0.0000 C   0  0  0  0  0  0  0  0  0  0  0  0
    5.7760    0.0000    0.0000 C   0  0  0  0  0  0  0  0  0  0  0  0
    4.2760    0.0000    0.0000 C   0  0  0  0  0  0  0  0  0  0  0  0
    2.7760    0.0000    0.0000 C   0  0  0  0  0  0  0  0  0  0  0  0
    1.2760    0.0000    0.0000 C   0  0  0  0  0  0  0  0  0  0  0  0
    0.3943    1.2135    0.0000 C   0  0  0  0  0  0  0  0  0  0  0  0
   -1.0323    0.7500    0.0000 C   0  0  0  0  0  0  0  0  0  0  0  0
   -2.2458    1.6317    0.0000 C   0  0  0  0  0  0  0  0  0  0  0  0
   -3.4593    2.5134    0.0000 N   0  0  0  0  0  0  0  0  0  0  0  0
   -1.0323   -0.7500    0.0000 C   0  0  0  0  0  0  0  0  0  0  0  0
    0.3943   -1.2135    0.0000 C   0  0  0  0  0  0  0  0  0  0  0  0
    0.8578   -2.6401    0.0000 C   0  0  0  0  0  0  0  0  0  0  0  0
    2.2844   -3.1036    0.0000 C   0  0  0  0  0  0  0  0  0  0  0  0
    2.2844   -4.6036    0.0000 C   0  0  0  0  0  0  0  0  0  0  0  0
    0.8578   -5.0672    0.0000 C   0  0  0  0  0  0  0  0  0  0  0  0
   -0.0239   -3.8536    0.0000 C   0  0  0  0  0  0  0  0  0  0  0  0
  1  2  3  0
  2  3  1  0
  3  4  1  0
  4  5  3  0
  5  6  1  0
  6  7  2  0
  7  8  1  0
  8  9  1  0
  9 10  3  0
  8 11  1  0
 11 12  2  0
 12 13  1  0
 13 14  2  0
 14 15  1  0
 15 16  2  0
 16 17  1  0
 12  6  1  0
 17 13  1  0
M  END
>  <Title>  (462) 
idAAPVgen9

$$$$

     RDKit          2D

 22 23  0  0  0  0  0  0  0  0999 V2000
    7.5000   -2.5981    0.0000 C   0  0  0  0  0  0  0  0  0  0  0  0
    6.0000   -2.5981    0.0000 C   0  0  0  0  0  0  0  0  0  0  0  0
    5.2500   -1.2990    0.0000 C   0  0  0  0  0  0  0  0  0  0  0  0
    3.7500   -1.2990    0.0000 C   0  0  0  0  0  0  0  0  0  0  0  0
    3.0000   -2.5981    0.0000 O   0  0  0  0  0  0  0  0  0  0  0  0
    3.0000    0.0000    0.0000 C   0  0  0  0  0  0  0  0  0  0  0  0
    3.7500    1.2990    0.0000 O   0  0  0  0  0  0  0  0  0  0  0  0
    1.5000    0.0000    0.0000 C   0  0  0  0  0  0  0  0  0  0  0  0
    0.7500   -1.2990    0.0000 C   0  0  0  0  0  0  0  0  0  0  0  0
   -0.7500   -1.2990    0.0000 C   0  0  0  0  0  0  0  0  0  0  0  0
   -1.5000    0.0000    0.0000 C   0  0  0  0  0  0  0  0  0  0  0  0
   -0.7500    1.2990    0.0000 C   0  0  0  0  0  0  0  0  0  0  0  0
   -1.5000    2.5981    0.0000 C   0  0  0  0  0  0  0  0  0  0  0  0
   -3.0000    2.5981    0.0000 O   0  0  0  0  0  0  0  0  0  0  0  0
   -0.7500    3.8971    0.0000 N   0  0  0  0  0  0  0  0  0  0  0  0
   -1.5000    5.1962    0.0000 C   0  0  0  0  0  0  0  0  0  0  0  0
   -0.7500    6.4952    0.0000 C   0  0  0  0  0  0  0  0  0  0  0  0
   -1.5000    7.7942    0.0000 N   0  0  0  0  0  0  0  0  0  0  0  0
   -3.0000    7.7942    0.0000 N   0  0  0  0  0  0  0  0  0  0  0  0
   -3.7500    6.4952    0.0000 N   0  0  0  0  0  0  0  0  0  0  0  0
   -3.0000    5.1962    0.0000 N   0  0  0  0  0  0  0  0  0  0  0  0
    0.7500    1.2990    0.0000 C   0  0  0  0  0  0  0  0  0  0  0  0
  1  2  1  0
  2  3  1  0
  3  4  1  0
  4  5  2  0
  4  6  1  0
  6  7  1  0
  6  8  1  0
  8  9  2  0
  9 10  1  0
 10 11  2  0
 11 12  1  0
 12 13  1  0
 13 14  2  0
 13 15  1  0
 15 16  1  0
 16 17  2  0
 17 18  1  0
 18 19  2  0
 19 20  1  0
 20 21  2  0
 12 22  1  0
 22  8  1  0
 21 16  1  0
M  END
>  <Title>  (463) 
idAAPWgen9

$$$$

     RDKit          2D

 11 11  0  0  0  0  0  0  0  0999 V2000
    8.0260   -1.2990    0.0000 C   0  0  0  0  0  0  0  0  0  0  0  0
    6.5260   -1.2990    0.0000 C   0  0  0  0  0  0  0  0  0  0  0  0
    5.7760   -0.0000    0.0000 C   0  0  0  0  0  0  0  0  0  0  0  0
    4.2760   -0.0000    0.0000 C   0  0  0  0  0  0  0  0  0  0  0  0
    2.7760    0.0000    0.0000 C   0  0  0  0  0  0  0  0  0  0  0  0
    1.2760    0.0000    0.0000 C   0  0  0  0  0  0  0  0  0  0  0  0
    0.3943    1.2135    0.0000 C   0  0  0  0  0  0  0  0  0  0  0  0
   -1.0323    0.7500    0.0000 C   0  0  0  0  0  0  0  0  0  0  0  0
   -1.0323   -0.7500    0.0000 C   0  0  0  0  0  0  0  0  0  0  0  0
    0.3943   -1.2135    0.0000 C   0  0  0  0  0  0  0  0  0  0  0  0
    0.8578   -2.6401    0.0000 C   0  0  0  0  0  0  0  0  0  0  0  0
  1  2  1  0
  2  3  2  3
  3  4  1  0
  4  5  3  0
  5  6  1  0
  6  7  1  0
  7  8  2  0
  8  9  1  0
  9 10  2  0
 10 11  1  0
 10  6  1  0
M  END
>  <Title>  (464) 
idAAPXgen9

$$$$

     RDKit          2D

 20 22  0  0  0  0  0  0  0  0999 V2000
    4.6740   -4.8322    0.0000 C   0  0  0  0  0  0  0  0  0  0  0  0
    3.3037   -4.2221    0.0000 C   0  0  0  0  0  0  0  0  0  0  0  0
    2.9918   -2.7549    0.0000 C   0  0  0  0  0  0  0  0  0  0  0  0
    1.5000   -2.5981    0.0000 C   0  0  0  0  0  0  0  0  0  0  0  0
    0.7500   -1.2990    0.0000 C   0  0  0  0  0  0  0  0  0  0  0  0
    1.5000    0.0000    0.0000 C   0  0  0  0  0  0  0  0  0  0  0  0
    0.7500    1.2990    0.0000 C   0  0  0  0  0  0  0  0  0  0  0  0
   -0.7500    1.2990    0.0000 C   0  0  0  0  0  0  0  0  0  0  0  0
   -1.5000    0.0000    0.0000 C   0  0  0  0  0  0  0  0  0  0  0  0
   -0.7500   -1.2990    0.0000 C   0  0  0  0  0  0  0  0  0  0  0  0
    0.8899   -3.9684    0.0000 C   0  0  0  0  0  0  0  0  0  0  0  0
    2.0046   -4.9721    0.0000 C   0  0  0  0  0  0  0  0  0  0  0  0
    1.8478   -6.4639    0.0000 C   0  0  0  0  0  0  0  0  0  0  0  0
    3.0613   -7.3456    0.0000 O   0  0  0  0  0  0  0  0  0  0  0  0
    0.4775   -7.0740    0.0000 N   0  0  0  0  0  0  0  0  0  0  0  0
    0.3207   -8.5658    0.0000 C   0  0  0  0  0  0  0  0  0  0  0  0
    1.4354   -9.5695    0.0000 C   0  0  0  0  0  0  0  0  0  0  0  0
    0.8253  -10.9398    0.0000 C   0  0  0  0  0  0  0  0  0  0  0  0
   -0.6665  -10.7830    0.0000 C   0  0  0  0  0  0  0  0  0  0  0  0
   -0.9783   -9.3158    0.0000 C   0  0  0  0  0  0  0  0  0  0  0  0
  1  2  1  0
  2  3  2  0
  3  4  1  0
  4  5  1  0
  5  6  2  0
  6  7  1  0
  7  8  2  0
  8  9  1  0
  9 10  2  0
  4 11  1  0
 11 12  2  0
 12 13  1  0
 13 14  2  0
 13 15  1  0
 15 16  1  0
 16 17  2  0
 17 18  1  0
 18 19  1  0
 19 20  2  0
 12  2  1  0
 20 16  1  0
 10  5  1  0
M  END
>  <Title>  (465) 
idAAPYgen9

$$$$

     RDKit          2D

 14 14  0  0  0  0  0  0  0  0999 V2000
   13.0607    0.0000    0.0000 C   0  0  0  0  0  0  0  0  0  0  0  0
   11.5607    0.0000    0.0000 C   0  0  0  0  0  0  0  0  0  0  0  0
   10.0607    0.0000    0.0000 C   0  0  0  0  0  0  0  0  0  0  0  0
    8.5607    0.0000    0.0000 C   0  0  0  0  0  0  0  0  0  0  0  0
    7.0607    0.0000    0.0000 C   0  0  0  0  0  0  0  0  0  0  0  0
    5.5607    0.0000    0.0000 C   0  0  0  0  0  0  0  0  0  0  0  0
    4.0607    0.0000    0.0000 C   0  0  0  0  0  0  0  0  0  0  0  0
    2.5607    0.0000    0.0000 C   0  0  0  0  0  0  0  0  0  0  0  0
    1.0607    0.0000    0.0000 C   0  0  0  0  0  0  0  0  0  0  0  0
   -0.0000   -1.0607    0.0000 C   0  0  0  0  0  0  0  0  0  0  0  0
   -0.0000   -2.5607    0.0000 C   0  0  0  0  0  0  0  0  0  0  0  0
   -0.0000   -4.0607    0.0000 N   0  0  0  0  0  0  0  0  0  0  0  0
   -1.0607    0.0000    0.0000 C   0  0  0  0  0  0  0  0  0  0  0  0
    0.0000    1.0607    0.0000 C   0  0  0  0  0  0  0  0  0  0  0  0
  1  2  3  0
  2  3  1  0
  3  4  3  0
  4  5  1  0
  5  6  3  0
  6  7  1  0
  7  8  3  0
  8  9  1  0
  9 10  2  0
 10 11  1  0
 11 12  3  0
 10 13  1  0
 13 14  2  0
 14  9  1  0
M  END
>  <Title>  (466) 
idAAPZgen9

$$$$

     RDKit          2D

 22 23  0  0  0  0  0  0  0  0999 V2000
    3.0000    0.0000    0.0000 C   0  0  0  0  0  0  0  0  0  0  0  0
    1.5000    0.0000    0.0000 C   0  0  0  0  0  0  0  0  0  0  0  0
    0.7500   -1.2990    0.0000 C   0  0  0  0  0  0  0  0  0  0  0  0
   -0.7500   -1.2990    0.0000 C   0  0  0  0  0  0  0  0  0  0  0  0
   -1.5000   -2.5981    0.0000 C   0  0  0  0  0  0  0  0  0  0  0  0
   -1.5000    0.0000    0.0000 N   0  0  0  0  0  0  0  0  0  0  0  0
   -0.7500    1.2990    0.0000 C   0  0  0  0  0  0  0  0  0  0  0  0
   -1.5000    2.5981    0.0000 O   0  0  0  0  0  0  0  0  0  0  0  0
    0.7500    1.2990    0.0000 C   0  0  0  0  0  0  0  0  0  0  0  0
    1.5000    2.5981    0.0000 C   0  0  0  0  0  0  0  0  0  0  0  0
    0.7500    3.8971    0.0000 C   0  0  0  0  0  0  0  0  0  0  0  0
    1.5000    5.1962    0.0000 C   0  0  0  0  0  0  0  0  0  0  0  0
    0.7500    6.4952    0.0000 C   0  0  0  0  0  0  0  0  0  0  0  0
    1.5000    7.7942    0.0000 C   0  0  0  0  0  0  0  0  0  0  0  0
   -0.7500    6.4952    0.0000 N   0  0  0  0  0  0  0  0  0  0  0  0
   -1.6317    5.2817    0.0000 C   0  0  0  0  0  0  0  0  0  0  0  0
   -3.0583    5.7452    0.0000 C   0  0  0  0  0  0  0  0  0  0  0  0
   -4.2718    4.8635    0.0000 O   0  0  0  0  0  0  0  0  0  0  0  0
   -3.0583    7.2452    0.0000 C   0  0  0  0  0  0  0  0  0  0  0  0
   -4.2718    8.1269    0.0000 O   0  0  0  0  0  0  0  0  0  0  0  0
   -1.6317    7.7087    0.0000 C   0  0  0  0  0  0  0  0  0  0  0  0
   -1.1682    9.1353    0.0000 O   0  0  0  0  0  0  0  0  0  0  0  0
  1  2  1  0
  2  3  2  0
  3  4  1  0
  4  5  1  0
  4  6  1  0
  6  7  1  0
  7  8  2  0
  7  9  1  0
  9 10  2  3
 10 11  1  0
 11 12  1  0
 12 13  1  0
 13 14  1  0
 13 15  1  0
 15 16  1  0
 16 17  1  0
 17 18  1  0
 17 19  1  0
 19 20  1  0
 19 21  1  0
 21 22  1  0
  9  2  1  0
 21 15  1  0
M  END
>  <Title>  (467) 
idAAQAgen9

$$$$

     RDKit          2D

 57 65  0  0  0  0  0  0  0  0999 V2000
    5.8191   -5.5525    0.0000 C   0  0  0  0  0  0  0  0  0  0  0  0
    4.3191   -5.5525    0.0000 C   0  0  0  0  0  0  0  0  0  0  0  0
    4.0586   -4.0753    0.0000 C   0  0  0  0  0  0  0  0  0  0  0  0
    3.3086   -2.7762    0.0000 C   0  0  0  0  0  0  0  0  0  0  0  0
    2.1595   -1.8121    0.0000 C   0  0  0  0  0  0  0  0  0  0  0  0
    2.9095   -0.5130    0.0000 C   0  0  0  0  0  0  0  0  0  0  0  0
    2.1595    0.7860    0.0000 O   0  0  0  0  0  0  0  0  0  0  0  0
    4.4095   -0.5130    0.0000 O   0  0  0  0  0  0  0  0  0  0  0  0
    5.1595    0.7860    0.0000 C   0  0  0  0  0  0  0  0  0  0  0  0
    6.6595    0.7860    0.0000 C   0  0  0  0  0  0  0  0  0  0  0  0
    7.4095   -0.5130    0.0000 C   0  0  0  0  0  0  0  0  0  0  0  0
    8.9095   -0.5130    0.0000 C   0  0  0  0  0  0  0  0  0  0  0  0
    9.6595    0.7860    0.0000 C   0  0  0  0  0  0  0  0  0  0  0  0
    8.9095    2.0850    0.0000 C   0  0  0  0  0  0  0  0  0  0  0  0
    7.4095    2.0850    0.0000 C   0  0  0  0  0  0  0  0  0  0  0  0
    0.7500   -1.2990    0.0000 C   0  0  0  0  0  0  0  0  0  0  0  0
    1.5000    0.0000    0.0000 C   0  0  0  0  0  0  0  0  0  0  0  0
    0.7500    1.2990    0.0000 C   0  0  0  0  0  0  0  0  0  0  0  0
   -0.7500    1.2990    0.0000 C   0  0  0  0  0  0  0  0  0  0  0  0
   -1.5000    0.0000    0.0000 C   0  0  0  0  0  0  0  0  0  0  0  0
   -0.7500   -1.2990    0.0000 C   0  0  0  0  0  0  0  0  0  0  0  0
   -2.1595   -1.8121    0.0000 C   0  0  0  0  0  0  0  0  0  0  0  0
   -2.4200   -0.3349    0.0000 C   0  0  0  0  0  0  0  0  0  0  0  0
   -3.8296    0.1782    0.0000 C   0  0  0  0  0  0  0  0  0  0  0  0
   -4.9786   -0.7860    0.0000 C   0  0  0  0  0  0  0  0  0  0  0  0
   -4.7181   -2.2632    0.0000 C   0  0  0  0  0  0  0  0  0  0  0  0
   -3.3086   -2.7762    0.0000 C   0  0  0  0  0  0  0  0  0  0  0  0
   -4.0586   -4.0753    0.0000 C   0  0  0  0  0  0  0  0  0  0  0  0
   -5.2077   -3.1111    0.0000 C   0  0  0  0  0  0  0  0  0  0  0  0
   -6.6172   -3.6241    0.0000 C   0  0  0  0  0  0  0  0  0  0  0  0
   -6.8777   -5.1013    0.0000 C   0  0  0  0  0  0  0  0  0  0  0  0
   -5.7286   -6.0655    0.0000 C   0  0  0  0  0  0  0  0  0  0  0  0
   -4.3191   -5.5525    0.0000 C   0  0  0  0  0  0  0  0  0  0  0  0
   -4.0586   -7.0297    0.0000 C   0  0  0  0  0  0  0  0  0  0  0  0
   -5.5586   -7.0297    0.0000 C   0  0  0  0  0  0  0  0  0  0  0  0
   -6.3086   -8.3287    0.0000 C   0  0  0  0  0  0  0  0  0  0  0  0
   -5.5586   -9.6278    0.0000 C   0  0  0  0  0  0  0  0  0  0  0  0
   -4.0586   -9.6278    0.0000 C   0  0  0  0  0  0  0  0  0  0  0  0
   -3.3086   -8.3287    0.0000 C   0  0  0  0  0  0  0  0  0  0  0  0
   -2.1595   -9.2929    0.0000 C   0  0  0  0  0  0  0  0  0  0  0  0
   -3.3086  -10.2571    0.0000 C   0  0  0  0  0  0  0  0  0  0  0  0
   -3.0481  -11.7343    0.0000 C   0  0  0  0  0  0  0  0  0  0  0  0
   -1.6386  -12.2474    0.0000 C   0  0  0  0  0  0  0  0  0  0  0  0
   -0.4895  -11.2832    0.0000 C   0  0  0  0  0  0  0  0  0  0  0  0
   -0.7500   -9.8060    0.0000 C   0  0  0  0  0  0  0  0  0  0  0  0
    0.7500   -9.8060    0.0000 C   0  0  0  0  0  0  0  0  0  0  0  0
    0.4895  -11.2832    0.0000 C   0  0  0  0  0  0  0  0  0  0  0  0
    1.6386  -12.2474    0.0000 C   0  0  0  0  0  0  0  0  0  0  0  0
    3.0481  -11.7343    0.0000 C   0  0  0  0  0  0  0  0  0  0  0  0
    3.3086  -10.2571    0.0000 C   0  0  0  0  0  0  0  0  0  0  0  0
    2.1595   -9.2929    0.0000 C   0  0  0  0  0  0  0  0  0  0  0  0
    3.3086   -8.3287    0.0000 C   0  0  0  0  0  0  0  0  0  0  0  0
    4.0586   -9.6278    0.0000 C   0  0  0  0  0  0  0  0  0  0  0  0
    5.5586   -9.6278    0.0000 C   0  0  0  0  0  0  0  0  0  0  0  0
    6.3086   -8.3287    0.0000 C   0  0  0  0  0  0  0  0  0  0  0  0
    5.5586   -7.0297    0.0000 C   0  0  0  0  0  0  0  0  0  0  0  0
    4.0586   -7.0297    0.0000 C   0  0  0  0  0  0  0  0  0  0  0  0
  1  2  1  0
  2  3  2  0
  3  4  1  0
  4  5  2  0
  5  6  1  0
  6  7  2  0
  6  8  1  0
  8  9  1  0
  9 10  1  0
 10 11  2  0
 11 12  1  0
 12 13  2  0
 13 14  1  0
 14 15  2  0
  5 16  1  0
 16 17  2  0
 17 18  1  0
 18 19  2  0
 19 20  1  0
 20 21  2  0
 21 22  1  0
 22 23  2  0
 23 24  1  0
 24 25  2  0
 25 26  1  0
 26 27  2  0
 27 28  1  0
 28 29  2  0
 29 30  1  0
 30 31  2  0
 31 32  1  0
 32 33  2  0
 33 34  1  0
 34 35  2  0
 35 36  1  0
 36 37  2  0
 37 38  1  0
 38 39  2  0
 39 40  1  0
 40 41  2  0
 41 42  1  0
 42 43  2  0
 43 44  1  0
 44 45  2  0
 45 46  1  0
 46 47  2  0
 47 48  1  0
 48 49  2  0
 49 50  1  0
 50 51  2  0
 51 52  1  0
 52 53  2  0
 53 54  1  0
 54 55  2  0
 55 56  1  0
 56 57  2  0
 57  2  1  0
 15 10  1  0
 21 16  1  0
 27 22  1  0
 33 28  1  0
 39 34  1  0
 45 40  1  0
 51 46  1  0
 57 52  1  0
M  END
>  <Title>  (468) 
idAAQBgen9

$$$$

     RDKit          2D

124124  0  0  0  0  0  0  0  0999 V2000
  132.2286   75.3442    0.0000 C   0  0  0  0  0  0  0  0  0  0  0  0
  131.4786   74.0452    0.0000 C   0  0  0  0  0  0  0  0  0  0  0  0
  129.9786   74.0452    0.0000 C   0  0  0  0  0  0  0  0  0  0  0  0
  129.2286   72.7461    0.0000 C   0  0  0  0  0  0  0  0  0  0  0  0
  127.7286   72.7461    0.0000 C   0  0  0  0  0  0  0  0  0  0  0  0
  126.9786   71.4471    0.0000 C   0  0  0  0  0  0  0  0  0  0  0  0
  125.4786   71.4471    0.0000 C   0  0  0  0  0  0  0  0  0  0  0  0
  124.7286   70.1481    0.0000 C   0  0  0  0  0  0  0  0  0  0  0  0
  123.2286   70.1481    0.0000 C   0  0  0  0  0  0  0  0  0  0  0  0
  122.4786   68.8490    0.0000 C   0  0  0  0  0  0  0  0  0  0  0  0
  120.9786   68.8490    0.0000 C   0  0  0  0  0  0  0  0  0  0  0  0
  120.2286   67.5500    0.0000 C   0  0  0  0  0  0  0  0  0  0  0  0
  118.7286   67.5500    0.0000 C   0  0  0  0  0  0  0  0  0  0  0  0
  117.9786   66.2509    0.0000 C   0  0  0  0  0  0  0  0  0  0  0  0
  116.4786   66.2509    0.0000 C   0  0  0  0  0  0  0  0  0  0  0  0
  115.7286   64.9519    0.0000 C   0  0  0  0  0  0  0  0  0  0  0  0
  114.2286   64.9519    0.0000 C   0  0  0  0  0  0  0  0  0  0  0  0
  113.4786   63.6529    0.0000 C   0  0  0  0  0  0  0  0  0  0  0  0
  111.9786   63.6529    0.0000 C   0  0  0  0  0  0  0  0  0  0  0  0
  111.2286   62.3538    0.0000 C   0  0  0  0  0  0  0  0  0  0  0  0
  109.7286   62.3538    0.0000 C   0  0  0  0  0  0  0  0  0  0  0  0
  108.9786   61.0548    0.0000 C   0  0  0  0  0  0  0  0  0  0  0  0
  107.4786   61.0548    0.0000 C   0  0  0  0  0  0  0  0  0  0  0  0
  106.7286   59.7558    0.0000 C   0  0  0  0  0  0  0  0  0  0  0  0
  105.2286   59.7558    0.0000 C   0  0  0  0  0  0  0  0  0  0  0  0
  104.4786   58.4567    0.0000 C   0  0  0  0  0  0  0  0  0  0  0  0
  102.9786   58.4567    0.0000 C   0  0  0  0  0  0  0  0  0  0  0  0
  102.2286   57.1577    0.0000 C   0  0  0  0  0  0  0  0  0  0  0  0
  100.7286   57.1577    0.0000 C   0  0  0  0  0  0  0  0  0  0  0  0
   99.9786   55.8586    0.0000 C   0  0  0  0  0  0  0  0  0  0  0  0
   98.4786   55.8586    0.0000 C   0  0  0  0  0  0  0  0  0  0  0  0
   97.7286   54.5596    0.0000 C   0  0  0  0  0  0  0  0  0  0  0  0
   96.2286   54.5596    0.0000 C   0  0  0  0  0  0  0  0  0  0  0  0
   95.4786   53.2606    0.0000 C   0  0  0  0  0  0  0  0  0  0  0  0
   93.9786   53.2606    0.0000 C   0  0  0  0  0  0  0  0  0  0  0  0
   93.2286   51.9615    0.0000 C   0  0  0  0  0  0  0  0  0  0  0  0
   91.7286   51.9615    0.0000 C   0  0  0  0  0  0  0  0  0  0  0  0
   90.9786   50.6625    0.0000 C   0  0  0  0  0  0  0  0  0  0  0  0
   89.4786   50.6625    0.0000 C   0  0  0  0  0  0  0  0  0  0  0  0
   88.7286   49.3634    0.0000 C   0  0  0  0  0  0  0  0  0  0  0  0
   87.2286   49.3634    0.0000 C   0  0  0  0  0  0  0  0  0  0  0  0
   86.4786   48.0644    0.0000 C   0  0  0  0  0  0  0  0  0  0  0  0
   84.9786   48.0644    0.0000 C   0  0  0  0  0  0  0  0  0  0  0  0
   84.2286   46.7654    0.0000 C   0  0  0  0  0  0  0  0  0  0  0  0
   82.7286   46.7654    0.0000 C   0  0  0  0  0  0  0  0  0  0  0  0
   81.9786   45.4663    0.0000 C   0  0  0  0  0  0  0  0  0  0  0  0
   80.4786   45.4663    0.0000 C   0  0  0  0  0  0  0  0  0  0  0  0
   79.7286   44.1673    0.0000 C   0  0  0  0  0  0  0  0  0  0  0  0
   78.2286   44.1673    0.0000 C   0  0  0  0  0  0  0  0  0  0  0  0
   77.4786   42.8683    0.0000 C   0  0  0  0  0  0  0  0  0  0  0  0
   75.9786   42.8683    0.0000 C   0  0  0  0  0  0  0  0  0  0  0  0
   75.2286   41.5692    0.0000 C   0  0  0  0  0  0  0  0  0  0  0  0
   73.7286   41.5692    0.0000 C   0  0  0  0  0  0  0  0  0  0  0  0
   72.9786   40.2702    0.0000 C   0  0  0  0  0  0  0  0  0  0  0  0
   71.4786   40.2702    0.0000 C   0  0  0  0  0  0  0  0  0  0  0  0
   70.7286   38.9711    0.0000 C   0  0  0  0  0  0  0  0  0  0  0  0
   69.2286   38.9711    0.0000 C   0  0  0  0  0  0  0  0  0  0  0  0
   68.4786   37.6721    0.0000 C   0  0  0  0  0  0  0  0  0  0  0  0
   66.9786   37.6721    0.0000 C   0  0  0  0  0  0  0  0  0  0  0  0
   66.2286   36.3731    0.0000 C   0  0  0  0  0  0  0  0  0  0  0  0
   64.7286   36.3731    0.0000 C   0  0  0  0  0  0  0  0  0  0  0  0
   63.9786   35.0740    0.0000 C   0  0  0  0  0  0  0  0  0  0  0  0
   62.4786   35.0740    0.0000 C   0  0  0  0  0  0  0  0  0  0  0  0
   61.7286   33.7750    0.0000 C   0  0  0  0  0  0  0  0  0  0  0  0
   60.2286   33.7750    0.0000 C   0  0  0  0  0  0  0  0  0  0  0  0
   59.4786   32.4760    0.0000 C   0  0  0  0  0  0  0  0  0  0  0  0
   57.9786   32.4760    0.0000 C   0  0  0  0  0  0  0  0  0  0  0  0
   57.2286   31.1769    0.0000 C   0  0  0  0  0  0  0  0  0  0  0  0
   55.7286   31.1769    0.0000 C   0  0  0  0  0  0  0  0  0  0  0  0
   54.9786   29.8779    0.0000 C   0  0  0  0  0  0  0  0  0  0  0  0
   53.4786   29.8779    0.0000 C   0  0  0  0  0  0  0  0  0  0  0  0
   52.7286   28.5788    0.0000 C   0  0  0  0  0  0  0  0  0  0  0  0
   51.2286   28.5788    0.0000 C   0  0  0  0  0  0  0  0  0  0  0  0
   50.4786   27.2798    0.0000 C   0  0  0  0  0  0  0  0  0  0  0  0
   48.9786   27.2798    0.0000 C   0  0  0  0  0  0  0  0  0  0  0  0
   48.2286   25.9808    0.0000 C   0  0  0  0  0  0  0  0  0  0  0  0
   46.7286   25.9808    0.0000 C   0  0  0  0  0  0  0  0  0  0  0  0
   45.9786   24.6817    0.0000 C   0  0  0  0  0  0  0  0  0  0  0  0
   44.4786   24.6817    0.0000 C   0  0  0  0  0  0  0  0  0  0  0  0
   43.7286   23.3827    0.0000 C   0  0  0  0  0  0  0  0  0  0  0  0
   42.2286   23.3827    0.0000 C   0  0  0  0  0  0  0  0  0  0  0  0
   41.4786   22.0836    0.0000 C   0  0  0  0  0  0  0  0  0  0  0  0
   39.9786   22.0836    0.0000 C   0  0  0  0  0  0  0  0  0  0  0  0
   39.2286   20.7846    0.0000 C   0  0  0  0  0  0  0  0  0  0  0  0
   37.7286   20.7846    0.0000 C   0  0  0  0  0  0  0  0  0  0  0  0
   36.9786   19.4856    0.0000 C   0  0  0  0  0  0  0  0  0  0  0  0
   35.4786   19.4856    0.0000 C   0  0  0  0  0  0  0  0  0  0  0  0
   34.7286   18.1865    0.0000 C   0  0  0  0  0  0  0  0  0  0  0  0
   33.2286   18.1865    0.0000 C   0  0  0  0  0  0  0  0  0  0  0  0
   32.4786   16.8875    0.0000 C   0  0  0  0  0  0  0  0  0  0  0  0
   30.9786   16.8875    0.0000 C   0  0  0  0  0  0  0  0  0  0  0  0
   30.2286   15.5885    0.0000 C   0  0  0  0  0  0  0  0  0  0  0  0
   28.7286   15.5885    0.0000 C   0  0  0  0  0  0  0  0  0  0  0  0
   27.9786   14.2894    0.0000 C   0  0  0  0  0  0  0  0  0  0  0  0
   26.4786   14.2894    0.0000 C   0  0  0  0  0  0  0  0  0  0  0  0
   25.7286   12.9904    0.0000 C   0  0  0  0  0  0  0  0  0  0  0  0
   24.2286   12.9904    0.0000 C   0  0  0  0  0  0  0  0  0  0  0  0
   23.4786   11.6913    0.0000 C   0  0  0  0  0  0  0  0  0  0  0  0
   21.9786   11.6913    0.0000 C   0  0  0  0  0  0  0  0  0  0  0  0
   21.2286   10.3923    0.0000 C   0  0  0  0  0  0  0  0  0  0  0  0
   19.7286   10.3923    0.0000 C   0  0  0  0  0  0  0  0  0  0  0  0
   18.9786    9.0933    0.0000 C   0  0  0  0  0  0  0  0  0  0  0  0
   17.4786    9.0933    0.0000 C   0  0  0  0  0  0  0  0  0  0  0  0
   16.7286    7.7942    0.0000 C   0  0  0  0  0  0  0  0  0  0  0  0
   15.2286    7.7942    0.0000 C   0  0  0  0  0  0  0  0  0  0  0  0
   14.4786    6.4952    0.0000 C   0  0  0  0  0  0  0  0  0  0  0  0
   12.9786    6.4952    0.0000 C   0  0  0  0  0  0  0  0  0  0  0  0
   12.2286    5.1962    0.0000 C   0  0  0  0  0  0  0  0  0  0  0  0
   10.7286    5.1962    0.0000 C   0  0  0  0  0  0  0  0  0  0  0  0
    9.9786    3.8971    0.0000 C   0  0  0  0  0  0  0  0  0  0  0  0
    8.4786    3.8971    0.0000 C   0  0  0  0  0  0  0  0  0  0  0  0
    7.7286    2.5981    0.0000 C   0  0  0  0  0  0  0  0  0  0  0  0
    6.2286    2.5981    0.0000 C   0  0  0  0  0  0  0  0  0  0  0  0
    5.4786    1.2990    0.0000 C   0  0  0  0  0  0  0  0  0  0  0  0
    3.9786    1.2990    0.0000 C   0  0  0  0  0  0  0  0  0  0  0  0
    3.2286   -0.0000    0.0000 C   0  0  0  0  0  0  0  0  0  0  0  0
    1.7286    0.0000    0.0000 C   0  0  0  0  0  0  0  0  0  0  0  0
    1.0777    1.3515    0.0000 C   0  0  0  0  0  0  0  0  0  0  0  0
   -0.3846    1.6852    0.0000 C   0  0  0  0  0  0  0  0  0  0  0  0
   -1.5574    0.7500    0.0000 C   0  0  0  0  0  0  0  0  0  0  0  0
   -1.5574   -0.7500    0.0000 C   0  0  0  0  0  0  0  0  0  0  0  0
   -0.3846   -1.6852    0.0000 C   0  0  0  0  0  0  0  0  0  0  0  0
    1.0777   -1.3515    0.0000 C   0  0  0  0  0  0  0  0  0  0  0  0
    2.0130   -2.5242    0.0000 C   0  0  0  0  0  0  0  0  0  0  0  0
  1  2  1  0
  2  3  1  0
  3  4  1  0
  4  5  1  0
  5  6  1  0
  6  7  1  0
  7  8  1  0
  8  9  1  0
  9 10  1  0
 10 11  1  0
 11 12  1  0
 12 13  1  0
 13 14  1  0
 14 15  1  0
 15 16  1  0
 16 17  1  0
 17 18  1  0
 18 19  1  0
 19 20  1  0
 20 21  1  0
 21 22  1  0
 22 23  1  0
 23 24  1  0
 24 25  1  0
 25 26  1  0
 26 27  1  0
 27 28  1  0
 28 29  1  0
 29 30  1  0
 30 31  1  0
 31 32  1  0
 32 33  1  0
 33 34  1  0
 34 35  1  0
 35 36  1  0
 36 37  1  0
 37 38  1  0
 38 39  1  0
 39 40  1  0
 40 41  1  0
 41 42  1  0
 42 43  1  0
 43 44  1  0
 44 45  1  0
 45 46  1  0
 46 47  1  0
 47 48  1  0
 48 49  1  0
 49 50  1  0
 50 51  1  0
 51 52  1  0
 52 53  1  0
 53 54  1  0
 54 55  1  0
 55 56  1  0
 56 57  1  0
 57 58  1  0
 58 59  1  0
 59 60  1  0
 60 61  1  0
 61 62  1  0
 62 63  1  0
 63 64  1  0
 64 65  1  0
 65 66  1  0
 66 67  1  0
 67 68  1  0
 68 69  1  0
 69 70  1  0
 70 71  1  0
 71 72  1  0
 72 73  1  0
 73 74  1  0
 74 75  1  0
 75 76  1  0
 76 77  1  0
 77 78  1  0
 78 79  1  0
 79 80  1  0
 80 81  1  0
 81 82  1  0
 82 83  1  0
 83 84  1  0
 84 85  1  0
 85 86  1  0
 86 87  1  0
 87 88  1  0
 88 89  1  0
 89 90  1  0
 90 91  1  0
 91 92  1  0
 92 93  1  0
 93 94  1  0
 94 95  1  0
 95 96  1  0
 96 97  1  0
 97 98  1  0
 98 99  1  0
 99100  1  0
100101  1  0
101102  1  0
102103  1  0
103104  1  0
104105  1  0
105106  1  0
106107  1  0
107108  1  0
108109  1  0
109110  1  0
110111  1  0
111112  1  0
112113  1  0
113114  1  0
114115  1  0
115116  1  0
116117  1  0
117118  1  0
118119  2  0
119120  1  0
120121  1  0
121122  2  0
122123  1  0
123124  1  0
123117  1  0
M  END
>  <Title>  (469) 
idAAQCgen9

$$$$

     RDKit          2D

 50 57  0  0  0  0  0  0  0  0999 V2000
    5.2417   -6.1122    0.0000 C   0  0  0  0  0  0  0  0  0  0  0  0
    3.7705   -5.8195    0.0000 C   0  0  0  0  0  0  0  0  0  0  0  0
    3.7705   -4.3195    0.0000 C   0  0  0  0  0  0  0  0  0  0  0  0
    3.1965   -2.9337    0.0000 C   0  0  0  0  0  0  0  0  0  0  0  0
    2.1358   -1.8731    0.0000 C   0  0  0  0  0  0  0  0  0  0  0  0
    2.9692   -0.6259    0.0000 C   0  0  0  0  0  0  0  0  0  0  0  0
    2.3057    0.7195    0.0000 O   0  0  0  0  0  0  0  0  0  0  0  0
    4.4660   -0.7240    0.0000 O   0  0  0  0  0  0  0  0  0  0  0  0
    5.2993    0.5232    0.0000 C   0  0  0  0  0  0  0  0  0  0  0  0
    6.7961    0.4251    0.0000 N   0  0  0  0  0  0  0  0  0  0  0  0
    7.6295    1.6723    0.0000 N   0  0  0  0  0  0  0  0  0  0  0  0
    6.9660    3.0176    0.0000 N   0  0  0  0  0  0  0  0  0  0  0  0
    5.4692    3.1158    0.0000 N   0  0  0  0  0  0  0  0  0  0  0  0
    4.6359    1.8686    0.0000 N   0  0  0  0  0  0  0  0  0  0  0  0
    0.7500   -1.2990    0.0000 C   0  0  0  0  0  0  0  0  0  0  0  0
    1.5000    0.0000    0.0000 C   0  0  0  0  0  0  0  0  0  0  0  0
    0.7500    1.2990    0.0000 C   0  0  0  0  0  0  0  0  0  0  0  0
   -0.7500    1.2990    0.0000 C   0  0  0  0  0  0  0  0  0  0  0  0
   -1.5000    0.0000    0.0000 C   0  0  0  0  0  0  0  0  0  0  0  0
   -0.7500   -1.2990    0.0000 C   0  0  0  0  0  0  0  0  0  0  0  0
   -2.1358   -1.8731    0.0000 C   0  0  0  0  0  0  0  0  0  0  0  0
   -2.5240   -0.4242    0.0000 C   0  0  0  0  0  0  0  0  0  0  0  0
   -3.9729   -0.0359    0.0000 C   0  0  0  0  0  0  0  0  0  0  0  0
   -5.0336   -1.0966    0.0000 C   0  0  0  0  0  0  0  0  0  0  0  0
   -4.6454   -2.5455    0.0000 C   0  0  0  0  0  0  0  0  0  0  0  0
   -3.1965   -2.9337    0.0000 C   0  0  0  0  0  0  0  0  0  0  0  0
   -3.7705   -4.3195    0.0000 C   0  0  0  0  0  0  0  0  0  0  0  0
   -5.0695   -3.5695    0.0000 C   0  0  0  0  0  0  0  0  0  0  0  0
   -6.3686   -4.3195    0.0000 C   0  0  0  0  0  0  0  0  0  0  0  0
   -6.3686   -5.8195    0.0000 C   0  0  0  0  0  0  0  0  0  0  0  0
   -5.0695   -6.5695    0.0000 C   0  0  0  0  0  0  0  0  0  0  0  0
   -3.7705   -5.8195    0.0000 C   0  0  0  0  0  0  0  0  0  0  0  0
   -3.1965   -7.2054    0.0000 C   0  0  0  0  0  0  0  0  0  0  0  0
   -4.6454   -7.5936    0.0000 C   0  0  0  0  0  0  0  0  0  0  0  0
   -5.0336   -9.0425    0.0000 C   0  0  0  0  0  0  0  0  0  0  0  0
   -3.9729  -10.1031    0.0000 C   0  0  0  0  0  0  0  0  0  0  0  0
   -2.5240   -9.7149    0.0000 C   0  0  0  0  0  0  0  0  0  0  0  0
   -2.1358   -8.2660    0.0000 C   0  0  0  0  0  0  0  0  0  0  0  0
   -0.7500   -8.8400    0.0000 C   0  0  0  0  0  0  0  0  0  0  0  0
   -1.5000  -10.1391    0.0000 C   0  0  0  0  0  0  0  0  0  0  0  0
   -0.7500  -11.4381    0.0000 C   0  0  0  0  0  0  0  0  0  0  0  0
    0.7500  -11.4381    0.0000 C   0  0  0  0  0  0  0  0  0  0  0  0
    1.5000  -10.1391    0.0000 C   0  0  0  0  0  0  0  0  0  0  0  0
    0.7500   -8.8400    0.0000 C   0  0  0  0  0  0  0  0  0  0  0  0
    2.1358   -8.2660    0.0000 C   0  0  0  0  0  0  0  0  0  0  0  0
    2.5240   -9.7149    0.0000 C   0  0  0  0  0  0  0  0  0  0  0  0
    3.9729  -10.1031    0.0000 C   0  0  0  0  0  0  0  0  0  0  0  0
    5.0336   -9.0425    0.0000 C   0  0  0  0  0  0  0  0  0  0  0  0
    4.6454   -7.5936    0.0000 C   0  0  0  0  0  0  0  0  0  0  0  0
    3.1965   -7.2054    0.0000 C   0  0  0  0  0  0  0  0  0  0  0  0
  1  2  1  0
  2  3  2  0
  3  4  1  0
  4  5  1  0
  5  6  1  0
  6  7  2  0
  6  8  1  0
  8  9  1  0
  9 10  2  0
 10 11  1  0
 11 12  2  0
 12 13  1  0
 13 14  2  0
  5 15  1  0
 15 16  2  0
 16 17  1  0
 17 18  2  0
 18 19  1  0
 19 20  2  0
 20 21  1  0
 21 22  2  0
 22 23  1  0
 23 24  2  0
 24 25  1  0
 25 26  2  0
 26 27  1  0
 27 28  2  0
 28 29  1  0
 29 30  2  0
 30 31  1  0
 31 32  2  0
 32 33  1  0
 33 34  2  0
 34 35  1  0
 35 36  2  0
 36 37  1  0
 37 38  2  0
 38 39  1  0
 39 40  2  0
 40 41  1  0
 41 42  2  0
 42 43  1  0
 43 44  2  0
 44 45  1  0
 45 46  2  0
 46 47  1  0
 47 48  2  0
 48 49  1  0
 49 50  2  0
 50  2  1  0
 14  9  1  0
 20 15  1  0
 26 21  1  0
 32 27  1  0
 38 33  1  0
 44 39  1  0
 50 45  1  0
M  END
>  <Title>  (470) 
idAAQDgen9

$$$$

     RDKit          2D

 92 96  0  0  0  0  0  0  0  0999 V2000
   22.4046    5.6903    0.0000 C   0  0  0  0  0  0  0  0  0  0  0  0
   20.9114    5.8329    0.0000 C   0  0  0  0  0  0  0  0  0  0  0  0
   20.2883    7.1973    0.0000 C   0  0  0  0  0  0  0  0  0  0  0  0
   18.7951    7.3399    0.0000 C   0  0  0  0  0  0  0  0  0  0  0  0
   17.9250    6.1181    0.0000 C   0  0  0  0  0  0  0  0  0  0  0  0
   18.5481    4.7536    0.0000 C   0  0  0  0  0  0  0  0  0  0  0  0
   20.0413    4.6110    0.0000 C   0  0  0  0  0  0  0  0  0  0  0  0
   20.6645    3.2466    0.0000 C   0  0  0  0  0  0  0  0  0  0  0  0
   22.1577    3.1040    0.0000 C   0  0  0  0  0  0  0  0  0  0  0  0
   22.7808    1.7395    0.0000 C   0  0  0  0  0  0  0  0  0  0  0  0
   21.9107    0.5177    0.0000 C   0  0  0  0  0  0  0  0  0  0  0  0
   20.4175    0.6603    0.0000 C   0  0  0  0  0  0  0  0  0  0  0  0
   19.7944    2.0247    0.0000 C   0  0  0  0  0  0  0  0  0  0  0  0
   18.3012    2.1673    0.0000 C   0  0  0  0  0  0  0  0  0  0  0  0
   17.6781    3.5317    0.0000 C   0  0  0  0  0  0  0  0  0  0  0  0
   16.1848    3.6743    0.0000 C   0  0  0  0  0  0  0  0  0  0  0  0
   15.3148    2.4525    0.0000 C   0  0  0  0  0  0  0  0  0  0  0  0
   15.9379    1.0880    0.0000 C   0  0  0  0  0  0  0  0  0  0  0  0
   17.4311    0.9454    0.0000 C   0  0  0  0  0  0  0  0  0  0  0  0
   18.0542   -0.4190    0.0000 C   0  0  0  0  0  0  0  0  0  0  0  0
   19.5474   -0.5616    0.0000 C   0  0  0  0  0  0  0  0  0  0  0  0
   20.1705   -1.9261    0.0000 C   0  0  0  0  0  0  0  0  0  0  0  0
   19.3005   -3.1479    0.0000 C   0  0  0  0  0  0  0  0  0  0  0  0
   17.8072   -3.0053    0.0000 C   0  0  0  0  0  0  0  0  0  0  0  0
   17.1841   -1.6409    0.0000 C   0  0  0  0  0  0  0  0  0  0  0  0
   15.6909   -1.4983    0.0000 C   0  0  0  0  0  0  0  0  0  0  0  0
   15.7623    0.0000    0.0000 C   0  0  0  0  0  0  0  0  0  0  0  0
   15.6909    1.4983    0.0000 C   0  0  0  0  0  0  0  0  0  0  0  0
   15.4774    2.9830    0.0000 C   0  0  0  0  0  0  0  0  0  0  0  0
   15.1238    4.4408    0.0000 C   0  0  0  0  0  0  0  0  0  0  0  0
   14.6332    5.8583    0.0000 C   0  0  0  0  0  0  0  0  0  0  0  0
   14.0101    7.2227    0.0000 C   0  0  0  0  0  0  0  0  0  0  0  0
   13.2601    8.5217    0.0000 C   0  0  0  0  0  0  0  0  0  0  0  0
   12.3900    9.7436    0.0000 C   0  0  0  0  0  0  0  0  0  0  0  0
   11.4077   10.8772    0.0000 C   0  0  0  0  0  0  0  0  0  0  0  0
   10.3221   11.9123    0.0000 C   0  0  0  0  0  0  0  0  0  0  0  0
    9.1430   12.8396    0.0000 C   0  0  0  0  0  0  0  0  0  0  0  0
    7.8811   13.6505    0.0000 C   0  0  0  0  0  0  0  0  0  0  0  0
    6.5479   14.3379    0.0000 C   0  0  0  0  0  0  0  0  0  0  0  0
    5.1553   14.8954    0.0000 C   0  0  0  0  0  0  0  0  0  0  0  0
    3.7161   15.3180    0.0000 C   0  0  0  0  0  0  0  0  0  0  0  0
    2.2432   15.6019    0.0000 C   0  0  0  0  0  0  0  0  0  0  0  0
    0.7500   15.7444    0.0000 C   0  0  0  0  0  0  0  0  0  0  0  0
   -0.7500   15.7444    0.0000 C   0  0  0  0  0  0  0  0  0  0  0  0
   -2.2432   15.6019    0.0000 C   0  0  0  0  0  0  0  0  0  0  0  0
   -3.7161   15.3180    0.0000 C   0  0  0  0  0  0  0  0  0  0  0  0
   -5.1553   14.8954    0.0000 C   0  0  0  0  0  0  0  0  0  0  0  0
   -6.5479   14.3379    0.0000 C   0  0  0  0  0  0  0  0  0  0  0  0
   -7.8811   13.6505    0.0000 C   0  0  0  0  0  0  0  0  0  0  0  0
   -9.1430   12.8396    0.0000 C   0  0  0  0  0  0  0  0  0  0  0  0
  -10.3221   11.9123    0.0000 C   0  0  0  0  0  0  0  0  0  0  0  0
  -11.4077   10.8772    0.0000 C   0  0  0  0  0  0  0  0  0  0  0  0
  -12.3900    9.7436    0.0000 C   0  0  0  0  0  0  0  0  0  0  0  0
  -13.2601    8.5217    0.0000 C   0  0  0  0  0  0  0  0  0  0  0  0
  -14.0101    7.2227    0.0000 C   0  0  0  0  0  0  0  0  0  0  0  0
  -14.6332    5.8583    0.0000 C   0  0  0  0  0  0  0  0  0  0  0  0
  -15.1238    4.4408    0.0000 C   0  0  0  0  0  0  0  0  0  0  0  0
  -15.4774    2.9830    0.0000 C   0  0  0  0  0  0  0  0  0  0  0  0
  -15.6909    1.4983    0.0000 C   0  0  0  0  0  0  0  0  0  0  0  0
  -15.7623    0.0000    0.0000 C   0  0  0  0  0  0  0  0  0  0  0  0
  -15.6909   -1.4983    0.0000 C   0  0  0  0  0  0  0  0  0  0  0  0
  -15.4774   -2.9830    0.0000 C   0  0  0  0  0  0  0  0  0  0  0  0
  -15.1238   -4.4408    0.0000 C   0  0  0  0  0  0  0  0  0  0  0  0
  -14.6332   -5.8583    0.0000 C   0  0  0  0  0  0  0  0  0  0  0  0
  -14.0101   -7.2227    0.0000 C   0  0  0  0  0  0  0  0  0  0  0  0
  -13.2601   -8.5217    0.0000 C   0  0  0  0  0  0  0  0  0  0  0  0
  -12.3900   -9.7436    0.0000 C   0  0  0  0  0  0  0  0  0  0  0  0
  -11.4077  -10.8772    0.0000 C   0  0  0  0  0  0  0  0  0  0  0  0
  -10.3221  -11.9123    0.0000 C   0  0  0  0  0  0  0  0  0  0  0  0
   -9.1430  -12.8396    0.0000 C   0  0  0  0  0  0  0  0  0  0  0  0
   -7.8811  -13.6505    0.0000 C   0  0  0  0  0  0  0  0  0  0  0  0
   -6.5479  -14.3379    0.0000 C   0  0  0  0  0  0  0  0  0  0  0  0
   -5.1553  -14.8954    0.0000 C   0  0  0  0  0  0  0  0  0  0  0  0
   -3.7161  -15.3180    0.0000 C   0  0  0  0  0  0  0  0  0  0  0  0
   -2.2432  -15.6019    0.0000 C   0  0  0  0  0  0  0  0  0  0  0  0
   -0.7500  -15.7444    0.0000 C   0  0  0  0  0  0  0  0  0  0  0  0
    0.7500  -15.7444    0.0000 C   0  0  0  0  0  0  0  0  0  0  0  0
    2.2432  -15.6019    0.0000 C   0  0  0  0  0  0  0  0  0  0  0  0
    3.7161  -15.3180    0.0000 C   0  0  0  0  0  0  0  0  0  0  0  0
    5.1553  -14.8954    0.0000 C   0  0  0  0  0  0  0  0  0  0  0  0
    6.5479  -14.3379    0.0000 C   0  0  0  0  0  0  0  0  0  0  0  0
    7.8811  -13.6505    0.0000 C   0  0  0  0  0  0  0  0  0  0  0  0
    9.1430  -12.8396    0.0000 C   0  0  0  0  0  0  0  0  0  0  0  0
   10.3221  -11.9123    0.0000 C   0  0  0  0  0  0  0  0  0  0  0  0
   11.4077  -10.8772    0.0000 C   0  0  0  0  0  0  0  0  0  0  0  0
   12.3900   -9.7436    0.0000 C   0  0  0  0  0  0  0  0  0  0  0  0
   13.2601   -8.5217    0.0000 C   0  0  0  0  0  0  0  0  0  0  0  0
   14.0101   -7.2227    0.0000 C   0  0  0  0  0  0  0  0  0  0  0  0
   14.6332   -5.8583    0.0000 C   0  0  0  0  0  0  0  0  0  0  0  0
   15.1238   -4.4408    0.0000 C   0  0  0  0  0  0  0  0  0  0  0  0
   15.4774   -2.9830    0.0000 C   0  0  0  0  0  0  0  0  0  0  0  0
   16.9503   -3.2669    0.0000 C   0  0  0  0  0  0  0  0  0  0  0  0
  1  2  1  0
  2  3  2  0
  3  4  1  0
  4  5  2  0
  5  6  1  0
  6  7  2  0
  7  8  1  0
  8  9  2  0
  9 10  1  0
 10 11  2  0
 11 12  1  0
 12 13  2  0
 13 14  1  0
 14 15  2  0
 15 16  1  0
 16 17  2  0
 17 18  1  0
 18 19  2  0
 19 20  1  0
 20 21  2  0
 21 22  1  0
 22 23  2  0
 23 24  1  0
 24 25  2  0
 25 26  1  0
 26 27  2  0
 27 28  1  0
 28 29  2  0
 29 30  1  0
 30 31  2  0
 31 32  1  0
 32 33  2  0
 33 34  1  0
 34 35  2  0
 35 36  1  0
 36 37  2  0
 37 38  1  0
 38 39  2  0
 39 40  1  0
 40 41  2  0
 41 42  1  0
 42 43  2  0
 43 44  1  0
 44 45  2  0
 45 46  1  0
 46 47  2  0
 47 48  1  0
 48 49  2  0
 49 50  1  0
 50 51  2  0
 51 52  1  0
 52 53  2  0
 53 54  1  0
 54 55  1  0
 55 56  1  0
 56 57  1  0
 57 58  1  0
 58 59  1  0
 59 60  1  0
 60 61  1  0
 61 62  1  0
 62 63  1  0
 63 64  1  0
 64 65  1  0
 65 66  1  0
 66 67  1  0
 67 68  1  0
 68 69  1  0
 69 70  1  0
 70 71  1  0
 71 72  1  0
 72 73  1  0
 73 74  1  0
 74 75  1  0
 75 76  1  0
 76 77  1  0
 77 78  1  0
 78 79  1  0
 79 80  1  0
 80 81  1  0
 81 82  1  0
 82 83  1  0
 83 84  1  0
 84 85  1  0
 85 86  1  0
 86 87  1  0
 87 88  1  0
 88 89  1  0
 89 90  1  0
 90 91  1  0
 91 92  1  0
  7  2  1  0
 13  8  1  0
 19 14  1  0
 25 20  1  0
 91 26  1  0
M  END
>  <Title>  (471) 
idAAQEgen9

$$$$

     RDKit          2D

  7  6  0  0  0  0  0  0  0  0999 V2000
    0.0000    0.0000    0.0000 C   0  0  0  0  0  0  0  0  0  0  0  0
   -0.0000   -1.5000    0.0000 C   0  0  0  0  0  0  0  0  0  0  0  0
   -0.0000   -3.0000    0.0000 C   0  0  0  0  0  0  0  0  0  0  0  0
    1.2990   -3.7500    0.0000 C   0  0  0  0  0  0  0  0  0  0  0  0
   -1.2990   -3.7500    0.0000 C   0  0  0  0  0  0  0  0  0  0  0  0
   -2.5981   -3.0000    0.0000 C   0  0  0  0  0  0  0  0  0  0  0  0
   -3.8971   -3.7500    0.0000 C   0  0  0  0  0  0  0  0  0  0  0  0
  1  2  3  0
  2  3  1  0
  3  4  2  0
  3  5  1  0
  5  6  2  3
  6  7  1  0
M  END
>  <Title>  (472) 
idAAQFgen9

$$$$

     RDKit          2D

 96101  0  0  0  0  0  0  0  0999 V2000
  -22.2595    7.4319    0.0000 C   0  0  0  0  0  0  0  0  0  0  0  0
  -20.8488    7.9418    0.0000 C   0  0  0  0  0  0  0  0  0  0  0  0
  -19.4381    8.4516    0.0000 C   0  0  0  0  0  0  0  0  0  0  0  0
  -18.0274    8.9614    0.0000 C   0  0  0  0  0  0  0  0  0  0  0  0
  -16.6167    9.4713    0.0000 C   0  0  0  0  0  0  0  0  0  0  0  0
  -15.2060    9.9811    0.0000 C   0  0  0  0  0  0  0  0  0  0  0  0
  -13.7953   10.4909    0.0000 C   0  0  0  0  0  0  0  0  0  0  0  0
  -12.3846   11.0008    0.0000 C   0  0  0  0  0  0  0  0  0  0  0  0
  -10.9739   11.5106    0.0000 C   0  0  0  0  0  0  0  0  0  0  0  0
  -11.4160   12.9440    0.0000 C   0  0  0  0  0  0  0  0  0  0  0  0
  -11.7199   14.4129    0.0000 C   0  0  0  0  0  0  0  0  0  0  0  0
  -11.8828   15.9040    0.0000 C   0  0  0  0  0  0  0  0  0  0  0  0
  -11.9032   17.4038    0.0000 C   0  0  0  0  0  0  0  0  0  0  0  0
  -11.7809   18.8989    0.0000 C   0  0  0  0  0  0  0  0  0  0  0  0
  -11.5171   20.3755    0.0000 C   0  0  0  0  0  0  0  0  0  0  0  0
  -11.1141   21.8203    0.0000 C   0  0  0  0  0  0  0  0  0  0  0  0
  -10.5756   23.2203    0.0000 C   0  0  0  0  0  0  0  0  0  0  0  0
   -9.9064   24.5628    0.0000 C   0  0  0  0  0  0  0  0  0  0  0  0
   -9.1127   25.8356    0.0000 C   0  0  0  0  0  0  0  0  0  0  0  0
   -8.2016   27.0272    0.0000 C   0  0  0  0  0  0  0  0  0  0  0  0
   -7.1813   28.1268    0.0000 C   0  0  0  0  0  0  0  0  0  0  0  0
   -6.0612   29.1244    0.0000 C   0  0  0  0  0  0  0  0  0  0  0  0
   -4.8513   30.0110    0.0000 C   0  0  0  0  0  0  0  0  0  0  0  0
   -3.5625   30.7786    0.0000 C   0  0  0  0  0  0  0  0  0  0  0  0
   -2.2067   31.4202    0.0000 C   0  0  0  0  0  0  0  0  0  0  0  0
   -0.7960   31.9301    0.0000 C   0  0  0  0  0  0  0  0  0  0  0  0
    0.6568   32.3035    0.0000 C   0  0  0  0  0  0  0  0  0  0  0  0
    2.1385   32.5371    0.0000 C   0  0  0  0  0  0  0  0  0  0  0  0
    3.6357   32.6289    0.0000 C   0  0  0  0  0  0  0  0  0  0  0  0
    5.1348   32.5779    0.0000 C   0  0  0  0  0  0  0  0  0  0  0  0
    6.6223   32.3846    0.0000 C   0  0  0  0  0  0  0  0  0  0  0  0
    8.0847   32.0508    0.0000 C   0  0  0  0  0  0  0  0  0  0  0  0
    9.5087   31.5796    0.0000 C   0  0  0  0  0  0  0  0  0  0  0  0
   10.8815   30.9750    0.0000 C   0  0  0  0  0  0  0  0  0  0  0  0
   12.1906   30.2428    0.0000 C   0  0  0  0  0  0  0  0  0  0  0  0
   13.4242   29.3894    0.0000 C   0  0  0  0  0  0  0  0  0  0  0  0
   14.5711   28.4226    0.0000 C   0  0  0  0  0  0  0  0  0  0  0  0
   15.6209   27.3512    0.0000 C   0  0  0  0  0  0  0  0  0  0  0  0
   16.5641   26.1848    0.0000 C   0  0  0  0  0  0  0  0  0  0  0  0
   17.3921   24.9341    0.0000 C   0  0  0  0  0  0  0  0  0  0  0  0
   18.0975   23.6103    0.0000 C   0  0  0  0  0  0  0  0  0  0  0  0
   18.6739   22.2255    0.0000 C   0  0  0  0  0  0  0  0  0  0  0  0
   19.1160   20.7921    0.0000 C   0  0  0  0  0  0  0  0  0  0  0  0
   19.4199   19.3232    0.0000 C   0  0  0  0  0  0  0  0  0  0  0  0
   19.5828   17.8321    0.0000 C   0  0  0  0  0  0  0  0  0  0  0  0
   19.6032   16.3322    0.0000 C   0  0  0  0  0  0  0  0  0  0  0  0
   19.4809   14.8372    0.0000 C   0  0  0  0  0  0  0  0  0  0  0  0
   19.2171   13.3606    0.0000 C   0  0  0  0  0  0  0  0  0  0  0  0
   18.8141   11.9157    0.0000 C   0  0  0  0  0  0  0  0  0  0  0  0
   18.2756   10.5157    0.0000 C   0  0  0  0  0  0  0  0  0  0  0  0
   17.6065    9.1733    0.0000 C   0  0  0  0  0  0  0  0  0  0  0  0
   16.8128    7.9005    0.0000 C   0  0  0  0  0  0  0  0  0  0  0  0
   15.9016    6.7089    0.0000 C   0  0  0  0  0  0  0  0  0  0  0  0
   14.8814    5.6093    0.0000 C   0  0  0  0  0  0  0  0  0  0  0  0
   13.7612    4.6117    0.0000 C   0  0  0  0  0  0  0  0  0  0  0  0
   12.5513    3.7251    0.0000 C   0  0  0  0  0  0  0  0  0  0  0  0
   11.2626    2.9575    0.0000 C   0  0  0  0  0  0  0  0  0  0  0  0
    9.9067    2.3159    0.0000 C   0  0  0  0  0  0  0  0  0  0  0  0
    8.4960    1.8060    0.0000 C   0  0  0  0  0  0  0  0  0  0  0  0
    7.0433    1.4326    0.0000 C   0  0  0  0  0  0  0  0  0  0  0  0
    5.5616    1.1989    0.0000 C   0  0  0  0  0  0  0  0  0  0  0  0
    4.0644    1.1072    0.0000 C   0  0  0  0  0  0  0  0  0  0  0  0
    2.5652    1.1582    0.0000 C   0  0  0  0  0  0  0  0  0  0  0  0
    1.0777    1.3515    0.0000 C   0  0  0  0  0  0  0  0  0  0  0  0
    1.7286    0.0000    0.0000 C   0  0  0  0  0  0  0  0  0  0  0  0
    1.0777   -1.3515    0.0000 C   0  0  0  0  0  0  0  0  0  0  0  0
   -0.3846   -1.6852    0.0000 C   0  0  0  0  0  0  0  0  0  0  0  0
   -1.5574   -0.7500    0.0000 C   0  0  0  0  0  0  0  0  0  0  0  0
   -1.5574    0.7500    0.0000 C   0  0  0  0  0  0  0  0  0  0  0  0
   -0.3846    1.6852    0.0000 C   0  0  0  0  0  0  0  0  0  0  0  0
   -1.8087    2.1565    0.0000 C   0  0  0  0  0  0  0  0  0  0  0  0
   -0.5988    3.0431    0.0000 C   0  0  0  0  0  0  0  0  0  0  0  0
   -0.7616    4.5343    0.0000 C   0  0  0  0  0  0  0  0  0  0  0  0
   -2.1344    5.1388    0.0000 C   0  0  0  0  0  0  0  0  0  0  0  0
   -3.3444    4.2522    0.0000 C   0  0  0  0  0  0  0  0  0  0  0  0
   -3.1815    2.7610    0.0000 C   0  0  0  0  0  0  0  0  0  0  0  0
   -4.4906    3.4933    0.0000 C   0  0  0  0  0  0  0  0  0  0  0  0
   -4.6129    1.9983    0.0000 C   0  0  0  0  0  0  0  0  0  0  0  0
   -5.9687    1.3567    0.0000 C   0  0  0  0  0  0  0  0  0  0  0  0
   -7.2023    2.2100    0.0000 C   0  0  0  0  0  0  0  0  0  0  0  0
   -7.0800    3.7051    0.0000 C   0  0  0  0  0  0  0  0  0  0  0  0
   -5.7242    4.3467    0.0000 C   0  0  0  0  0  0  0  0  0  0  0  0
   -6.8711    5.3135    0.0000 C   0  0  0  0  0  0  0  0  0  0  0  0
   -5.4183    5.6869    0.0000 C   0  0  0  0  0  0  0  0  0  0  0  0
   -5.0153    7.1317    0.0000 C   0  0  0  0  0  0  0  0  0  0  0  0
   -6.0651    8.2032    0.0000 C   0  0  0  0  0  0  0  0  0  0  0  0
   -7.5179    7.8297    0.0000 C   0  0  0  0  0  0  0  0  0  0  0  0
   -7.9208    6.3849    0.0000 C   0  0  0  0  0  0  0  0  0  0  0  0
   -8.8640    7.5512    0.0000 C   0  0  0  0  0  0  0  0  0  0  0  0
   -9.9496    6.5161    0.0000 C   0  0  0  0  0  0  0  0  0  0  0  0
  -11.4358    6.7195    0.0000 C   0  0  0  0  0  0  0  0  0  0  0  0
  -12.2034    8.0082    0.0000 C   0  0  0  0  0  0  0  0  0  0  0  0
  -11.6744    9.4118    0.0000 C   0  0  0  0  0  0  0  0  0  0  0  0
  -10.3975   10.1258    0.0000 C   0  0  0  0  0  0  0  0  0  0  0  0
   -9.6921    8.8020    0.0000 C   0  0  0  0  0  0  0  0  0  0  0  0
  -10.9808    8.0344    0.0000 O   0  0  0  0  0  0  0  0  0  0  0  0
  1  2  3  0
  2  3  1  0
  3  4  3  0
  4  5  1  0
  5  6  3  0
  6  7  1  0
  7  8  3  0
  8  9  1  0
  9 10  1  0
 10 11  1  0
 11 12  1  0
 12 13  1  0
 13 14  1  0
 14 15  1  0
 15 16  1  0
 16 17  1  0
 17 18  1  0
 18 19  1  0
 19 20  1  0
 20 21  1  0
 21 22  1  0
 22 23  1  0
 23 24  1  0
 24 25  1  0
 25 26  1  0
 26 27  1  0
 27 28  1  0
 28 29  1  0
 29 30  1  0
 30 31  1  0
 31 32  1  0
 32 33  1  0
 33 34  1  0
 34 35  1  0
 35 36  1  0
 36 37  1  0
 37 38  1  0
 38 39  1  0
 39 40  1  0
 40 41  1  0
 41 42  1  0
 42 43  1  0
 43 44  1  0
 44 45  1  0
 45 46  1  0
 46 47  1  0
 47 48  1  0
 48 49  1  0
 49 50  1  0
 50 51  1  0
 51 52  1  0
 52 53  1  0
 53 54  1  0
 54 55  1  0
 55 56  1  0
 56 57  1  0
 57 58  1  0
 58 59  1  0
 59 60  1  0
 60 61  1  0
 61 62  1  0
 62 63  1  0
 63 64  1  0
 64 65  1  0
 65 66  1  0
 66 67  1  0
 67 68  1  0
 68 69  1  0
 69 70  1  0
 70 71  1  0
 71 72  2  0
 72 73  1  0
 73 74  2  0
 74 75  1  0
 75 76  2  0
 76 77  1  0
 77 78  2  0
 78 79  1  0
 79 80  2  0
 80 81  1  0
 81 82  2  0
 82 83  1  0
 83 84  2  0
 84 85  1  0
 85 86  2  0
 86 87  1  0
 87 88  2  0
 88 89  1  0
 89 90  2  0
 90 91  1  0
 91 92  2  0
 92 93  1  0
 93 94  2  0
 94 95  1  0
 95 96  2  0
 94  9  1  0
 70 64  1  0
 76 71  1  0
 82 77  1  0
 88 83  1  0
 95 89  1  0
M  END
>  <Title>  (473) 
idAAQGgen9

$$$$

     RDKit          2D

 33 35  0  0  0  0  0  0  0  0999 V2000
    8.7849   -9.2606    0.0000 C   0  0  0  0  0  0  0  0  0  0  0  0
    7.4146   -8.6505    0.0000 C   0  0  0  0  0  0  0  0  0  0  0  0
    7.2578   -7.1587    0.0000 O   0  0  0  0  0  0  0  0  0  0  0  0
    6.2011   -9.5322    0.0000 C   0  0  0  0  0  0  0  0  0  0  0  0
    4.8308   -8.9221    0.0000 C   0  0  0  0  0  0  0  0  0  0  0  0
    4.6740   -7.4303    0.0000 C   0  0  0  0  0  0  0  0  0  0  0  0
    5.8875   -6.5486    0.0000 O   0  0  0  0  0  0  0  0  0  0  0  0
    3.3037   -6.8202    0.0000 N   0  0  0  0  0  0  0  0  0  0  0  0
    2.0046   -7.5702    0.0000 C   0  0  0  0  0  0  0  0  0  0  0  0
    0.8899   -6.5665    0.0000 C   0  0  0  0  0  0  0  0  0  0  0  0
    1.5000   -5.1962    0.0000 C   0  0  0  0  0  0  0  0  0  0  0  0
    0.7500   -3.8971    0.0000 C   0  0  0  0  0  0  0  0  0  0  0  0
   -0.7500   -3.8971    0.0000 O   0  0  0  0  0  0  0  0  0  0  0  0
    1.5000   -2.5981    0.0000 N   0  0  0  0  0  0  0  0  0  0  0  0
    0.7500   -1.2990    0.0000 C   0  0  0  0  0  0  0  0  0  0  0  0
    1.5000    0.0000    0.0000 C   0  0  0  0  0  0  0  0  0  0  0  0
    0.7500    1.2990    0.0000 C   0  0  0  0  0  0  0  0  0  0  0  0
   -0.7500    1.2990    0.0000 C   0  0  0  0  0  0  0  0  0  0  0  0
   -1.5000    0.0000    0.0000 C   0  0  0  0  0  0  0  0  0  0  0  0
   -0.7500   -1.2990    0.0000 C   0  0  0  0  0  0  0  0  0  0  0  0
    2.9918   -5.3529    0.0000 C   0  0  0  0  0  0  0  0  0  0  0  0
    6.3579  -11.0239    0.0000 C   0  0  0  0  0  0  0  0  0  0  0  0
    7.7282  -11.6340    0.0000 C   0  0  0  0  0  0  0  0  0  0  0  0
    8.9417  -10.7524    0.0000 O   0  0  0  0  0  0  0  0  0  0  0  0
    7.8850  -13.1258    0.0000 N   0  0  0  0  0  0  0  0  0  0  0  0
    9.1840  -13.8758    0.0000 C   0  0  0  0  0  0  0  0  0  0  0  0
    8.8722  -15.3431    0.0000 C   0  0  0  0  0  0  0  0  0  0  0  0
    7.3804  -15.4998    0.0000 C   0  0  0  0  0  0  0  0  0  0  0  0
    6.6304  -16.7989    0.0000 C   0  0  0  0  0  0  0  0  0  0  0  0
    7.3804  -18.0979    0.0000 O   0  0  0  0  0  0  0  0  0  0  0  0
    5.1304  -16.7989    0.0000 O   0  0  0  0  0  0  0  0  0  0  0  0
    6.7703  -14.1295    0.0000 C   0  0  0  0  0  0  0  0  0  0  0  0
    5.3030  -13.8177    0.0000 O   0  0  0  0  0  0  0  0  0  0  0  0
  1  2  1  0
  2  3  2  0
  2  4  1  0
  4  5  1  0
  5  6  1  0
  6  7  2  0
  6  8  1  0
  8  9  1  0
  9 10  1  0
 10 11  1  0
 11 12  1  0
 12 13  2  0
 12 14  1  0
 14 15  1  0
 15 16  2  0
 16 17  1  0
 17 18  2  0
 18 19  1  0
 19 20  2  0
 11 21  1  0
  4 22  1  0
 22 23  1  0
 23 24  2  0
 23 25  1  0
 25 26  1  0
 26 27  1  0
 27 28  1  0
 28 29  1  0
 29 30  2  0
 29 31  1  0
 28 32  1  0
 32 33  2  0
 21  8  1  0
 32 25  1  0
 20 15  1  0
M  END
>  <Title>  (474) 
idAAQHgen9

$$$$

     RDKit          2D

 15 16  0  0  0  0  0  0  0  0999 V2000
    1.8478   -9.0619    0.0000 C   0  0  0  0  0  0  0  0  0  0  0  0
    2.0046   -7.5702    0.0000 N   0  0  0  0  0  0  0  0  0  0  0  0
    3.3037   -6.8202    0.0000 C   0  0  0  0  0  0  0  0  0  0  0  0
    2.9918   -5.3529    0.0000 C   0  0  0  0  0  0  0  0  0  0  0  0
    1.5000   -5.1962    0.0000 C   0  0  0  0  0  0  0  0  0  0  0  0
    0.7500   -3.8971    0.0000 C   0  0  0  0  0  0  0  0  0  0  0  0
   -0.7500   -3.8971    0.0000 O   0  0  0  0  0  0  0  0  0  0  0  0
    1.5000   -2.5981    0.0000 N   0  0  0  0  0  0  0  0  0  0  0  0
    0.7500   -1.2990    0.0000 C   0  0  0  0  0  0  0  0  0  0  0  0
    1.5000    0.0000    0.0000 N   0  0  0  0  0  0  0  0  0  0  0  0
    0.7500    1.2990    0.0000 N   0  0  0  0  0  0  0  0  0  0  0  0
   -0.7500    1.2990    0.0000 N   0  0  0  0  0  0  0  0  0  0  0  0
   -1.5000    0.0000    0.0000 N   0  0  0  0  0  0  0  0  0  0  0  0
   -0.7500   -1.2990    0.0000 N   0  0  0  0  0  0  0  0  0  0  0  0
    0.8899   -6.5665    0.0000 C   0  0  0  0  0  0  0  0  0  0  0  0
  1  2  1  0
  2  3  1  0
  3  4  1  0
  4  5  1  0
  5  6  1  0
  6  7  2  0
  6  8  1  0
  8  9  1  0
  9 10  2  0
 10 11  1  0
 11 12  2  0
 12 13  1  0
 13 14  2  0
  5 15  1  0
 15  2  1  0
 14  9  1  0
M  END
>  <Title>  (475) 
idAAQIgen9

$$$$

     RDKit          2D

 13 13  0  0  0  0  0  0  0  0999 V2000
   13.0607    0.0000    0.0000 C   0  0  0  0  0  0  0  0  0  0  0  0
   11.5607    0.0000    0.0000 C   0  0  0  0  0  0  0  0  0  0  0  0
   10.0607    0.0000    0.0000 C   0  0  0  0  0  0  0  0  0  0  0  0
    8.5607    0.0000    0.0000 C   0  0  0  0  0  0  0  0  0  0  0  0
    7.0607    0.0000    0.0000 C   0  0  0  0  0  0  0  0  0  0  0  0
    5.5607    0.0000    0.0000 C   0  0  0  0  0  0  0  0  0  0  0  0
    4.0607    0.0000    0.0000 C   0  0  0  0  0  0  0  0  0  0  0  0
    2.5607    0.0000    0.0000 C   0  0  0  0  0  0  0  0  0  0  0  0
    1.0607    0.0000    0.0000 C   0  0  0  0  0  0  0  0  0  0  0  0
   -0.0000   -1.0607    0.0000 C   0  0  0  0  0  0  0  0  0  0  0  0
   -0.0000   -2.5607    0.0000 O   0  0  0  0  0  0  0  0  0  0  0  0
   -1.0607    0.0000    0.0000 C   0  0  0  0  0  0  0  0  0  0  0  0
    0.0000    1.0607    0.0000 C   0  0  0  0  0  0  0  0  0  0  0  0
  1  2  3  0
  2  3  1  0
  3  4  3  0
  4  5  1  0
  5  6  3  0
  6  7  1  0
  7  8  3  0
  8  9  1  0
  9 10  2  0
 10 11  1  0
 10 12  1  0
 12 13  2  0
 13  9  1  0
M  END
>  <Title>  (476) 
idAAQJgen9

$$$$

     RDKit          2D

 55 55  0  0  0  0  0  0  0  0999 V2000
   14.3988    0.0000    0.0000 C   0  0  0  0  0  0  0  0  0  0  0  0
   12.8988    0.0000    0.0000 C   0  0  0  0  0  0  0  0  0  0  0  0
   12.8116   -1.4975    0.0000 C   0  0  0  0  0  0  0  0  0  0  0  0
   12.5511   -2.9747    0.0000 C   0  0  0  0  0  0  0  0  0  0  0  0
   12.1209   -4.4117    0.0000 C   0  0  0  0  0  0  0  0  0  0  0  0
   11.5268   -5.7890    0.0000 C   0  0  0  0  0  0  0  0  0  0  0  0
   10.7768   -7.0880    0.0000 C   0  0  0  0  0  0  0  0  0  0  0  0
    9.8811   -8.2912    0.0000 C   0  0  0  0  0  0  0  0  0  0  0  0
    8.8517   -9.3823    0.0000 C   0  0  0  0  0  0  0  0  0  0  0  0
    7.7026  -10.3464    0.0000 C   0  0  0  0  0  0  0  0  0  0  0  0
    6.4494  -11.1707    0.0000 C   0  0  0  0  0  0  0  0  0  0  0  0
    5.1090  -11.8439    0.0000 C   0  0  0  0  0  0  0  0  0  0  0  0
    3.6994  -12.3569    0.0000 C   0  0  0  0  0  0  0  0  0  0  0  0
    2.2399  -12.7029    0.0000 C   0  0  0  0  0  0  0  0  0  0  0  0
    0.7500  -12.8770    0.0000 C   0  0  0  0  0  0  0  0  0  0  0  0
   -0.7500  -12.8770    0.0000 C   0  0  0  0  0  0  0  0  0  0  0  0
   -2.2399  -12.7029    0.0000 C   0  0  0  0  0  0  0  0  0  0  0  0
   -3.6994  -12.3569    0.0000 C   0  0  0  0  0  0  0  0  0  0  0  0
   -5.1090  -11.8439    0.0000 C   0  0  0  0  0  0  0  0  0  0  0  0
   -6.4494  -11.1707    0.0000 C   0  0  0  0  0  0  0  0  0  0  0  0
   -7.7026  -10.3464    0.0000 C   0  0  0  0  0  0  0  0  0  0  0  0
   -8.8517   -9.3823    0.0000 C   0  0  0  0  0  0  0  0  0  0  0  0
   -9.8811   -8.2912    0.0000 C   0  0  0  0  0  0  0  0  0  0  0  0
  -10.7768   -7.0880    0.0000 C   0  0  0  0  0  0  0  0  0  0  0  0
  -11.5268   -5.7890    0.0000 C   0  0  0  0  0  0  0  0  0  0  0  0
  -12.1209   -4.4117    0.0000 C   0  0  0  0  0  0  0  0  0  0  0  0
  -12.5511   -2.9747    0.0000 C   0  0  0  0  0  0  0  0  0  0  0  0
  -12.8116   -1.4975    0.0000 C   0  0  0  0  0  0  0  0  0  0  0  0
  -12.8988    0.0000    0.0000 C   0  0  0  0  0  0  0  0  0  0  0  0
  -12.8116    1.4975    0.0000 C   0  0  0  0  0  0  0  0  0  0  0  0
  -12.5511    2.9747    0.0000 C   0  0  0  0  0  0  0  0  0  0  0  0
  -12.1209    4.4117    0.0000 C   0  0  0  0  0  0  0  0  0  0  0  0
  -11.5268    5.7890    0.0000 C   0  0  0  0  0  0  0  0  0  0  0  0
  -10.7768    7.0880    0.0000 C   0  0  0  0  0  0  0  0  0  0  0  0
   -9.8811    8.2912    0.0000 C   0  0  0  0  0  0  0  0  0  0  0  0
   -8.8517    9.3823    0.0000 C   0  0  0  0  0  0  0  0  0  0  0  0
   -7.7026   10.3464    0.0000 C   0  0  0  0  0  0  0  0  0  0  0  0
   -6.4494   11.1707    0.0000 C   0  0  0  0  0  0  0  0  0  0  0  0
   -5.1090   11.8439    0.0000 C   0  0  0  0  0  0  0  0  0  0  0  0
   -3.6994   12.3569    0.0000 C   0  0  0  0  0  0  0  0  0  0  0  0
   -2.2399   12.7029    0.0000 C   0  0  0  0  0  0  0  0  0  0  0  0
   -0.7500   12.8770    0.0000 C   0  0  0  0  0  0  0  0  0  0  0  0
    0.7500   12.8770    0.0000 C   0  0  0  0  0  0  0  0  0  0  0  0
    2.2399   12.7029    0.0000 C   0  0  0  0  0  0  0  0  0  0  0  0
    3.6994   12.3569    0.0000 C   0  0  0  0  0  0  0  0  0  0  0  0
    5.1090   11.8439    0.0000 C   0  0  0  0  0  0  0  0  0  0  0  0
    6.4494   11.1707    0.0000 C   0  0  0  0  0  0  0  0  0  0  0  0
    7.7026   10.3464    0.0000 C   0  0  0  0  0  0  0  0  0  0  0  0
    8.8517    9.3823    0.0000 C   0  0  0  0  0  0  0  0  0  0  0  0
    9.8811    8.2912    0.0000 C   0  0  0  0  0  0  0  0  0  0  0  0
   10.7768    7.0880    0.0000 C   0  0  0  0  0  0  0  0  0  0  0  0
   11.5268    5.7890    0.0000 C   0  0  0  0  0  0  0  0  0  0  0  0
   12.1209    4.4117    0.0000 C   0  0  0  0  0  0  0  0  0  0  0  0
   12.5511    2.9747    0.0000 C   0  0  0  0  0  0  0  0  0  0  0  0
   12.8116    1.4975    0.0000 C   0  0  0  0  0  0  0  0  0  0  0  0
  1  2  1  0
  2  3  1  0
  3  4  1  0
  4  5  1  0
  5  6  1  0
  6  7  1  0
  7  8  1  0
  8  9  1  0
  9 10  1  0
 10 11  1  0
 11 12  1  0
 12 13  1  0
 13 14  1  0
 14 15  1  0
 15 16  1  0
 16 17  1  0
 17 18  1  0
 18 19  1  0
 19 20  1  0
 20 21  1  0
 21 22  1  0
 22 23  1  0
 23 24  1  0
 24 25  1  0
 25 26  1  0
 26 27  1  0
 27 28  1  0
 28 29  1  0
 29 30  1  0
 30 31  1  0
 31 32  1  0
 32 33  1  0
 33 34  1  0
 34 35  1  0
 35 36  1  0
 36 37  1  0
 37 38  1  0
 38 39  1  0
 39 40  1  0
 40 41  1  0
 41 42  1  0
 42 43  1  0
 43 44  1  0
 44 45  1  0
 45 46  1  0
 46 47  1  0
 47 48  1  0
 48 49  1  0
 49 50  1  0
 50 51  1  0
 51 52  1  0
 52 53  1  0
 53 54  1  0
 54 55  1  0
 55  2  1  0
M  END
>  <Title>  (477) 
idAAQKgen9

$$$$

     RDKit          2D

 11 11  0  0  0  0  0  0  0  0999 V2000
    4.5000    0.0000    0.0000 N   0  0  0  0  0  0  0  0  0  0  0  0
    3.0000    0.0000    0.0000 C   0  0  0  0  0  0  0  0  0  0  0  0
    1.5000    0.0000    0.0000 C   0  0  0  0  0  0  0  0  0  0  0  0
    0.7500   -1.2990    0.0000 C   0  0  0  0  0  0  0  0  0  0  0  0
   -0.7500   -1.2990    0.0000 C   0  0  0  0  0  0  0  0  0  0  0  0
   -1.5000    0.0000    0.0000 C   0  0  0  0  0  0  0  0  0  0  0  0
   -3.0000    0.0000    0.0000 C   0  0  0  0  0  0  0  0  0  0  0  0
   -3.7500   -1.2990    0.0000 O   0  0  0  0  0  0  0  0  0  0  0  0
   -3.7500    1.2990    0.0000 O   0  0  0  0  0  0  0  0  0  0  0  0
   -0.7500    1.2990    0.0000 C   0  0  0  0  0  0  0  0  0  0  0  0
    0.7500    1.2990    0.0000 C   0  0  0  0  0  0  0  0  0  0  0  0
  1  2  3  0
  2  3  1  0
  3  4  2  0
  4  5  1  0
  5  6  2  0
  6  7  1  0
  7  8  2  0
  7  9  1  0
  6 10  1  0
 10 11  2  0
 11  3  1  0
M  END
>  <Title>  (478) 
idAAQLgen9

$$$$

     RDKit          2D

  8  8  0  0  0  0  0  0  0  0999 V2000
    3.2286   -0.0000    0.0000 O   0  0  0  0  0  0  0  0  0  0  0  0
    1.7286    0.0000    0.0000 C   0  0  0  0  0  0  0  0  0  0  0  0
    1.0777    1.3515    0.0000 C   0  0  0  0  0  0  0  0  0  0  0  0
   -0.3846    1.6852    0.0000 C   0  0  0  0  0  0  0  0  0  0  0  0
   -1.5574    0.7500    0.0000 C   0  0  0  0  0  0  0  0  0  0  0  0
   -1.5574   -0.7500    0.0000 C   0  0  0  0  0  0  0  0  0  0  0  0
   -0.3846   -1.6852    0.0000 C   0  0  0  0  0  0  0  0  0  0  0  0
    1.0777   -1.3515    0.0000 C   0  0  0  0  0  0  0  0  0  0  0  0
  1  2  1  0
  2  3  2  0
  3  4  1  0
  4  5  1  0
  5  6  1  0
  6  7  1  0
  7  8  1  0
  8  2  1  0
M  END
>  <Title>  (479) 
idAAQMgen9

$$$$

     RDKit          2D

 39 44  0  0  0  0  0  0  0  0999 V2000
    3.1097   -7.2078    0.0000 C   0  0  0  0  0  0  0  0  0  0  0  0
    2.0490   -6.1471    0.0000 C   0  0  0  0  0  0  0  0  0  0  0  0
    2.7990   -4.8481    0.0000 C   0  0  0  0  0  0  0  0  0  0  0  0
    2.7990   -3.3481    0.0000 C   0  0  0  0  0  0  0  0  0  0  0  0
    2.0490   -2.0490    0.0000 C   0  0  0  0  0  0  0  0  0  0  0  0
    3.1097   -0.9884    0.0000 C   0  0  0  0  0  0  0  0  0  0  0  0
    4.5586   -1.3766    0.0000 C   0  0  0  0  0  0  0  0  0  0  0  0
    5.6192   -0.3159    0.0000 O   0  0  0  0  0  0  0  0  0  0  0  0
    2.7215    0.4605    0.0000 N   0  0  0  0  0  0  0  0  0  0  0  0
    3.7821    1.5212    0.0000 C   0  0  0  0  0  0  0  0  0  0  0  0
    5.2310    1.1329    0.0000 N   0  0  0  0  0  0  0  0  0  0  0  0
    6.2917    2.1936    0.0000 N   0  0  0  0  0  0  0  0  0  0  0  0
    5.9035    3.6425    0.0000 N   0  0  0  0  0  0  0  0  0  0  0  0
    4.4546    4.0307    0.0000 N   0  0  0  0  0  0  0  0  0  0  0  0
    3.3939    2.9701    0.0000 N   0  0  0  0  0  0  0  0  0  0  0  0
    0.7500   -1.2990    0.0000 C   0  0  0  0  0  0  0  0  0  0  0  0
    1.5000    0.0000    0.0000 C   0  0  0  0  0  0  0  0  0  0  0  0
    0.7500    1.2990    0.0000 C   0  0  0  0  0  0  0  0  0  0  0  0
   -0.7500    1.2990    0.0000 C   0  0  0  0  0  0  0  0  0  0  0  0
   -1.5000    0.0000    0.0000 C   0  0  0  0  0  0  0  0  0  0  0  0
   -0.7500   -1.2990    0.0000 C   0  0  0  0  0  0  0  0  0  0  0  0
   -2.0490   -2.0490    0.0000 C   0  0  0  0  0  0  0  0  0  0  0  0
   -2.7990   -0.7500    0.0000 C   0  0  0  0  0  0  0  0  0  0  0  0
   -4.2990   -0.7500    0.0000 C   0  0  0  0  0  0  0  0  0  0  0  0
   -5.0490   -2.0490    0.0000 C   0  0  0  0  0  0  0  0  0  0  0  0
   -4.2990   -3.3481    0.0000 C   0  0  0  0  0  0  0  0  0  0  0  0
   -2.7990   -3.3481    0.0000 C   0  0  0  0  0  0  0  0  0  0  0  0
   -2.7990   -4.8481    0.0000 C   0  0  0  0  0  0  0  0  0  0  0  0
   -4.2990   -4.8481    0.0000 C   0  0  0  0  0  0  0  0  0  0  0  0
   -5.0490   -6.1471    0.0000 C   0  0  0  0  0  0  0  0  0  0  0  0
   -4.2990   -7.4462    0.0000 C   0  0  0  0  0  0  0  0  0  0  0  0
   -2.7990   -7.4462    0.0000 C   0  0  0  0  0  0  0  0  0  0  0  0
   -2.0490   -6.1471    0.0000 C   0  0  0  0  0  0  0  0  0  0  0  0
   -0.7500   -6.8971    0.0000 C   0  0  0  0  0  0  0  0  0  0  0  0
   -1.5000   -8.1962    0.0000 C   0  0  0  0  0  0  0  0  0  0  0  0
   -0.7500   -9.4952    0.0000 C   0  0  0  0  0  0  0  0  0  0  0  0
    0.7500   -9.4952    0.0000 C   0  0  0  0  0  0  0  0  0  0  0  0
    1.5000   -8.1962    0.0000 C   0  0  0  0  0  0  0  0  0  0  0  0
    0.7500   -6.8971    0.0000 C   0  0  0  0  0  0  0  0  0  0  0  0
  1  2  1  0
  2  3  1  0
  3  4  2  0
  4  5  1  0
  5  6  1  0
  6  7  1  0
  7  8  1  0
  6  9  1  0
  9 10  1  0
 10 11  2  0
 11 12  1  0
 12 13  2  0
 13 14  1  0
 14 15  2  0
  5 16  1  0
 16 17  2  0
 17 18  1  0
 18 19  2  0
 19 20  1  0
 20 21  2  0
 21 22  1  0
 22 23  2  0
 23 24  1  0
 24 25  2  0
 25 26  1  0
 26 27  2  0
 27 28  1  0
 28 29  2  0
 29 30  1  0
 30 31  2  0
 31 32  1  0
 32 33  2  0
 33 34  1  0
 34 35  2  0
 35 36  1  0
 36 37  2  0
 37 38  1  0
 38 39  2  0
 39  2  1  0
 15 10  1  0
 21 16  1  0
 27 22  1  0
 33 28  1  0
 39 34  1  0
M  END
>  <Title>  (480) 
idAAQNgen9

$$$$

     RDKit          2D

 25 28  0  0  0  0  0  0  0  0999 V2000
   -3.0000   -2.5981    0.0000 C   0  0  0  0  0  0  0  0  0  0  0  0
   -1.5000   -2.5981    0.0000 C   0  0  0  0  0  0  0  0  0  0  0  0
   -0.7500   -3.8971    0.0000 C   0  0  0  0  0  0  0  0  0  0  0  0
    0.7500   -3.8971    0.0000 C   0  0  0  0  0  0  0  0  0  0  0  0
    1.5000   -2.5981    0.0000 C   0  0  0  0  0  0  0  0  0  0  0  0
    3.0000   -2.5981    0.0000 C   0  0  0  0  0  0  0  0  0  0  0  0
    3.7500   -1.2990    0.0000 O   0  0  0  0  0  0  0  0  0  0  0  0
    3.7500   -3.8971    0.0000 N   0  0  0  0  0  0  0  0  0  0  0  0
    5.2500   -3.8971    0.0000 C   0  0  0  0  0  0  0  0  0  0  0  0
    6.1317   -2.6836    0.0000 N   0  0  0  0  0  0  0  0  0  0  0  0
    7.5583   -3.1471    0.0000 N   0  0  0  0  0  0  0  0  0  0  0  0
    7.5583   -4.6471    0.0000 N   0  0  0  0  0  0  0  0  0  0  0  0
    6.1317   -5.1106    0.0000 N   0  0  0  0  0  0  0  0  0  0  0  0
    5.6682   -6.5372    0.0000 C   0  0  0  0  0  0  0  0  0  0  0  0
    4.2009   -6.8491    0.0000 C   0  0  0  0  0  0  0  0  0  0  0  0
    3.7374   -8.2757    0.0000 C   0  0  0  0  0  0  0  0  0  0  0  0
    4.7411   -9.3904    0.0000 C   0  0  0  0  0  0  0  0  0  0  0  0
    6.2083   -9.0785    0.0000 C   0  0  0  0  0  0  0  0  0  0  0  0
    6.6718   -7.6519    0.0000 C   0  0  0  0  0  0  0  0  0  0  0  0
    0.7500   -1.2990    0.0000 C   0  0  0  0  0  0  0  0  0  0  0  0
    1.5000    0.0000    0.0000 C   0  0  0  0  0  0  0  0  0  0  0  0
    0.7500    1.2990    0.0000 C   0  0  0  0  0  0  0  0  0  0  0  0
   -0.7500    1.2990    0.0000 C   0  0  0  0  0  0  0  0  0  0  0  0
   -1.5000    0.0000    0.0000 C   0  0  0  0  0  0  0  0  0  0  0  0
   -0.7500   -1.2990    0.0000 C   0  0  0  0  0  0  0  0  0  0  0  0
  1  2  1  0
  2  3  1  0
  3  4  1  0
  4  5  1  0
  5  6  1  0
  6  7  2  0
  6  8  1  0
  8  9  1  0
  9 10  2  0
 10 11  1  0
 11 12  2  0
 12 13  1  0
 13 14  1  0
 14 15  2  0
 15 16  1  0
 16 17  2  0
 17 18  1  0
 18 19  2  0
  5 20  1  0
 20 21  2  0
 21 22  1  0
 22 23  2  0
 23 24  1  0
 24 25  2  0
 25  2  1  0
 13  9  1  0
 19 14  1  0
 25 20  1  0
M  END
>  <Title>  (481) 
idAAQOgen9

$$$$

     RDKit          2D

 50 57  0  0  0  0  0  0  0  0999 V2000
    5.2417   -6.1122    0.0000 C   0  0  0  0  0  0  0  0  0  0  0  0
    3.7705   -5.8195    0.0000 C   0  0  0  0  0  0  0  0  0  0  0  0
    3.7705   -4.3195    0.0000 C   0  0  0  0  0  0  0  0  0  0  0  0
    3.1965   -2.9337    0.0000 C   0  0  0  0  0  0  0  0  0  0  0  0
    2.1358   -1.8731    0.0000 C   0  0  0  0  0  0  0  0  0  0  0  0
    2.9692   -0.6259    0.0000 C   0  0  0  0  0  0  0  0  0  0  0  0
    2.3057    0.7195    0.0000 O   0  0  0  0  0  0  0  0  0  0  0  0
    4.4660   -0.7240    0.0000 N   0  0  0  0  0  0  0  0  0  0  0  0
    5.2993    0.5232    0.0000 C   0  0  0  0  0  0  0  0  0  0  0  0
    6.7961    0.4251    0.0000 N   0  0  0  0  0  0  0  0  0  0  0  0
    7.6295    1.6723    0.0000 N   0  0  0  0  0  0  0  0  0  0  0  0
    6.9660    3.0176    0.0000 N   0  0  0  0  0  0  0  0  0  0  0  0
    5.4692    3.1158    0.0000 N   0  0  0  0  0  0  0  0  0  0  0  0
    4.6359    1.8686    0.0000 N   0  0  0  0  0  0  0  0  0  0  0  0
    0.7500   -1.2990    0.0000 C   0  0  0  0  0  0  0  0  0  0  0  0
    1.5000    0.0000    0.0000 C   0  0  0  0  0  0  0  0  0  0  0  0
    0.7500    1.2990    0.0000 C   0  0  0  0  0  0  0  0  0  0  0  0
   -0.7500    1.2990    0.0000 C   0  0  0  0  0  0  0  0  0  0  0  0
   -1.5000    0.0000    0.0000 C   0  0  0  0  0  0  0  0  0  0  0  0
   -0.7500   -1.2990    0.0000 C   0  0  0  0  0  0  0  0  0  0  0  0
   -2.1358   -1.8731    0.0000 C   0  0  0  0  0  0  0  0  0  0  0  0
   -2.5240   -0.4242    0.0000 C   0  0  0  0  0  0  0  0  0  0  0  0
   -3.9729   -0.0359    0.0000 C   0  0  0  0  0  0  0  0  0  0  0  0
   -5.0336   -1.0966    0.0000 C   0  0  0  0  0  0  0  0  0  0  0  0
   -4.6454   -2.5455    0.0000 C   0  0  0  0  0  0  0  0  0  0  0  0
   -3.1965   -2.9337    0.0000 C   0  0  0  0  0  0  0  0  0  0  0  0
   -3.7705   -4.3195    0.0000 C   0  0  0  0  0  0  0  0  0  0  0  0
   -5.0695   -3.5695    0.0000 C   0  0  0  0  0  0  0  0  0  0  0  0
   -6.3686   -4.3195    0.0000 C   0  0  0  0  0  0  0  0  0  0  0  0
   -6.3686   -5.8195    0.0000 C   0  0  0  0  0  0  0  0  0  0  0  0
   -5.0695   -6.5695    0.0000 C   0  0  0  0  0  0  0  0  0  0  0  0
   -3.7705   -5.8195    0.0000 C   0  0  0  0  0  0  0  0  0  0  0  0
   -3.1965   -7.2054    0.0000 C   0  0  0  0  0  0  0  0  0  0  0  0
   -4.6454   -7.5936    0.0000 C   0  0  0  0  0  0  0  0  0  0  0  0
   -5.0336   -9.0425    0.0000 C   0  0  0  0  0  0  0  0  0  0  0  0
   -3.9729  -10.1031    0.0000 C   0  0  0  0  0  0  0  0  0  0  0  0
   -2.5240   -9.7149    0.0000 C   0  0  0  0  0  0  0  0  0  0  0  0
   -2.1358   -8.2660    0.0000 C   0  0  0  0  0  0  0  0  0  0  0  0
   -0.7500   -8.8400    0.0000 C   0  0  0  0  0  0  0  0  0  0  0  0
   -1.5000  -10.1391    0.0000 C   0  0  0  0  0  0  0  0  0  0  0  0
   -0.7500  -11.4381    0.0000 C   0  0  0  0  0  0  0  0  0  0  0  0
    0.7500  -11.4381    0.0000 C   0  0  0  0  0  0  0  0  0  0  0  0
    1.5000  -10.1391    0.0000 C   0  0  0  0  0  0  0  0  0  0  0  0
    0.7500   -8.8400    0.0000 C   0  0  0  0  0  0  0  0  0  0  0  0
    2.1358   -8.2660    0.0000 C   0  0  0  0  0  0  0  0  0  0  0  0
    2.5240   -9.7149    0.0000 C   0  0  0  0  0  0  0  0  0  0  0  0
    3.9729  -10.1031    0.0000 C   0  0  0  0  0  0  0  0  0  0  0  0
    5.0336   -9.0425    0.0000 C   0  0  0  0  0  0  0  0  0  0  0  0
    4.6454   -7.5936    0.0000 C   0  0  0  0  0  0  0  0  0  0  0  0
    3.1965   -7.2054    0.0000 C   0  0  0  0  0  0  0  0  0  0  0  0
  1  2  1  0
  2  3  1  0
  3  4  1  0
  4  5  1  0
  5  6  1  0
  6  7  2  0
  6  8  1  0
  8  9  1  0
  9 10  2  0
 10 11  1  0
 11 12  2  0
 12 13  1  0
 13 14  2  0
  5 15  1  0
 15 16  2  0
 16 17  1  0
 17 18  2  0
 18 19  1  0
 19 20  2  0
 20 21  1  0
 21 22  2  0
 22 23  1  0
 23 24  2  0
 24 25  1  0
 25 26  2  0
 26 27  1  0
 27 28  2  0
 28 29  1  0
 29 30  2  0
 30 31  1  0
 31 32  2  0
 32 33  1  0
 33 34  2  0
 34 35  1  0
 35 36  2  0
 36 37  1  0
 37 38  2  0
 38 39  1  0
 39 40  2  0
 40 41  1  0
 41 42  2  0
 42 43  1  0
 43 44  2  0
 44 45  1  0
 45 46  2  0
 46 47  1  0
 47 48  2  0
 48 49  1  0
 49 50  2  0
 50  2  1  0
 14  9  1  0
 20 15  1  0
 26 21  1  0
 32 27  1  0
 38 33  1  0
 44 39  1  0
 50 45  1  0
M  END
>  <Title>  (482) 
idAAQPgen9

$$$$

     RDKit          2D

  8  8  0  0  0  0  0  0  0  0999 V2000
    5.0260   -1.2990    0.0000 C   0  0  0  0  0  0  0  0  0  0  0  0
    3.5260   -1.2990    0.0000 C   0  0  0  0  0  0  0  0  0  0  0  0
    2.7760    0.0000    0.0000 C   0  0  0  0  0  0  0  0  0  0  0  0
    1.2760    0.0000    0.0000 C   0  0  0  0  0  0  0  0  0  0  0  0
    0.3943    1.2135    0.0000 C   0  0  0  0  0  0  0  0  0  0  0  0
   -1.0323    0.7500    0.0000 C   0  0  0  0  0  0  0  0  0  0  0  0
   -1.0323   -0.7500    0.0000 C   0  0  0  0  0  0  0  0  0  0  0  0
    0.3943   -1.2135    0.0000 C   0  0  0  0  0  0  0  0  0  0  0  0
  1  2  1  0
  2  3  1  0
  3  4  1  0
  4  5  2  0
  5  6  1  0
  6  7  1  0
  7  8  2  0
  8  4  1  0
M  END
>  <Title>  (483) 
idAAQQgen9

$$$$

     RDKit          2D

 17 18  0  0  0  0  0  0  0  0999 V2000
    3.0000    0.0000    0.0000 C   0  0  0  0  0  0  0  0  0  0  0  0
    1.5000    0.0000    0.0000 C   0  0  0  0  0  0  0  0  0  0  0  0
    0.7500   -1.2990    0.0000 C   0  0  0  0  0  0  0  0  0  0  0  0
   -0.7500   -1.2990    0.0000 C   0  0  0  0  0  0  0  0  0  0  0  0
   -1.5000   -2.5981    0.0000 C   0  0  0  0  0  0  0  0  0  0  0  0
   -1.5000    0.0000    0.0000 C   0  0  0  0  0  0  0  0  0  0  0  0
   -3.0000    0.0000    0.0000 N   0  0  0  0  0  0  0  0  0  0  0  0
   -3.7500    1.2990    0.0000 C   0  0  0  0  0  0  0  0  0  0  0  0
   -3.0000    2.5981    0.0000 O   0  0  0  0  0  0  0  0  0  0  0  0
   -5.2500    1.2990    0.0000 C   0  0  0  0  0  0  0  0  0  0  0  0
   -6.0000    2.5981    0.0000 C   0  0  0  0  0  0  0  0  0  0  0  0
   -7.5000    2.5981    0.0000 C   0  0  0  0  0  0  0  0  0  0  0  0
   -8.2500    1.2990    0.0000 C   0  0  0  0  0  0  0  0  0  0  0  0
   -7.5000    0.0000    0.0000 C   0  0  0  0  0  0  0  0  0  0  0  0
   -6.0000    0.0000    0.0000 C   0  0  0  0  0  0  0  0  0  0  0  0
   -0.7500    1.2990    0.0000 C   0  0  0  0  0  0  0  0  0  0  0  0
    0.7500    1.2990    0.0000 C   0  0  0  0  0  0  0  0  0  0  0  0
  1  2  1  0
  2  3  2  0
  3  4  1  0
  4  5  1  0
  4  6  1  0
  6  7  1  0
  7  8  1  0
  8  9  2  0
  8 10  1  0
 10 11  2  0
 11 12  1  0
 12 13  2  0
 13 14  1  0
 14 15  2  0
  6 16  1  0
 16 17  2  0
 17  2  1  0
 15 10  1  0
M  END
>  <Title>  (484) 
idAAQRgen9

$$$$

     RDKit          2D

 14 15  0  0  0  0  0  0  0  0999 V2000
    3.5260   -1.2990    0.0000 C   0  0  0  0  0  0  0  0  0  0  0  0
    2.7760    0.0000    0.0000 N   0  0  0  0  0  0  0  0  0  0  0  0
    1.2760    0.0000    0.0000 C   0  0  0  0  0  0  0  0  0  0  0  0
    0.3943    1.2135    0.0000 C   0  0  0  0  0  0  0  0  0  0  0  0
   -1.0323    0.7500    0.0000 C   0  0  0  0  0  0  0  0  0  0  0  0
   -2.2458    1.6317    0.0000 C   0  0  0  0  0  0  0  0  0  0  0  0
   -3.6161    1.0216    0.0000 O   0  0  0  0  0  0  0  0  0  0  0  0
   -2.0890    3.1235    0.0000 N   0  0  0  0  0  0  0  0  0  0  0  0
   -3.2037    4.1272    0.0000 C   0  0  0  0  0  0  0  0  0  0  0  0
   -2.5936    5.4975    0.0000 C   0  0  0  0  0  0  0  0  0  0  0  0
   -1.1018    5.3407    0.0000 C   0  0  0  0  0  0  0  0  0  0  0  0
   -0.7900    3.8735    0.0000 C   0  0  0  0  0  0  0  0  0  0  0  0
   -1.0323   -0.7500    0.0000 C   0  0  0  0  0  0  0  0  0  0  0  0
    0.3943   -1.2135    0.0000 C   0  0  0  0  0  0  0  0  0  0  0  0
  1  2  1  0
  2  3  1  0
  3  4  2  0
  4  5  1  0
  5  6  1  0
  6  7  2  0
  6  8  1  0
  8  9  1  0
  9 10  1  0
 10 11  1  0
 11 12  1  0
  5 13  1  0
 13 14  1  0
 14  3  1  0
 12  8  1  0
M  END
>  <Title>  (485) 
idAAQSgen9

$$$$

     RDKit          2D

 51 58  0  0  0  0  0  0  0  0999 V2000
    3.1097   -7.2078    0.0000 C   0  0  0  0  0  0  0  0  0  0  0  0
    2.0490   -6.1471    0.0000 C   0  0  0  0  0  0  0  0  0  0  0  0
    2.7990   -4.8481    0.0000 C   0  0  0  0  0  0  0  0  0  0  0  0
    2.7990   -3.3481    0.0000 C   0  0  0  0  0  0  0  0  0  0  0  0
    2.0490   -2.0490    0.0000 C   0  0  0  0  0  0  0  0  0  0  0  0
    3.1097   -0.9884    0.0000 C   0  0  0  0  0  0  0  0  0  0  0  0
    2.7215    0.4605    0.0000 O   0  0  0  0  0  0  0  0  0  0  0  0
    4.5586   -1.3766    0.0000 N   0  0  0  0  0  0  0  0  0  0  0  0
    5.6192   -0.3159    0.0000 C   0  0  0  0  0  0  0  0  0  0  0  0
    5.3846    1.1656    0.0000 N   0  0  0  0  0  0  0  0  0  0  0  0
    6.7211    1.8466    0.0000 N   0  0  0  0  0  0  0  0  0  0  0  0
    7.7818    0.7859    0.0000 N   0  0  0  0  0  0  0  0  0  0  0  0
    7.1008   -0.5506    0.0000 N   0  0  0  0  0  0  0  0  0  0  0  0
    7.7818   -1.8871    0.0000 C   0  0  0  0  0  0  0  0  0  0  0  0
    6.9648   -3.1451    0.0000 C   0  0  0  0  0  0  0  0  0  0  0  0
    7.6458   -4.4816    0.0000 C   0  0  0  0  0  0  0  0  0  0  0  0
    9.1437   -4.5601    0.0000 C   0  0  0  0  0  0  0  0  0  0  0  0
    9.9607   -3.3021    0.0000 C   0  0  0  0  0  0  0  0  0  0  0  0
   11.4586   -3.3806    0.0000 N   0  0  0  0  0  0  0  0  0  0  0  0
   12.1396   -4.7171    0.0000 C   0  0  0  0  0  0  0  0  0  0  0  0
   11.3227   -5.9751    0.0000 C   0  0  0  0  0  0  0  0  0  0  0  0
   12.0037   -7.3117    0.0000 C   0  0  0  0  0  0  0  0  0  0  0  0
   13.5016   -7.3902    0.0000 C   0  0  0  0  0  0  0  0  0  0  0  0
   14.3186   -6.1321    0.0000 C   0  0  0  0  0  0  0  0  0  0  0  0
   13.6376   -4.7956    0.0000 C   0  0  0  0  0  0  0  0  0  0  0  0
    9.2797   -1.9656    0.0000 C   0  0  0  0  0  0  0  0  0  0  0  0
   10.0967   -0.7076    0.0000 O   0  0  0  0  0  0  0  0  0  0  0  0
    0.7500   -1.2990    0.0000 C   0  0  0  0  0  0  0  0  0  0  0  0
    1.5000    0.0000    0.0000 C   0  0  0  0  0  0  0  0  0  0  0  0
    0.7500    1.2990    0.0000 C   0  0  0  0  0  0  0  0  0  0  0  0
   -0.7500    1.2990    0.0000 C   0  0  0  0  0  0  0  0  0  0  0  0
   -1.5000    0.0000    0.0000 C   0  0  0  0  0  0  0  0  0  0  0  0
   -0.7500   -1.2990    0.0000 C   0  0  0  0  0  0  0  0  0  0  0  0
   -2.0490   -2.0490    0.0000 C   0  0  0  0  0  0  0  0  0  0  0  0
   -2.7990   -0.7500    0.0000 C   0  0  0  0  0  0  0  0  0  0  0  0
   -4.2990   -0.7500    0.0000 C   0  0  0  0  0  0  0  0  0  0  0  0
   -5.0490   -2.0490    0.0000 C   0  0  0  0  0  0  0  0  0  0  0  0
   -4.2990   -3.3481    0.0000 C   0  0  0  0  0  0  0  0  0  0  0  0
   -2.7990   -3.3481    0.0000 C   0  0  0  0  0  0  0  0  0  0  0  0
   -2.7990   -4.8481    0.0000 C   0  0  0  0  0  0  0  0  0  0  0  0
   -4.2990   -4.8481    0.0000 C   0  0  0  0  0  0  0  0  0  0  0  0
   -5.0490   -6.1471    0.0000 C   0  0  0  0  0  0  0  0  0  0  0  0
   -4.2990   -7.4462    0.0000 C   0  0  0  0  0  0  0  0  0  0  0  0
   -2.7990   -7.4462    0.0000 C   0  0  0  0  0  0  0  0  0  0  0  0
   -2.0490   -6.1471    0.0000 C   0  0  0  0  0  0  0  0  0  0  0  0
   -0.7500   -6.8971    0.0000 C   0  0  0  0  0  0  0  0  0  0  0  0
   -1.5000   -8.1962    0.0000 C   0  0  0  0  0  0  0  0  0  0  0  0
   -0.7500   -9.4952    0.0000 C   0  0  0  0  0  0  0  0  0  0  0  0
    0.7500   -9.4952    0.0000 C   0  0  0  0  0  0  0  0  0  0  0  0
    1.5000   -8.1962    0.0000 C   0  0  0  0  0  0  0  0  0  0  0  0
    0.7500   -6.8971    0.0000 C   0  0  0  0  0  0  0  0  0  0  0  0
  1  2  1  0
  2  3  1  0
  3  4  2  0
  4  5  1  0
  5  6  1  0
  6  7  2  0
  6  8  1  0
  8  9  1  0
  9 10  2  0
 10 11  1  0
 11 12  2  0
 12 13  1  0
 13 14  1  0
 14 15  2  0
 15 16  1  0
 16 17  2  0
 17 18  1  0
 18 19  1  0
 19 20  1  0
 20 21  2  0
 21 22  1  0
 22 23  2  0
 23 24  1  0
 24 25  2  0
 18 26  1  0
 26 27  2  0
  5 28  1  0
 28 29  2  0
 29 30  1  0
 30 31  2  0
 31 32  1  0
 32 33  2  0
 33 34  1  0
 34 35  2  0
 35 36  1  0
 36 37  2  0
 37 38  1  0
 38 39  2  0
 39 40  1  0
 40 41  2  0
 41 42  1  0
 42 43  2  0
 43 44  1  0
 44 45  2  0
 45 46  1  0
 46 47  2  0
 47 48  1  0
 48 49  2  0
 49 50  1  0
 50 51  2  0
 51  2  1  0
 13  9  1  0
 26 14  1  0
 33 28  1  0
 39 34  1  0
 45 40  1  0
 51 46  1  0
 25 20  1  0
M  END
>  <Title>  (486) 
idAAQTgen9

$$$$

     RDKit          2D

 13 13  0  0  0  0  0  0  0  0999 V2000
   10.0607    0.0000    0.0000 C   0  0  0  0  0  0  0  0  0  0  0  0
    8.5607    0.0000    0.0000 C   0  0  0  0  0  0  0  0  0  0  0  0
    7.0607    0.0000    0.0000 C   0  0  0  0  0  0  0  0  0  0  0  0
    5.5607    0.0000    0.0000 C   0  0  0  0  0  0  0  0  0  0  0  0
    4.0607    0.0000    0.0000 C   0  0  0  0  0  0  0  0  0  0  0  0
    2.5607    0.0000    0.0000 C   0  0  0  0  0  0  0  0  0  0  0  0
    1.0607    0.0000    0.0000 C   0  0  0  0  0  0  0  0  0  0  0  0
   -0.0000   -1.0607    0.0000 C   0  0  0  0  0  0  0  0  0  0  0  0
   -0.0000   -2.5607    0.0000 C   0  0  0  0  0  0  0  0  0  0  0  0
   -0.0000   -4.0607    0.0000 N   0  0  0  0  0  0  0  0  0  0  0  0
   -1.0607    0.0000    0.0000 C   0  0  0  0  0  0  0  0  0  0  0  0
    0.0000    1.0607    0.0000 C   0  0  0  0  0  0  0  0  0  0  0  0
    0.0000    2.5607    0.0000 O   0  0  0  0  0  0  0  0  0  0  0  0
  1  2  3  0
  2  3  1  0
  3  4  3  0
  4  5  1  0
  5  6  3  0
  6  7  1  0
  7  8  2  0
  8  9  1  0
  9 10  3  0
  8 11  1  0
 11 12  2  0
 12 13  1  0
 12  7  1  0
M  END
>  <Title>  (487) 
idAAQUgen9

$$$$

     RDKit          2D

  8  8  0  0  0  0  0  0  0  0999 V2000
    3.0000    0.0000    0.0000 C   0  0  0  0  0  0  0  0  0  0  0  0
    1.5000    0.0000    0.0000 C   0  0  0  0  0  0  0  0  0  0  0  0
    0.7500   -1.2990    0.0000 C   0  0  0  0  0  0  0  0  0  0  0  0
   -0.7500   -1.2990    0.0000 C   0  0  0  0  0  0  0  0  0  0  0  0
   -1.5000    0.0000    0.0000 C   0  0  0  0  0  0  0  0  0  0  0  0
   -0.7500    1.2990    0.0000 C   0  0  0  0  0  0  0  0  0  0  0  0
    0.7500    1.2990    0.0000 C   0  0  0  0  0  0  0  0  0  0  0  0
    1.5000    2.5981    0.0000 O   0  0  0  0  0  0  0  0  0  0  0  0
  1  2  1  0
  2  3  2  0
  3  4  1  0
  4  5  1  0
  5  6  1  0
  6  7  2  0
  7  8  1  0
  7  2  1  0
M  END
>  <Title>  (488) 
idAAQVgen9

$$$$

     RDKit          2D

 68 78  0  0  0  0  0  0  0  0999 V2000
    6.4958   -4.6081    0.0000 C   0  0  0  0  0  0  0  0  0  0  0  0
    5.0565   -5.0307    0.0000 C   0  0  0  0  0  0  0  0  0  0  0  0
    4.4334   -3.6662    0.0000 C   0  0  0  0  0  0  0  0  0  0  0  0
    3.4511   -2.5326    0.0000 C   0  0  0  0  0  0  0  0  0  0  0  0
    2.1892   -1.7216    0.0000 C   0  0  0  0  0  0  0  0  0  0  0  0
    2.8124   -0.3572    0.0000 C   0  0  0  0  0  0  0  0  0  0  0  0
    1.9423    0.8647    0.0000 O   0  0  0  0  0  0  0  0  0  0  0  0
    4.3056   -0.2146    0.0000 N   0  0  0  0  0  0  0  0  0  0  0  0
    4.9287    1.1498    0.0000 C   0  0  0  0  0  0  0  0  0  0  0  0
    6.4219    1.2924    0.0000 N   0  0  0  0  0  0  0  0  0  0  0  0
    7.0450    2.6569    0.0000 N   0  0  0  0  0  0  0  0  0  0  0  0
    6.1749    3.8787    0.0000 N   0  0  0  0  0  0  0  0  0  0  0  0
    4.6817    3.7362    0.0000 N   0  0  0  0  0  0  0  0  0  0  0  0
    4.0586    2.3717    0.0000 N   0  0  0  0  0  0  0  0  0  0  0  0
    0.7500   -1.2990    0.0000 C   0  0  0  0  0  0  0  0  0  0  0  0
    1.5000    0.0000    0.0000 C   0  0  0  0  0  0  0  0  0  0  0  0
    0.7500    1.2990    0.0000 C   0  0  0  0  0  0  0  0  0  0  0  0
   -0.7500    1.2990    0.0000 C   0  0  0  0  0  0  0  0  0  0  0  0
   -1.5000    0.0000    0.0000 C   0  0  0  0  0  0  0  0  0  0  0  0
   -0.7500   -1.2990    0.0000 C   0  0  0  0  0  0  0  0  0  0  0  0
   -2.1892   -1.7216    0.0000 C   0  0  0  0  0  0  0  0  0  0  0  0
   -2.2606   -0.2233    0.0000 C   0  0  0  0  0  0  0  0  0  0  0  0
   -3.5939    0.4640    0.0000 C   0  0  0  0  0  0  0  0  0  0  0  0
   -4.8557   -0.3470    0.0000 C   0  0  0  0  0  0  0  0  0  0  0  0
   -4.7844   -1.8453    0.0000 C   0  0  0  0  0  0  0  0  0  0  0  0
   -3.4511   -2.5326    0.0000 C   0  0  0  0  0  0  0  0  0  0  0  0
   -4.4334   -3.6662    0.0000 C   0  0  0  0  0  0  0  0  0  0  0  0
   -5.3035   -2.4444    0.0000 C   0  0  0  0  0  0  0  0  0  0  0  0
   -6.7967   -2.5869    0.0000 C   0  0  0  0  0  0  0  0  0  0  0  0
   -7.4198   -3.9514    0.0000 C   0  0  0  0  0  0  0  0  0  0  0  0
   -6.5497   -5.1733    0.0000 C   0  0  0  0  0  0  0  0  0  0  0  0
   -5.0565   -5.0307    0.0000 C   0  0  0  0  0  0  0  0  0  0  0  0
   -5.2700   -6.5154    0.0000 C   0  0  0  0  0  0  0  0  0  0  0  0
   -6.6626   -5.9579    0.0000 C   0  0  0  0  0  0  0  0  0  0  0  0
   -7.8416   -6.8851    0.0000 C   0  0  0  0  0  0  0  0  0  0  0  0
   -7.6282   -8.3699    0.0000 C   0  0  0  0  0  0  0  0  0  0  0  0
   -6.2356   -8.9274    0.0000 C   0  0  0  0  0  0  0  0  0  0  0  0
   -5.0565   -8.0001    0.0000 C   0  0  0  0  0  0  0  0  0  0  0  0
   -4.4334   -9.3646    0.0000 C   0  0  0  0  0  0  0  0  0  0  0  0
   -5.9063   -9.6485    0.0000 C   0  0  0  0  0  0  0  0  0  0  0  0
   -6.3969  -11.0660    0.0000 C   0  0  0  0  0  0  0  0  0  0  0  0
   -5.4146  -12.1996    0.0000 C   0  0  0  0  0  0  0  0  0  0  0  0
   -3.9417  -11.9157    0.0000 C   0  0  0  0  0  0  0  0  0  0  0  0
   -3.4511  -10.4982    0.0000 C   0  0  0  0  0  0  0  0  0  0  0  0
   -2.1892  -11.3092    0.0000 C   0  0  0  0  0  0  0  0  0  0  0  0
   -3.2748  -12.3443    0.0000 C   0  0  0  0  0  0  0  0  0  0  0  0
   -2.9212  -13.8020    0.0000 C   0  0  0  0  0  0  0  0  0  0  0  0
   -1.4820  -14.2246    0.0000 C   0  0  0  0  0  0  0  0  0  0  0  0
   -0.3964  -13.1895    0.0000 C   0  0  0  0  0  0  0  0  0  0  0  0
   -0.7500  -11.7318    0.0000 C   0  0  0  0  0  0  0  0  0  0  0  0
    0.7500  -11.7318    0.0000 C   0  0  0  0  0  0  0  0  0  0  0  0
    0.3964  -13.1895    0.0000 C   0  0  0  0  0  0  0  0  0  0  0  0
    1.4820  -14.2246    0.0000 C   0  0  0  0  0  0  0  0  0  0  0  0
    2.9212  -13.8020    0.0000 C   0  0  0  0  0  0  0  0  0  0  0  0
    3.2748  -12.3443    0.0000 C   0  0  0  0  0  0  0  0  0  0  0  0
    2.1892  -11.3092    0.0000 C   0  0  0  0  0  0  0  0  0  0  0  0
    3.4511  -10.4982    0.0000 C   0  0  0  0  0  0  0  0  0  0  0  0
    3.9417  -11.9157    0.0000 C   0  0  0  0  0  0  0  0  0  0  0  0
    5.4146  -12.1996    0.0000 C   0  0  0  0  0  0  0  0  0  0  0  0
    6.3969  -11.0660    0.0000 C   0  0  0  0  0  0  0  0  0  0  0  0
    5.9063   -9.6485    0.0000 C   0  0  0  0  0  0  0  0  0  0  0  0
    4.4334   -9.3646    0.0000 C   0  0  0  0  0  0  0  0  0  0  0  0
    5.0565   -8.0001    0.0000 C   0  0  0  0  0  0  0  0  0  0  0  0
    6.2356   -8.9274    0.0000 C   0  0  0  0  0  0  0  0  0  0  0  0
    7.6282   -8.3699    0.0000 C   0  0  0  0  0  0  0  0  0  0  0  0
    7.8416   -6.8851    0.0000 C   0  0  0  0  0  0  0  0  0  0  0  0
    6.6626   -5.9579    0.0000 C   0  0  0  0  0  0  0  0  0  0  0  0
    5.2700   -6.5154    0.0000 C   0  0  0  0  0  0  0  0  0  0  0  0
  1  2  1  0
  2  3  1  0
  3  4  1  0
  4  5  1  0
  5  6  1  0
  6  7  2  0
  6  8  1  0
  8  9  1  0
  9 10  2  0
 10 11  1  0
 11 12  2  0
 12 13  1  0
 13 14  2  0
  5 15  1  0
 15 16  2  0
 16 17  1  0
 17 18  2  0
 18 19  1  0
 19 20  2  0
 20 21  1  0
 21 22  2  0
 22 23  1  0
 23 24  2  0
 24 25  1  0
 25 26  2  0
 26 27  1  0
 27 28  2  0
 28 29  1  0
 29 30  2  0
 30 31  1  0
 31 32  2  0
 32 33  1  0
 33 34  2  0
 34 35  1  0
 35 36  2  0
 36 37  1  0
 37 38  2  0
 38 39  1  0
 39 40  2  0
 40 41  1  0
 41 42  2  0
 42 43  1  0
 43 44  2  0
 44 45  1  0
 45 46  2  0
 46 47  1  0
 47 48  2  0
 48 49  1  0
 49 50  2  0
 50 51  1  0
 51 52  2  0
 52 53  1  0
 53 54  2  0
 54 55  1  0
 55 56  2  0
 56 57  1  0
 57 58  2  0
 58 59  1  0
 59 60  2  0
 60 61  1  0
 61 62  2  0
 62 63  1  0
 63 64  2  0
 64 65  1  0
 65 66  2  0
 66 67  1  0
 67 68  2  0
 68  2  1  0
 14  9  1  0
 20 15  1  0
 26 21  1  0
 32 27  1  0
 38 33  1  0
 44 39  1  0
 50 45  1  0
 56 51  1  0
 62 57  1  0
 68 63  1  0
M  END
>  <Title>  (489) 
idAAQWgen9

$$$$

     RDKit          2D

 57 58  0  0  0  0  0  0  0  0999 V2000
   13.6641    0.8925    0.0000 C   0  0  0  0  0  0  0  0  0  0  0  0
   14.2454   -0.4902    0.0000 C   0  0  0  0  0  0  0  0  0  0  0  0
   15.7335   -0.6782    0.0000 C   0  0  0  0  0  0  0  0  0  0  0  0
   16.3148   -2.0610    0.0000 C   0  0  0  0  0  0  0  0  0  0  0  0
   15.4079   -3.2558    0.0000 C   0  0  0  0  0  0  0  0  0  0  0  0
   13.9197   -3.0678    0.0000 C   0  0  0  0  0  0  0  0  0  0  0  0
   13.3385   -1.6850    0.0000 C   0  0  0  0  0  0  0  0  0  0  0  0
   11.8503   -1.4970    0.0000 C   0  0  0  0  0  0  0  0  0  0  0  0
   11.9445    0.0000    0.0000 C   0  0  0  0  0  0  0  0  0  0  0  0
   11.8503    1.4970    0.0000 C   0  0  0  0  0  0  0  0  0  0  0  0
   11.5692    2.9705    0.0000 C   0  0  0  0  0  0  0  0  0  0  0  0
   11.1057    4.3971    0.0000 C   0  0  0  0  0  0  0  0  0  0  0  0
   10.4670    5.7543    0.0000 C   0  0  0  0  0  0  0  0  0  0  0  0
    9.6633    7.0208    0.0000 C   0  0  0  0  0  0  0  0  0  0  0  0
    8.7071    8.1766    0.0000 C   0  0  0  0  0  0  0  0  0  0  0  0
    7.6137    9.2034    0.0000 C   0  0  0  0  0  0  0  0  0  0  0  0
    6.4002   10.0851    0.0000 C   0  0  0  0  0  0  0  0  0  0  0  0
    5.0857   10.8077    0.0000 C   0  0  0  0  0  0  0  0  0  0  0  0
    3.6910   11.3599    0.0000 C   0  0  0  0  0  0  0  0  0  0  0  0
    2.2382   11.7329    0.0000 C   0  0  0  0  0  0  0  0  0  0  0  0
    0.7500   11.9209    0.0000 C   0  0  0  0  0  0  0  0  0  0  0  0
   -0.7500   11.9209    0.0000 C   0  0  0  0  0  0  0  0  0  0  0  0
   -2.2382   11.7329    0.0000 C   0  0  0  0  0  0  0  0  0  0  0  0
   -3.6910   11.3599    0.0000 C   0  0  0  0  0  0  0  0  0  0  0  0
   -5.0857   10.8077    0.0000 C   0  0  0  0  0  0  0  0  0  0  0  0
   -6.4002   10.0851    0.0000 C   0  0  0  0  0  0  0  0  0  0  0  0
   -7.6137    9.2034    0.0000 C   0  0  0  0  0  0  0  0  0  0  0  0
   -8.7071    8.1766    0.0000 C   0  0  0  0  0  0  0  0  0  0  0  0
   -9.6633    7.0208    0.0000 C   0  0  0  0  0  0  0  0  0  0  0  0
  -10.4670    5.7543    0.0000 C   0  0  0  0  0  0  0  0  0  0  0  0
  -11.1057    4.3971    0.0000 C   0  0  0  0  0  0  0  0  0  0  0  0
  -11.5692    2.9705    0.0000 C   0  0  0  0  0  0  0  0  0  0  0  0
  -11.8503    1.4970    0.0000 C   0  0  0  0  0  0  0  0  0  0  0  0
  -11.9445   -0.0000    0.0000 C   0  0  0  0  0  0  0  0  0  0  0  0
  -11.8503   -1.4970    0.0000 C   0  0  0  0  0  0  0  0  0  0  0  0
  -11.5692   -2.9705    0.0000 C   0  0  0  0  0  0  0  0  0  0  0  0
  -11.1057   -4.3971    0.0000 C   0  0  0  0  0  0  0  0  0  0  0  0
  -10.4670   -5.7543    0.0000 C   0  0  0  0  0  0  0  0  0  0  0  0
   -9.6633   -7.0208    0.0000 C   0  0  0  0  0  0  0  0  0  0  0  0
   -8.7071   -8.1766    0.0000 C   0  0  0  0  0  0  0  0  0  0  0  0
   -7.6137   -9.2034    0.0000 C   0  0  0  0  0  0  0  0  0  0  0  0
   -6.4002  -10.0851    0.0000 C   0  0  0  0  0  0  0  0  0  0  0  0
   -5.0857  -10.8077    0.0000 C   0  0  0  0  0  0  0  0  0  0  0  0
   -3.6910  -11.3599    0.0000 C   0  0  0  0  0  0  0  0  0  0  0  0
   -2.2382  -11.7329    0.0000 C   0  0  0  0  0  0  0  0  0  0  0  0
   -0.7500  -11.9209    0.0000 C   0  0  0  0  0  0  0  0  0  0  0  0
    0.7500  -11.9209    0.0000 C   0  0  0  0  0  0  0  0  0  0  0  0
    2.2382  -11.7329    0.0000 C   0  0  0  0  0  0  0  0  0  0  0  0
    3.6910  -11.3599    0.0000 C   0  0  0  0  0  0  0  0  0  0  0  0
    5.0857  -10.8077    0.0000 C   0  0  0  0  0  0  0  0  0  0  0  0
    6.4002  -10.0851    0.0000 C   0  0  0  0  0  0  0  0  0  0  0  0
    7.6137   -9.2034    0.0000 C   0  0  0  0  0  0  0  0  0  0  0  0
    8.7071   -8.1766    0.0000 C   0  0  0  0  0  0  0  0  0  0  0  0
    9.6633   -7.0208    0.0000 C   0  0  0  0  0  0  0  0  0  0  0  0
   10.4670   -5.7543    0.0000 C   0  0  0  0  0  0  0  0  0  0  0  0
   11.1057   -4.3971    0.0000 C   0  0  0  0  0  0  0  0  0  0  0  0
   11.5692   -2.9705    0.0000 C   0  0  0  0  0  0  0  0  0  0  0  0
  1  2  1  0
  2  3  2  0
  3  4  1  0
  4  5  2  0
  5  6  1  0
  6  7  2  0
  7  8  1  0
  8  9  1  0
  9 10  1  0
 10 11  1  0
 11 12  1  0
 12 13  1  0
 13 14  1  0
 14 15  1  0
 15 16  1  0
 16 17  1  0
 17 18  1  0
 18 19  1  0
 19 20  1  0
 20 21  1  0
 21 22  1  0
 22 23  1  0
 23 24  1  0
 24 25  1  0
 25 26  1  0
 26 27  1  0
 27 28  1  0
 28 29  1  0
 29 30  1  0
 30 31  1  0
 31 32  1  0
 32 33  1  0
 33 34  1  0
 34 35  1  0
 35 36  1  0
 36 37  1  0
 37 38  1  0
 38 39  1  0
 39 40  1  0
 40 41  1  0
 41 42  1  0
 42 43  1  0
 43 44  1  0
 44 45  1  0
 45 46  1  0
 46 47  1  0
 47 48  1  0
 48 49  1  0
 49 50  1  0
 50 51  1  0
 51 52  1  0
 52 53  1  0
 53 54  1  0
 54 55  1  0
 55 56  1  0
 56 57  1  0
  7  2  1  0
 57  8  1  0
M  END
>  <Title>  (490) 
idAAQXgen9

$$$$

     RDKit          2D

  6  5  0  0  0  0  0  0  0  0999 V2000
    0.0000    0.0000    0.0000 C   0  0  0  0  0  0  0  0  0  0  0  0
    1.2990    0.7500    0.0000 C   0  0  0  0  0  0  0  0  0  0  0  0
    2.5981    1.5000    0.0000 C   0  0  0  0  0  0  0  0  0  0  0  0
    3.8971    2.2500    0.0000 C   0  0  0  0  0  0  0  0  0  0  0  0
    5.1962    1.5000    0.0000 C   0  0  0  0  0  0  0  0  0  0  0  0
    6.4952    2.2500    0.0000 C   0  0  0  0  0  0  0  0  0  0  0  0
  1  2  1  0
  2  3  3  0
  3  4  1  0
  4  5  2  3
  5  6  1  0
M  END
>  <Title>  (491) 
idAAQYgen9

$$$$

     RDKit          2D

108109  0  0  0  0  0  0  0  0999 V2000
   38.7742   -0.0000    0.0000 C   0  0  0  0  0  0  0  0  0  0  0  0
   37.2742   -0.0000    0.0000 C   0  0  0  0  0  0  0  0  0  0  0  0
   35.7742   -0.0000    0.0000 C   0  0  0  0  0  0  0  0  0  0  0  0
   34.2742   -0.0000    0.0000 C   0  0  0  0  0  0  0  0  0  0  0  0
   32.7742   -0.0000    0.0000 C   0  0  0  0  0  0  0  0  0  0  0  0
   31.2742   -0.0000    0.0000 C   0  0  0  0  0  0  0  0  0  0  0  0
   29.7742   -0.0000    0.0000 C   0  0  0  0  0  0  0  0  0  0  0  0
   28.2742   -0.0000    0.0000 C   0  0  0  0  0  0  0  0  0  0  0  0
   26.7742   -0.0000    0.0000 C   0  0  0  0  0  0  0  0  0  0  0  0
   25.2742   -0.0000    0.0000 C   0  0  0  0  0  0  0  0  0  0  0  0
   23.7742   -0.0000    0.0000 C   0  0  0  0  0  0  0  0  0  0  0  0
   22.2742   -0.0000    0.0000 C   0  0  0  0  0  0  0  0  0  0  0  0
   20.7742    0.0000    0.0000 C   0  0  0  0  0  0  0  0  0  0  0  0
   20.7201    1.4990    0.0000 C   0  0  0  0  0  0  0  0  0  0  0  0
   20.5579    2.9902    0.0000 C   0  0  0  0  0  0  0  0  0  0  0  0
   20.2885    4.4658    0.0000 C   0  0  0  0  0  0  0  0  0  0  0  0
   19.9134    5.9182    0.0000 C   0  0  0  0  0  0  0  0  0  0  0  0
   19.4345    7.3397    0.0000 C   0  0  0  0  0  0  0  0  0  0  0  0
   18.8542    8.7229    0.0000 C   0  0  0  0  0  0  0  0  0  0  0  0
   18.1756   10.0606    0.0000 C   0  0  0  0  0  0  0  0  0  0  0  0
   17.4023   11.3459    0.0000 C   0  0  0  0  0  0  0  0  0  0  0  0
   16.5382   12.5720    0.0000 C   0  0  0  0  0  0  0  0  0  0  0  0
   15.5879   13.7326    0.0000 C   0  0  0  0  0  0  0  0  0  0  0  0
   14.5564   14.8216    0.0000 C   0  0  0  0  0  0  0  0  0  0  0  0
   13.4490   15.8333    0.0000 C   0  0  0  0  0  0  0  0  0  0  0  0
   12.2714   16.7625    0.0000 C   0  0  0  0  0  0  0  0  0  0  0  0
   11.0299   17.6043    0.0000 C   0  0  0  0  0  0  0  0  0  0  0  0
    9.7308   18.3543    0.0000 C   0  0  0  0  0  0  0  0  0  0  0  0
    8.3811   19.0086    0.0000 C   0  0  0  0  0  0  0  0  0  0  0  0
    6.9876   19.5638    0.0000 C   0  0  0  0  0  0  0  0  0  0  0  0
    5.5577   20.0170    0.0000 C   0  0  0  0  0  0  0  0  0  0  0  0
    4.0988   20.3659    0.0000 C   0  0  0  0  0  0  0  0  0  0  0  0
    2.6186   20.6085    0.0000 C   0  0  0  0  0  0  0  0  0  0  0  0
    1.1247   20.7438    0.0000 C   0  0  0  0  0  0  0  0  0  0  0  0
   -0.3751   20.7708    0.0000 C   0  0  0  0  0  0  0  0  0  0  0  0
   -1.8729   20.6896    0.0000 C   0  0  0  0  0  0  0  0  0  0  0  0
   -3.3609   20.5006    0.0000 C   0  0  0  0  0  0  0  0  0  0  0  0
   -4.8314   20.2046    0.0000 C   0  0  0  0  0  0  0  0  0  0  0  0
   -6.2767   19.8033    0.0000 C   0  0  0  0  0  0  0  0  0  0  0  0
   -7.6893   19.2988    0.0000 C   0  0  0  0  0  0  0  0  0  0  0  0
   -9.0618   18.6936    0.0000 C   0  0  0  0  0  0  0  0  0  0  0  0
  -10.3871   17.9910    0.0000 C   0  0  0  0  0  0  0  0  0  0  0  0
  -11.6582   17.1946    0.0000 C   0  0  0  0  0  0  0  0  0  0  0  0
  -12.8686   16.3086    0.0000 C   0  0  0  0  0  0  0  0  0  0  0  0
  -14.0118   15.3375    0.0000 C   0  0  0  0  0  0  0  0  0  0  0  0
  -15.0820   14.2864    0.0000 C   0  0  0  0  0  0  0  0  0  0  0  0
  -16.0736   13.1609    0.0000 C   0  0  0  0  0  0  0  0  0  0  0  0
  -16.9813   11.9668    0.0000 C   0  0  0  0  0  0  0  0  0  0  0  0
  -17.8006   10.7102    0.0000 C   0  0  0  0  0  0  0  0  0  0  0  0
  -18.5270    9.3979    0.0000 C   0  0  0  0  0  0  0  0  0  0  0  0
  -19.1568    8.0365    0.0000 C   0  0  0  0  0  0  0  0  0  0  0  0
  -19.6868    6.6332    0.0000 C   0  0  0  0  0  0  0  0  0  0  0  0
  -20.1141    5.1954    0.0000 C   0  0  0  0  0  0  0  0  0  0  0  0
  -20.4365    3.7305    0.0000 C   0  0  0  0  0  0  0  0  0  0  0  0
  -20.6525    2.2461    0.0000 C   0  0  0  0  0  0  0  0  0  0  0  0
  -20.7607    0.7500    0.0000 C   0  0  0  0  0  0  0  0  0  0  0  0
  -20.7607   -0.7500    0.0000 C   0  0  0  0  0  0  0  0  0  0  0  0
  -20.6525   -2.2461    0.0000 C   0  0  0  0  0  0  0  0  0  0  0  0
  -20.4365   -3.7305    0.0000 C   0  0  0  0  0  0  0  0  0  0  0  0
  -20.1141   -5.1954    0.0000 C   0  0  0  0  0  0  0  0  0  0  0  0
  -19.6868   -6.6332    0.0000 C   0  0  0  0  0  0  0  0  0  0  0  0
  -19.1568   -8.0365    0.0000 C   0  0  0  0  0  0  0  0  0  0  0  0
  -18.5270   -9.3979    0.0000 C   0  0  0  0  0  0  0  0  0  0  0  0
  -17.8006  -10.7102    0.0000 C   0  0  0  0  0  0  0  0  0  0  0  0
  -16.9813  -11.9668    0.0000 C   0  0  0  0  0  0  0  0  0  0  0  0
  -16.0736  -13.1609    0.0000 C   0  0  0  0  0  0  0  0  0  0  0  0
  -15.0820  -14.2864    0.0000 C   0  0  0  0  0  0  0  0  0  0  0  0
  -14.0118  -15.3375    0.0000 C   0  0  0  0  0  0  0  0  0  0  0  0
  -12.8686  -16.3086    0.0000 C   0  0  0  0  0  0  0  0  0  0  0  0
  -11.6582  -17.1946    0.0000 C   0  0  0  0  0  0  0  0  0  0  0  0
  -10.3871  -17.9910    0.0000 C   0  0  0  0  0  0  0  0  0  0  0  0
   -9.0618  -18.6936    0.0000 C   0  0  0  0  0  0  0  0  0  0  0  0
   -7.6893  -19.2988    0.0000 C   0  0  0  0  0  0  0  0  0  0  0  0
   -6.2767  -19.8033    0.0000 C   0  0  0  0  0  0  0  0  0  0  0  0
   -4.8314  -20.2046    0.0000 C   0  0  0  0  0  0  0  0  0  0  0  0
   -3.3609  -20.5006    0.0000 C   0  0  0  0  0  0  0  0  0  0  0  0
   -1.8729  -20.6896    0.0000 C   0  0  0  0  0  0  0  0  0  0  0  0
   -0.3751  -20.7708    0.0000 C   0  0  0  0  0  0  0  0  0  0  0  0
    1.1247  -20.7438    0.0000 C   0  0  0  0  0  0  0  0  0  0  0  0
    2.6186  -20.6085    0.0000 C   0  0  0  0  0  0  0  0  0  0  0  0
    4.0988  -20.3659    0.0000 C   0  0  0  0  0  0  0  0  0  0  0  0
    5.5577  -20.0170    0.0000 C   0  0  0  0  0  0  0  0  0  0  0  0
    6.9876  -19.5638    0.0000 C   0  0  0  0  0  0  0  0  0  0  0  0
    8.3811  -19.0086    0.0000 C   0  0  0  0  0  0  0  0  0  0  0  0
    9.7308  -18.3543    0.0000 C   0  0  0  0  0  0  0  0  0  0  0  0
   11.0299  -17.6043    0.0000 C   0  0  0  0  0  0  0  0  0  0  0  0
   12.2714  -16.7625    0.0000 C   0  0  0  0  0  0  0  0  0  0  0  0
   13.4490  -15.8333    0.0000 C   0  0  0  0  0  0  0  0  0  0  0  0
   14.5564  -14.8216    0.0000 C   0  0  0  0  0  0  0  0  0  0  0  0
   15.5879  -13.7326    0.0000 C   0  0  0  0  0  0  0  0  0  0  0  0
   16.5382  -12.5720    0.0000 C   0  0  0  0  0  0  0  0  0  0  0  0
   17.4023  -11.3459    0.0000 C   0  0  0  0  0  0  0  0  0  0  0  0
   18.1756  -10.0606    0.0000 C   0  0  0  0  0  0  0  0  0  0  0  0
   18.8542   -8.7229    0.0000 C   0  0  0  0  0  0  0  0  0  0  0  0
   19.4345   -7.3397    0.0000 C   0  0  0  0  0  0  0  0  0  0  0  0
   19.9134   -5.9182    0.0000 C   0  0  0  0  0  0  0  0  0  0  0  0
   20.2885   -4.4658    0.0000 C   0  0  0  0  0  0  0  0  0  0  0  0
   20.5579   -2.9902    0.0000 C   0  0  0  0  0  0  0  0  0  0  0  0
   20.7201   -1.4990    0.0000 C   0  0  0  0  0  0  0  0  0  0  0  0
   22.2162   -1.6073    0.0000 C   0  0  0  0  0  0  0  0  0  0  0  0
   22.8705   -2.9570    0.0000 C   0  0  0  0  0  0  0  0  0  0  0  0
   24.3666   -3.0653    0.0000 C   0  0  0  0  0  0  0  0  0  0  0  0
   25.0209   -4.4150    0.0000 C   0  0  0  0  0  0  0  0  0  0  0  0
   26.5170   -4.5233    0.0000 C   0  0  0  0  0  0  0  0  0  0  0  0
   27.4839   -3.3765    0.0000 C   0  0  0  0  0  0  0  0  0  0  0  0
   28.8733   -3.9418    0.0000 C   0  0  0  0  0  0  0  0  0  0  0  0
   28.7651   -5.4379    0.0000 C   0  0  0  0  0  0  0  0  0  0  0  0
   27.3088   -5.7973    0.0000 C   0  0  0  0  0  0  0  0  0  0  0  0
  1  2  3  0
  2  3  1  0
  3  4  3  0
  4  5  1  0
  5  6  3  0
  6  7  1  0
  7  8  3  0
  8  9  1  0
  9 10  3  0
 10 11  1  0
 11 12  3  0
 12 13  1  0
 13 14  1  0
 14 15  1  0
 15 16  1  0
 16 17  1  0
 17 18  1  0
 18 19  1  0
 19 20  1  0
 20 21  1  0
 21 22  1  0
 22 23  1  0
 23 24  1  0
 24 25  1  0
 25 26  1  0
 26 27  1  0
 27 28  1  0
 28 29  1  0
 29 30  1  0
 30 31  1  0
 31 32  1  0
 32 33  1  0
 33 34  1  0
 34 35  1  0
 35 36  1  0
 36 37  1  0
 37 38  1  0
 38 39  1  0
 39 40  1  0
 40 41  1  0
 41 42  1  0
 42 43  1  0
 43 44  1  0
 44 45  1  0
 45 46  1  0
 46 47  1  0
 47 48  1  0
 48 49  1  0
 49 50  1  0
 50 51  1  0
 51 52  1  0
 52 53  1  0
 53 54  1  0
 54 55  1  0
 55 56  1  0
 56 57  1  0
 57 58  1  0
 58 59  1  0
 59 60  1  0
 60 61  1  0
 61 62  1  0
 62 63  1  0
 63 64  1  0
 64 65  1  0
 65 66  1  0
 66 67  1  0
 67 68  1  0
 68 69  1  0
 69 70  1  0
 70 71  1  0
 71 72  1  0
 72 73  1  0
 73 74  1  0
 74 75  1  0
 75 76  1  0
 76 77  1  0
 77 78  1  0
 78 79  1  0
 79 80  1  0
 80 81  1  0
 81 82  1  0
 82 83  1  0
 83 84  1  0
 84 85  1  0
 85 86  1  0
 86 87  1  0
 87 88  1  0
 88 89  1  0
 89 90  1  0
 90 91  1  0
 91 92  1  0
 92 93  1  0
 93 94  1  0
 94 95  1  0
 95 96  1  0
 96 97  1  0
 97 98  1  0
 98 99  1  0
 99100  2  3
100101  1  0
101102  2  3
102103  1  0
103104  2  3
104105  1  0
105106  2  0
106107  1  0
107108  2  0
 99 13  1  0
108104  1  0
M  END
>  <Title>  (492) 
idAAQZgen9

$$$$

     RDKit          2D

110110  0  0  0  0  0  0  0  0999 V2000
   27.5254    0.0000    0.0000 C   0  0  0  0  0  0  0  0  0  0  0  0
   26.0254    0.0000    0.0000 C   0  0  0  0  0  0  0  0  0  0  0  0
   25.9822    1.4994    0.0000 C   0  0  0  0  0  0  0  0  0  0  0  0
   25.8527    2.9938    0.0000 C   0  0  0  0  0  0  0  0  0  0  0  0
   25.6373    4.4782    0.0000 C   0  0  0  0  0  0  0  0  0  0  0  0
   25.3367    5.9478    0.0000 C   0  0  0  0  0  0  0  0  0  0  0  0
   24.9519    7.3976    0.0000 C   0  0  0  0  0  0  0  0  0  0  0  0
   24.4843    8.8229    0.0000 C   0  0  0  0  0  0  0  0  0  0  0  0
   23.9353   10.2188    0.0000 C   0  0  0  0  0  0  0  0  0  0  0  0
   23.3068   11.5808    0.0000 C   0  0  0  0  0  0  0  0  0  0  0  0
   22.6009   12.9043    0.0000 C   0  0  0  0  0  0  0  0  0  0  0  0
   21.8200   14.1850    0.0000 C   0  0  0  0  0  0  0  0  0  0  0  0
   20.9665   15.4185    0.0000 C   0  0  0  0  0  0  0  0  0  0  0  0
   20.0434   16.6008    0.0000 C   0  0  0  0  0  0  0  0  0  0  0  0
   19.0537   17.7280    0.0000 C   0  0  0  0  0  0  0  0  0  0  0  0
   18.0007   18.7962    0.0000 C   0  0  0  0  0  0  0  0  0  0  0  0
   16.8879   19.8021    0.0000 C   0  0  0  0  0  0  0  0  0  0  0  0
   15.7190   20.7421    0.0000 C   0  0  0  0  0  0  0  0  0  0  0  0
   14.4979   21.6133    0.0000 C   0  0  0  0  0  0  0  0  0  0  0  0
   13.2287   22.4126    0.0000 C   0  0  0  0  0  0  0  0  0  0  0  0
   11.9154   23.1375    0.0000 C   0  0  0  0  0  0  0  0  0  0  0  0
   10.5627   23.7856    0.0000 C   0  0  0  0  0  0  0  0  0  0  0  0
    9.1748   24.3546    0.0000 C   0  0  0  0  0  0  0  0  0  0  0  0
    7.7564   24.8427    0.0000 C   0  0  0  0  0  0  0  0  0  0  0  0
    6.3123   25.2483    0.0000 C   0  0  0  0  0  0  0  0  0  0  0  0
    4.8472   25.5701    0.0000 C   0  0  0  0  0  0  0  0  0  0  0  0
    3.3660   25.8068    0.0000 C   0  0  0  0  0  0  0  0  0  0  0  0
    1.8736   25.9579    0.0000 C   0  0  0  0  0  0  0  0  0  0  0  0
    0.3750   26.0227    0.0000 C   0  0  0  0  0  0  0  0  0  0  0  0
   -1.1248   26.0011    0.0000 C   0  0  0  0  0  0  0  0  0  0  0  0
   -2.6209   25.8931    0.0000 C   0  0  0  0  0  0  0  0  0  0  0  0
   -4.1083   25.6991    0.0000 C   0  0  0  0  0  0  0  0  0  0  0  0
   -5.5821   25.4198    0.0000 C   0  0  0  0  0  0  0  0  0  0  0  0
   -7.0373   25.0559    0.0000 C   0  0  0  0  0  0  0  0  0  0  0  0
   -8.4691   24.6089    0.0000 C   0  0  0  0  0  0  0  0  0  0  0  0
   -9.8728   24.0801    0.0000 C   0  0  0  0  0  0  0  0  0  0  0  0
  -11.2437   23.4713    0.0000 C   0  0  0  0  0  0  0  0  0  0  0  0
  -12.5773   22.7845    0.0000 C   0  0  0  0  0  0  0  0  0  0  0  0
  -13.8690   22.0221    0.0000 C   0  0  0  0  0  0  0  0  0  0  0  0
  -15.1147   21.1865    0.0000 C   0  0  0  0  0  0  0  0  0  0  0  0
  -16.3102   20.2805    0.0000 C   0  0  0  0  0  0  0  0  0  0  0  0
  -17.4515   19.3072    0.0000 C   0  0  0  0  0  0  0  0  0  0  0  0
  -18.5349   18.2697    0.0000 C   0  0  0  0  0  0  0  0  0  0  0  0
  -19.5567   17.1715    0.0000 C   0  0  0  0  0  0  0  0  0  0  0  0
  -20.5135   16.0163    0.0000 C   0  0  0  0  0  0  0  0  0  0  0  0
  -21.4021   14.8079    0.0000 C   0  0  0  0  0  0  0  0  0  0  0  0
  -22.2197   13.5503    0.0000 C   0  0  0  0  0  0  0  0  0  0  0  0
  -22.9634   12.2476    0.0000 C   0  0  0  0  0  0  0  0  0  0  0  0
  -23.6309   10.9043    0.0000 C   0  0  0  0  0  0  0  0  0  0  0  0
  -24.2199    9.5248    0.0000 C   0  0  0  0  0  0  0  0  0  0  0  0
  -24.7284    8.1136    0.0000 C   0  0  0  0  0  0  0  0  0  0  0  0
  -25.1547    6.6755    0.0000 C   0  0  0  0  0  0  0  0  0  0  0  0
  -25.4976    5.2152    0.0000 C   0  0  0  0  0  0  0  0  0  0  0  0
  -25.7557    3.7376    0.0000 C   0  0  0  0  0  0  0  0  0  0  0  0
  -25.9282    2.2475    0.0000 C   0  0  0  0  0  0  0  0  0  0  0  0
  -26.0146    0.7500    0.0000 C   0  0  0  0  0  0  0  0  0  0  0  0
  -26.0146   -0.7500    0.0000 C   0  0  0  0  0  0  0  0  0  0  0  0
  -25.9282   -2.2475    0.0000 C   0  0  0  0  0  0  0  0  0  0  0  0
  -25.7557   -3.7376    0.0000 C   0  0  0  0  0  0  0  0  0  0  0  0
  -25.4976   -5.2152    0.0000 C   0  0  0  0  0  0  0  0  0  0  0  0
  -25.1547   -6.6755    0.0000 C   0  0  0  0  0  0  0  0  0  0  0  0
  -24.7284   -8.1136    0.0000 C   0  0  0  0  0  0  0  0  0  0  0  0
  -24.2199   -9.5248    0.0000 C   0  0  0  0  0  0  0  0  0  0  0  0
  -23.6309  -10.9043    0.0000 C   0  0  0  0  0  0  0  0  0  0  0  0
  -22.9634  -12.2476    0.0000 C   0  0  0  0  0  0  0  0  0  0  0  0
  -22.2197  -13.5503    0.0000 C   0  0  0  0  0  0  0  0  0  0  0  0
  -21.4021  -14.8079    0.0000 C   0  0  0  0  0  0  0  0  0  0  0  0
  -20.5135  -16.0163    0.0000 C   0  0  0  0  0  0  0  0  0  0  0  0
  -19.5567  -17.1715    0.0000 C   0  0  0  0  0  0  0  0  0  0  0  0
  -18.5349  -18.2697    0.0000 C   0  0  0  0  0  0  0  0  0  0  0  0
  -17.4515  -19.3072    0.0000 C   0  0  0  0  0  0  0  0  0  0  0  0
  -16.3102  -20.2805    0.0000 C   0  0  0  0  0  0  0  0  0  0  0  0
  -15.1147  -21.1865    0.0000 C   0  0  0  0  0  0  0  0  0  0  0  0
  -13.8690  -22.0221    0.0000 C   0  0  0  0  0  0  0  0  0  0  0  0
  -12.5773  -22.7845    0.0000 C   0  0  0  0  0  0  0  0  0  0  0  0
  -11.2437  -23.4713    0.0000 C   0  0  0  0  0  0  0  0  0  0  0  0
   -9.8728  -24.0801    0.0000 C   0  0  0  0  0  0  0  0  0  0  0  0
   -8.4691  -24.6089    0.0000 C   0  0  0  0  0  0  0  0  0  0  0  0
   -7.0373  -25.0559    0.0000 C   0  0  0  0  0  0  0  0  0  0  0  0
   -5.5821  -25.4198    0.0000 C   0  0  0  0  0  0  0  0  0  0  0  0
   -4.1083  -25.6991    0.0000 C   0  0  0  0  0  0  0  0  0  0  0  0
   -2.6209  -25.8931    0.0000 C   0  0  0  0  0  0  0  0  0  0  0  0
   -1.1248  -26.0011    0.0000 C   0  0  0  0  0  0  0  0  0  0  0  0
    0.3750  -26.0227    0.0000 C   0  0  0  0  0  0  0  0  0  0  0  0
    1.8736  -25.9579    0.0000 C   0  0  0  0  0  0  0  0  0  0  0  0
    3.3660  -25.8068    0.0000 C   0  0  0  0  0  0  0  0  0  0  0  0
    4.8472  -25.5701    0.0000 C   0  0  0  0  0  0  0  0  0  0  0  0
    6.3123  -25.2483    0.0000 C   0  0  0  0  0  0  0  0  0  0  0  0
    7.7564  -24.8427    0.0000 C   0  0  0  0  0  0  0  0  0  0  0  0
    9.1748  -24.3546    0.0000 C   0  0  0  0  0  0  0  0  0  0  0  0
   10.5627  -23.7856    0.0000 C   0  0  0  0  0  0  0  0  0  0  0  0
   11.9154  -23.1375    0.0000 C   0  0  0  0  0  0  0  0  0  0  0  0
   13.2287  -22.4126    0.0000 C   0  0  0  0  0  0  0  0  0  0  0  0
   14.4979  -21.6133    0.0000 C   0  0  0  0  0  0  0  0  0  0  0  0
   15.7190  -20.7421    0.0000 C   0  0  0  0  0  0  0  0  0  0  0  0
   16.8879  -19.8021    0.0000 C   0  0  0  0  0  0  0  0  0  0  0  0
   18.0007  -18.7962    0.0000 C   0  0  0  0  0  0  0  0  0  0  0  0
   19.0537  -17.7280    0.0000 C   0  0  0  0  0  0  0  0  0  0  0  0
   20.0434  -16.6008    0.0000 C   0  0  0  0  0  0  0  0  0  0  0  0
   20.9665  -15.4185    0.0000 C   0  0  0  0  0  0  0  0  0  0  0  0
   21.8200  -14.1850    0.0000 C   0  0  0  0  0  0  0  0  0  0  0  0
   22.6009  -12.9043    0.0000 C   0  0  0  0  0  0  0  0  0  0  0  0
   23.3068  -11.5808    0.0000 C   0  0  0  0  0  0  0  0  0  0  0  0
   23.9353  -10.2188    0.0000 C   0  0  0  0  0  0  0  0  0  0  0  0
   24.4843   -8.8229    0.0000 C   0  0  0  0  0  0  0  0  0  0  0  0
   24.9519   -7.3976    0.0000 C   0  0  0  0  0  0  0  0  0  0  0  0
   25.3367   -5.9478    0.0000 C   0  0  0  0  0  0  0  0  0  0  0  0
   25.6373   -4.4782    0.0000 C   0  0  0  0  0  0  0  0  0  0  0  0
   25.8527   -2.9938    0.0000 C   0  0  0  0  0  0  0  0  0  0  0  0
   25.9822   -1.4994    0.0000 C   0  0  0  0  0  0  0  0  0  0  0  0
  1  2  1  0
  2  3  1  0
  3  4  2  0
  4  5  1  0
  5  6  1  0
  6  7  1  0
  7  8  1  0
  8  9  1  0
  9 10  1  0
 10 11  1  0
 11 12  1  0
 12 13  1  0
 13 14  1  0
 14 15  1  0
 15 16  1  0
 16 17  1  0
 17 18  1  0
 18 19  1  0
 19 20  1  0
 20 21  1  0
 21 22  1  0
 22 23  1  0
 23 24  1  0
 24 25  1  0
 25 26  1  0
 26 27  1  0
 27 28  1  0
 28 29  1  0
 29 30  1  0
 30 31  1  0
 31 32  1  0
 32 33  1  0
 33 34  1  0
 34 35  1  0
 35 36  1  0
 36 37  1  0
 37 38  1  0
 38 39  1  0
 39 40  1  0
 40 41  1  0
 41 42  1  0
 42 43  1  0
 43 44  1  0
 44 45  1  0
 45 46  1  0
 46 47  1  0
 47 48  1  0
 48 49  1  0
 49 50  1  0
 50 51  1  0
 51 52  1  0
 52 53  1  0
 53 54  1  0
 54 55  1  0
 55 56  1  0
 56 57  1  0
 57 58  1  0
 58 59  1  0
 59 60  1  0
 60 61  1  0
 61 62  1  0
 62 63  1  0
 63 64  1  0
 64 65  1  0
 65 66  1  0
 66 67  1  0
 67 68  1  0
 68 69  1  0
 69 70  1  0
 70 71  1  0
 71 72  1  0
 72 73  1  0
 73 74  1  0
 74 75  1  0
 75 76  1  0
 76 77  1  0
 77 78  1  0
 78 79  1  0
 79 80  1  0
 80 81  1  0
 81 82  1  0
 82 83  1  0
 83 84  1  0
 84 85  1  0
 85 86  1  0
 86 87  1  0
 87 88  1  0
 88 89  1  0
 89 90  1  0
 90 91  1  0
 91 92  1  0
 92 93  1  0
 93 94  1  0
 94 95  1  0
 95 96  1  0
 96 97  1  0
 97 98  1  0
 98 99  1  0
 99100  1  0
100101  1  0
101102  1  0
102103  1  0
103104  1  0
104105  1  0
105106  1  0
106107  1  0
107108  1  0
108109  1  0
109110  1  0
110  2  1  0
M  END
>  <Title>  (493) 
idAARAgen9

$$$$

     RDKit          2D

 20 22  0  0  0  0  0  0  0  0999 V2000
   -3.0000   -2.5981    0.0000 C   0  0  0  0  0  0  0  0  0  0  0  0
   -1.5000   -2.5981    0.0000 C   0  0  0  0  0  0  0  0  0  0  0  0
   -0.7500   -3.8971    0.0000 C   0  0  0  0  0  0  0  0  0  0  0  0
    0.7500   -3.8971    0.0000 C   0  0  0  0  0  0  0  0  0  0  0  0
    1.5000   -2.5981    0.0000 C   0  0  0  0  0  0  0  0  0  0  0  0
    3.0000   -2.5981    0.0000 C   0  0  0  0  0  0  0  0  0  0  0  0
    3.7500   -1.2990    0.0000 O   0  0  0  0  0  0  0  0  0  0  0  0
    3.7500   -3.8971    0.0000 N   0  0  0  0  0  0  0  0  0  0  0  0
    5.2500   -3.8971    0.0000 C   0  0  0  0  0  0  0  0  0  0  0  0
    6.0000   -5.1962    0.0000 N   0  0  0  0  0  0  0  0  0  0  0  0
    7.5000   -5.1962    0.0000 N   0  0  0  0  0  0  0  0  0  0  0  0
    8.2500   -3.8971    0.0000 N   0  0  0  0  0  0  0  0  0  0  0  0
    7.5000   -2.5981    0.0000 N   0  0  0  0  0  0  0  0  0  0  0  0
    6.0000   -2.5981    0.0000 N   0  0  0  0  0  0  0  0  0  0  0  0
    0.7500   -1.2990    0.0000 C   0  0  0  0  0  0  0  0  0  0  0  0
    1.5000    0.0000    0.0000 C   0  0  0  0  0  0  0  0  0  0  0  0
    0.7500    1.2990    0.0000 C   0  0  0  0  0  0  0  0  0  0  0  0
   -0.7500    1.2990    0.0000 C   0  0  0  0  0  0  0  0  0  0  0  0
   -1.5000    0.0000    0.0000 C   0  0  0  0  0  0  0  0  0  0  0  0
   -0.7500   -1.2990    0.0000 C   0  0  0  0  0  0  0  0  0  0  0  0
  1  2  1  0
  2  3  2  0
  3  4  1  0
  4  5  1  0
  5  6  1  0
  6  7  2  0
  6  8  1  0
  8  9  1  0
  9 10  2  0
 10 11  1  0
 11 12  2  0
 12 13  1  0
 13 14  2  0
  5 15  1  0
 15 16  2  0
 16 17  1  0
 17 18  2  0
 18 19  1  0
 19 20  2  0
 20  2  1  0
 14  9  1  0
 20 15  1  0
M  END
>  <Title>  (494) 
idAARBgen9

$$$$

     RDKit          2D

113113  0  0  0  0  0  0  0  0999 V2000
  102.4603   54.5596    0.0000 C   0  0  0  0  0  0  0  0  0  0  0  0
  100.9603   54.5596    0.0000 C   0  0  0  0  0  0  0  0  0  0  0  0
  100.2103   53.2606    0.0000 C   0  0  0  0  0  0  0  0  0  0  0  0
   98.7103   53.2606    0.0000 C   0  0  0  0  0  0  0  0  0  0  0  0
   97.9603   51.9615    0.0000 C   0  0  0  0  0  0  0  0  0  0  0  0
   96.4603   51.9615    0.0000 C   0  0  0  0  0  0  0  0  0  0  0  0
   95.7103   50.6625    0.0000 C   0  0  0  0  0  0  0  0  0  0  0  0
   94.2103   50.6625    0.0000 C   0  0  0  0  0  0  0  0  0  0  0  0
   93.4603   49.3634    0.0000 C   0  0  0  0  0  0  0  0  0  0  0  0
   91.9603   49.3634    0.0000 C   0  0  0  0  0  0  0  0  0  0  0  0
   91.2103   48.0644    0.0000 C   0  0  0  0  0  0  0  0  0  0  0  0
   89.7103   48.0644    0.0000 C   0  0  0  0  0  0  0  0  0  0  0  0
   88.9603   46.7654    0.0000 C   0  0  0  0  0  0  0  0  0  0  0  0
   87.4603   46.7654    0.0000 C   0  0  0  0  0  0  0  0  0  0  0  0
   86.7103   45.4663    0.0000 C   0  0  0  0  0  0  0  0  0  0  0  0
   85.2103   45.4663    0.0000 C   0  0  0  0  0  0  0  0  0  0  0  0
   84.4603   44.1673    0.0000 C   0  0  0  0  0  0  0  0  0  0  0  0
   82.9603   44.1673    0.0000 C   0  0  0  0  0  0  0  0  0  0  0  0
   82.2103   42.8683    0.0000 C   0  0  0  0  0  0  0  0  0  0  0  0
   80.7103   42.8683    0.0000 C   0  0  0  0  0  0  0  0  0  0  0  0
   79.9603   41.5692    0.0000 C   0  0  0  0  0  0  0  0  0  0  0  0
   78.4603   41.5692    0.0000 C   0  0  0  0  0  0  0  0  0  0  0  0
   77.7103   40.2702    0.0000 C   0  0  0  0  0  0  0  0  0  0  0  0
   76.2103   40.2702    0.0000 C   0  0  0  0  0  0  0  0  0  0  0  0
   75.4603   38.9711    0.0000 C   0  0  0  0  0  0  0  0  0  0  0  0
   73.9603   38.9711    0.0000 C   0  0  0  0  0  0  0  0  0  0  0  0
   73.2103   37.6721    0.0000 C   0  0  0  0  0  0  0  0  0  0  0  0
   71.7103   37.6721    0.0000 C   0  0  0  0  0  0  0  0  0  0  0  0
   70.9603   36.3731    0.0000 C   0  0  0  0  0  0  0  0  0  0  0  0
   69.4603   36.3731    0.0000 C   0  0  0  0  0  0  0  0  0  0  0  0
   68.7103   35.0740    0.0000 C   0  0  0  0  0  0  0  0  0  0  0  0
   67.2103   35.0740    0.0000 C   0  0  0  0  0  0  0  0  0  0  0  0
   66.4603   33.7750    0.0000 C   0  0  0  0  0  0  0  0  0  0  0  0
   64.9603   33.7750    0.0000 C   0  0  0  0  0  0  0  0  0  0  0  0
   64.2103   32.4760    0.0000 C   0  0  0  0  0  0  0  0  0  0  0  0
   62.7103   32.4760    0.0000 C   0  0  0  0  0  0  0  0  0  0  0  0
   61.9603   31.1769    0.0000 C   0  0  0  0  0  0  0  0  0  0  0  0
   60.4603   31.1769    0.0000 C   0  0  0  0  0  0  0  0  0  0  0  0
   59.7103   29.8779    0.0000 C   0  0  0  0  0  0  0  0  0  0  0  0
   58.2103   29.8779    0.0000 C   0  0  0  0  0  0  0  0  0  0  0  0
   57.4603   28.5788    0.0000 C   0  0  0  0  0  0  0  0  0  0  0  0
   55.9603   28.5788    0.0000 C   0  0  0  0  0  0  0  0  0  0  0  0
   55.2103   27.2798    0.0000 C   0  0  0  0  0  0  0  0  0  0  0  0
   53.7103   27.2798    0.0000 C   0  0  0  0  0  0  0  0  0  0  0  0
   52.9603   25.9808    0.0000 C   0  0  0  0  0  0  0  0  0  0  0  0
   51.4603   25.9808    0.0000 C   0  0  0  0  0  0  0  0  0  0  0  0
   50.7103   24.6817    0.0000 C   0  0  0  0  0  0  0  0  0  0  0  0
   49.2103   24.6817    0.0000 C   0  0  0  0  0  0  0  0  0  0  0  0
   48.4603   23.3827    0.0000 C   0  0  0  0  0  0  0  0  0  0  0  0
   46.9603   23.3827    0.0000 C   0  0  0  0  0  0  0  0  0  0  0  0
   46.2103   22.0836    0.0000 C   0  0  0  0  0  0  0  0  0  0  0  0
   44.7103   22.0836    0.0000 C   0  0  0  0  0  0  0  0  0  0  0  0
   43.9603   20.7846    0.0000 C   0  0  0  0  0  0  0  0  0  0  0  0
   42.4603   20.7846    0.0000 C   0  0  0  0  0  0  0  0  0  0  0  0
   41.7103   19.4856    0.0000 C   0  0  0  0  0  0  0  0  0  0  0  0
   40.2103   19.4856    0.0000 C   0  0  0  0  0  0  0  0  0  0  0  0
   39.4603   18.1865    0.0000 C   0  0  0  0  0  0  0  0  0  0  0  0
   37.9603   18.1865    0.0000 C   0  0  0  0  0  0  0  0  0  0  0  0
   37.2103   16.8875    0.0000 C   0  0  0  0  0  0  0  0  0  0  0  0
   35.7103   16.8875    0.0000 C   0  0  0  0  0  0  0  0  0  0  0  0
   34.9603   15.5885    0.0000 C   0  0  0  0  0  0  0  0  0  0  0  0
   33.4603   15.5885    0.0000 C   0  0  0  0  0  0  0  0  0  0  0  0
   32.7103   14.2894    0.0000 C   0  0  0  0  0  0  0  0  0  0  0  0
   31.2103   14.2894    0.0000 C   0  0  0  0  0  0  0  0  0  0  0  0
   30.4603   12.9904    0.0000 C   0  0  0  0  0  0  0  0  0  0  0  0
   28.9603   12.9904    0.0000 C   0  0  0  0  0  0  0  0  0  0  0  0
   28.2103   11.6913    0.0000 C   0  0  0  0  0  0  0  0  0  0  0  0
   26.7103   11.6913    0.0000 C   0  0  0  0  0  0  0  0  0  0  0  0
   25.9603   10.3923    0.0000 C   0  0  0  0  0  0  0  0  0  0  0  0
   24.4603   10.3923    0.0000 C   0  0  0  0  0  0  0  0  0  0  0  0
   23.7103    9.0933    0.0000 C   0  0  0  0  0  0  0  0  0  0  0  0
   22.2103    9.0933    0.0000 C   0  0  0  0  0  0  0  0  0  0  0  0
   21.4603    7.7942    0.0000 C   0  0  0  0  0  0  0  0  0  0  0  0
   19.9603    7.7942    0.0000 C   0  0  0  0  0  0  0  0  0  0  0  0
   19.2103    6.4952    0.0000 C   0  0  0  0  0  0  0  0  0  0  0  0
   17.7103    6.4952    0.0000 C   0  0  0  0  0  0  0  0  0  0  0  0
   16.9603    5.1962    0.0000 C   0  0  0  0  0  0  0  0  0  0  0  0
   15.4603    5.1962    0.0000 C   0  0  0  0  0  0  0  0  0  0  0  0
   14.7103    3.8971    0.0000 C   0  0  0  0  0  0  0  0  0  0  0  0
   13.2103    3.8971    0.0000 C   0  0  0  0  0  0  0  0  0  0  0  0
   12.4603    2.5981    0.0000 C   0  0  0  0  0  0  0  0  0  0  0  0
   10.9603    2.5981    0.0000 C   0  0  0  0  0  0  0  0  0  0  0  0
   10.2103    1.2990    0.0000 C   0  0  0  0  0  0  0  0  0  0  0  0
    8.7103    1.2990    0.0000 C   0  0  0  0  0  0  0  0  0  0  0  0
    7.9603    0.0000    0.0000 C   0  0  0  0  0  0  0  0  0  0  0  0
    6.4603    0.0000    0.0000 C   0  0  0  0  0  0  0  0  0  0  0  0
    6.2862    1.4899    0.0000 C   0  0  0  0  0  0  0  0  0  0  0  0
    5.7732    2.8994    0.0000 C   0  0  0  0  0  0  0  0  0  0  0  0
    4.9489    4.1526    0.0000 C   0  0  0  0  0  0  0  0  0  0  0  0
    3.8578    5.1820    0.0000 C   0  0  0  0  0  0  0  0  0  0  0  0
    2.5588    5.9320    0.0000 C   0  0  0  0  0  0  0  0  0  0  0  0
    1.1218    6.3622    0.0000 C   0  0  0  0  0  0  0  0  0  0  0  0
   -0.3756    6.4494    0.0000 C   0  0  0  0  0  0  0  0  0  0  0  0
   -1.8528    6.1889    0.0000 C   0  0  0  0  0  0  0  0  0  0  0  0
   -3.2302    5.5948    0.0000 C   0  0  0  0  0  0  0  0  0  0  0  0
   -4.4334    4.6991    0.0000 C   0  0  0  0  0  0  0  0  0  0  0  0
   -5.3975    3.5500    0.0000 C   0  0  0  0  0  0  0  0  0  0  0  0
   -6.0707    2.2096    0.0000 C   0  0  0  0  0  0  0  0  0  0  0  0
   -6.4167    0.7500    0.0000 C   0  0  0  0  0  0  0  0  0  0  0  0
   -6.4167   -0.7500    0.0000 C   0  0  0  0  0  0  0  0  0  0  0  0
   -6.0707   -2.2096    0.0000 C   0  0  0  0  0  0  0  0  0  0  0  0
   -5.3975   -3.5500    0.0000 C   0  0  0  0  0  0  0  0  0  0  0  0
   -4.4334   -4.6991    0.0000 C   0  0  0  0  0  0  0  0  0  0  0  0
   -3.2302   -5.5948    0.0000 C   0  0  0  0  0  0  0  0  0  0  0  0
   -1.8528   -6.1889    0.0000 C   0  0  0  0  0  0  0  0  0  0  0  0
   -0.3756   -6.4494    0.0000 C   0  0  0  0  0  0  0  0  0  0  0  0
    1.1218   -6.3622    0.0000 C   0  0  0  0  0  0  0  0  0  0  0  0
    2.5588   -5.9320    0.0000 C   0  0  0  0  0  0  0  0  0  0  0  0
    3.8578   -5.1820    0.0000 C   0  0  0  0  0  0  0  0  0  0  0  0
    4.9489   -4.1526    0.0000 C   0  0  0  0  0  0  0  0  0  0  0  0
    5.7732   -2.8994    0.0000 C   0  0  0  0  0  0  0  0  0  0  0  0
    6.2862   -1.4899    0.0000 C   0  0  0  0  0  0  0  0  0  0  0  0
    7.7458   -1.8358    0.0000 C   0  0  0  0  0  0  0  0  0  0  0  0
  1  2  1  0
  2  3  1  0
  3  4  1  0
  4  5  1  0
  5  6  1  0
  6  7  1  0
  7  8  1  0
  8  9  1  0
  9 10  1  0
 10 11  1  0
 11 12  1  0
 12 13  1  0
 13 14  1  0
 14 15  1  0
 15 16  1  0
 16 17  1  0
 17 18  1  0
 18 19  1  0
 19 20  1  0
 20 21  1  0
 21 22  1  0
 22 23  1  0
 23 24  1  0
 24 25  1  0
 25 26  1  0
 26 27  1  0
 27 28  1  0
 28 29  1  0
 29 30  1  0
 30 31  1  0
 31 32  1  0
 32 33  1  0
 33 34  1  0
 34 35  1  0
 35 36  1  0
 36 37  1  0
 37 38  1  0
 38 39  1  0
 39 40  1  0
 40 41  1  0
 41 42  1  0
 42 43  1  0
 43 44  1  0
 44 45  1  0
 45 46  1  0
 46 47  1  0
 47 48  1  0
 48 49  1  0
 49 50  1  0
 50 51  1  0
 51 52  1  0
 52 53  1  0
 53 54  1  0
 54 55  1  0
 55 56  1  0
 56 57  1  0
 57 58  1  0
 58 59  1  0
 59 60  1  0
 60 61  1  0
 61 62  1  0
 62 63  1  0
 63 64  1  0
 64 65  1  0
 65 66  1  0
 66 67  1  0
 67 68  1  0
 68 69  1  0
 69 70  1  0
 70 71  1  0
 71 72  1  0
 72 73  1  0
 73 74  1  0
 74 75  1  0
 75 76  1  0
 76 77  1  0
 77 78  1  0
 78 79  1  0
 79 80  1  0
 80 81  1  0
 81 82  1  0
 82 83  1  0
 83 84  1  0
 84 85  1  0
 85 86  1  0
 86 87  2  0
 87 88  1  0
 88 89  2  0
 89 90  1  0
 90 91  2  0
 91 92  1  0
 92 93  2  0
 93 94  1  0
 94 95  2  0
 95 96  1  0
 96 97  2  0
 97 98  1  0
 98 99  2  0
 99100  1  0
100101  2  0
101102  1  0
102103  2  0
103104  1  0
104105  2  0
105106  1  0
106107  2  0
107108  1  0
108109  2  0
109110  1  0
110111  2  0
111112  1  0
112113  1  0
112 86  1  0
M  END
>  <Title>  (495) 
idAARCgen9

$$$$

     RDKit          2D

 16 16  0  0  0  0  0  0  0  0999 V2000
   16.5000    0.0000    0.0000 C   0  0  0  0  0  0  0  0  0  0  0  0
   15.0000    0.0000    0.0000 C   0  0  0  0  0  0  0  0  0  0  0  0
   13.5000    0.0000    0.0000 C   0  0  0  0  0  0  0  0  0  0  0  0
   12.0000    0.0000    0.0000 C   0  0  0  0  0  0  0  0  0  0  0  0
   10.5000    0.0000    0.0000 C   0  0  0  0  0  0  0  0  0  0  0  0
    9.0000    0.0000    0.0000 C   0  0  0  0  0  0  0  0  0  0  0  0
    7.5000    0.0000    0.0000 C   0  0  0  0  0  0  0  0  0  0  0  0
    6.0000    0.0000    0.0000 C   0  0  0  0  0  0  0  0  0  0  0  0
    4.5000    0.0000    0.0000 C   0  0  0  0  0  0  0  0  0  0  0  0
    3.0000    0.0000    0.0000 C   0  0  0  0  0  0  0  0  0  0  0  0
    1.5000    0.0000    0.0000 C   0  0  0  0  0  0  0  0  0  0  0  0
    0.7500   -1.2990    0.0000 C   0  0  0  0  0  0  0  0  0  0  0  0
   -0.7500   -1.2990    0.0000 C   0  0  0  0  0  0  0  0  0  0  0  0
   -1.5000    0.0000    0.0000 C   0  0  0  0  0  0  0  0  0  0  0  0
   -0.7500    1.2990    0.0000 C   0  0  0  0  0  0  0  0  0  0  0  0
    0.7500    1.2990    0.0000 C   0  0  0  0  0  0  0  0  0  0  0  0
  1  2  3  0
  2  3  1  0
  3  4  3  0
  4  5  1  0
  5  6  3  0
  6  7  1  0
  7  8  3  0
  8  9  1  0
  9 10  3  0
 10 11  1  0
 11 12  1  0
 12 13  2  0
 13 14  1  0
 14 15  2  0
 15 16  1  0
 16 11  1  0
M  END
>  <Title>  (496) 
idAARDgen9

$$$$

     RDKit          2D

 18 19  0  0  0  0  0  0  0  0999 V2000
    5.2500   -1.2990    0.0000 C   0  0  0  0  0  0  0  0  0  0  0  0
    3.7500   -1.2990    0.0000 C   0  0  0  0  0  0  0  0  0  0  0  0
    3.0000   -2.5981    0.0000 O   0  0  0  0  0  0  0  0  0  0  0  0
    3.0000    0.0000    0.0000 C   0  0  0  0  0  0  0  0  0  0  0  0
    3.7500    1.2990    0.0000 O   0  0  0  0  0  0  0  0  0  0  0  0
    1.5000    0.0000    0.0000 C   0  0  0  0  0  0  0  0  0  0  0  0
    0.7500   -1.2990    0.0000 C   0  0  0  0  0  0  0  0  0  0  0  0
   -0.7500   -1.2990    0.0000 C   0  0  0  0  0  0  0  0  0  0  0  0
   -1.5000    0.0000    0.0000 C   0  0  0  0  0  0  0  0  0  0  0  0
   -0.7500    1.2990    0.0000 C   0  0  0  0  0  0  0  0  0  0  0  0
    0.7500    1.2990    0.0000 C   0  0  0  0  0  0  0  0  0  0  0  0
    1.5000    2.5981    0.0000 C   0  0  0  0  0  0  0  0  0  0  0  0
    3.0000    2.5981    0.0000 C   0  0  0  0  0  0  0  0  0  0  0  0
    3.7500    3.8971    0.0000 C   0  0  0  0  0  0  0  0  0  0  0  0
    3.0000    5.1962    0.0000 C   0  0  0  0  0  0  0  0  0  0  0  0
    1.5000    5.1962    0.0000 C   0  0  0  0  0  0  0  0  0  0  0  0
    0.7500    3.8971    0.0000 C   0  0  0  0  0  0  0  0  0  0  0  0
   -0.7500    3.8971    0.0000 O   0  0  0  0  0  0  0  0  0  0  0  0
  1  2  2  0
  2  3  1  0
  2  4  1  0
  4  5  2  0
  4  6  1  0
  6  7  2  0
  7  8  1  0
  8  9  2  0
  9 10  1  0
 10 11  2  0
 11 12  1  0
 12 13  2  0
 13 14  1  0
 14 15  2  0
 15 16  1  0
 16 17  2  0
 17 18  1  0
 11  6  1  0
 17 12  1  0
M  END
>  <Title>  (497) 
idAAREgen9

$$$$

     RDKit          2D

 20 21  0  0  0  0  0  0  0  0999 V2000
   13.5000    0.0000    0.0000 C   0  0  0  0  0  0  0  0  0  0  0  0
   12.0000    0.0000    0.0000 C   0  0  0  0  0  0  0  0  0  0  0  0
   10.5000    0.0000    0.0000 C   0  0  0  0  0  0  0  0  0  0  0  0
    9.0000    0.0000    0.0000 C   0  0  0  0  0  0  0  0  0  0  0  0
    7.5000    0.0000    0.0000 C   0  0  0  0  0  0  0  0  0  0  0  0
    6.0000    0.0000    0.0000 C   0  0  0  0  0  0  0  0  0  0  0  0
    4.5000    0.0000    0.0000 C   0  0  0  0  0  0  0  0  0  0  0  0
    3.0000    0.0000    0.0000 C   0  0  0  0  0  0  0  0  0  0  0  0
    1.5000    0.0000    0.0000 C   0  0  0  0  0  0  0  0  0  0  0  0
    0.7500   -1.2990    0.0000 C   0  0  0  0  0  0  0  0  0  0  0  0
   -0.7500   -1.2990    0.0000 C   0  0  0  0  0  0  0  0  0  0  0  0
   -1.5000    0.0000    0.0000 C   0  0  0  0  0  0  0  0  0  0  0  0
   -0.7500    1.2990    0.0000 C   0  0  0  0  0  0  0  0  0  0  0  0
    0.7500    1.2990    0.0000 C   0  0  0  0  0  0  0  0  0  0  0  0
    1.5000    2.5981    0.0000 C   0  0  0  0  0  0  0  0  0  0  0  0
    3.0000    2.5981    0.0000 C   0  0  0  0  0  0  0  0  0  0  0  0
    3.7500    3.8971    0.0000 C   0  0  0  0  0  0  0  0  0  0  0  0
    3.0000    5.1962    0.0000 C   0  0  0  0  0  0  0  0  0  0  0  0
    1.5000    5.1962    0.0000 C   0  0  0  0  0  0  0  0  0  0  0  0
    0.7500    3.8971    0.0000 C   0  0  0  0  0  0  0  0  0  0  0  0
  1  2  3  0
  2  3  1  0
  3  4  3  0
  4  5  1  0
  5  6  3  0
  6  7  1  0
  7  8  3  0
  8  9  1  0
  9 10  2  0
 10 11  1  0
 11 12  2  0
 12 13  1  0
 13 14  2  0
 14 15  1  0
 15 16  2  0
 16 17  1  0
 17 18  1  0
 18 19  1  0
 19 20  1  0
 14  9  1  0
 20 15  1  0
M  END
>  <Title>  (498) 
idAARFgen9

$$$$

     RDKit          2D

  5  5  0  0  0  0  0  0  0  0999 V2000
    1.2760    0.0000    0.0000 C   0  0  0  0  0  0  0  0  0  0  0  0
    0.3943    1.2135    0.0000 C   0  0  0  0  0  0  0  0  0  0  0  0
   -1.0323    0.7500    0.0000 C   0  0  0  0  0  0  0  0  0  0  0  0
   -1.0323   -0.7500    0.0000 C   0  0  0  0  0  0  0  0  0  0  0  0
    0.3943   -1.2135    0.0000 C   0  0  0  0  0  0  0  0  0  0  0  0
  1  2  2  0
  2  3  1  0
  3  4  1  0
  4  5  1  0
  5  1  1  0
M  END
>  <Title>  (499) 
idAARGgen9

$$$$

     RDKit          2D

 58 67  0  0  0  0  0  0  0  0999 V2000
    6.4958   -8.4227    0.0000 C   0  0  0  0  0  0  0  0  0  0  0  0
    5.0565   -8.0001    0.0000 C   0  0  0  0  0  0  0  0  0  0  0  0
    5.2700   -6.5154    0.0000 C   0  0  0  0  0  0  0  0  0  0  0  0
    5.0565   -5.0307    0.0000 C   0  0  0  0  0  0  0  0  0  0  0  0
    4.4334   -3.6662    0.0000 C   0  0  0  0  0  0  0  0  0  0  0  0
    3.4511   -2.5326    0.0000 C   0  0  0  0  0  0  0  0  0  0  0  0
    4.6123   -1.5831    0.0000 C   0  0  0  0  0  0  0  0  0  0  0  0
    4.0681   -0.1853    0.0000 C   0  0  0  0  0  0  0  0  0  0  0  0
    2.5706   -0.2709    0.0000 C   0  0  0  0  0  0  0  0  0  0  0  0
    2.1892   -1.7216    0.0000 C   0  0  0  0  0  0  0  0  0  0  0  0
    0.7500   -1.2990    0.0000 C   0  0  0  0  0  0  0  0  0  0  0  0
    1.5000    0.0000    0.0000 C   0  0  0  0  0  0  0  0  0  0  0  0
    0.7500    1.2990    0.0000 C   0  0  0  0  0  0  0  0  0  0  0  0
   -0.7500    1.2990    0.0000 C   0  0  0  0  0  0  0  0  0  0  0  0
   -1.5000    0.0000    0.0000 C   0  0  0  0  0  0  0  0  0  0  0  0
   -0.7500   -1.2990    0.0000 C   0  0  0  0  0  0  0  0  0  0  0  0
   -2.1892   -1.7216    0.0000 C   0  0  0  0  0  0  0  0  0  0  0  0
   -2.2606   -0.2233    0.0000 C   0  0  0  0  0  0  0  0  0  0  0  0
   -3.5939    0.4640    0.0000 C   0  0  0  0  0  0  0  0  0  0  0  0
   -4.8557   -0.3470    0.0000 C   0  0  0  0  0  0  0  0  0  0  0  0
   -4.7844   -1.8453    0.0000 C   0  0  0  0  0  0  0  0  0  0  0  0
   -3.4511   -2.5326    0.0000 C   0  0  0  0  0  0  0  0  0  0  0  0
   -4.4334   -3.6662    0.0000 C   0  0  0  0  0  0  0  0  0  0  0  0
   -5.3035   -2.4444    0.0000 C   0  0  0  0  0  0  0  0  0  0  0  0
   -6.7967   -2.5869    0.0000 C   0  0  0  0  0  0  0  0  0  0  0  0
   -7.4198   -3.9514    0.0000 C   0  0  0  0  0  0  0  0  0  0  0  0
   -6.5497   -5.1733    0.0000 C   0  0  0  0  0  0  0  0  0  0  0  0
   -5.0565   -5.0307    0.0000 C   0  0  0  0  0  0  0  0  0  0  0  0
   -5.2700   -6.5154    0.0000 C   0  0  0  0  0  0  0  0  0  0  0  0
   -6.6626   -5.9579    0.0000 C   0  0  0  0  0  0  0  0  0  0  0  0
   -7.8416   -6.8851    0.0000 C   0  0  0  0  0  0  0  0  0  0  0  0
   -7.6282   -8.3699    0.0000 C   0  0  0  0  0  0  0  0  0  0  0  0
   -6.2356   -8.9274    0.0000 C   0  0  0  0  0  0  0  0  0  0  0  0
   -5.0565   -8.0001    0.0000 C   0  0  0  0  0  0  0  0  0  0  0  0
   -4.4334   -9.3646    0.0000 C   0  0  0  0  0  0  0  0  0  0  0  0
   -5.9063   -9.6485    0.0000 C   0  0  0  0  0  0  0  0  0  0  0  0
   -6.3969  -11.0660    0.0000 C   0  0  0  0  0  0  0  0  0  0  0  0
   -5.4146  -12.1996    0.0000 C   0  0  0  0  0  0  0  0  0  0  0  0
   -3.9417  -11.9157    0.0000 C   0  0  0  0  0  0  0  0  0  0  0  0
   -3.4511  -10.4982    0.0000 C   0  0  0  0  0  0  0  0  0  0  0  0
   -2.1892  -11.3092    0.0000 C   0  0  0  0  0  0  0  0  0  0  0  0
   -3.2748  -12.3443    0.0000 C   0  0  0  0  0  0  0  0  0  0  0  0
   -2.9212  -13.8020    0.0000 C   0  0  0  0  0  0  0  0  0  0  0  0
   -1.4820  -14.2246    0.0000 C   0  0  0  0  0  0  0  0  0  0  0  0
   -0.3964  -13.1895    0.0000 C   0  0  0  0  0  0  0  0  0  0  0  0
   -0.7500  -11.7318    0.0000 C   0  0  0  0  0  0  0  0  0  0  0  0
    0.7500  -11.7318    0.0000 C   0  0  0  0  0  0  0  0  0  0  0  0
    0.3964  -13.1895    0.0000 C   0  0  0  0  0  0  0  0  0  0  0  0
    1.4820  -14.2246    0.0000 C   0  0  0  0  0  0  0  0  0  0  0  0
    2.9212  -13.8020    0.0000 C   0  0  0  0  0  0  0  0  0  0  0  0
    3.2748  -12.3443    0.0000 C   0  0  0  0  0  0  0  0  0  0  0  0
    2.1892  -11.3092    0.0000 C   0  0  0  0  0  0  0  0  0  0  0  0
    3.4511  -10.4982    0.0000 C   0  0  0  0  0  0  0  0  0  0  0  0
    3.9417  -11.9157    0.0000 C   0  0  0  0  0  0  0  0  0  0  0  0
    5.4146  -12.1996    0.0000 C   0  0  0  0  0  0  0  0  0  0  0  0
    6.3969  -11.0660    0.0000 C   0  0  0  0  0  0  0  0  0  0  0  0
    5.9063   -9.6485    0.0000 C   0  0  0  0  0  0  0  0  0  0  0  0
    4.4334   -9.3646    0.0000 C   0  0  0  0  0  0  0  0  0  0  0  0
  1  2  1  0
  2  3  1  0
  3  4  2  0
  4  5  1  0
  5  6  1  0
  6  7  1  0
  7  8  1  0
  8  9  1  0
  9 10  1  0
 10 11  1  0
 11 12  2  0
 12 13  1  0
 13 14  2  0
 14 15  1  0
 15 16  2  0
 16 17  1  0
 17 18  2  0
 18 19  1  0
 19 20  2  0
 20 21  1  0
 21 22  2  0
 22 23  1  0
 23 24  2  0
 24 25  1  0
 25 26  2  0
 26 27  1  0
 27 28  2  0
 28 29  1  0
 29 30  2  0
 30 31  1  0
 31 32  2  0
 32 33  1  0
 33 34  2  0
 34 35  1  0
 35 36  2  0
 36 37  1  0
 37 38  2  0
 38 39  1  0
 39 40  2  0
 40 41  1  0
 41 42  2  0
 42 43  1  0
 43 44  2  0
 44 45  1  0
 45 46  2  0
 46 47  1  0
 47 48  2  0
 48 49  1  0
 49 50  2  0
 50 51  1  0
 51 52  2  0
 52 53  1  0
 53 54  2  0
 54 55  1  0
 55 56  2  0
 56 57  1  0
 57 58  2  0
 58  2  1  0
 10  6  1  0
 16 11  1  0
 22 17  1  0
 28 23  1  0
 34 29  1  0
 40 35  1  0
 46 41  1  0
 52 47  1  0
 58 53  1  0
M  END
>  <Title>  (500) 
idAARHgen9

$$$$

     RDKit          2D

 70 80  0  0  0  0  0  0  0  0999 V2000
    5.2500   14.2894    0.0000 C   0  0  0  0  0  0  0  0  0  0  0  0
    6.0000   12.9904    0.0000 C   0  0  0  0  0  0  0  0  0  0  0  0
    7.5000   12.9904    0.0000 C   0  0  0  0  0  0  0  0  0  0  0  0
    8.2500   11.6913    0.0000 C   0  0  0  0  0  0  0  0  0  0  0  0
    7.5000   10.3923    0.0000 C   0  0  0  0  0  0  0  0  0  0  0  0
    6.0000   10.3923    0.0000 C   0  0  0  0  0  0  0  0  0  0  0  0
    5.2500   11.6913    0.0000 C   0  0  0  0  0  0  0  0  0  0  0  0
    3.7500   11.6913    0.0000 C   0  0  0  0  0  0  0  0  0  0  0  0
    3.0000   12.9904    0.0000 C   0  0  0  0  0  0  0  0  0  0  0  0
    1.5000   12.9904    0.0000 C   0  0  0  0  0  0  0  0  0  0  0  0
    0.7500   11.6913    0.0000 C   0  0  0  0  0  0  0  0  0  0  0  0
    1.5000   10.3923    0.0000 C   0  0  0  0  0  0  0  0  0  0  0  0
    3.0000   10.3923    0.0000 C   0  0  0  0  0  0  0  0  0  0  0  0
    3.7500    9.0933    0.0000 C   0  0  0  0  0  0  0  0  0  0  0  0
    5.2500    9.0933    0.0000 C   0  0  0  0  0  0  0  0  0  0  0  0
    6.0000    7.7942    0.0000 C   0  0  0  0  0  0  0  0  0  0  0  0
    5.2500    6.4952    0.0000 C   0  0  0  0  0  0  0  0  0  0  0  0
    3.7500    6.4952    0.0000 C   0  0  0  0  0  0  0  0  0  0  0  0
    3.0000    7.7942    0.0000 C   0  0  0  0  0  0  0  0  0  0  0  0
    1.5000    7.7942    0.0000 C   0  0  0  0  0  0  0  0  0  0  0  0
    0.7500    9.0933    0.0000 C   0  0  0  0  0  0  0  0  0  0  0  0
   -0.7500    9.0933    0.0000 C   0  0  0  0  0  0  0  0  0  0  0  0
   -1.5000    7.7942    0.0000 C   0  0  0  0  0  0  0  0  0  0  0  0
   -0.7500    6.4952    0.0000 C   0  0  0  0  0  0  0  0  0  0  0  0
    0.7500    6.4952    0.0000 C   0  0  0  0  0  0  0  0  0  0  0  0
    1.5000    5.1962    0.0000 C   0  0  0  0  0  0  0  0  0  0  0  0
    3.0000    5.1962    0.0000 C   0  0  0  0  0  0  0  0  0  0  0  0
    3.7500    3.8971    0.0000 C   0  0  0  0  0  0  0  0  0  0  0  0
    3.0000    2.5981    0.0000 C   0  0  0  0  0  0  0  0  0  0  0  0
    1.5000    2.5981    0.0000 C   0  0  0  0  0  0  0  0  0  0  0  0
    0.7500    3.8971    0.0000 C   0  0  0  0  0  0  0  0  0  0  0  0
   -0.7500    3.8971    0.0000 C   0  0  0  0  0  0  0  0  0  0  0  0
   -1.5000    5.1962    0.0000 C   0  0  0  0  0  0  0  0  0  0  0  0
   -3.0000    5.1962    0.0000 C   0  0  0  0  0  0  0  0  0  0  0  0
   -3.7500    3.8971    0.0000 C   0  0  0  0  0  0  0  0  0  0  0  0
   -3.0000    2.5981    0.0000 C   0  0  0  0  0  0  0  0  0  0  0  0
   -1.5000    2.5981    0.0000 C   0  0  0  0  0  0  0  0  0  0  0  0
   -0.7500    1.2990    0.0000 C   0  0  0  0  0  0  0  0  0  0  0  0
    0.7500    1.2990    0.0000 C   0  0  0  0  0  0  0  0  0  0  0  0
    1.5000   -0.0000    0.0000 C   0  0  0  0  0  0  0  0  0  0  0  0
    0.7500   -1.2990    0.0000 C   0  0  0  0  0  0  0  0  0  0  0  0
   -0.7500   -1.2990    0.0000 C   0  0  0  0  0  0  0  0  0  0  0  0
   -1.5000    0.0000    0.0000 C   0  0  0  0  0  0  0  0  0  0  0  0
   -3.0000    0.0000    0.0000 C   0  0  0  0  0  0  0  0  0  0  0  0
   -3.7500    1.2990    0.0000 C   0  0  0  0  0  0  0  0  0  0  0  0
   -5.2500    1.2990    0.0000 C   0  0  0  0  0  0  0  0  0  0  0  0
   -6.0000    0.0000    0.0000 C   0  0  0  0  0  0  0  0  0  0  0  0
   -5.2500   -1.2990    0.0000 C   0  0  0  0  0  0  0  0  0  0  0  0
   -3.7500   -1.2990    0.0000 C   0  0  0  0  0  0  0  0  0  0  0  0
   -3.0000   -2.5981    0.0000 C   0  0  0  0  0  0  0  0  0  0  0  0
   -1.5000   -2.5981    0.0000 C   0  0  0  0  0  0  0  0  0  0  0  0
   -0.7500   -3.8971    0.0000 C   0  0  0  0  0  0  0  0  0  0  0  0
    0.7500   -3.8971    0.0000 C   0  0  0  0  0  0  0  0  0  0  0  0
    2.2500   -3.8971    0.0000 N   0  0  0  0  0  0  0  0  0  0  0  0
   -1.5000   -5.1962    0.0000 C   0  0  0  0  0  0  0  0  0  0  0  0
   -3.0000   -5.1962    0.0000 C   0  0  0  0  0  0  0  0  0  0  0  0
   -3.7500   -3.8971    0.0000 C   0  0  0  0  0  0  0  0  0  0  0  0
   -5.2500   -3.8971    0.0000 C   0  0  0  0  0  0  0  0  0  0  0  0
   -6.0000   -2.5981    0.0000 C   0  0  0  0  0  0  0  0  0  0  0  0
   -7.5000   -2.5981    0.0000 C   0  0  0  0  0  0  0  0  0  0  0  0
   -8.2500   -3.8971    0.0000 C   0  0  0  0  0  0  0  0  0  0  0  0
   -7.5000   -5.1962    0.0000 C   0  0  0  0  0  0  0  0  0  0  0  0
   -6.0000   -5.1962    0.0000 C   0  0  0  0  0  0  0  0  0  0  0  0
   -5.2500   -6.4952    0.0000 C   0  0  0  0  0  0  0  0  0  0  0  0
   -3.7500   -6.4952    0.0000 C   0  0  0  0  0  0  0  0  0  0  0  0
   -3.0000   -7.7942    0.0000 C   0  0  0  0  0  0  0  0  0  0  0  0
   -3.7500   -9.0933    0.0000 C   0  0  0  0  0  0  0  0  0  0  0  0
   -5.2500   -9.0933    0.0000 C   0  0  0  0  0  0  0  0  0  0  0  0
   -6.0000   -7.7942    0.0000 C   0  0  0  0  0  0  0  0  0  0  0  0
   -7.5000   -7.7942    0.0000 C   0  0  0  0  0  0  0  0  0  0  0  0
  1  2  1  0
  2  3  2  0
  3  4  1  0
  4  5  2  0
  5  6  1  0
  6  7  2  0
  7  8  1  0
  8  9  2  0
  9 10  1  0
 10 11  2  0
 11 12  1  0
 12 13  2  0
 13 14  1  0
 14 15  2  0
 15 16  1  0
 16 17  2  0
 17 18  1  0
 18 19  2  0
 19 20  1  0
 20 21  2  0
 21 22  1  0
 22 23  2  0
 23 24  1  0
 24 25  2  0
 25 26  1  0
 26 27  2  0
 27 28  1  0
 28 29  2  0
 29 30  1  0
 30 31  2  0
 31 32  1  0
 32 33  2  0
 33 34  1  0
 34 35  2  0
 35 36  1  0
 36 37  2  0
 37 38  1  0
 38 39  2  0
 39 40  1  0
 40 41  2  0
 41 42  1  0
 42 43  2  0
 43 44  1  0
 44 45  2  0
 45 46  1  0
 46 47  2  0
 47 48  1  0
 48 49  2  0
 49 50  1  0
 50 51  2  0
 51 52  1  0
 52 53  1  0
 53 54  3  0
 52 55  2  0
 55 56  1  0
 56 57  2  0
 57 58  1  0
 58 59  2  0
 59 60  1  0
 60 61  2  0
 61 62  1  0
 62 63  2  0
 63 64  1  0
 64 65  2  0
 65 66  1  0
 66 67  2  0
 67 68  1  0
 68 69  2  0
 69 70  1  0
  7  2  1  0
 13  8  1  0
 19 14  1  0
 25 20  1  0
 31 26  1  0
 37 32  1  0
 43 38  1  0
 49 44  1  0
 57 50  1  0
 63 58  1  0
 69 64  1  0
M  END
>  <Title>  (501) 
idAARIgen9

$$$$

     RDKit          2D

  8  7  0  0  0  0  0  0  0  0999 V2000
    0.0000    0.0000    0.0000 C   0  0  0  0  0  0  0  0  0  0  0  0
    1.2990    0.7500    0.0000 C   0  0  0  0  0  0  0  0  0  0  0  0
    2.5981   -0.0000    0.0000 C   0  0  0  0  0  0  0  0  0  0  0  0
    3.8971    0.7500    0.0000 C   0  0  0  0  0  0  0  0  0  0  0  0
    5.1962   -0.0000    0.0000 C   0  0  0  0  0  0  0  0  0  0  0  0
    6.4952    0.7500    0.0000 C   0  0  0  0  0  0  0  0  0  0  0  0
    3.8971    2.2500    0.0000 C   0  0  0  0  0  0  0  0  0  0  0  0
    5.1962    3.0000    0.0000 C   0  0  0  0  0  0  0  0  0  0  0  0
  1  2  1  0
  2  3  2  3
  3  4  1  0
  4  5  1  0
  5  6  1  0
  4  7  1  0
  7  8  1  0
M  END
>  <Title>  (502) 
idAARJgen9

$$$$

     RDKit          2D

  8  8  0  0  0  0  0  0  0  0999 V2000
    4.5000    0.0000    0.0000 C   0  0  0  0  0  0  0  0  0  0  0  0
    3.0000    0.0000    0.0000 C   0  0  0  0  0  0  0  0  0  0  0  0
    1.5000    0.0000    0.0000 C   0  0  0  0  0  0  0  0  0  0  0  0
    0.7500   -1.2990    0.0000 C   0  0  0  0  0  0  0  0  0  0  0  0
   -0.7500   -1.2990    0.0000 C   0  0  0  0  0  0  0  0  0  0  0  0
   -1.5000    0.0000    0.0000 C   0  0  0  0  0  0  0  0  0  0  0  0
   -0.7500    1.2990    0.0000 C   0  0  0  0  0  0  0  0  0  0  0  0
    0.7500    1.2990    0.0000 C   0  0  0  0  0  0  0  0  0  0  0  0
  1  2  3  0
  2  3  1  0
  3  4  2  0
  4  5  1  0
  5  6  1  0
  6  7  1  0
  7  8  2  0
  8  3  1  0
M  END
>  <Title>  (503) 
idAARKgen9

$$$$

     RDKit          2D

122122  0  0  0  0  0  0  0  0999 V2000
   30.3899    0.0000    0.0000 C   0  0  0  0  0  0  0  0  0  0  0  0
   28.8899    0.0000    0.0000 C   0  0  0  0  0  0  0  0  0  0  0  0
   28.8509    1.4995    0.0000 C   0  0  0  0  0  0  0  0  0  0  0  0
   28.7342    2.9949    0.0000 C   0  0  0  0  0  0  0  0  0  0  0  0
   28.5400    4.4823    0.0000 C   0  0  0  0  0  0  0  0  0  0  0  0
   28.2689    5.9576    0.0000 C   0  0  0  0  0  0  0  0  0  0  0  0
   27.9216    7.4169    0.0000 C   0  0  0  0  0  0  0  0  0  0  0  0
   27.4990    8.8561    0.0000 C   0  0  0  0  0  0  0  0  0  0  0  0
   27.0023   10.2715    0.0000 C   0  0  0  0  0  0  0  0  0  0  0  0
   26.4327   11.6591    0.0000 C   0  0  0  0  0  0  0  0  0  0  0  0
   25.7919   13.0154    0.0000 C   0  0  0  0  0  0  0  0  0  0  0  0
   25.0816   14.3365    0.0000 C   0  0  0  0  0  0  0  0  0  0  0  0
   24.3037   15.6190    0.0000 C   0  0  0  0  0  0  0  0  0  0  0  0
   23.4603   16.8594    0.0000 C   0  0  0  0  0  0  0  0  0  0  0  0
   22.5536   18.0544    0.0000 C   0  0  0  0  0  0  0  0  0  0  0  0
   21.5861   19.2007    0.0000 C   0  0  0  0  0  0  0  0  0  0  0  0
   20.5604   20.2952    0.0000 C   0  0  0  0  0  0  0  0  0  0  0  0
   19.4793   21.3350    0.0000 C   0  0  0  0  0  0  0  0  0  0  0  0
   18.3457   22.3173    0.0000 C   0  0  0  0  0  0  0  0  0  0  0  0
   17.1626   23.2394    0.0000 C   0  0  0  0  0  0  0  0  0  0  0  0
   15.9332   24.0989    0.0000 C   0  0  0  0  0  0  0  0  0  0  0  0
   14.6609   24.8934    0.0000 C   0  0  0  0  0  0  0  0  0  0  0  0
   13.3491   25.6208    0.0000 C   0  0  0  0  0  0  0  0  0  0  0  0
   12.0013   26.2791    0.0000 C   0  0  0  0  0  0  0  0  0  0  0  0
   10.6211   26.8666    0.0000 C   0  0  0  0  0  0  0  0  0  0  0  0
    9.2123   27.3817    0.0000 C   0  0  0  0  0  0  0  0  0  0  0  0
    7.7787   27.8229    0.0000 C   0  0  0  0  0  0  0  0  0  0  0  0
    6.3241   28.1892    0.0000 C   0  0  0  0  0  0  0  0  0  0  0  0
    4.8524   28.4794    0.0000 C   0  0  0  0  0  0  0  0  0  0  0  0
    3.3677   28.6929    0.0000 C   0  0  0  0  0  0  0  0  0  0  0  0
    1.8739   28.8290    0.0000 C   0  0  0  0  0  0  0  0  0  0  0  0
    0.3750   28.8874    0.0000 C   0  0  0  0  0  0  0  0  0  0  0  0
   -1.1248   28.8680    0.0000 C   0  0  0  0  0  0  0  0  0  0  0  0
   -2.6217   28.7707    0.0000 C   0  0  0  0  0  0  0  0  0  0  0  0
   -4.1115   28.5958    0.0000 C   0  0  0  0  0  0  0  0  0  0  0  0
   -5.5901   28.3439    0.0000 C   0  0  0  0  0  0  0  0  0  0  0  0
   -7.0538   28.0155    0.0000 C   0  0  0  0  0  0  0  0  0  0  0  0
   -8.4984   27.6116    0.0000 C   0  0  0  0  0  0  0  0  0  0  0  0
   -9.9201   27.1333    0.0000 C   0  0  0  0  0  0  0  0  0  0  0  0
  -11.3150   26.5819    0.0000 C   0  0  0  0  0  0  0  0  0  0  0  0
  -12.6795   25.9587    0.0000 C   0  0  0  0  0  0  0  0  0  0  0  0
  -14.0097   25.2656    0.0000 C   0  0  0  0  0  0  0  0  0  0  0  0
  -15.3022   24.5044    0.0000 C   0  0  0  0  0  0  0  0  0  0  0  0
  -16.5535   23.6771    0.0000 C   0  0  0  0  0  0  0  0  0  0  0  0
  -17.7601   22.7860    0.0000 C   0  0  0  0  0  0  0  0  0  0  0  0
  -18.9188   21.8335    0.0000 C   0  0  0  0  0  0  0  0  0  0  0  0
  -20.0266   20.8221    0.0000 C   0  0  0  0  0  0  0  0  0  0  0  0
  -21.0803   19.7546    0.0000 C   0  0  0  0  0  0  0  0  0  0  0  0
  -22.0773   18.6338    0.0000 C   0  0  0  0  0  0  0  0  0  0  0  0
  -23.0147   17.4628    0.0000 C   0  0  0  0  0  0  0  0  0  0  0  0
  -23.8900   16.2447    0.0000 C   0  0  0  0  0  0  0  0  0  0  0  0
  -24.7010   14.9828    0.0000 C   0  0  0  0  0  0  0  0  0  0  0  0
  -25.4454   13.6806    0.0000 C   0  0  0  0  0  0  0  0  0  0  0  0
  -26.1211   12.3414    0.0000 C   0  0  0  0  0  0  0  0  0  0  0  0
  -26.7265   10.9690    0.0000 C   0  0  0  0  0  0  0  0  0  0  0  0
  -27.2598    9.5670    0.0000 C   0  0  0  0  0  0  0  0  0  0  0  0
  -27.7196    8.1392    0.0000 C   0  0  0  0  0  0  0  0  0  0  0  0
  -28.1047    6.6895    0.0000 C   0  0  0  0  0  0  0  0  0  0  0  0
  -28.4140    5.2217    0.0000 C   0  0  0  0  0  0  0  0  0  0  0  0
  -28.6468    3.7399    0.0000 C   0  0  0  0  0  0  0  0  0  0  0  0
  -28.8023    2.2480    0.0000 C   0  0  0  0  0  0  0  0  0  0  0  0
  -28.8801    0.7500    0.0000 C   0  0  0  0  0  0  0  0  0  0  0  0
  -28.8801   -0.7500    0.0000 C   0  0  0  0  0  0  0  0  0  0  0  0
  -28.8023   -2.2480    0.0000 C   0  0  0  0  0  0  0  0  0  0  0  0
  -28.6468   -3.7399    0.0000 C   0  0  0  0  0  0  0  0  0  0  0  0
  -28.4140   -5.2217    0.0000 C   0  0  0  0  0  0  0  0  0  0  0  0
  -28.1047   -6.6895    0.0000 C   0  0  0  0  0  0  0  0  0  0  0  0
  -27.7196   -8.1392    0.0000 C   0  0  0  0  0  0  0  0  0  0  0  0
  -27.2598   -9.5670    0.0000 C   0  0  0  0  0  0  0  0  0  0  0  0
  -26.7265  -10.9690    0.0000 C   0  0  0  0  0  0  0  0  0  0  0  0
  -26.1211  -12.3414    0.0000 C   0  0  0  0  0  0  0  0  0  0  0  0
  -25.4454  -13.6806    0.0000 C   0  0  0  0  0  0  0  0  0  0  0  0
  -24.7010  -14.9828    0.0000 C   0  0  0  0  0  0  0  0  0  0  0  0
  -23.8900  -16.2447    0.0000 C   0  0  0  0  0  0  0  0  0  0  0  0
  -23.0147  -17.4628    0.0000 C   0  0  0  0  0  0  0  0  0  0  0  0
  -22.0773  -18.6338    0.0000 C   0  0  0  0  0  0  0  0  0  0  0  0
  -21.0803  -19.7546    0.0000 C   0  0  0  0  0  0  0  0  0  0  0  0
  -20.0266  -20.8221    0.0000 C   0  0  0  0  0  0  0  0  0  0  0  0
  -18.9188  -21.8335    0.0000 C   0  0  0  0  0  0  0  0  0  0  0  0
  -17.7601  -22.7860    0.0000 C   0  0  0  0  0  0  0  0  0  0  0  0
  -16.5535  -23.6771    0.0000 C   0  0  0  0  0  0  0  0  0  0  0  0
  -15.3022  -24.5044    0.0000 C   0  0  0  0  0  0  0  0  0  0  0  0
  -14.0097  -25.2656    0.0000 C   0  0  0  0  0  0  0  0  0  0  0  0
  -12.6795  -25.9587    0.0000 C   0  0  0  0  0  0  0  0  0  0  0  0
  -11.3150  -26.5819    0.0000 C   0  0  0  0  0  0  0  0  0  0  0  0
   -9.9201  -27.1333    0.0000 C   0  0  0  0  0  0  0  0  0  0  0  0
   -8.4984  -27.6116    0.0000 C   0  0  0  0  0  0  0  0  0  0  0  0
   -7.0538  -28.0155    0.0000 C   0  0  0  0  0  0  0  0  0  0  0  0
   -5.5901  -28.3439    0.0000 C   0  0  0  0  0  0  0  0  0  0  0  0
   -4.1115  -28.5958    0.0000 C   0  0  0  0  0  0  0  0  0  0  0  0
   -2.6217  -28.7707    0.0000 C   0  0  0  0  0  0  0  0  0  0  0  0
   -1.1248  -28.8680    0.0000 C   0  0  0  0  0  0  0  0  0  0  0  0
    0.3750  -28.8874    0.0000 C   0  0  0  0  0  0  0  0  0  0  0  0
    1.8739  -28.8290    0.0000 C   0  0  0  0  0  0  0  0  0  0  0  0
    3.3677  -28.6929    0.0000 C   0  0  0  0  0  0  0  0  0  0  0  0
    4.8524  -28.4794    0.0000 C   0  0  0  0  0  0  0  0  0  0  0  0
    6.3241  -28.1892    0.0000 C   0  0  0  0  0  0  0  0  0  0  0  0
    7.7787  -27.8229    0.0000 C   0  0  0  0  0  0  0  0  0  0  0  0
    9.2123  -27.3817    0.0000 C   0  0  0  0  0  0  0  0  0  0  0  0
   10.6211  -26.8666    0.0000 C   0  0  0  0  0  0  0  0  0  0  0  0
   12.0013  -26.2791    0.0000 C   0  0  0  0  0  0  0  0  0  0  0  0
   13.3491  -25.6208    0.0000 C   0  0  0  0  0  0  0  0  0  0  0  0
   14.6609  -24.8934    0.0000 C   0  0  0  0  0  0  0  0  0  0  0  0
   15.9332  -24.0989    0.0000 C   0  0  0  0  0  0  0  0  0  0  0  0
   17.1626  -23.2394    0.0000 C   0  0  0  0  0  0  0  0  0  0  0  0
   18.3457  -22.3173    0.0000 C   0  0  0  0  0  0  0  0  0  0  0  0
   19.4793  -21.3350    0.0000 C   0  0  0  0  0  0  0  0  0  0  0  0
   20.5604  -20.2952    0.0000 C   0  0  0  0  0  0  0  0  0  0  0  0
   21.5861  -19.2007    0.0000 C   0  0  0  0  0  0  0  0  0  0  0  0
   22.5536  -18.0544    0.0000 C   0  0  0  0  0  0  0  0  0  0  0  0
   23.4603  -16.8594    0.0000 C   0  0  0  0  0  0  0  0  0  0  0  0
   24.3037  -15.6190    0.0000 C   0  0  0  0  0  0  0  0  0  0  0  0
   25.0816  -14.3365    0.0000 C   0  0  0  0  0  0  0  0  0  0  0  0
   25.7919  -13.0154    0.0000 C   0  0  0  0  0  0  0  0  0  0  0  0
   26.4327  -11.6591    0.0000 C   0  0  0  0  0  0  0  0  0  0  0  0
   27.0023  -10.2715    0.0000 C   0  0  0  0  0  0  0  0  0  0  0  0
   27.4990   -8.8561    0.0000 C   0  0  0  0  0  0  0  0  0  0  0  0
   27.9216   -7.4169    0.0000 C   0  0  0  0  0  0  0  0  0  0  0  0
   28.2689   -5.9576    0.0000 C   0  0  0  0  0  0  0  0  0  0  0  0
   28.5400   -4.4823    0.0000 C   0  0  0  0  0  0  0  0  0  0  0  0
   28.7342   -2.9949    0.0000 C   0  0  0  0  0  0  0  0  0  0  0  0
   28.8509   -1.4995    0.0000 C   0  0  0  0  0  0  0  0  0  0  0  0
  1  2  1  0
  2  3  1  0
  3  4  2  0
  4  5  1  0
  5  6  2  0
  6  7  1  0
  7  8  2  0
  8  9  1  0
  9 10  2  0
 10 11  1  0
 11 12  1  0
 12 13  1  0
 13 14  1  0
 14 15  1  0
 15 16  1  0
 16 17  1  0
 17 18  1  0
 18 19  1  0
 19 20  1  0
 20 21  1  0
 21 22  1  0
 22 23  1  0
 23 24  1  0
 24 25  1  0
 25 26  1  0
 26 27  1  0
 27 28  1  0
 28 29  1  0
 29 30  1  0
 30 31  1  0
 31 32  1  0
 32 33  1  0
 33 34  1  0
 34 35  1  0
 35 36  1  0
 36 37  1  0
 37 38  1  0
 38 39  1  0
 39 40  1  0
 40 41  1  0
 41 42  1  0
 42 43  1  0
 43 44  1  0
 44 45  1  0
 45 46  1  0
 46 47  1  0
 47 48  1  0
 48 49  1  0
 49 50  1  0
 50 51  1  0
 51 52  1  0
 52 53  1  0
 53 54  1  0
 54 55  1  0
 55 56  1  0
 56 57  1  0
 57 58  1  0
 58 59  1  0
 59 60  1  0
 60 61  1  0
 61 62  1  0
 62 63  1  0
 63 64  1  0
 64 65  1  0
 65 66  1  0
 66 67  1  0
 67 68  1  0
 68 69  1  0
 69 70  1  0
 70 71  1  0
 71 72  1  0
 72 73  1  0
 73 74  1  0
 74 75  1  0
 75 76  1  0
 76 77  1  0
 77 78  1  0
 78 79  1  0
 79 80  1  0
 80 81  1  0
 81 82  1  0
 82 83  1  0
 83 84  1  0
 84 85  1  0
 85 86  1  0
 86 87  1  0
 87 88  1  0
 88 89  1  0
 89 90  1  0
 90 91  1  0
 91 92  1  0
 92 93  1  0
 93 94  1  0
 94 95  1  0
 95 96  1  0
 96 97  1  0
 97 98  1  0
 98 99  1  0
 99100  1  0
100101  1  0
101102  1  0
102103  1  0
103104  1  0
104105  1  0
105106  1  0
106107  1  0
107108  1  0
108109  1  0
109110  1  0
110111  1  0
111112  1  0
112113  1  0
113114  1  0
114115  1  0
115116  1  0
116117  1  0
117118  1  0
118119  1  0
119120  1  0
120121  1  0
121122  1  0
122  2  1  0
M  END
>  <Title>  (504) 
idAARLgen9

$$$$

     RDKit          2D

 23 24  0  0  0  0  0  0  0  0999 V2000
   10.0607  -20.0237    0.0000 C   0  0  0  0  0  0  0  0  0  0  0  0
    9.3107  -18.7246    0.0000 C   0  0  0  0  0  0  0  0  0  0  0  0
    8.5607  -17.4256    0.0000 C   0  0  0  0  0  0  0  0  0  0  0  0
    7.8107  -16.1265    0.0000 C   0  0  0  0  0  0  0  0  0  0  0  0
    7.0607  -14.8275    0.0000 C   0  0  0  0  0  0  0  0  0  0  0  0
    6.3107  -13.5285    0.0000 C   0  0  0  0  0  0  0  0  0  0  0  0
    5.5607  -12.2294    0.0000 C   0  0  0  0  0  0  0  0  0  0  0  0
    4.8107  -10.9304    0.0000 C   0  0  0  0  0  0  0  0  0  0  0  0
    4.0607   -9.6313    0.0000 C   0  0  0  0  0  0  0  0  0  0  0  0
    3.3107   -8.3323    0.0000 C   0  0  0  0  0  0  0  0  0  0  0  0
    2.5607   -7.0333    0.0000 C   0  0  0  0  0  0  0  0  0  0  0  0
    1.1118   -6.6450    0.0000 C   0  0  0  0  0  0  0  0  0  0  0  0
    1.5000   -5.1962    0.0000 C   0  0  0  0  0  0  0  0  0  0  0  0
    0.7500   -3.8971    0.0000 C   0  0  0  0  0  0  0  0  0  0  0  0
   -0.7500   -3.8971    0.0000 O   0  0  0  0  0  0  0  0  0  0  0  0
    1.5000   -2.5981    0.0000 N   0  0  0  0  0  0  0  0  0  0  0  0
    0.7500   -1.2990    0.0000 C   0  0  0  0  0  0  0  0  0  0  0  0
    1.5000    0.0000    0.0000 N   0  0  0  0  0  0  0  0  0  0  0  0
    0.7500    1.2990    0.0000 N   0  0  0  0  0  0  0  0  0  0  0  0
   -0.7500    1.2990    0.0000 N   0  0  0  0  0  0  0  0  0  0  0  0
   -1.5000    0.0000    0.0000 N   0  0  0  0  0  0  0  0  0  0  0  0
   -0.7500   -1.2990    0.0000 N   0  0  0  0  0  0  0  0  0  0  0  0
    2.9489   -5.5844    0.0000 C   0  0  0  0  0  0  0  0  0  0  0  0
  1  2  3  0
  2  3  1  0
  3  4  3  0
  4  5  1  0
  5  6  3  0
  6  7  1  0
  7  8  3  0
  8  9  1  0
  9 10  3  0
 10 11  1  0
 11 12  2  0
 12 13  1  0
 13 14  1  0
 14 15  2  0
 14 16  1  0
 16 17  1  0
 17 18  2  0
 18 19  1  0
 19 20  2  0
 20 21  1  0
 21 22  2  0
 13 23  1  0
 23 11  1  0
 22 17  1  0
M  END
>  <Title>  (505) 
idAARMgen9

$$$$

     RDKit          2D

  9  9  0  0  0  0  0  0  0  0999 V2000
    7.2760   -0.0000    0.0000 C   0  0  0  0  0  0  0  0  0  0  0  0
    5.7760   -0.0000    0.0000 C   0  0  0  0  0  0  0  0  0  0  0  0
    4.2760   -0.0000    0.0000 C   0  0  0  0  0  0  0  0  0  0  0  0
    2.7760    0.0000    0.0000 C   0  0  0  0  0  0  0  0  0  0  0  0
    1.2760    0.0000    0.0000 C   0  0  0  0  0  0  0  0  0  0  0  0
    0.3943    1.2135    0.0000 C   0  0  0  0  0  0  0  0  0  0  0  0
   -1.0323    0.7500    0.0000 C   0  0  0  0  0  0  0  0  0  0  0  0
   -1.0323   -0.7500    0.0000 C   0  0  0  0  0  0  0  0  0  0  0  0
    0.3943   -1.2135    0.0000 C   0  0  0  0  0  0  0  0  0  0  0  0
  1  2  3  0
  2  3  1  0
  3  4  3  0
  4  5  1  0
  5  6  2  0
  6  7  1  0
  7  8  2  0
  8  9  1  0
  9  5  1  0
M  END
>  <Title>  (506) 
idAARNgen9

$$$$

     RDKit          2D

 15 15  0  0  0  0  0  0  0  0999 V2000
   16.2760   -0.0000    0.0000 C   0  0  0  0  0  0  0  0  0  0  0  0
   14.7760   -0.0000    0.0000 C   0  0  0  0  0  0  0  0  0  0  0  0
   13.2760   -0.0000    0.0000 C   0  0  0  0  0  0  0  0  0  0  0  0
   11.7760   -0.0000    0.0000 C   0  0  0  0  0  0  0  0  0  0  0  0
   10.2760   -0.0000    0.0000 C   0  0  0  0  0  0  0  0  0  0  0  0
    8.7760   -0.0000    0.0000 C   0  0  0  0  0  0  0  0  0  0  0  0
    7.2760   -0.0000    0.0000 C   0  0  0  0  0  0  0  0  0  0  0  0
    5.7760   -0.0000    0.0000 C   0  0  0  0  0  0  0  0  0  0  0  0
    4.2760   -0.0000    0.0000 C   0  0  0  0  0  0  0  0  0  0  0  0
    2.7760    0.0000    0.0000 C   0  0  0  0  0  0  0  0  0  0  0  0
    1.2760    0.0000    0.0000 C   0  0  0  0  0  0  0  0  0  0  0  0
    0.3943    1.2135    0.0000 C   0  0  0  0  0  0  0  0  0  0  0  0
   -1.0323    0.7500    0.0000 C   0  0  0  0  0  0  0  0  0  0  0  0
   -1.0323   -0.7500    0.0000 C   0  0  0  0  0  0  0  0  0  0  0  0
    0.3943   -1.2135    0.0000 C   0  0  0  0  0  0  0  0  0  0  0  0
  1  2  3  0
  2  3  1  0
  3  4  3  0
  4  5  1  0
  5  6  3  0
  6  7  1  0
  7  8  3  0
  8  9  1  0
  9 10  3  0
 10 11  1  0
 11 12  2  0
 12 13  1  0
 13 14  2  0
 14 15  1  0
 15 11  1  0
M  END
>  <Title>  (507) 
idAAROgen9

$$$$

     RDKit          2D

  8  8  0  0  0  0  0  0  0  0999 V2000
    3.0000    0.0000    0.0000 C   0  0  0  0  0  0  0  0  0  0  0  0
    1.5000    0.0000    0.0000 C   0  0  0  0  0  0  0  0  0  0  0  0
    0.7500   -1.2990    0.0000 C   0  0  0  0  0  0  0  0  0  0  0  0
   -0.7500   -1.2990    0.0000 C   0  0  0  0  0  0  0  0  0  0  0  0
   -1.5000    0.0000    0.0000 C   0  0  0  0  0  0  0  0  0  0  0  0
   -3.0000    0.0000    0.0000 O   0  0  0  0  0  0  0  0  0  0  0  0
   -0.7500    1.2990    0.0000 C   0  0  0  0  0  0  0  0  0  0  0  0
    0.7500    1.2990    0.0000 C   0  0  0  0  0  0  0  0  0  0  0  0
  1  2  1  0
  2  3  2  0
  3  4  1  0
  4  5  2  0
  5  6  1  0
  5  7  1  0
  7  8  1  0
  8  2  1  0
M  END
>  <Title>  (508) 
idAARPgen9

$$$$

     RDKit          2D

 25 28  0  0  0  0  0  0  0  0999 V2000
   -0.0000   -6.0850    0.0000 C   0  0  0  0  0  0  0  0  0  0  0  0
   -0.0000   -4.5850    0.0000 C   0  0  0  0  0  0  0  0  0  0  0  0
    1.3515   -3.9342    0.0000 C   0  0  0  0  0  0  0  0  0  0  0  0
    1.6852   -2.4718    0.0000 C   0  0  0  0  0  0  0  0  0  0  0  0
    3.1476   -2.1380    0.0000 C   0  0  0  0  0  0  0  0  0  0  0  0
    3.5898   -0.7046    0.0000 O   0  0  0  0  0  0  0  0  0  0  0  0
    4.1679   -3.2376    0.0000 N   0  0  0  0  0  0  0  0  0  0  0  0
    5.6303   -2.9038    0.0000 C   0  0  0  0  0  0  0  0  0  0  0  0
    6.6505   -4.0034    0.0000 N   0  0  0  0  0  0  0  0  0  0  0  0
    8.1129   -3.6696    0.0000 N   0  0  0  0  0  0  0  0  0  0  0  0
    8.5551   -2.2362    0.0000 N   0  0  0  0  0  0  0  0  0  0  0  0
    7.5348   -1.1367    0.0000 N   0  0  0  0  0  0  0  0  0  0  0  0
    6.0724   -1.4704    0.0000 N   0  0  0  0  0  0  0  0  0  0  0  0
    0.7500   -1.2990    0.0000 C   0  0  0  0  0  0  0  0  0  0  0  0
    1.5000    0.0000    0.0000 C   0  0  0  0  0  0  0  0  0  0  0  0
    0.7500    1.2990    0.0000 C   0  0  0  0  0  0  0  0  0  0  0  0
   -0.7500    1.2990    0.0000 C   0  0  0  0  0  0  0  0  0  0  0  0
   -1.5000    0.0000    0.0000 C   0  0  0  0  0  0  0  0  0  0  0  0
   -0.7500   -1.2990    0.0000 C   0  0  0  0  0  0  0  0  0  0  0  0
   -1.6852   -2.4718    0.0000 C   0  0  0  0  0  0  0  0  0  0  0  0
   -3.1186   -2.0297    0.0000 C   0  0  0  0  0  0  0  0  0  0  0  0
   -4.2182   -3.0499    0.0000 C   0  0  0  0  0  0  0  0  0  0  0  0
   -3.8844   -4.5123    0.0000 C   0  0  0  0  0  0  0  0  0  0  0  0
   -2.4510   -4.9544    0.0000 C   0  0  0  0  0  0  0  0  0  0  0  0
   -1.3515   -3.9342    0.0000 C   0  0  0  0  0  0  0  0  0  0  0  0
  1  2  1  0
  2  3  2  0
  3  4  1  0
  4  5  1  0
  5  6  2  0
  5  7  1  0
  7  8  1  0
  8  9  2  0
  9 10  1  0
 10 11  2  0
 11 12  1  0
 12 13  2  0
  4 14  1  0
 14 15  2  0
 15 16  1  0
 16 17  2  0
 17 18  1  0
 18 19  2  0
 19 20  1  0
 20 21  2  0
 21 22  1  0
 22 23  2  0
 23 24  1  0
 24 25  2  0
 25  2  1  0
 13  8  1  0
 19 14  1  0
 25 20  1  0
M  END
>  <Title>  (509) 
idAARQgen9

$$$$

     RDKit          2D

 18 19  0  0  0  0  0  0  0  0999 V2000
    3.2286   -0.0000    0.0000 C   0  0  0  0  0  0  0  0  0  0  0  0
    1.7286    0.0000    0.0000 C   0  0  0  0  0  0  0  0  0  0  0  0
    1.0777    1.3515    0.0000 C   0  0  0  0  0  0  0  0  0  0  0  0
   -0.3846    1.6852    0.0000 C   0  0  0  0  0  0  0  0  0  0  0  0
   -1.5574    0.7500    0.0000 C   0  0  0  0  0  0  0  0  0  0  0  0
   -1.5574   -0.7500    0.0000 C   0  0  0  0  0  0  0  0  0  0  0  0
   -2.9088   -1.4008    0.0000 C   0  0  0  0  0  0  0  0  0  0  0  0
   -4.2603   -2.0517    0.0000 N   0  0  0  0  0  0  0  0  0  0  0  0
   -0.3846   -1.6852    0.0000 C   0  0  0  0  0  0  0  0  0  0  0  0
    1.0777   -1.3515    0.0000 C   0  0  0  0  0  0  0  0  0  0  0  0
    2.0130   -2.5242    0.0000 C   0  0  0  0  0  0  0  0  0  0  0  0
    3.4962   -2.3006    0.0000 O   0  0  0  0  0  0  0  0  0  0  0  0
    1.4650   -3.9205    0.0000 N   0  0  0  0  0  0  0  0  0  0  0  0
    2.4002   -5.0933    0.0000 C   0  0  0  0  0  0  0  0  0  0  0  0
    3.8987   -5.0260    0.0000 C   0  0  0  0  0  0  0  0  0  0  0  0
    4.4258   -6.4303    0.0000 C   0  0  0  0  0  0  0  0  0  0  0  0
    3.2530   -7.3655    0.0000 C   0  0  0  0  0  0  0  0  0  0  0  0
    2.0012   -6.5392    0.0000 C   0  0  0  0  0  0  0  0  0  0  0  0
  1  2  1  0
  2  3  2  0
  3  4  1  0
  4  5  1  0
  5  6  1  0
  6  7  1  0
  7  8  3  0
  6  9  1  0
  9 10  2  0
 10 11  1  0
 11 12  2  0
 11 13  1  0
 13 14  1  0
 14 15  2  0
 15 16  1  0
 16 17  2  0
 17 18  1  0
 10  2  1  0
 18 14  1  0
M  END
>  <Title>  (510) 
idAARRgen9

$$$$

     RDKit          2D

  9  9  0  0  0  0  0  0  0  0999 V2000
    2.7760   -2.5981    0.0000 O   0  0  0  0  0  0  0  0  0  0  0  0
    3.5260   -1.2990    0.0000 C   0  0  0  0  0  0  0  0  0  0  0  0
    5.0260   -1.2990    0.0000 O   0  0  0  0  0  0  0  0  0  0  0  0
    2.7760    0.0000    0.0000 O   0  0  0  0  0  0  0  0  0  0  0  0
    1.2760    0.0000    0.0000 C   0  0  0  0  0  0  0  0  0  0  0  0
    0.3943    1.2135    0.0000 C   0  0  0  0  0  0  0  0  0  0  0  0
   -1.0323    0.7500    0.0000 C   0  0  0  0  0  0  0  0  0  0  0  0
   -1.0323   -0.7500    0.0000 C   0  0  0  0  0  0  0  0  0  0  0  0
    0.3943   -1.2135    0.0000 C   0  0  0  0  0  0  0  0  0  0  0  0
  1  2  2  0
  2  3  1  0
  2  4  1  0
  4  5  1  0
  5  6  2  0
  6  7  1  0
  7  8  1  0
  8  9  1  0
  9  5  1  0
M  END
>  <Title>  (511) 
idAARSgen9

$$$$

     RDKit          2D

 15 16  0  0  0  0  0  0  0  0999 V2000
    1.8478   -9.0619    0.0000 C   0  0  0  0  0  0  0  0  0  0  0  0
    2.0046   -7.5702    0.0000 C   0  0  0  0  0  0  0  0  0  0  0  0
    3.3037   -6.8202    0.0000 C   0  0  0  0  0  0  0  0  0  0  0  0
    2.9918   -5.3529    0.0000 C   0  0  0  0  0  0  0  0  0  0  0  0
    1.5000   -5.1962    0.0000 C   0  0  0  0  0  0  0  0  0  0  0  0
    0.7500   -3.8971    0.0000 C   0  0  0  0  0  0  0  0  0  0  0  0
   -0.7500   -3.8971    0.0000 O   0  0  0  0  0  0  0  0  0  0  0  0
    1.5000   -2.5981    0.0000 N   0  0  0  0  0  0  0  0  0  0  0  0
    0.7500   -1.2990    0.0000 C   0  0  0  0  0  0  0  0  0  0  0  0
    1.5000    0.0000    0.0000 N   0  0  0  0  0  0  0  0  0  0  0  0
    0.7500    1.2990    0.0000 N   0  0  0  0  0  0  0  0  0  0  0  0
   -0.7500    1.2990    0.0000 N   0  0  0  0  0  0  0  0  0  0  0  0
   -1.5000    0.0000    0.0000 N   0  0  0  0  0  0  0  0  0  0  0  0
   -0.7500   -1.2990    0.0000 N   0  0  0  0  0  0  0  0  0  0  0  0
    0.8899   -6.5665    0.0000 C   0  0  0  0  0  0  0  0  0  0  0  0
  1  2  1  0
  2  3  1  0
  3  4  2  0
  4  5  1  0
  5  6  1  0
  6  7  2  0
  6  8  1  0
  8  9  1  0
  9 10  2  0
 10 11  1  0
 11 12  2  0
 12 13  1  0
 13 14  2  0
  5 15  1  0
 15  2  1  0
 14  9  1  0
M  END
>  <Title>  (512) 
idAARTgen9

$$$$

     RDKit          2D

108108  0  0  0  0  0  0  0  0999 V2000
   27.0480   -0.0000    0.0000 C   0  0  0  0  0  0  0  0  0  0  0  0
   25.5480    0.0000    0.0000 C   0  0  0  0  0  0  0  0  0  0  0  0
   25.5040    1.4994    0.0000 C   0  0  0  0  0  0  0  0  0  0  0  0
   25.3721    2.9935    0.0000 C   0  0  0  0  0  0  0  0  0  0  0  0
   25.1526    4.4774    0.0000 C   0  0  0  0  0  0  0  0  0  0  0  0
   24.8465    5.9458    0.0000 C   0  0  0  0  0  0  0  0  0  0  0  0
   24.4547    7.3938    0.0000 C   0  0  0  0  0  0  0  0  0  0  0  0
   23.9787    8.8162    0.0000 C   0  0  0  0  0  0  0  0  0  0  0  0
   23.4199   10.2083    0.0000 C   0  0  0  0  0  0  0  0  0  0  0  0
   22.7805   11.5651    0.0000 C   0  0  0  0  0  0  0  0  0  0  0  0
   22.0625   12.8821    0.0000 C   0  0  0  0  0  0  0  0  0  0  0  0
   21.2684   14.1547    0.0000 C   0  0  0  0  0  0  0  0  0  0  0  0
   20.4011   15.3785    0.0000 C   0  0  0  0  0  0  0  0  0  0  0  0
   19.4634   16.5493    0.0000 C   0  0  0  0  0  0  0  0  0  0  0  0
   18.4586   17.6630    0.0000 C   0  0  0  0  0  0  0  0  0  0  0  0
   17.3902   18.7159    0.0000 C   0  0  0  0  0  0  0  0  0  0  0  0
   16.2618   19.7042    0.0000 C   0  0  0  0  0  0  0  0  0  0  0  0
   15.0774   20.6246    0.0000 C   0  0  0  0  0  0  0  0  0  0  0  0
   13.8410   21.4739    0.0000 C   0  0  0  0  0  0  0  0  0  0  0  0
   12.5569   22.2492    0.0000 C   0  0  0  0  0  0  0  0  0  0  0  0
   11.2295   22.9478    0.0000 C   0  0  0  0  0  0  0  0  0  0  0  0
    9.8634   23.5673    0.0000 C   0  0  0  0  0  0  0  0  0  0  0  0
    8.4633   24.1055    0.0000 C   0  0  0  0  0  0  0  0  0  0  0  0
    7.0340   24.5606    0.0000 C   0  0  0  0  0  0  0  0  0  0  0  0
    5.5805   24.9311    0.0000 C   0  0  0  0  0  0  0  0  0  0  0  0
    4.1077   25.2157    0.0000 C   0  0  0  0  0  0  0  0  0  0  0  0
    2.6208   25.4133    0.0000 C   0  0  0  0  0  0  0  0  0  0  0  0
    1.1248   25.5233    0.0000 C   0  0  0  0  0  0  0  0  0  0  0  0
   -0.3750   25.5453    0.0000 C   0  0  0  0  0  0  0  0  0  0  0  0
   -1.8736   25.4792    0.0000 C   0  0  0  0  0  0  0  0  0  0  0  0
   -3.3657   25.3254    0.0000 C   0  0  0  0  0  0  0  0  0  0  0  0
   -4.8462   25.0842    0.0000 C   0  0  0  0  0  0  0  0  0  0  0  0
   -6.3099   24.7566    0.0000 C   0  0  0  0  0  0  0  0  0  0  0  0
   -7.7520   24.3436    0.0000 C   0  0  0  0  0  0  0  0  0  0  0  0
   -9.1673   23.8467    0.0000 C   0  0  0  0  0  0  0  0  0  0  0  0
  -10.5510   23.2676    0.0000 C   0  0  0  0  0  0  0  0  0  0  0  0
  -11.8983   22.6082    0.0000 C   0  0  0  0  0  0  0  0  0  0  0  0
  -13.2046   21.8710    0.0000 C   0  0  0  0  0  0  0  0  0  0  0  0
  -14.4654   21.0583    0.0000 C   0  0  0  0  0  0  0  0  0  0  0  0
  -15.6763   20.1731    0.0000 C   0  0  0  0  0  0  0  0  0  0  0  0
  -16.8332   19.2183    0.0000 C   0  0  0  0  0  0  0  0  0  0  0  0
  -17.9321   18.1973    0.0000 C   0  0  0  0  0  0  0  0  0  0  0  0
  -18.9692   17.1135    0.0000 C   0  0  0  0  0  0  0  0  0  0  0  0
  -19.9408   15.9708    0.0000 C   0  0  0  0  0  0  0  0  0  0  0  0
  -20.8437   14.7730    0.0000 C   0  0  0  0  0  0  0  0  0  0  0  0
  -21.6748   13.5243    0.0000 C   0  0  0  0  0  0  0  0  0  0  0  0
  -22.4311   12.2289    0.0000 C   0  0  0  0  0  0  0  0  0  0  0  0
  -23.1102   10.8914    0.0000 C   0  0  0  0  0  0  0  0  0  0  0  0
  -23.7095    9.5163    0.0000 C   0  0  0  0  0  0  0  0  0  0  0  0
  -24.2271    8.1085    0.0000 C   0  0  0  0  0  0  0  0  0  0  0  0
  -24.6613    6.6727    0.0000 C   0  0  0  0  0  0  0  0  0  0  0  0
  -25.0104    5.2139    0.0000 C   0  0  0  0  0  0  0  0  0  0  0  0
  -25.2732    3.7371    0.0000 C   0  0  0  0  0  0  0  0  0  0  0  0
  -25.4490    2.2474    0.0000 C   0  0  0  0  0  0  0  0  0  0  0  0
  -25.5370    0.7500    0.0000 C   0  0  0  0  0  0  0  0  0  0  0  0
  -25.5370   -0.7500    0.0000 C   0  0  0  0  0  0  0  0  0  0  0  0
  -25.4490   -2.2474    0.0000 C   0  0  0  0  0  0  0  0  0  0  0  0
  -25.2732   -3.7371    0.0000 C   0  0  0  0  0  0  0  0  0  0  0  0
  -25.0104   -5.2139    0.0000 C   0  0  0  0  0  0  0  0  0  0  0  0
  -24.6613   -6.6727    0.0000 C   0  0  0  0  0  0  0  0  0  0  0  0
  -24.2271   -8.1085    0.0000 C   0  0  0  0  0  0  0  0  0  0  0  0
  -23.7095   -9.5163    0.0000 C   0  0  0  0  0  0  0  0  0  0  0  0
  -23.1102  -10.8914    0.0000 C   0  0  0  0  0  0  0  0  0  0  0  0
  -22.4311  -12.2289    0.0000 C   0  0  0  0  0  0  0  0  0  0  0  0
  -21.6748  -13.5243    0.0000 C   0  0  0  0  0  0  0  0  0  0  0  0
  -20.8437  -14.7730    0.0000 C   0  0  0  0  0  0  0  0  0  0  0  0
  -19.9408  -15.9708    0.0000 C   0  0  0  0  0  0  0  0  0  0  0  0
  -18.9692  -17.1135    0.0000 C   0  0  0  0  0  0  0  0  0  0  0  0
  -17.9321  -18.1973    0.0000 C   0  0  0  0  0  0  0  0  0  0  0  0
  -16.8332  -19.2183    0.0000 C   0  0  0  0  0  0  0  0  0  0  0  0
  -15.6763  -20.1731    0.0000 C   0  0  0  0  0  0  0  0  0  0  0  0
  -14.4654  -21.0583    0.0000 C   0  0  0  0  0  0  0  0  0  0  0  0
  -13.2046  -21.8710    0.0000 C   0  0  0  0  0  0  0  0  0  0  0  0
  -11.8983  -22.6082    0.0000 C   0  0  0  0  0  0  0  0  0  0  0  0
  -10.5510  -23.2676    0.0000 C   0  0  0  0  0  0  0  0  0  0  0  0
   -9.1673  -23.8467    0.0000 C   0  0  0  0  0  0  0  0  0  0  0  0
   -7.7520  -24.3436    0.0000 C   0  0  0  0  0  0  0  0  0  0  0  0
   -6.3099  -24.7566    0.0000 C   0  0  0  0  0  0  0  0  0  0  0  0
   -4.8462  -25.0842    0.0000 C   0  0  0  0  0  0  0  0  0  0  0  0
   -3.3657  -25.3254    0.0000 C   0  0  0  0  0  0  0  0  0  0  0  0
   -1.8736  -25.4792    0.0000 C   0  0  0  0  0  0  0  0  0  0  0  0
   -0.3750  -25.5453    0.0000 C   0  0  0  0  0  0  0  0  0  0  0  0
    1.1248  -25.5233    0.0000 C   0  0  0  0  0  0  0  0  0  0  0  0
    2.6208  -25.4133    0.0000 C   0  0  0  0  0  0  0  0  0  0  0  0
    4.1077  -25.2157    0.0000 C   0  0  0  0  0  0  0  0  0  0  0  0
    5.5805  -24.9311    0.0000 C   0  0  0  0  0  0  0  0  0  0  0  0
    7.0340  -24.5606    0.0000 C   0  0  0  0  0  0  0  0  0  0  0  0
    8.4633  -24.1055    0.0000 C   0  0  0  0  0  0  0  0  0  0  0  0
    9.8634  -23.5673    0.0000 C   0  0  0  0  0  0  0  0  0  0  0  0
   11.2295  -22.9478    0.0000 C   0  0  0  0  0  0  0  0  0  0  0  0
   12.5569  -22.2492    0.0000 C   0  0  0  0  0  0  0  0  0  0  0  0
   13.8410  -21.4739    0.0000 C   0  0  0  0  0  0  0  0  0  0  0  0
   15.0774  -20.6246    0.0000 C   0  0  0  0  0  0  0  0  0  0  0  0
   16.2618  -19.7042    0.0000 C   0  0  0  0  0  0  0  0  0  0  0  0
   17.3902  -18.7159    0.0000 C   0  0  0  0  0  0  0  0  0  0  0  0
   18.4586  -17.6630    0.0000 C   0  0  0  0  0  0  0  0  0  0  0  0
   19.4634  -16.5493    0.0000 C   0  0  0  0  0  0  0  0  0  0  0  0
   20.4011  -15.3785    0.0000 C   0  0  0  0  0  0  0  0  0  0  0  0
   21.2684  -14.1547    0.0000 C   0  0  0  0  0  0  0  0  0  0  0  0
   22.0625  -12.8821    0.0000 C   0  0  0  0  0  0  0  0  0  0  0  0
   22.7805  -11.5651    0.0000 C   0  0  0  0  0  0  0  0  0  0  0  0
   23.4199  -10.2083    0.0000 C   0  0  0  0  0  0  0  0  0  0  0  0
   23.9787   -8.8162    0.0000 C   0  0  0  0  0  0  0  0  0  0  0  0
   24.4547   -7.3938    0.0000 C   0  0  0  0  0  0  0  0  0  0  0  0
   24.8465   -5.9458    0.0000 C   0  0  0  0  0  0  0  0  0  0  0  0
   25.1526   -4.4774    0.0000 C   0  0  0  0  0  0  0  0  0  0  0  0
   25.3721   -2.9935    0.0000 C   0  0  0  0  0  0  0  0  0  0  0  0
   25.5040   -1.4994    0.0000 C   0  0  0  0  0  0  0  0  0  0  0  0
  1  2  1  0
  2  3  1  0
  3  4  1  0
  4  5  1  0
  5  6  1  0
  6  7  1  0
  7  8  1  0
  8  9  1  0
  9 10  1  0
 10 11  1  0
 11 12  1  0
 12 13  1  0
 13 14  1  0
 14 15  1  0
 15 16  1  0
 16 17  1  0
 17 18  1  0
 18 19  1  0
 19 20  1  0
 20 21  1  0
 21 22  1  0
 22 23  1  0
 23 24  1  0
 24 25  1  0
 25 26  1  0
 26 27  1  0
 27 28  1  0
 28 29  1  0
 29 30  1  0
 30 31  1  0
 31 32  1  0
 32 33  1  0
 33 34  1  0
 34 35  1  0
 35 36  1  0
 36 37  1  0
 37 38  1  0
 38 39  1  0
 39 40  1  0
 40 41  1  0
 41 42  1  0
 42 43  1  0
 43 44  1  0
 44 45  1  0
 45 46  1  0
 46 47  1  0
 47 48  1  0
 48 49  1  0
 49 50  1  0
 50 51  1  0
 51 52  1  0
 52 53  1  0
 53 54  1  0
 54 55  1  0
 55 56  1  0
 56 57  1  0
 57 58  1  0
 58 59  1  0
 59 60  1  0
 60 61  1  0
 61 62  1  0
 62 63  1  0
 63 64  1  0
 64 65  1  0
 65 66  1  0
 66 67  1  0
 67 68  1  0
 68 69  1  0
 69 70  1  0
 70 71  1  0
 71 72  1  0
 72 73  1  0
 73 74  1  0
 74 75  1  0
 75 76  1  0
 76 77  1  0
 77 78  1  0
 78 79  1  0
 79 80  1  0
 80 81  1  0
 81 82  1  0
 82 83  1  0
 83 84  1  0
 84 85  1  0
 85 86  1  0
 86 87  1  0
 87 88  1  0
 88 89  1  0
 89 90  1  0
 90 91  1  0
 91 92  1  0
 92 93  1  0
 93 94  1  0
 94 95  1  0
 95 96  1  0
 96 97  1  0
 97 98  1  0
 98 99  1  0
 99100  1  0
100101  1  0
101102  1  0
102103  1  0
103104  1  0
104105  1  0
105106  1  0
106107  1  0
107108  1  0
108  2  1  0
M  END
>  <Title>  (513) 
idAARUgen9

$$$$

     RDKit          2D

 50 57  0  0  0  0  0  0  0  0999 V2000
    5.2417   -6.1122    0.0000 C   0  0  0  0  0  0  0  0  0  0  0  0
    3.7705   -5.8195    0.0000 C   0  0  0  0  0  0  0  0  0  0  0  0
    3.7705   -4.3195    0.0000 C   0  0  0  0  0  0  0  0  0  0  0  0
    3.1965   -2.9337    0.0000 C   0  0  0  0  0  0  0  0  0  0  0  0
    2.1358   -1.8731    0.0000 C   0  0  0  0  0  0  0  0  0  0  0  0
    2.9692   -0.6259    0.0000 C   0  0  0  0  0  0  0  0  0  0  0  0
    2.3057    0.7195    0.0000 O   0  0  0  0  0  0  0  0  0  0  0  0
    4.4660   -0.7240    0.0000 N   0  0  0  0  0  0  0  0  0  0  0  0
    5.2993    0.5232    0.0000 C   0  0  0  0  0  0  0  0  0  0  0  0
    6.7961    0.4251    0.0000 N   0  0  0  0  0  0  0  0  0  0  0  0
    7.6295    1.6723    0.0000 N   0  0  0  0  0  0  0  0  0  0  0  0
    6.9660    3.0176    0.0000 N   0  0  0  0  0  0  0  0  0  0  0  0
    5.4692    3.1158    0.0000 N   0  0  0  0  0  0  0  0  0  0  0  0
    4.6359    1.8686    0.0000 N   0  0  0  0  0  0  0  0  0  0  0  0
    0.7500   -1.2990    0.0000 C   0  0  0  0  0  0  0  0  0  0  0  0
    1.5000    0.0000    0.0000 C   0  0  0  0  0  0  0  0  0  0  0  0
    0.7500    1.2990    0.0000 C   0  0  0  0  0  0  0  0  0  0  0  0
   -0.7500    1.2990    0.0000 C   0  0  0  0  0  0  0  0  0  0  0  0
   -1.5000    0.0000    0.0000 C   0  0  0  0  0  0  0  0  0  0  0  0
   -0.7500   -1.2990    0.0000 C   0  0  0  0  0  0  0  0  0  0  0  0
   -2.1358   -1.8731    0.0000 C   0  0  0  0  0  0  0  0  0  0  0  0
   -2.5240   -0.4242    0.0000 C   0  0  0  0  0  0  0  0  0  0  0  0
   -3.9729   -0.0359    0.0000 C   0  0  0  0  0  0  0  0  0  0  0  0
   -5.0336   -1.0966    0.0000 C   0  0  0  0  0  0  0  0  0  0  0  0
   -4.6454   -2.5455    0.0000 C   0  0  0  0  0  0  0  0  0  0  0  0
   -3.1965   -2.9337    0.0000 C   0  0  0  0  0  0  0  0  0  0  0  0
   -3.7705   -4.3195    0.0000 C   0  0  0  0  0  0  0  0  0  0  0  0
   -5.0695   -3.5695    0.0000 C   0  0  0  0  0  0  0  0  0  0  0  0
   -6.3686   -4.3195    0.0000 C   0  0  0  0  0  0  0  0  0  0  0  0
   -6.3686   -5.8195    0.0000 C   0  0  0  0  0  0  0  0  0  0  0  0
   -5.0695   -6.5695    0.0000 C   0  0  0  0  0  0  0  0  0  0  0  0
   -3.7705   -5.8195    0.0000 C   0  0  0  0  0  0  0  0  0  0  0  0
   -3.1965   -7.2054    0.0000 C   0  0  0  0  0  0  0  0  0  0  0  0
   -4.6454   -7.5936    0.0000 C   0  0  0  0  0  0  0  0  0  0  0  0
   -5.0336   -9.0425    0.0000 C   0  0  0  0  0  0  0  0  0  0  0  0
   -3.9729  -10.1031    0.0000 C   0  0  0  0  0  0  0  0  0  0  0  0
   -2.5240   -9.7149    0.0000 C   0  0  0  0  0  0  0  0  0  0  0  0
   -2.1358   -8.2660    0.0000 C   0  0  0  0  0  0  0  0  0  0  0  0
   -0.7500   -8.8400    0.0000 C   0  0  0  0  0  0  0  0  0  0  0  0
   -1.5000  -10.1391    0.0000 C   0  0  0  0  0  0  0  0  0  0  0  0
   -0.7500  -11.4381    0.0000 C   0  0  0  0  0  0  0  0  0  0  0  0
    0.7500  -11.4381    0.0000 C   0  0  0  0  0  0  0  0  0  0  0  0
    1.5000  -10.1391    0.0000 C   0  0  0  0  0  0  0  0  0  0  0  0
    0.7500   -8.8400    0.0000 C   0  0  0  0  0  0  0  0  0  0  0  0
    2.1358   -8.2660    0.0000 C   0  0  0  0  0  0  0  0  0  0  0  0
    2.5240   -9.7149    0.0000 C   0  0  0  0  0  0  0  0  0  0  0  0
    3.9729  -10.1031    0.0000 C   0  0  0  0  0  0  0  0  0  0  0  0
    5.0336   -9.0425    0.0000 C   0  0  0  0  0  0  0  0  0  0  0  0
    4.6454   -7.5936    0.0000 C   0  0  0  0  0  0  0  0  0  0  0  0
    3.1965   -7.2054    0.0000 C   0  0  0  0  0  0  0  0  0  0  0  0
  1  2  1  0
  2  3  2  0
  3  4  1  0
  4  5  1  0
  5  6  1  0
  6  7  2  0
  6  8  1  0
  8  9  1  0
  9 10  2  0
 10 11  1  0
 11 12  2  0
 12 13  1  0
 13 14  2  0
  5 15  1  0
 15 16  2  0
 16 17  1  0
 17 18  2  0
 18 19  1  0
 19 20  2  0
 20 21  1  0
 21 22  2  0
 22 23  1  0
 23 24  2  0
 24 25  1  0
 25 26  2  0
 26 27  1  0
 27 28  2  0
 28 29  1  0
 29 30  2  0
 30 31  1  0
 31 32  2  0
 32 33  1  0
 33 34  2  0
 34 35  1  0
 35 36  2  0
 36 37  1  0
 37 38  2  0
 38 39  1  0
 39 40  2  0
 40 41  1  0
 41 42  2  0
 42 43  1  0
 43 44  2  0
 44 45  1  0
 45 46  2  0
 46 47  1  0
 47 48  2  0
 48 49  1  0
 49 50  2  0
 50  2  1  0
 14  9  1  0
 20 15  1  0
 26 21  1  0
 32 27  1  0
 38 33  1  0
 44 39  1  0
 50 45  1  0
M  END
>  <Title>  (514) 
idAARVgen9

$$$$

     RDKit          2D

105107  0  0  0  0  0  0  0  0999 V2000
   11.2123    7.8368    0.0000 C   0  0  0  0  0  0  0  0  0  0  0  0
   12.6576    7.4353    0.0000 C   0  0  0  0  0  0  0  0  0  0  0  0
   13.1508    8.8518    0.0000 C   0  0  0  0  0  0  0  0  0  0  0  0
   13.8212   10.1937    0.0000 C   0  0  0  0  0  0  0  0  0  0  0  0
   14.6577   11.4388    0.0000 C   0  0  0  0  0  0  0  0  0  0  0  0
   15.6465   12.5667    0.0000 C   0  0  0  0  0  0  0  0  0  0  0  0
   16.7714   13.5590    0.0000 C   0  0  0  0  0  0  0  0  0  0  0  0
   18.0140   14.3992    0.0000 C   0  0  0  0  0  0  0  0  0  0  0  0
   19.3539   15.0736    0.0000 C   0  0  0  0  0  0  0  0  0  0  0  0
   20.7689   15.5712    0.0000 C   0  0  0  0  0  0  0  0  0  0  0  0
   22.2360   15.8837    0.0000 C   0  0  0  0  0  0  0  0  0  0  0  0
   23.7310   16.0061    0.0000 C   0  0  0  0  0  0  0  0  0  0  0  0
   25.2294   15.9362    0.0000 C   0  0  0  0  0  0  0  0  0  0  0  0
   26.7065   15.6753    0.0000 C   0  0  0  0  0  0  0  0  0  0  0  0
   28.1382   15.2277    0.0000 C   0  0  0  0  0  0  0  0  0  0  0  0
   29.5009   14.6007    0.0000 C   0  0  0  0  0  0  0  0  0  0  0  0
   30.7721   13.8046    0.0000 C   0  0  0  0  0  0  0  0  0  0  0  0
   31.9312   12.8524    0.0000 C   0  0  0  0  0  0  0  0  0  0  0  0
   32.9590   11.7599    0.0000 C   0  0  0  0  0  0  0  0  0  0  0  0
   33.8386   10.5448    0.0000 C   0  0  0  0  0  0  0  0  0  0  0  0
   34.5556    9.2273    0.0000 C   0  0  0  0  0  0  0  0  0  0  0  0
   35.0983    7.8289    0.0000 C   0  0  0  0  0  0  0  0  0  0  0  0
   35.4577    6.3726    0.0000 C   0  0  0  0  0  0  0  0  0  0  0  0
   35.6279    4.8823    0.0000 C   0  0  0  0  0  0  0  0  0  0  0  0
   35.6061    3.3825    0.0000 C   0  0  0  0  0  0  0  0  0  0  0  0
   35.3927    1.8977    0.0000 C   0  0  0  0  0  0  0  0  0  0  0  0
   34.9912    0.4524    0.0000 C   0  0  0  0  0  0  0  0  0  0  0  0
   34.4082   -0.9296    0.0000 C   0  0  0  0  0  0  0  0  0  0  0  0
   33.6532   -2.2258    0.0000 C   0  0  0  0  0  0  0  0  0  0  0  0
   32.7387   -3.4147    0.0000 C   0  0  0  0  0  0  0  0  0  0  0  0
   31.6796   -4.4770    0.0000 C   0  0  0  0  0  0  0  0  0  0  0  0
   30.4934   -5.3951    0.0000 C   0  0  0  0  0  0  0  0  0  0  0  0
   29.1995   -6.1540    0.0000 C   0  0  0  0  0  0  0  0  0  0  0  0
   27.8193   -6.7412    0.0000 C   0  0  0  0  0  0  0  0  0  0  0  0
   26.3752   -7.1471    0.0000 C   0  0  0  0  0  0  0  0  0  0  0  0
   24.8911   -7.3650    0.0000 C   0  0  0  0  0  0  0  0  0  0  0  0
   23.3914   -7.3913    0.0000 C   0  0  0  0  0  0  0  0  0  0  0  0
   21.9005   -7.2256    0.0000 C   0  0  0  0  0  0  0  0  0  0  0  0
   20.4431   -6.8706    0.0000 C   0  0  0  0  0  0  0  0  0  0  0  0
   19.0431   -6.3322    0.0000 C   0  0  0  0  0  0  0  0  0  0  0  0
   17.7234   -5.6191    0.0000 C   0  0  0  0  0  0  0  0  0  0  0  0
   16.5057   -4.7432    0.0000 C   0  0  0  0  0  0  0  0  0  0  0  0
   15.4101   -3.7187    0.0000 C   0  0  0  0  0  0  0  0  0  0  0  0
   14.4544   -2.5626    0.0000 C   0  0  0  0  0  0  0  0  0  0  0  0
   13.6545   -1.2937    0.0000 C   0  0  0  0  0  0  0  0  0  0  0  0
   13.0233    0.0671    0.0000 C   0  0  0  0  0  0  0  0  0  0  0  0
   12.5714    1.4974    0.0000 C   0  0  0  0  0  0  0  0  0  0  0  0
   11.9602    0.0000    0.0000 C   0  0  0  0  0  0  0  0  0  0  0  0
   11.8763   -1.4146    0.0000 C   0  0  0  0  0  0  0  0  0  0  0  0
   11.6256   -2.8093    0.0000 C   0  0  0  0  0  0  0  0  0  0  0  0
   11.2118   -4.1646    0.0000 C   0  0  0  0  0  0  0  0  0  0  0  0
   10.6405   -5.4614    0.0000 C   0  0  0  0  0  0  0  0  0  0  0  0
    9.9199   -6.6815    0.0000 C   0  0  0  0  0  0  0  0  0  0  0  0
    9.0600   -7.8079    0.0000 C   0  0  0  0  0  0  0  0  0  0  0  0
    8.0730   -8.8247    0.0000 C   0  0  0  0  0  0  0  0  0  0  0  0
    6.9726   -9.7175    0.0000 C   0  0  0  0  0  0  0  0  0  0  0  0
    5.7743  -10.4740    0.0000 C   0  0  0  0  0  0  0  0  0  0  0  0
    4.4950  -11.0834    0.0000 C   0  0  0  0  0  0  0  0  0  0  0  0
    3.1526  -11.5373    0.0000 C   0  0  0  0  0  0  0  0  0  0  0  0
    1.7659  -11.8291    0.0000 C   0  0  0  0  0  0  0  0  0  0  0  0
    0.3544  -11.9550    0.0000 C   0  0  0  0  0  0  0  0  0  0  0  0
   -1.0620  -11.9130    0.0000 C   0  0  0  0  0  0  0  0  0  0  0  0
   -2.4636  -11.7038    0.0000 C   0  0  0  0  0  0  0  0  0  0  0  0
   -3.8305  -11.3302    0.0000 C   0  0  0  0  0  0  0  0  0  0  0  0
   -5.1437  -10.7977    0.0000 C   0  0  0  0  0  0  0  0  0  0  0  0
   -6.3847  -10.1135    0.0000 C   0  0  0  0  0  0  0  0  0  0  0  0
   -7.5360   -9.2874    0.0000 C   0  0  0  0  0  0  0  0  0  0  0  0
   -8.5816   -8.3309    0.0000 C   0  0  0  0  0  0  0  0  0  0  0  0
   -9.5066   -7.2575    0.0000 C   0  0  0  0  0  0  0  0  0  0  0  0
  -10.2983   -6.0821    0.0000 C   0  0  0  0  0  0  0  0  0  0  0  0
  -10.9454   -4.8214    0.0000 C   0  0  0  0  0  0  0  0  0  0  0  0
  -11.4388   -3.4931    0.0000 C   0  0  0  0  0  0  0  0  0  0  0  0
  -11.7716   -2.1156    0.0000 C   0  0  0  0  0  0  0  0  0  0  0  0
  -11.9392   -0.7085    0.0000 C   0  0  0  0  0  0  0  0  0  0  0  0
  -11.9392    0.7085    0.0000 C   0  0  0  0  0  0  0  0  0  0  0  0
  -11.7716    2.1156    0.0000 C   0  0  0  0  0  0  0  0  0  0  0  0
  -11.4388    3.4931    0.0000 C   0  0  0  0  0  0  0  0  0  0  0  0
  -10.9454    4.8214    0.0000 C   0  0  0  0  0  0  0  0  0  0  0  0
  -10.2983    6.0821    0.0000 C   0  0  0  0  0  0  0  0  0  0  0  0
   -9.5066    7.2575    0.0000 C   0  0  0  0  0  0  0  0  0  0  0  0
   -8.5816    8.3309    0.0000 C   0  0  0  0  0  0  0  0  0  0  0  0
   -7.5360    9.2874    0.0000 C   0  0  0  0  0  0  0  0  0  0  0  0
   -6.3847   10.1135    0.0000 C   0  0  0  0  0  0  0  0  0  0  0  0
   -5.1437   10.7977    0.0000 C   0  0  0  0  0  0  0  0  0  0  0  0
   -3.8305   11.3302    0.0000 C   0  0  0  0  0  0  0  0  0  0  0  0
   -2.4636   11.7038    0.0000 C   0  0  0  0  0  0  0  0  0  0  0  0
   -1.0620   11.9130    0.0000 C   0  0  0  0  0  0  0  0  0  0  0  0
    0.3544   11.9550    0.0000 C   0  0  0  0  0  0  0  0  0  0  0  0
    1.7659   11.8291    0.0000 C   0  0  0  0  0  0  0  0  0  0  0  0
    3.1526   11.5373    0.0000 C   0  0  0  0  0  0  0  0  0  0  0  0
    4.4950   11.0834    0.0000 C   0  0  0  0  0  0  0  0  0  0  0  0
    5.7743   10.4740    0.0000 C   0  0  0  0  0  0  0  0  0  0  0  0
    6.9726    9.7175    0.0000 C   0  0  0  0  0  0  0  0  0  0  0  0
    8.0730    8.8247    0.0000 C   0  0  0  0  0  0  0  0  0  0  0  0
    9.0600    7.8079    0.0000 C   0  0  0  0  0  0  0  0  0  0  0  0
    9.9199    6.6815    0.0000 C   0  0  0  0  0  0  0  0  0  0  0  0
   10.6405    5.4614    0.0000 C   0  0  0  0  0  0  0  0  0  0  0  0
   11.2118    4.1646    0.0000 C   0  0  0  0  0  0  0  0  0  0  0  0
   12.3060    2.9737    0.0000 C   0  0  0  0  0  0  0  0  0  0  0  0
   12.2317    4.4719    0.0000 C   0  0  0  0  0  0  0  0  0  0  0  0
   13.4678    3.6221    0.0000 C   0  0  0  0  0  0  0  0  0  0  0  0
   14.8217    4.2678    0.0000 C   0  0  0  0  0  0  0  0  0  0  0  0
   14.9395    5.7632    0.0000 C   0  0  0  0  0  0  0  0  0  0  0  0
   13.7034    6.6129    0.0000 C   0  0  0  0  0  0  0  0  0  0  0  0
   12.3495    5.9672    0.0000 C   0  0  0  0  0  0  0  0  0  0  0  0
  1  2  1  0
  2  3  1  0
  3  4  1  0
  4  5  1  0
  5  6  1  0
  6  7  1  0
  7  8  1  0
  8  9  1  0
  9 10  1  0
 10 11  1  0
 11 12  1  0
 12 13  1  0
 13 14  1  0
 14 15  1  0
 15 16  1  0
 16 17  1  0
 17 18  1  0
 18 19  1  0
 19 20  1  0
 20 21  1  0
 21 22  1  0
 22 23  1  0
 23 24  1  0
 24 25  1  0
 25 26  1  0
 26 27  1  0
 27 28  1  0
 28 29  1  0
 29 30  1  0
 30 31  1  0
 31 32  1  0
 32 33  1  0
 33 34  1  0
 34 35  1  0
 35 36  1  0
 36 37  1  0
 37 38  1  0
 38 39  1  0
 39 40  1  0
 40 41  1  0
 41 42  1  0
 42 43  1  0
 43 44  1  0
 44 45  1  0
 45 46  1  0
 46 47  1  0
 47 48  1  0
 48 49  1  0
 49 50  1  0
 50 51  1  0
 51 52  1  0
 52 53  1  0
 53 54  1  0
 54 55  1  0
 55 56  1  0
 56 57  1  0
 57 58  1  0
 58 59  1  0
 59 60  1  0
 60 61  1  0
 61 62  1  0
 62 63  1  0
 63 64  1  0
 64 65  1  0
 65 66  1  0
 66 67  1  0
 67 68  1  0
 68 69  1  0
 69 70  1  0
 70 71  1  0
 71 72  1  0
 72 73  1  0
 73 74  1  0
 74 75  1  0
 75 76  1  0
 76 77  1  0
 77 78  1  0
 78 79  1  0
 79 80  1  0
 80 81  1  0
 81 82  1  0
 82 83  1  0
 83 84  1  0
 84 85  1  0
 85 86  1  0
 86 87  1  0
 87 88  1  0
 88 89  1  0
 89 90  1  0
 90 91  1  0
 91 92  1  0
 92 93  1  0
 93 94  1  0
 94 95  2  0
 95 96  1  0
 96 97  2  0
 97 98  1  0
 98 99  2  0
 99100  1  0
100101  2  0
101102  1  0
102103  2  0
103104  1  0
104105  2  0
105  2  1  0
 99 47  1  0
105100  1  0
M  END
>  <Title>  (515) 
idAARWgen9

$$$$

     RDKit          2D

 10 10  0  0  0  0  0  0  0  0999 V2000
    3.0000   -2.5981    0.0000 O   0  0  0  0  0  0  0  0  0  0  0  0
    3.7500   -1.2990    0.0000 C   0  0  0  0  0  0  0  0  0  0  0  0
    5.2500   -1.2990    0.0000 O   0  0  0  0  0  0  0  0  0  0  0  0
    3.0000    0.0000    0.0000 O   0  0  0  0  0  0  0  0  0  0  0  0
    1.5000    0.0000    0.0000 C   0  0  0  0  0  0  0  0  0  0  0  0
    0.7500   -1.2990    0.0000 C   0  0  0  0  0  0  0  0  0  0  0  0
   -0.7500   -1.2990    0.0000 C   0  0  0  0  0  0  0  0  0  0  0  0
   -1.5000    0.0000    0.0000 C   0  0  0  0  0  0  0  0  0  0  0  0
   -0.7500    1.2990    0.0000 C   0  0  0  0  0  0  0  0  0  0  0  0
    0.7500    1.2990    0.0000 C   0  0  0  0  0  0  0  0  0  0  0  0
  1  2  2  0
  2  3  1  0
  2  4  1  0
  4  5  1  0
  5  6  2  0
  6  7  1  0
  7  8  1  0
  8  9  1  0
  9 10  2  0
 10  5  1  0
M  END
>  <Title>  (516) 
idAARXgen9

$$$$

     RDKit          2D

 58 66  0  0  0  0  0  0  0  0999 V2000
   -2.4860    9.0779    0.0000 C   0  0  0  0  0  0  0  0  0  0  0  0
   -1.4555    7.9879    0.0000 C   0  0  0  0  0  0  0  0  0  0  0  0
   -0.1854    8.7859    0.0000 C   0  0  0  0  0  0  0  0  0  0  0  0
    1.2934    9.0372    0.0000 C   0  0  0  0  0  0  0  0  0  0  0  0
    2.7558    8.7034    0.0000 C   0  0  0  0  0  0  0  0  0  0  0  0
    3.3684   10.0726    0.0000 C   0  0  0  0  0  0  0  0  0  0  0  0
    4.8605   10.2266    0.0000 O   0  0  0  0  0  0  0  0  0  0  0  0
    2.4890   11.2877    0.0000 N   0  0  0  0  0  0  0  0  0  0  0  0
    3.1017   12.6569    0.0000 C   0  0  0  0  0  0  0  0  0  0  0  0
    4.5695   12.9660    0.0000 N   0  0  0  0  0  0  0  0  0  0  0  0
    4.7291   14.4575    0.0000 N   0  0  0  0  0  0  0  0  0  0  0  0
    3.3599   15.0702    0.0000 N   0  0  0  0  0  0  0  0  0  0  0  0
    2.3541   13.9574    0.0000 N   0  0  0  0  0  0  0  0  0  0  0  0
    0.8626   14.1169    0.0000 C   0  0  0  0  0  0  0  0  0  0  0  0
   -0.0213   12.9051    0.0000 C   0  0  0  0  0  0  0  0  0  0  0  0
   -1.5128   13.0646    0.0000 C   0  0  0  0  0  0  0  0  0  0  0  0
   -2.1203   14.4361    0.0000 C   0  0  0  0  0  0  0  0  0  0  0  0
   -3.6118   14.5957    0.0000 C   0  0  0  0  0  0  0  0  0  0  0  0
   -5.1033   14.7553    0.0000 N   0  0  0  0  0  0  0  0  0  0  0  0
   -1.2364   15.6480    0.0000 C   0  0  0  0  0  0  0  0  0  0  0  0
    0.2551   15.4884    0.0000 C   0  0  0  0  0  0  0  0  0  0  0  0
    3.9791    7.8354    0.0000 C   0  0  0  0  0  0  0  0  0  0  0  0
    4.6800    9.1616    0.0000 C   0  0  0  0  0  0  0  0  0  0  0  0
    6.1790    9.2176    0.0000 C   0  0  0  0  0  0  0  0  0  0  0  0
    6.9770    7.9476    0.0000 C   0  0  0  0  0  0  0  0  0  0  0  0
    6.2761    6.6214    0.0000 C   0  0  0  0  0  0  0  0  0  0  0  0
    4.7772    6.5653    0.0000 C   0  0  0  0  0  0  0  0  0  0  0  0
    5.0284    5.0865    0.0000 C   0  0  0  0  0  0  0  0  0  0  0  0
    6.4618    5.5286    0.0000 C   0  0  0  0  0  0  0  0  0  0  0  0
    7.5614    4.5084    0.0000 C   0  0  0  0  0  0  0  0  0  0  0  0
    7.2276    3.0460    0.0000 C   0  0  0  0  0  0  0  0  0  0  0  0
    5.7942    2.6038    0.0000 C   0  0  0  0  0  0  0  0  0  0  0  0
    4.6946    3.6241    0.0000 C   0  0  0  0  0  0  0  0  0  0  0  0
    3.8266    2.4008    0.0000 C   0  0  0  0  0  0  0  0  0  0  0  0
    5.1528    1.6999    0.0000 C   0  0  0  0  0  0  0  0  0  0  0  0
    5.2089    0.2009    0.0000 C   0  0  0  0  0  0  0  0  0  0  0  0
    3.9388   -0.5971    0.0000 C   0  0  0  0  0  0  0  0  0  0  0  0
    2.6126    0.1038    0.0000 C   0  0  0  0  0  0  0  0  0  0  0  0
    2.5566    1.6027    0.0000 C   0  0  0  0  0  0  0  0  0  0  0  0
    1.0777    1.3515    0.0000 C   0  0  0  0  0  0  0  0  0  0  0  0
    1.7286    0.0000    0.0000 C   0  0  0  0  0  0  0  0  0  0  0  0
    1.0777   -1.3515    0.0000 C   0  0  0  0  0  0  0  0  0  0  0  0
   -0.3846   -1.6852    0.0000 C   0  0  0  0  0  0  0  0  0  0  0  0
   -1.5574   -0.7500    0.0000 C   0  0  0  0  0  0  0  0  0  0  0  0
   -1.5574    0.7500    0.0000 C   0  0  0  0  0  0  0  0  0  0  0  0
   -0.3846    1.6852    0.0000 C   0  0  0  0  0  0  0  0  0  0  0  0
   -1.6080    2.5532    0.0000 C   0  0  0  0  0  0  0  0  0  0  0  0
   -2.3089    1.2271    0.0000 C   0  0  0  0  0  0  0  0  0  0  0  0
   -3.8078    1.1710    0.0000 C   0  0  0  0  0  0  0  0  0  0  0  0
   -4.6059    2.4411    0.0000 C   0  0  0  0  0  0  0  0  0  0  0  0
   -3.9050    3.7672    0.0000 C   0  0  0  0  0  0  0  0  0  0  0  0
   -2.4060    3.8233    0.0000 C   0  0  0  0  0  0  0  0  0  0  0  0
   -2.6573    5.3021    0.0000 C   0  0  0  0  0  0  0  0  0  0  0  0
   -4.0907    4.8600    0.0000 C   0  0  0  0  0  0  0  0  0  0  0  0
   -5.1902    5.8803    0.0000 C   0  0  0  0  0  0  0  0  0  0  0  0
   -4.8564    7.3427    0.0000 C   0  0  0  0  0  0  0  0  0  0  0  0
   -3.4231    7.7848    0.0000 C   0  0  0  0  0  0  0  0  0  0  0  0
   -2.3235    6.7645    0.0000 C   0  0  0  0  0  0  0  0  0  0  0  0
  1  2  1  0
  2  3  1  0
  3  4  1  0
  4  5  1  0
  5  6  1  0
  6  7  2  0
  6  8  1  0
  8  9  1  0
  9 10  2  0
 10 11  1  0
 11 12  2  0
 12 13  1  0
 13 14  1  0
 14 15  2  0
 15 16  1  0
 16 17  2  0
 17 18  1  0
 18 19  3  0
 17 20  1  0
 20 21  2  0
  5 22  1  0
 22 23  2  0
 23 24  1  0
 24 25  2  0
 25 26  1  0
 26 27  2  0
 27 28  1  0
 28 29  2  0
 29 30  1  0
 30 31  2  0
 31 32  1  0
 32 33  2  0
 33 34  1  0
 34 35  2  0
 35 36  1  0
 36 37  2  0
 37 38  1  0
 38 39  2  0
 39 40  1  0
 40 41  2  0
 41 42  1  0
 42 43  1  0
 43 44  1  0
 44 45  1  0
 45 46  2  0
 46 47  1  0
 47 48  2  0
 48 49  1  0
 49 50  2  0
 50 51  1  0
 51 52  2  0
 52 53  1  0
 53 54  2  0
 54 55  1  0
 55 56  2  0
 56 57  1  0
 57 58  2  0
 58  2  1  0
 13  9  1  0
 21 14  1  0
 27 22  1  0
 33 28  1  0
 39 34  1  0
 46 40  1  0
 52 47  1  0
 58 53  1  0
M  END
>  <Title>  (517) 
idAARYgen9

$$$$

     RDKit          2D

  9  8  0  0  0  0  0  0  0  0999 V2000
    0.0000    0.0000    0.0000 C   0  0  0  0  0  0  0  0  0  0  0  0
    1.2990    0.7500    0.0000 C   0  0  0  0  0  0  0  0  0  0  0  0
    2.5981    1.5000    0.0000 C   0  0  0  0  0  0  0  0  0  0  0  0
    3.8971    2.2500    0.0000 C   0  0  0  0  0  0  0  0  0  0  0  0
    5.1962    1.5000    0.0000 C   0  0  0  0  0  0  0  0  0  0  0  0
    6.4952    2.2500    0.0000 C   0  0  0  0  0  0  0  0  0  0  0  0
    7.7942    1.5000    0.0000 C   0  0  0  0  0  0  0  0  0  0  0  0
    9.0933    2.2500    0.0000 C   0  0  0  0  0  0  0  0  0  0  0  0
   10.3923    1.5000    0.0000 C   0  0  0  0  0  0  0  0  0  0  0  0
  1  2  1  0
  2  3  3  0
  3  4  1  0
  4  5  2  3
  5  6  1  0
  6  7  1  0
  7  8  2  3
  8  9  1  0
M  END
>  <Title>  (518) 
idAARZgen9

$$$$

     RDKit          2D

113115  0  0  0  0  0  0  0  0999 V2000
  108.7500  -61.0548    0.0000 C   0  0  0  0  0  0  0  0  0  0  0  0
  107.2500  -61.0548    0.0000 C   0  0  0  0  0  0  0  0  0  0  0  0
  106.5000  -59.7558    0.0000 C   0  0  0  0  0  0  0  0  0  0  0  0
  105.0000  -59.7558    0.0000 C   0  0  0  0  0  0  0  0  0  0  0  0
  104.2500  -58.4567    0.0000 C   0  0  0  0  0  0  0  0  0  0  0  0
  102.7500  -58.4567    0.0000 C   0  0  0  0  0  0  0  0  0  0  0  0
  102.0000  -57.1577    0.0000 C   0  0  0  0  0  0  0  0  0  0  0  0
  100.5000  -57.1577    0.0000 C   0  0  0  0  0  0  0  0  0  0  0  0
   99.7500  -55.8586    0.0000 C   0  0  0  0  0  0  0  0  0  0  0  0
   98.2500  -55.8586    0.0000 C   0  0  0  0  0  0  0  0  0  0  0  0
   97.5000  -54.5596    0.0000 C   0  0  0  0  0  0  0  0  0  0  0  0
   96.0000  -54.5596    0.0000 C   0  0  0  0  0  0  0  0  0  0  0  0
   95.2500  -53.2606    0.0000 C   0  0  0  0  0  0  0  0  0  0  0  0
   93.7500  -53.2606    0.0000 C   0  0  0  0  0  0  0  0  0  0  0  0
   93.0000  -51.9615    0.0000 C   0  0  0  0  0  0  0  0  0  0  0  0
   91.5000  -51.9615    0.0000 C   0  0  0  0  0  0  0  0  0  0  0  0
   90.7500  -50.6625    0.0000 C   0  0  0  0  0  0  0  0  0  0  0  0
   89.2500  -50.6625    0.0000 C   0  0  0  0  0  0  0  0  0  0  0  0
   88.5000  -49.3634    0.0000 C   0  0  0  0  0  0  0  0  0  0  0  0
   87.0000  -49.3634    0.0000 C   0  0  0  0  0  0  0  0  0  0  0  0
   86.2500  -48.0644    0.0000 C   0  0  0  0  0  0  0  0  0  0  0  0
   84.7500  -48.0644    0.0000 C   0  0  0  0  0  0  0  0  0  0  0  0
   84.0000  -46.7654    0.0000 C   0  0  0  0  0  0  0  0  0  0  0  0
   82.5000  -46.7654    0.0000 C   0  0  0  0  0  0  0  0  0  0  0  0
   81.7500  -45.4663    0.0000 C   0  0  0  0  0  0  0  0  0  0  0  0
   80.2500  -45.4663    0.0000 C   0  0  0  0  0  0  0  0  0  0  0  0
   79.5000  -44.1673    0.0000 C   0  0  0  0  0  0  0  0  0  0  0  0
   78.0000  -44.1673    0.0000 C   0  0  0  0  0  0  0  0  0  0  0  0
   77.2500  -42.8683    0.0000 C   0  0  0  0  0  0  0  0  0  0  0  0
   75.7500  -42.8683    0.0000 C   0  0  0  0  0  0  0  0  0  0  0  0
   75.0000  -41.5692    0.0000 C   0  0  0  0  0  0  0  0  0  0  0  0
   73.5000  -41.5692    0.0000 C   0  0  0  0  0  0  0  0  0  0  0  0
   72.7500  -40.2702    0.0000 C   0  0  0  0  0  0  0  0  0  0  0  0
   71.2500  -40.2702    0.0000 C   0  0  0  0  0  0  0  0  0  0  0  0
   70.5000  -38.9711    0.0000 C   0  0  0  0  0  0  0  0  0  0  0  0
   69.0000  -38.9711    0.0000 C   0  0  0  0  0  0  0  0  0  0  0  0
   68.2500  -37.6721    0.0000 C   0  0  0  0  0  0  0  0  0  0  0  0
   66.7500  -37.6721    0.0000 C   0  0  0  0  0  0  0  0  0  0  0  0
   66.0000  -36.3731    0.0000 C   0  0  0  0  0  0  0  0  0  0  0  0
   64.5000  -36.3731    0.0000 C   0  0  0  0  0  0  0  0  0  0  0  0
   63.7500  -35.0740    0.0000 C   0  0  0  0  0  0  0  0  0  0  0  0
   62.2500  -35.0740    0.0000 C   0  0  0  0  0  0  0  0  0  0  0  0
   61.5000  -33.7750    0.0000 C   0  0  0  0  0  0  0  0  0  0  0  0
   60.0000  -33.7750    0.0000 C   0  0  0  0  0  0  0  0  0  0  0  0
   59.2500  -32.4760    0.0000 C   0  0  0  0  0  0  0  0  0  0  0  0
   57.7500  -32.4760    0.0000 C   0  0  0  0  0  0  0  0  0  0  0  0
   57.0000  -31.1769    0.0000 C   0  0  0  0  0  0  0  0  0  0  0  0
   55.5000  -31.1769    0.0000 C   0  0  0  0  0  0  0  0  0  0  0  0
   54.7500  -29.8779    0.0000 C   0  0  0  0  0  0  0  0  0  0  0  0
   53.2500  -29.8779    0.0000 C   0  0  0  0  0  0  0  0  0  0  0  0
   52.5000  -28.5788    0.0000 C   0  0  0  0  0  0  0  0  0  0  0  0
   51.0000  -28.5788    0.0000 C   0  0  0  0  0  0  0  0  0  0  0  0
   50.2500  -27.2798    0.0000 C   0  0  0  0  0  0  0  0  0  0  0  0
   48.7500  -27.2798    0.0000 C   0  0  0  0  0  0  0  0  0  0  0  0
   48.0000  -25.9808    0.0000 C   0  0  0  0  0  0  0  0  0  0  0  0
   46.5000  -25.9808    0.0000 C   0  0  0  0  0  0  0  0  0  0  0  0
   45.7500  -24.6817    0.0000 C   0  0  0  0  0  0  0  0  0  0  0  0
   44.2500  -24.6817    0.0000 C   0  0  0  0  0  0  0  0  0  0  0  0
   43.5000  -23.3827    0.0000 C   0  0  0  0  0  0  0  0  0  0  0  0
   42.0000  -23.3827    0.0000 C   0  0  0  0  0  0  0  0  0  0  0  0
   41.2500  -22.0836    0.0000 C   0  0  0  0  0  0  0  0  0  0  0  0
   39.7500  -22.0836    0.0000 C   0  0  0  0  0  0  0  0  0  0  0  0
   39.0000  -20.7846    0.0000 C   0  0  0  0  0  0  0  0  0  0  0  0
   37.5000  -20.7846    0.0000 C   0  0  0  0  0  0  0  0  0  0  0  0
   36.7500  -19.4856    0.0000 C   0  0  0  0  0  0  0  0  0  0  0  0
   35.2500  -19.4856    0.0000 C   0  0  0  0  0  0  0  0  0  0  0  0
   34.5000  -18.1865    0.0000 C   0  0  0  0  0  0  0  0  0  0  0  0
   33.0000  -18.1865    0.0000 C   0  0  0  0  0  0  0  0  0  0  0  0
   32.2500  -16.8875    0.0000 C   0  0  0  0  0  0  0  0  0  0  0  0
   30.7500  -16.8875    0.0000 C   0  0  0  0  0  0  0  0  0  0  0  0
   30.0000  -15.5885    0.0000 C   0  0  0  0  0  0  0  0  0  0  0  0
   28.5000  -15.5885    0.0000 C   0  0  0  0  0  0  0  0  0  0  0  0
   27.7500  -14.2894    0.0000 C   0  0  0  0  0  0  0  0  0  0  0  0
   26.2500  -14.2894    0.0000 C   0  0  0  0  0  0  0  0  0  0  0  0
   25.5000  -12.9904    0.0000 C   0  0  0  0  0  0  0  0  0  0  0  0
   24.0000  -12.9904    0.0000 C   0  0  0  0  0  0  0  0  0  0  0  0
   23.2500  -11.6913    0.0000 C   0  0  0  0  0  0  0  0  0  0  0  0
   21.7500  -11.6913    0.0000 C   0  0  0  0  0  0  0  0  0  0  0  0
   21.0000  -10.3923    0.0000 C   0  0  0  0  0  0  0  0  0  0  0  0
   19.5000  -10.3923    0.0000 C   0  0  0  0  0  0  0  0  0  0  0  0
   18.7500   -9.0933    0.0000 C   0  0  0  0  0  0  0  0  0  0  0  0
   17.2500   -9.0933    0.0000 C   0  0  0  0  0  0  0  0  0  0  0  0
   16.5000   -7.7942    0.0000 C   0  0  0  0  0  0  0  0  0  0  0  0
   15.0000   -7.7942    0.0000 C   0  0  0  0  0  0  0  0  0  0  0  0
   14.2500   -6.4952    0.0000 C   0  0  0  0  0  0  0  0  0  0  0  0
   12.7500   -6.4952    0.0000 C   0  0  0  0  0  0  0  0  0  0  0  0
   12.0000   -5.1962    0.0000 C   0  0  0  0  0  0  0  0  0  0  0  0
   10.5000   -5.1962    0.0000 C   0  0  0  0  0  0  0  0  0  0  0  0
    9.7500   -3.8971    0.0000 C   0  0  0  0  0  0  0  0  0  0  0  0
    8.2500   -3.8971    0.0000 C   0  0  0  0  0  0  0  0  0  0  0  0
    7.5000   -2.5981    0.0000 C   0  0  0  0  0  0  0  0  0  0  0  0
    6.0000   -2.5981    0.0000 C   0  0  0  0  0  0  0  0  0  0  0  0
    5.2500   -1.2990    0.0000 C   0  0  0  0  0  0  0  0  0  0  0  0
    3.7500   -1.2990    0.0000 C   0  0  0  0  0  0  0  0  0  0  0  0
    3.0000    0.0000    0.0000 C   0  0  0  0  0  0  0  0  0  0  0  0
    1.5000    0.0000    0.0000 C   0  0  0  0  0  0  0  0  0  0  0  0
    0.7500   -1.2990    0.0000 C   0  0  0  0  0  0  0  0  0  0  0  0
   -0.7500   -1.2990    0.0000 C   0  0  0  0  0  0  0  0  0  0  0  0
   -1.5000    0.0000    0.0000 C   0  0  0  0  0  0  0  0  0  0  0  0
   -0.7500    1.2990    0.0000 C   0  0  0  0  0  0  0  0  0  0  0  0
    0.7500    1.2990    0.0000 C   0  0  0  0  0  0  0  0  0  0  0  0
    1.5000    2.5981    0.0000 C   0  0  0  0  0  0  0  0  0  0  0  0
    3.0000    2.5981    0.0000 C   0  0  0  0  0  0  0  0  0  0  0  0
    3.7500    3.8971    0.0000 C   0  0  0  0  0  0  0  0  0  0  0  0
    3.0000    5.1962    0.0000 C   0  0  0  0  0  0  0  0  0  0  0  0
    1.5000    5.1962    0.0000 C   0  0  0  0  0  0  0  0  0  0  0  0
    0.7500    3.8971    0.0000 C   0  0  0  0  0  0  0  0  0  0  0  0
   -0.7500    3.8971    0.0000 C   0  0  0  0  0  0  0  0  0  0  0  0
   -1.5000    5.1962    0.0000 C   0  0  0  0  0  0  0  0  0  0  0  0
   -3.0000    5.1962    0.0000 C   0  0  0  0  0  0  0  0  0  0  0  0
   -3.7500    3.8971    0.0000 C   0  0  0  0  0  0  0  0  0  0  0  0
   -3.0000    2.5981    0.0000 C   0  0  0  0  0  0  0  0  0  0  0  0
   -1.5000    2.5981    0.0000 C   0  0  0  0  0  0  0  0  0  0  0  0
  1  2  1  0
  2  3  1  0
  3  4  1  0
  4  5  1  0
  5  6  1  0
  6  7  1  0
  7  8  1  0
  8  9  1  0
  9 10  1  0
 10 11  1  0
 11 12  1  0
 12 13  1  0
 13 14  1  0
 14 15  1  0
 15 16  1  0
 16 17  1  0
 17 18  1  0
 18 19  1  0
 19 20  1  0
 20 21  1  0
 21 22  1  0
 22 23  1  0
 23 24  1  0
 24 25  1  0
 25 26  1  0
 26 27  1  0
 27 28  1  0
 28 29  1  0
 29 30  1  0
 30 31  1  0
 31 32  1  0
 32 33  1  0
 33 34  1  0
 34 35  1  0
 35 36  1  0
 36 37  1  0
 37 38  1  0
 38 39  1  0
 39 40  1  0
 40 41  1  0
 41 42  1  0
 42 43  1  0
 43 44  1  0
 44 45  1  0
 45 46  1  0
 46 47  1  0
 47 48  1  0
 48 49  1  0
 49 50  1  0
 50 51  1  0
 51 52  1  0
 52 53  1  0
 53 54  1  0
 54 55  1  0
 55 56  1  0
 56 57  1  0
 57 58  1  0
 58 59  1  0
 59 60  1  0
 60 61  1  0
 61 62  1  0
 62 63  1  0
 63 64  1  0
 64 65  1  0
 65 66  1  0
 66 67  1  0
 67 68  1  0
 68 69  1  0
 69 70  1  0
 70 71  1  0
 71 72  1  0
 72 73  1  0
 73 74  1  0
 74 75  1  0
 75 76  1  0
 76 77  1  0
 77 78  1  0
 78 79  1  0
 79 80  1  0
 80 81  1  0
 81 82  1  0
 82 83  1  0
 83 84  1  0
 84 85  1  0
 85 86  1  0
 86 87  1  0
 87 88  1  0
 88 89  1  0
 89 90  1  0
 90 91  1  0
 91 92  1  0
 92 93  1  0
 93 94  1  0
 94 95  1  0
 95 96  1  0
 96 97  2  0
 97 98  1  0
 98 99  2  0
 99100  1  0
100101  2  0
101102  1  0
102103  2  0
103104  1  0
104105  2  0
105106  1  0
106107  2  0
107108  1  0
108109  2  0
109110  1  0
110111  2  0
111112  1  0
112113  2  0
101 96  1  0
107102  1  0
113108  1  0
M  END
>  <Title>  (519) 
idAASAgen9

$$$$

     RDKit          2D

113114  0  0  0  0  0  0  0  0999 V2000
   -2.3782    0.1080    0.0000 C   0  0  0  0  0  0  0  0  0  0  0  0
   -2.2475   -1.3863    0.0000 C   0  0  0  0  0  0  0  0  0  0  0  0
   -3.7373   -1.5604    0.0000 C   0  0  0  0  0  0  0  0  0  0  0  0
   -5.2145   -1.8209    0.0000 C   0  0  0  0  0  0  0  0  0  0  0  0
   -6.6741   -2.1668    0.0000 C   0  0  0  0  0  0  0  0  0  0  0  0
   -8.1111   -2.5970    0.0000 C   0  0  0  0  0  0  0  0  0  0  0  0
   -9.5206   -3.1100    0.0000 C   0  0  0  0  0  0  0  0  0  0  0  0
  -10.8979   -3.7041    0.0000 C   0  0  0  0  0  0  0  0  0  0  0  0
  -12.2384   -4.3773    0.0000 C   0  0  0  0  0  0  0  0  0  0  0  0
  -13.5374   -5.1273    0.0000 C   0  0  0  0  0  0  0  0  0  0  0  0
  -14.7907   -5.9516    0.0000 C   0  0  0  0  0  0  0  0  0  0  0  0
  -15.9938   -6.8473    0.0000 C   0  0  0  0  0  0  0  0  0  0  0  0
  -17.1429   -7.8115    0.0000 C   0  0  0  0  0  0  0  0  0  0  0  0
  -18.2340   -8.8409    0.0000 C   0  0  0  0  0  0  0  0  0  0  0  0
  -19.2633   -9.9319    0.0000 C   0  0  0  0  0  0  0  0  0  0  0  0
  -20.2275  -11.0810    0.0000 C   0  0  0  0  0  0  0  0  0  0  0  0
  -21.1233  -12.2842    0.0000 C   0  0  0  0  0  0  0  0  0  0  0  0
  -21.9475  -13.5374    0.0000 C   0  0  0  0  0  0  0  0  0  0  0  0
  -22.6975  -14.8365    0.0000 C   0  0  0  0  0  0  0  0  0  0  0  0
  -23.3707  -16.1769    0.0000 C   0  0  0  0  0  0  0  0  0  0  0  0
  -23.9648  -17.5542    0.0000 C   0  0  0  0  0  0  0  0  0  0  0  0
  -24.4779  -18.9638    0.0000 C   0  0  0  0  0  0  0  0  0  0  0  0
  -24.9081  -20.4008    0.0000 C   0  0  0  0  0  0  0  0  0  0  0  0
  -25.2540  -21.8603    0.0000 C   0  0  0  0  0  0  0  0  0  0  0  0
  -25.5145  -23.3375    0.0000 C   0  0  0  0  0  0  0  0  0  0  0  0
  -25.6886  -24.8274    0.0000 C   0  0  0  0  0  0  0  0  0  0  0  0
  -25.7758  -26.3249    0.0000 C   0  0  0  0  0  0  0  0  0  0  0  0
  -25.7758  -27.8249    0.0000 C   0  0  0  0  0  0  0  0  0  0  0  0
  -25.6886  -29.3223    0.0000 C   0  0  0  0  0  0  0  0  0  0  0  0
  -25.5145  -30.8122    0.0000 C   0  0  0  0  0  0  0  0  0  0  0  0
  -25.2540  -32.2894    0.0000 C   0  0  0  0  0  0  0  0  0  0  0  0
  -24.9081  -33.7490    0.0000 C   0  0  0  0  0  0  0  0  0  0  0  0
  -24.4779  -35.1859    0.0000 C   0  0  0  0  0  0  0  0  0  0  0  0
  -23.9648  -36.5955    0.0000 C   0  0  0  0  0  0  0  0  0  0  0  0
  -23.3707  -37.9728    0.0000 C   0  0  0  0  0  0  0  0  0  0  0  0
  -22.6975  -39.3133    0.0000 C   0  0  0  0  0  0  0  0  0  0  0  0
  -21.9475  -40.6123    0.0000 C   0  0  0  0  0  0  0  0  0  0  0  0
  -21.1233  -41.8655    0.0000 C   0  0  0  0  0  0  0  0  0  0  0  0
  -20.2275  -43.0687    0.0000 C   0  0  0  0  0  0  0  0  0  0  0  0
  -19.2633  -44.2178    0.0000 C   0  0  0  0  0  0  0  0  0  0  0  0
  -18.2340  -45.3088    0.0000 C   0  0  0  0  0  0  0  0  0  0  0  0
  -17.1429  -46.3382    0.0000 C   0  0  0  0  0  0  0  0  0  0  0  0
  -15.9938  -47.3024    0.0000 C   0  0  0  0  0  0  0  0  0  0  0  0
  -14.7907  -48.1981    0.0000 C   0  0  0  0  0  0  0  0  0  0  0  0
  -13.5374  -49.0224    0.0000 C   0  0  0  0  0  0  0  0  0  0  0  0
  -12.2384  -49.7724    0.0000 C   0  0  0  0  0  0  0  0  0  0  0  0
  -10.8979  -50.4456    0.0000 C   0  0  0  0  0  0  0  0  0  0  0  0
   -9.5206  -51.0397    0.0000 C   0  0  0  0  0  0  0  0  0  0  0  0
   -8.1111  -51.5527    0.0000 C   0  0  0  0  0  0  0  0  0  0  0  0
   -6.6741  -51.9829    0.0000 C   0  0  0  0  0  0  0  0  0  0  0  0
   -5.2145  -52.3289    0.0000 C   0  0  0  0  0  0  0  0  0  0  0  0
   -3.7373  -52.5893    0.0000 C   0  0  0  0  0  0  0  0  0  0  0  0
   -2.2475  -52.7635    0.0000 C   0  0  0  0  0  0  0  0  0  0  0  0
   -0.7500  -52.8507    0.0000 C   0  0  0  0  0  0  0  0  0  0  0  0
    0.7500  -52.8507    0.0000 C   0  0  0  0  0  0  0  0  0  0  0  0
    2.2475  -52.7635    0.0000 C   0  0  0  0  0  0  0  0  0  0  0  0
    3.7373  -52.5893    0.0000 C   0  0  0  0  0  0  0  0  0  0  0  0
    5.2145  -52.3289    0.0000 C   0  0  0  0  0  0  0  0  0  0  0  0
    6.6741  -51.9829    0.0000 C   0  0  0  0  0  0  0  0  0  0  0  0
    8.1111  -51.5527    0.0000 C   0  0  0  0  0  0  0  0  0  0  0  0
    9.5206  -51.0397    0.0000 C   0  0  0  0  0  0  0  0  0  0  0  0
   10.8979  -50.4456    0.0000 C   0  0  0  0  0  0  0  0  0  0  0  0
   12.2384  -49.7724    0.0000 C   0  0  0  0  0  0  0  0  0  0  0  0
   13.5374  -49.0224    0.0000 C   0  0  0  0  0  0  0  0  0  0  0  0
   14.7907  -48.1981    0.0000 C   0  0  0  0  0  0  0  0  0  0  0  0
   15.9938  -47.3024    0.0000 C   0  0  0  0  0  0  0  0  0  0  0  0
   17.1429  -46.3382    0.0000 C   0  0  0  0  0  0  0  0  0  0  0  0
   18.2340  -45.3088    0.0000 C   0  0  0  0  0  0  0  0  0  0  0  0
   19.2633  -44.2178    0.0000 C   0  0  0  0  0  0  0  0  0  0  0  0
   20.2275  -43.0687    0.0000 C   0  0  0  0  0  0  0  0  0  0  0  0
   21.1233  -41.8655    0.0000 C   0  0  0  0  0  0  0  0  0  0  0  0
   21.9475  -40.6123    0.0000 C   0  0  0  0  0  0  0  0  0  0  0  0
   22.6975  -39.3133    0.0000 C   0  0  0  0  0  0  0  0  0  0  0  0
   23.3707  -37.9728    0.0000 C   0  0  0  0  0  0  0  0  0  0  0  0
   23.9648  -36.5955    0.0000 C   0  0  0  0  0  0  0  0  0  0  0  0
   24.4779  -35.1859    0.0000 C   0  0  0  0  0  0  0  0  0  0  0  0
   24.9081  -33.7490    0.0000 C   0  0  0  0  0  0  0  0  0  0  0  0
   25.2540  -32.2894    0.0000 C   0  0  0  0  0  0  0  0  0  0  0  0
   25.5145  -30.8122    0.0000 C   0  0  0  0  0  0  0  0  0  0  0  0
   25.6886  -29.3223    0.0000 C   0  0  0  0  0  0  0  0  0  0  0  0
   25.7758  -27.8249    0.0000 C   0  0  0  0  0  0  0  0  0  0  0  0
   25.7758  -26.3249    0.0000 C   0  0  0  0  0  0  0  0  0  0  0  0
   25.6886  -24.8274    0.0000 C   0  0  0  0  0  0  0  0  0  0  0  0
   25.5145  -23.3375    0.0000 C   0  0  0  0  0  0  0  0  0  0  0  0
   25.2540  -21.8603    0.0000 C   0  0  0  0  0  0  0  0  0  0  0  0
   24.9081  -20.4008    0.0000 C   0  0  0  0  0  0  0  0  0  0  0  0
   24.4779  -18.9638    0.0000 C   0  0  0  0  0  0  0  0  0  0  0  0
   23.9648  -17.5542    0.0000 C   0  0  0  0  0  0  0  0  0  0  0  0
   23.3707  -16.1769    0.0000 C   0  0  0  0  0  0  0  0  0  0  0  0
   22.6975  -14.8365    0.0000 C   0  0  0  0  0  0  0  0  0  0  0  0
   21.9475  -13.5374    0.0000 C   0  0  0  0  0  0  0  0  0  0  0  0
   21.1233  -12.2842    0.0000 C   0  0  0  0  0  0  0  0  0  0  0  0
   20.2275  -11.0810    0.0000 C   0  0  0  0  0  0  0  0  0  0  0  0
   19.2633   -9.9319    0.0000 C   0  0  0  0  0  0  0  0  0  0  0  0
   18.2340   -8.8409    0.0000 C   0  0  0  0  0  0  0  0  0  0  0  0
   17.1429   -7.8115    0.0000 C   0  0  0  0  0  0  0  0  0  0  0  0
   15.9938   -6.8473    0.0000 C   0  0  0  0  0  0  0  0  0  0  0  0
   14.7907   -5.9516    0.0000 C   0  0  0  0  0  0  0  0  0  0  0  0
   13.5374   -5.1273    0.0000 C   0  0  0  0  0  0  0  0  0  0  0  0
   12.2384   -4.3773    0.0000 C   0  0  0  0  0  0  0  0  0  0  0  0
   10.8979   -3.7041    0.0000 C   0  0  0  0  0  0  0  0  0  0  0  0
    9.5206   -3.1100    0.0000 C   0  0  0  0  0  0  0  0  0  0  0  0
    8.1111   -2.5970    0.0000 C   0  0  0  0  0  0  0  0  0  0  0  0
    6.6741   -2.1668    0.0000 C   0  0  0  0  0  0  0  0  0  0  0  0
    5.2145   -1.8209    0.0000 C   0  0  0  0  0  0  0  0  0  0  0  0
    3.7373   -1.5604    0.0000 C   0  0  0  0  0  0  0  0  0  0  0  0
    2.2475   -1.3863    0.0000 C   0  0  0  0  0  0  0  0  0  0  0  0
    0.7500   -1.2990    0.0000 C   0  0  0  0  0  0  0  0  0  0  0  0
    1.5000    0.0000    0.0000 C   0  0  0  0  0  0  0  0  0  0  0  0
    0.7500    1.2990    0.0000 C   0  0  0  0  0  0  0  0  0  0  0  0
   -0.7500    1.2990    0.0000 C   0  0  0  0  0  0  0  0  0  0  0  0
   -1.5000    0.0000    0.0000 C   0  0  0  0  0  0  0  0  0  0  0  0
   -0.7500   -1.2990    0.0000 C   0  0  0  0  0  0  0  0  0  0  0  0
  1  2  1  0
  2  3  1  0
  3  4  2  0
  4  5  1  0
  5  6  1  0
  6  7  1  0
  7  8  1  0
  8  9  1  0
  9 10  1  0
 10 11  1  0
 11 12  1  0
 12 13  1  0
 13 14  1  0
 14 15  1  0
 15 16  1  0
 16 17  1  0
 17 18  1  0
 18 19  1  0
 19 20  1  0
 20 21  1  0
 21 22  1  0
 22 23  1  0
 23 24  1  0
 24 25  1  0
 25 26  1  0
 26 27  1  0
 27 28  1  0
 28 29  1  0
 29 30  1  0
 30 31  1  0
 31 32  1  0
 32 33  1  0
 33 34  1  0
 34 35  1  0
 35 36  1  0
 36 37  1  0
 37 38  1  0
 38 39  1  0
 39 40  1  0
 40 41  1  0
 41 42  1  0
 42 43  1  0
 43 44  1  0
 44 45  1  0
 45 46  1  0
 46 47  1  0
 47 48  1  0
 48 49  1  0
 49 50  1  0
 50 51  1  0
 51 52  1  0
 52 53  1  0
 53 54  1  0
 54 55  1  0
 55 56  1  0
 56 57  1  0
 57 58  1  0
 58 59  1  0
 59 60  1  0
 60 61  1  0
 61 62  1  0
 62 63  1  0
 63 64  1  0
 64 65  1  0
 65 66  1  0
 66 67  1  0
 67 68  1  0
 68 69  1  0
 69 70  1  0
 70 71  1  0
 71 72  1  0
 72 73  1  0
 73 74  1  0
 74 75  1  0
 75 76  1  0
 76 77  1  0
 77 78  1  0
 78 79  1  0
 79 80  1  0
 80 81  1  0
 81 82  1  0
 82 83  1  0
 83 84  1  0
 84 85  1  0
 85 86  1  0
 86 87  1  0
 87 88  1  0
 88 89  1  0
 89 90  1  0
 90 91  1  0
 91 92  1  0
 92 93  1  0
 93 94  1  0
 94 95  1  0
 95 96  1  0
 96 97  1  0
 97 98  1  0
 98 99  1  0
 99100  1  0
100101  1  0
101102  1  0
102103  1  0
103104  1  0
104105  1  0
105106  1  0
106107  1  0
107108  1  0
108109  2  0
109110  1  0
110111  2  0
111112  1  0
112113  2  0
113  2  1  0
113108  1  0
M  END
>  <Title>  (520) 
idAASBgen9

$$$$

     RDKit          2D

  7  7  0  0  0  0  0  0  0  0999 V2000
    3.0000    0.0000    0.0000 C   0  0  0  0  0  0  0  0  0  0  0  0
    1.5000    0.0000    0.0000 C   0  0  0  0  0  0  0  0  0  0  0  0
    0.7500   -1.2990    0.0000 C   0  0  0  0  0  0  0  0  0  0  0  0
   -0.7500   -1.2990    0.0000 C   0  0  0  0  0  0  0  0  0  0  0  0
   -1.5000    0.0000    0.0000 C   0  0  0  0  0  0  0  0  0  0  0  0
   -0.7500    1.2990    0.0000 C   0  0  0  0  0  0  0  0  0  0  0  0
    0.7500    1.2990    0.0000 C   0  0  0  0  0  0  0  0  0  0  0  0
  1  2  1  0
  2  3  1  0
  3  4  1  0
  4  5  2  0
  5  6  1  0
  6  7  1  0
  7  2  1  0
M  END
>  <Title>  (521) 
idAASCgen9

$$$$

     RDKit          2D

108110  0  0  0  0  0  0  0  0999 V2000
   -5.5383   -0.4048    0.0000 C   0  0  0  0  0  0  0  0  0  0  0  0
   -5.2078   -1.8679    0.0000 C   0  0  0  0  0  0  0  0  0  0  0  0
   -6.6597   -2.2447    0.0000 C   0  0  0  0  0  0  0  0  0  0  0  0
   -8.0848   -2.7127    0.0000 C   0  0  0  0  0  0  0  0  0  0  0  0
   -9.4774   -3.2702    0.0000 C   0  0  0  0  0  0  0  0  0  0  0  0
  -10.8318   -3.9149    0.0000 C   0  0  0  0  0  0  0  0  0  0  0  0
  -12.1426   -4.6442    0.0000 C   0  0  0  0  0  0  0  0  0  0  0  0
  -13.4044   -5.4552    0.0000 C   0  0  0  0  0  0  0  0  0  0  0  0
  -14.6123   -6.3445    0.0000 C   0  0  0  0  0  0  0  0  0  0  0  0
  -15.7614   -7.3087    0.0000 C   0  0  0  0  0  0  0  0  0  0  0  0
  -16.8470   -8.3438    0.0000 C   0  0  0  0  0  0  0  0  0  0  0  0
  -17.8648   -9.4457    0.0000 C   0  0  0  0  0  0  0  0  0  0  0  0
  -18.8106  -10.6099    0.0000 C   0  0  0  0  0  0  0  0  0  0  0  0
  -19.6807  -11.8318    0.0000 C   0  0  0  0  0  0  0  0  0  0  0  0
  -20.4715  -13.1064    0.0000 C   0  0  0  0  0  0  0  0  0  0  0  0
  -21.1799  -14.4286    0.0000 C   0  0  0  0  0  0  0  0  0  0  0  0
  -21.8031  -15.7930    0.0000 C   0  0  0  0  0  0  0  0  0  0  0  0
  -22.3384  -17.1942    0.0000 C   0  0  0  0  0  0  0  0  0  0  0  0
  -22.7838  -18.6266    0.0000 C   0  0  0  0  0  0  0  0  0  0  0  0
  -23.1374  -20.0843    0.0000 C   0  0  0  0  0  0  0  0  0  0  0  0
  -23.3979  -21.5615    0.0000 C   0  0  0  0  0  0  0  0  0  0  0  0
  -23.5641  -23.0523    0.0000 C   0  0  0  0  0  0  0  0  0  0  0  0
  -23.6355  -24.5506    0.0000 C   0  0  0  0  0  0  0  0  0  0  0  0
  -23.6117  -26.0504    0.0000 C   0  0  0  0  0  0  0  0  0  0  0  0
  -23.4928  -27.5457    0.0000 C   0  0  0  0  0  0  0  0  0  0  0  0
  -23.2794  -29.0304    0.0000 C   0  0  0  0  0  0  0  0  0  0  0  0
  -22.9721  -30.4986    0.0000 C   0  0  0  0  0  0  0  0  0  0  0  0
  -22.5724  -31.9444    0.0000 C   0  0  0  0  0  0  0  0  0  0  0  0
  -22.0818  -33.3619    0.0000 C   0  0  0  0  0  0  0  0  0  0  0  0
  -21.5023  -34.7454    0.0000 C   0  0  0  0  0  0  0  0  0  0  0  0
  -20.8362  -36.0894    0.0000 C   0  0  0  0  0  0  0  0  0  0  0  0
  -20.0862  -37.3884    0.0000 C   0  0  0  0  0  0  0  0  0  0  0  0
  -19.2553  -38.6373    0.0000 C   0  0  0  0  0  0  0  0  0  0  0  0
  -18.3469  -39.8309    0.0000 C   0  0  0  0  0  0  0  0  0  0  0  0
  -17.3646  -40.9645    0.0000 C   0  0  0  0  0  0  0  0  0  0  0  0
  -16.3124  -42.0336    0.0000 C   0  0  0  0  0  0  0  0  0  0  0  0
  -15.1945  -43.0337    0.0000 C   0  0  0  0  0  0  0  0  0  0  0  0
  -14.0154  -43.9610    0.0000 C   0  0  0  0  0  0  0  0  0  0  0  0
  -12.7799  -44.8116    0.0000 C   0  0  0  0  0  0  0  0  0  0  0  0
  -11.4929  -45.5821    0.0000 C   0  0  0  0  0  0  0  0  0  0  0  0
  -10.1597  -46.2694    0.0000 C   0  0  0  0  0  0  0  0  0  0  0  0
   -8.7855  -46.8708    0.0000 C   0  0  0  0  0  0  0  0  0  0  0  0
   -7.3760  -47.3838    0.0000 C   0  0  0  0  0  0  0  0  0  0  0  0
   -5.9368  -47.8064    0.0000 C   0  0  0  0  0  0  0  0  0  0  0  0
   -4.4736  -48.1369    0.0000 C   0  0  0  0  0  0  0  0  0  0  0  0
   -2.9925  -48.3739    0.0000 C   0  0  0  0  0  0  0  0  0  0  0  0
   -1.4992  -48.5165    0.0000 C   0  0  0  0  0  0  0  0  0  0  0  0
   -0.0000  -48.5641    0.0000 C   0  0  0  0  0  0  0  0  0  0  0  0
    1.4992  -48.5165    0.0000 C   0  0  0  0  0  0  0  0  0  0  0  0
    2.9925  -48.3739    0.0000 C   0  0  0  0  0  0  0  0  0  0  0  0
    4.4736  -48.1369    0.0000 C   0  0  0  0  0  0  0  0  0  0  0  0
    5.9368  -47.8064    0.0000 C   0  0  0  0  0  0  0  0  0  0  0  0
    7.3760  -47.3838    0.0000 C   0  0  0  0  0  0  0  0  0  0  0  0
    8.7855  -46.8708    0.0000 C   0  0  0  0  0  0  0  0  0  0  0  0
   10.1597  -46.2694    0.0000 C   0  0  0  0  0  0  0  0  0  0  0  0
   11.4929  -45.5821    0.0000 C   0  0  0  0  0  0  0  0  0  0  0  0
   12.7799  -44.8116    0.0000 C   0  0  0  0  0  0  0  0  0  0  0  0
   14.0154  -43.9610    0.0000 C   0  0  0  0  0  0  0  0  0  0  0  0
   15.1945  -43.0337    0.0000 C   0  0  0  0  0  0  0  0  0  0  0  0
   16.3124  -42.0336    0.0000 C   0  0  0  0  0  0  0  0  0  0  0  0
   17.3646  -40.9645    0.0000 C   0  0  0  0  0  0  0  0  0  0  0  0
   18.3469  -39.8309    0.0000 C   0  0  0  0  0  0  0  0  0  0  0  0
   19.2553  -38.6373    0.0000 C   0  0  0  0  0  0  0  0  0  0  0  0
   20.0862  -37.3884    0.0000 C   0  0  0  0  0  0  0  0  0  0  0  0
   20.8362  -36.0894    0.0000 C   0  0  0  0  0  0  0  0  0  0  0  0
   21.5023  -34.7454    0.0000 C   0  0  0  0  0  0  0  0  0  0  0  0
   22.0818  -33.3619    0.0000 C   0  0  0  0  0  0  0  0  0  0  0  0
   22.5724  -31.9444    0.0000 C   0  0  0  0  0  0  0  0  0  0  0  0
   22.9721  -30.4986    0.0000 C   0  0  0  0  0  0  0  0  0  0  0  0
   23.2794  -29.0304    0.0000 C   0  0  0  0  0  0  0  0  0  0  0  0
   23.4928  -27.5457    0.0000 C   0  0  0  0  0  0  0  0  0  0  0  0
   23.6117  -26.0504    0.0000 C   0  0  0  0  0  0  0  0  0  0  0  0
   23.6355  -24.5506    0.0000 C   0  0  0  0  0  0  0  0  0  0  0  0
   23.5641  -23.0523    0.0000 C   0  0  0  0  0  0  0  0  0  0  0  0
   23.3979  -21.5615    0.0000 C   0  0  0  0  0  0  0  0  0  0  0  0
   23.1374  -20.0843    0.0000 C   0  0  0  0  0  0  0  0  0  0  0  0
   22.7838  -18.6266    0.0000 C   0  0  0  0  0  0  0  0  0  0  0  0
   22.3384  -17.1942    0.0000 C   0  0  0  0  0  0  0  0  0  0  0  0
   21.8031  -15.7930    0.0000 C   0  0  0  0  0  0  0  0  0  0  0  0
   21.1799  -14.4286    0.0000 C   0  0  0  0  0  0  0  0  0  0  0  0
   20.4715  -13.1064    0.0000 C   0  0  0  0  0  0  0  0  0  0  0  0
   19.6807  -11.8318    0.0000 C   0  0  0  0  0  0  0  0  0  0  0  0
   18.8106  -10.6099    0.0000 C   0  0  0  0  0  0  0  0  0  0  0  0
   17.8648   -9.4457    0.0000 C   0  0  0  0  0  0  0  0  0  0  0  0
   16.8470   -8.3438    0.0000 C   0  0  0  0  0  0  0  0  0  0  0  0
   15.7614   -7.3087    0.0000 C   0  0  0  0  0  0  0  0  0  0  0  0
   14.6123   -6.3445    0.0000 C   0  0  0  0  0  0  0  0  0  0  0  0
   13.4044   -5.4552    0.0000 C   0  0  0  0  0  0  0  0  0  0  0  0
   12.1426   -4.6442    0.0000 C   0  0  0  0  0  0  0  0  0  0  0  0
   10.8318   -3.9149    0.0000 C   0  0  0  0  0  0  0  0  0  0  0  0
    9.4774   -3.2702    0.0000 C   0  0  0  0  0  0  0  0  0  0  0  0
    8.0848   -2.7127    0.0000 C   0  0  0  0  0  0  0  0  0  0  0  0
    6.6597   -2.2447    0.0000 C   0  0  0  0  0  0  0  0  0  0  0  0
    5.2078   -1.8679    0.0000 C   0  0  0  0  0  0  0  0  0  0  0  0
    3.7349   -1.5841    0.0000 C   0  0  0  0  0  0  0  0  0  0  0  0
    2.2470   -1.3942    0.0000 C   0  0  0  0  0  0  0  0  0  0  0  0
    0.7500   -1.2990    0.0000 C   0  0  0  0  0  0  0  0  0  0  0  0
    1.5000    0.0000    0.0000 C   0  0  0  0  0  0  0  0  0  0  0  0
    0.7500    1.2990    0.0000 C   0  0  0  0  0  0  0  0  0  0  0  0
   -0.7500    1.2990    0.0000 C   0  0  0  0  0  0  0  0  0  0  0  0
   -1.5000    0.0000    0.0000 C   0  0  0  0  0  0  0  0  0  0  0  0
   -0.7500   -1.2990    0.0000 C   0  0  0  0  0  0  0  0  0  0  0  0
   -2.2470   -1.3942    0.0000 C   0  0  0  0  0  0  0  0  0  0  0  0
   -1.3386   -2.5878    0.0000 C   0  0  0  0  0  0  0  0  0  0  0  0
   -1.9181   -3.9713    0.0000 C   0  0  0  0  0  0  0  0  0  0  0  0
   -3.4060   -4.1612    0.0000 C   0  0  0  0  0  0  0  0  0  0  0  0
   -4.3144   -2.9676    0.0000 C   0  0  0  0  0  0  0  0  0  0  0  0
   -3.7349   -1.5841    0.0000 C   0  0  0  0  0  0  0  0  0  0  0  0
  1  2  1  0
  2  3  1  0
  3  4  1  0
  4  5  1  0
  5  6  1  0
  6  7  1  0
  7  8  1  0
  8  9  1  0
  9 10  1  0
 10 11  1  0
 11 12  1  0
 12 13  1  0
 13 14  1  0
 14 15  1  0
 15 16  1  0
 16 17  1  0
 17 18  1  0
 18 19  1  0
 19 20  1  0
 20 21  1  0
 21 22  1  0
 22 23  1  0
 23 24  1  0
 24 25  1  0
 25 26  1  0
 26 27  1  0
 27 28  1  0
 28 29  1  0
 29 30  1  0
 30 31  1  0
 31 32  1  0
 32 33  1  0
 33 34  1  0
 34 35  1  0
 35 36  1  0
 36 37  1  0
 37 38  1  0
 38 39  1  0
 39 40  1  0
 40 41  1  0
 41 42  1  0
 42 43  1  0
 43 44  1  0
 44 45  1  0
 45 46  1  0
 46 47  1  0
 47 48  1  0
 48 49  1  0
 49 50  1  0
 50 51  1  0
 51 52  1  0
 52 53  1  0
 53 54  1  0
 54 55  1  0
 55 56  1  0
 56 57  1  0
 57 58  1  0
 58 59  1  0
 59 60  1  0
 60 61  1  0
 61 62  1  0
 62 63  1  0
 63 64  1  0
 64 65  1  0
 65 66  1  0
 66 67  1  0
 67 68  1  0
 68 69  1  0
 69 70  1  0
 70 71  1  0
 71 72  1  0
 72 73  1  0
 73 74  1  0
 74 75  1  0
 75 76  1  0
 76 77  1  0
 77 78  1  0
 78 79  1  0
 79 80  1  0
 80 81  1  0
 81 82  1  0
 82 83  1  0
 83 84  1  0
 84 85  1  0
 85 86  1  0
 86 87  1  0
 87 88  1  0
 88 89  1  0
 89 90  1  0
 90 91  1  0
 91 92  1  0
 92 93  1  0
 93 94  1  0
 94 95  1  0
 95 96  1  0
 96 97  1  0
 97 98  2  0
 98 99  1  0
 99100  2  0
100101  1  0
101102  2  0
102103  1  0
103104  2  0
104105  1  0
105106  2  0
106107  1  0
107108  2  0
108  2  1  0
102 97  1  0
108103  1  0
M  END
>  <Title>  (522) 
idAASDgen9

$$$$

     RDKit          2D

  8  8  0  0  0  0  0  0  0  0999 V2000
    4.2760   -0.0000    0.0000 N   0  0  0  0  0  0  0  0  0  0  0  0
    2.7760    0.0000    0.0000 C   0  0  0  0  0  0  0  0  0  0  0  0
    1.2760    0.0000    0.0000 C   0  0  0  0  0  0  0  0  0  0  0  0
    0.3943    1.2135    0.0000 C   0  0  0  0  0  0  0  0  0  0  0  0
   -1.0323    0.7500    0.0000 C   0  0  0  0  0  0  0  0  0  0  0  0
   -1.0323   -0.7500    0.0000 C   0  0  0  0  0  0  0  0  0  0  0  0
   -2.2458   -1.6317    0.0000 O   0  0  0  0  0  0  0  0  0  0  0  0
    0.3943   -1.2135    0.0000 C   0  0  0  0  0  0  0  0  0  0  0  0
  1  2  3  0
  2  3  1  0
  3  4  1  0
  4  5  2  0
  5  6  1  0
  6  7  1  0
  6  8  2  0
  8  3  1  0
M  END
>  <Title>  (523) 
idAASEgen9

$$$$

     RDKit          2D

 18 19  0  0  0  0  0  0  0  0999 V2000
    3.0000    0.0000    0.0000 C   0  0  0  0  0  0  0  0  0  0  0  0
    1.5000    0.0000    0.0000 C   0  0  0  0  0  0  0  0  0  0  0  0
    0.7500   -1.2990    0.0000 C   0  0  0  0  0  0  0  0  0  0  0  0
   -0.7500   -1.2990    0.0000 C   0  0  0  0  0  0  0  0  0  0  0  0
   -1.5000    0.0000    0.0000 C   0  0  0  0  0  0  0  0  0  0  0  0
   -3.0000    0.0000    0.0000 C   0  0  0  0  0  0  0  0  0  0  0  0
   -0.7500    1.2990    0.0000 N   0  0  0  0  0  0  0  0  0  0  0  0
   -1.5000    2.5981    0.0000 C   0  0  0  0  0  0  0  0  0  0  0  0
   -0.7500    3.8971    0.0000 C   0  0  0  0  0  0  0  0  0  0  0  0
    0.7500    3.8971    0.0000 O   0  0  0  0  0  0  0  0  0  0  0  0
   -1.5000    5.1962    0.0000 N   0  0  0  0  0  0  0  0  0  0  0  0
   -0.7500    6.4952    0.0000 C   0  0  0  0  0  0  0  0  0  0  0  0
   -1.3601    7.8655    0.0000 C   0  0  0  0  0  0  0  0  0  0  0  0
   -0.2454    8.8692    0.0000 C   0  0  0  0  0  0  0  0  0  0  0  0
    1.0537    8.1192    0.0000 C   0  0  0  0  0  0  0  0  0  0  0  0
    0.7418    6.6520    0.0000 C   0  0  0  0  0  0  0  0  0  0  0  0
    0.7500    1.2990    0.0000 C   0  0  0  0  0  0  0  0  0  0  0  0
    1.5000    2.5981    0.0000 O   0  0  0  0  0  0  0  0  0  0  0  0
  1  2  1  0
  2  3  2  0
  3  4  1  0
  4  5  2  0
  5  6  1  0
  5  7  1  0
  7  8  1  0
  8  9  1  0
  9 10  2  0
  9 11  1  0
 11 12  1  0
 12 13  2  0
 13 14  1  0
 14 15  2  0
 15 16  1  0
  7 17  1  0
 17 18  2  0
 17  2  1  0
 16 12  1  0
M  END
>  <Title>  (524) 
idAASFgen9

$$$$

     RDKit          2D

  8  8  0  0  0  0  0  0  0  0999 V2000
    3.0000    0.0000    0.0000 C   0  0  0  0  0  0  0  0  0  0  0  0
    1.5000    0.0000    0.0000 C   0  0  0  0  0  0  0  0  0  0  0  0
    0.7500   -1.2990    0.0000 C   0  0  0  0  0  0  0  0  0  0  0  0
   -0.7500   -1.2990    0.0000 C   0  0  0  0  0  0  0  0  0  0  0  0
   -1.5000    0.0000    0.0000 C   0  0  0  0  0  0  0  0  0  0  0  0
   -0.7500    1.2990    0.0000 C   0  0  0  0  0  0  0  0  0  0  0  0
    0.7500    1.2990    0.0000 C   0  0  0  0  0  0  0  0  0  0  0  0
    1.5000    2.5981    0.0000 O   0  0  0  0  0  0  0  0  0  0  0  0
  1  2  1  0
  2  3  2  0
  3  4  1  0
  4  5  2  0
  5  6  1  0
  6  7  2  0
  7  8  1  0
  7  2  1  0
M  END
>  <Title>  (525) 
idAASGgen9

$$$$

     RDKit          2D

103104  0  0  0  0  0  0  0  0999 V2000
   -2.3910    0.0979    0.0000 C   0  0  0  0  0  0  0  0  0  0  0  0
   -2.2469   -1.3951    0.0000 C   0  0  0  0  0  0  0  0  0  0  0  0
   -3.7346   -1.5870    0.0000 C   0  0  0  0  0  0  0  0  0  0  0  0
   -5.2069   -1.8737    0.0000 C   0  0  0  0  0  0  0  0  0  0  0  0
   -6.6579   -2.2542    0.0000 C   0  0  0  0  0  0  0  0  0  0  0  0
   -8.0815   -2.7268    0.0000 C   0  0  0  0  0  0  0  0  0  0  0  0
   -9.4718   -3.2897    0.0000 C   0  0  0  0  0  0  0  0  0  0  0  0
  -10.8233   -3.9406    0.0000 C   0  0  0  0  0  0  0  0  0  0  0  0
  -12.1303   -4.6766    0.0000 C   0  0  0  0  0  0  0  0  0  0  0  0
  -13.3874   -5.4949    0.0000 C   0  0  0  0  0  0  0  0  0  0  0  0
  -14.5895   -6.3921    0.0000 C   0  0  0  0  0  0  0  0  0  0  0  0
  -15.7317   -7.3645    0.0000 C   0  0  0  0  0  0  0  0  0  0  0  0
  -16.8092   -8.4080    0.0000 C   0  0  0  0  0  0  0  0  0  0  0  0
  -17.8177   -9.5184    0.0000 C   0  0  0  0  0  0  0  0  0  0  0  0
  -18.7529  -10.6911    0.0000 C   0  0  0  0  0  0  0  0  0  0  0  0
  -19.6111  -11.9214    0.0000 C   0  0  0  0  0  0  0  0  0  0  0  0
  -20.3887  -13.2041    0.0000 C   0  0  0  0  0  0  0  0  0  0  0  0
  -21.0825  -14.5340    0.0000 C   0  0  0  0  0  0  0  0  0  0  0  0
  -21.6897  -15.9056    0.0000 C   0  0  0  0  0  0  0  0  0  0  0  0
  -22.2077  -17.3133    0.0000 C   0  0  0  0  0  0  0  0  0  0  0  0
  -22.6345  -18.7513    0.0000 C   0  0  0  0  0  0  0  0  0  0  0  0
  -22.9683  -20.2137    0.0000 C   0  0  0  0  0  0  0  0  0  0  0  0
  -23.2077  -21.6945    0.0000 C   0  0  0  0  0  0  0  0  0  0  0  0
  -23.3517  -23.1876    0.0000 C   0  0  0  0  0  0  0  0  0  0  0  0
  -23.3998  -24.6868    0.0000 C   0  0  0  0  0  0  0  0  0  0  0  0
  -23.3517  -26.1860    0.0000 C   0  0  0  0  0  0  0  0  0  0  0  0
  -23.2077  -27.6791    0.0000 C   0  0  0  0  0  0  0  0  0  0  0  0
  -22.9683  -29.1599    0.0000 C   0  0  0  0  0  0  0  0  0  0  0  0
  -22.6345  -30.6223    0.0000 C   0  0  0  0  0  0  0  0  0  0  0  0
  -22.2077  -32.0603    0.0000 C   0  0  0  0  0  0  0  0  0  0  0  0
  -21.6897  -33.4680    0.0000 C   0  0  0  0  0  0  0  0  0  0  0  0
  -21.0825  -34.8396    0.0000 C   0  0  0  0  0  0  0  0  0  0  0  0
  -20.3887  -36.1695    0.0000 C   0  0  0  0  0  0  0  0  0  0  0  0
  -19.6111  -37.4522    0.0000 C   0  0  0  0  0  0  0  0  0  0  0  0
  -18.7529  -38.6825    0.0000 C   0  0  0  0  0  0  0  0  0  0  0  0
  -17.8177  -39.8552    0.0000 C   0  0  0  0  0  0  0  0  0  0  0  0
  -16.8092  -40.9656    0.0000 C   0  0  0  0  0  0  0  0  0  0  0  0
  -15.7317  -42.0091    0.0000 C   0  0  0  0  0  0  0  0  0  0  0  0
  -14.5895  -42.9815    0.0000 C   0  0  0  0  0  0  0  0  0  0  0  0
  -13.3874  -43.8787    0.0000 C   0  0  0  0  0  0  0  0  0  0  0  0
  -12.1303  -44.6970    0.0000 C   0  0  0  0  0  0  0  0  0  0  0  0
  -10.8233  -45.4330    0.0000 C   0  0  0  0  0  0  0  0  0  0  0  0
   -9.4718  -46.0839    0.0000 C   0  0  0  0  0  0  0  0  0  0  0  0
   -8.0815  -46.6468    0.0000 C   0  0  0  0  0  0  0  0  0  0  0  0
   -6.6579  -47.1194    0.0000 C   0  0  0  0  0  0  0  0  0  0  0  0
   -5.2069  -47.4999    0.0000 C   0  0  0  0  0  0  0  0  0  0  0  0
   -3.7346  -47.7866    0.0000 C   0  0  0  0  0  0  0  0  0  0  0  0
   -2.2469  -47.9785    0.0000 C   0  0  0  0  0  0  0  0  0  0  0  0
   -0.7500  -48.0746    0.0000 C   0  0  0  0  0  0  0  0  0  0  0  0
    0.7500  -48.0746    0.0000 C   0  0  0  0  0  0  0  0  0  0  0  0
    2.2469  -47.9785    0.0000 C   0  0  0  0  0  0  0  0  0  0  0  0
    3.7346  -47.7866    0.0000 C   0  0  0  0  0  0  0  0  0  0  0  0
    5.2069  -47.4999    0.0000 C   0  0  0  0  0  0  0  0  0  0  0  0
    6.6579  -47.1194    0.0000 C   0  0  0  0  0  0  0  0  0  0  0  0
    8.0815  -46.6468    0.0000 C   0  0  0  0  0  0  0  0  0  0  0  0
    9.4718  -46.0839    0.0000 C   0  0  0  0  0  0  0  0  0  0  0  0
   10.8233  -45.4330    0.0000 C   0  0  0  0  0  0  0  0  0  0  0  0
   12.1303  -44.6970    0.0000 C   0  0  0  0  0  0  0  0  0  0  0  0
   13.3874  -43.8787    0.0000 C   0  0  0  0  0  0  0  0  0  0  0  0
   14.5895  -42.9815    0.0000 C   0  0  0  0  0  0  0  0  0  0  0  0
   15.7317  -42.0091    0.0000 C   0  0  0  0  0  0  0  0  0  0  0  0
   16.8092  -40.9656    0.0000 C   0  0  0  0  0  0  0  0  0  0  0  0
   17.8177  -39.8552    0.0000 C   0  0  0  0  0  0  0  0  0  0  0  0
   18.7529  -38.6825    0.0000 C   0  0  0  0  0  0  0  0  0  0  0  0
   19.6111  -37.4522    0.0000 C   0  0  0  0  0  0  0  0  0  0  0  0
   20.3887  -36.1695    0.0000 C   0  0  0  0  0  0  0  0  0  0  0  0
   21.0825  -34.8396    0.0000 C   0  0  0  0  0  0  0  0  0  0  0  0
   21.6897  -33.4680    0.0000 C   0  0  0  0  0  0  0  0  0  0  0  0
   22.2077  -32.0603    0.0000 C   0  0  0  0  0  0  0  0  0  0  0  0
   22.6345  -30.6223    0.0000 C   0  0  0  0  0  0  0  0  0  0  0  0
   22.9683  -29.1599    0.0000 C   0  0  0  0  0  0  0  0  0  0  0  0
   23.2077  -27.6791    0.0000 C   0  0  0  0  0  0  0  0  0  0  0  0
   23.3517  -26.1860    0.0000 C   0  0  0  0  0  0  0  0  0  0  0  0
   23.3998  -24.6868    0.0000 C   0  0  0  0  0  0  0  0  0  0  0  0
   23.3517  -23.1876    0.0000 C   0  0  0  0  0  0  0  0  0  0  0  0
   23.2077  -21.6945    0.0000 C   0  0  0  0  0  0  0  0  0  0  0  0
   22.9683  -20.2137    0.0000 C   0  0  0  0  0  0  0  0  0  0  0  0
   22.6345  -18.7513    0.0000 C   0  0  0  0  0  0  0  0  0  0  0  0
   22.2077  -17.3133    0.0000 C   0  0  0  0  0  0  0  0  0  0  0  0
   21.6897  -15.9056    0.0000 C   0  0  0  0  0  0  0  0  0  0  0  0
   21.0825  -14.5340    0.0000 C   0  0  0  0  0  0  0  0  0  0  0  0
   20.3887  -13.2041    0.0000 C   0  0  0  0  0  0  0  0  0  0  0  0
   19.6111  -11.9214    0.0000 C   0  0  0  0  0  0  0  0  0  0  0  0
   18.7529  -10.6911    0.0000 C   0  0  0  0  0  0  0  0  0  0  0  0
   17.8177   -9.5184    0.0000 C   0  0  0  0  0  0  0  0  0  0  0  0
   16.8092   -8.4080    0.0000 C   0  0  0  0  0  0  0  0  0  0  0  0
   15.7317   -7.3645    0.0000 C   0  0  0  0  0  0  0  0  0  0  0  0
   14.5895   -6.3921    0.0000 C   0  0  0  0  0  0  0  0  0  0  0  0
   13.3874   -5.4949    0.0000 C   0  0  0  0  0  0  0  0  0  0  0  0
   12.1303   -4.6766    0.0000 C   0  0  0  0  0  0  0  0  0  0  0  0
   10.8233   -3.9406    0.0000 C   0  0  0  0  0  0  0  0  0  0  0  0
    9.4718   -3.2897    0.0000 C   0  0  0  0  0  0  0  0  0  0  0  0
    8.0815   -2.7268    0.0000 C   0  0  0  0  0  0  0  0  0  0  0  0
    6.6579   -2.2542    0.0000 C   0  0  0  0  0  0  0  0  0  0  0  0
    5.2069   -1.8737    0.0000 C   0  0  0  0  0  0  0  0  0  0  0  0
    3.7346   -1.5870    0.0000 C   0  0  0  0  0  0  0  0  0  0  0  0
    2.2469   -1.3951    0.0000 C   0  0  0  0  0  0  0  0  0  0  0  0
    0.7500   -1.2990    0.0000 C   0  0  0  0  0  0  0  0  0  0  0  0
    1.5000    0.0000    0.0000 C   0  0  0  0  0  0  0  0  0  0  0  0
    0.7500    1.2990    0.0000 C   0  0  0  0  0  0  0  0  0  0  0  0
   -0.7500    1.2990    0.0000 C   0  0  0  0  0  0  0  0  0  0  0  0
   -1.5000    0.0000    0.0000 C   0  0  0  0  0  0  0  0  0  0  0  0
   -0.7500   -1.2990    0.0000 C   0  0  0  0  0  0  0  0  0  0  0  0
  1  2  1  0
  2  3  1  0
  3  4  2  0
  4  5  1  0
  5  6  1  0
  6  7  1  0
  7  8  1  0
  8  9  1  0
  9 10  1  0
 10 11  1  0
 11 12  1  0
 12 13  1  0
 13 14  1  0
 14 15  1  0
 15 16  1  0
 16 17  1  0
 17 18  1  0
 18 19  1  0
 19 20  1  0
 20 21  1  0
 21 22  1  0
 22 23  1  0
 23 24  1  0
 24 25  1  0
 25 26  1  0
 26 27  1  0
 27 28  1  0
 28 29  1  0
 29 30  1  0
 30 31  1  0
 31 32  1  0
 32 33  1  0
 33 34  1  0
 34 35  1  0
 35 36  1  0
 36 37  1  0
 37 38  1  0
 38 39  1  0
 39 40  1  0
 40 41  1  0
 41 42  1  0
 42 43  1  0
 43 44  1  0
 44 45  1  0
 45 46  1  0
 46 47  1  0
 47 48  1  0
 48 49  1  0
 49 50  1  0
 50 51  1  0
 51 52  1  0
 52 53  1  0
 53 54  1  0
 54 55  1  0
 55 56  1  0
 56 57  1  0
 57 58  1  0
 58 59  1  0
 59 60  1  0
 60 61  1  0
 61 62  1  0
 62 63  1  0
 63 64  1  0
 64 65  1  0
 65 66  1  0
 66 67  1  0
 67 68  1  0
 68 69  1  0
 69 70  1  0
 70 71  1  0
 71 72  1  0
 72 73  1  0
 73 74  1  0
 74 75  1  0
 75 76  1  0
 76 77  1  0
 77 78  1  0
 78 79  1  0
 79 80  1  0
 80 81  1  0
 81 82  1  0
 82 83  1  0
 83 84  1  0
 84 85  1  0
 85 86  1  0
 86 87  1  0
 87 88  1  0
 88 89  1  0
 89 90  1  0
 90 91  1  0
 91 92  1  0
 92 93  1  0
 93 94  1  0
 94 95  1  0
 95 96  1  0
 96 97  1  0
 97 98  1  0
 98 99  2  0
 99100  1  0
100101  2  0
101102  1  0
102103  2  0
103  2  1  0
103 98  1  0
M  END
>  <Title>  (526) 
idAASHgen9

$$$$

     RDKit          2D

 16 16  0  0  0  0  0  0  0  0999 V2000
   16.2760   -0.0000    0.0000 C   0  0  0  0  0  0  0  0  0  0  0  0
   14.7760   -0.0000    0.0000 C   0  0  0  0  0  0  0  0  0  0  0  0
   13.2760   -0.0000    0.0000 C   0  0  0  0  0  0  0  0  0  0  0  0
   11.7760   -0.0000    0.0000 C   0  0  0  0  0  0  0  0  0  0  0  0
   10.2760   -0.0000    0.0000 C   0  0  0  0  0  0  0  0  0  0  0  0
    8.7760   -0.0000    0.0000 C   0  0  0  0  0  0  0  0  0  0  0  0
    7.2760   -0.0000    0.0000 C   0  0  0  0  0  0  0  0  0  0  0  0
    5.7760   -0.0000    0.0000 C   0  0  0  0  0  0  0  0  0  0  0  0
    4.2760   -0.0000    0.0000 C   0  0  0  0  0  0  0  0  0  0  0  0
    2.7760    0.0000    0.0000 C   0  0  0  0  0  0  0  0  0  0  0  0
    1.2760    0.0000    0.0000 C   0  0  0  0  0  0  0  0  0  0  0  0
    0.3943    1.2135    0.0000 C   0  0  0  0  0  0  0  0  0  0  0  0
   -1.0323    0.7500    0.0000 C   0  0  0  0  0  0  0  0  0  0  0  0
   -1.0323   -0.7500    0.0000 C   0  0  0  0  0  0  0  0  0  0  0  0
   -2.2458   -1.6317    0.0000 O   0  0  0  0  0  0  0  0  0  0  0  0
    0.3943   -1.2135    0.0000 C   0  0  0  0  0  0  0  0  0  0  0  0
  1  2  3  0
  2  3  1  0
  3  4  3  0
  4  5  1  0
  5  6  3  0
  6  7  1  0
  7  8  3  0
  8  9  1  0
  9 10  3  0
 10 11  1  0
 11 12  2  0
 12 13  1  0
 13 14  2  0
 14 15  1  0
 14 16  1  0
 16 11  1  0
M  END
>  <Title>  (527) 
idAASIgen9

$$$$

     RDKit          2D

 12 13  0  0  0  0  0  0  0  0999 V2000
   -1.4863   -5.5470    0.0000 N   0  0  0  0  0  0  0  0  0  0  0  0
   -0.1873   -4.7970    0.0000 C   0  0  0  0  0  0  0  0  0  0  0  0
    1.1118   -4.0470    0.0000 C   0  0  0  0  0  0  0  0  0  0  0  0
    1.5000   -2.5981    0.0000 C   0  0  0  0  0  0  0  0  0  0  0  0
    0.7500   -1.2990    0.0000 C   0  0  0  0  0  0  0  0  0  0  0  0
    1.5000    0.0000    0.0000 C   0  0  0  0  0  0  0  0  0  0  0  0
    0.7500    1.2990    0.0000 C   0  0  0  0  0  0  0  0  0  0  0  0
   -0.7500    1.2990    0.0000 C   0  0  0  0  0  0  0  0  0  0  0  0
   -1.5000    0.0000    0.0000 N   0  0  0  0  0  0  0  0  0  0  0  0
   -0.7500   -1.2990    0.0000 N   0  0  0  0  0  0  0  0  0  0  0  0
    2.9489   -2.9863    0.0000 C   0  0  0  0  0  0  0  0  0  0  0  0
    2.5607   -4.4352    0.0000 C   0  0  0  0  0  0  0  0  0  0  0  0
  1  2  3  0
  2  3  1  0
  3  4  2  0
  4  5  1  0
  5  6  2  0
  6  7  1  0
  7  8  2  0
  8  9  1  0
  9 10  2  0
  4 11  1  0
 11 12  1  0
 12  3  1  0
 10  5  1  0
M  END
>  <Title>  (528) 
idAASJgen9

$$$$

     RDKit          2D

  8  8  0  0  0  0  0  0  0  0999 V2000
    4.2760   -0.0000    0.0000 N   0  0  0  0  0  0  0  0  0  0  0  0
    2.7760    0.0000    0.0000 C   0  0  0  0  0  0  0  0  0  0  0  0
    1.2760    0.0000    0.0000 C   0  0  0  0  0  0  0  0  0  0  0  0
    0.3943    1.2135    0.0000 C   0  0  0  0  0  0  0  0  0  0  0  0
   -1.0323    0.7500    0.0000 C   0  0  0  0  0  0  0  0  0  0  0  0
   -2.2458    1.6317    0.0000 O   0  0  0  0  0  0  0  0  0  0  0  0
   -1.0323   -0.7500    0.0000 C   0  0  0  0  0  0  0  0  0  0  0  0
    0.3943   -1.2135    0.0000 C   0  0  0  0  0  0  0  0  0  0  0  0
  1  2  3  0
  2  3  1  0
  3  4  2  0
  4  5  1  0
  5  6  1  0
  5  7  1  0
  7  8  2  0
  8  3  1  0
M  END
>  <Title>  (529) 
idAASKgen9

$$$$

     RDKit          2D

 54 62  0  0  0  0  0  0  0  0999 V2000
    4.6001   -4.9005    0.0000 C   0  0  0  0  0  0  0  0  0  0  0  0
    3.1111   -4.7197    0.0000 C   0  0  0  0  0  0  0  0  0  0  0  0
    2.9303   -3.2306    0.0000 C   0  0  0  0  0  0  0  0  0  0  0  0
    2.0782   -1.9961    0.0000 C   0  0  0  0  0  0  0  0  0  0  0  0
    3.0729   -0.8734    0.0000 C   0  0  0  0  0  0  0  0  0  0  0  0
    2.5979    0.5494    0.0000 O   0  0  0  0  0  0  0  0  0  0  0  0
    4.5426   -1.1734    0.0000 N   0  0  0  0  0  0  0  0  0  0  0  0
    5.5372   -0.0506    0.0000 C   0  0  0  0  0  0  0  0  0  0  0  0
    5.2136    1.4140    0.0000 N   0  0  0  0  0  0  0  0  0  0  0  0
    6.5065    2.1745    0.0000 N   0  0  0  0  0  0  0  0  0  0  0  0
    7.6293    1.1798    0.0000 N   0  0  0  0  0  0  0  0  0  0  0  0
    7.0302   -0.1954    0.0000 N   0  0  0  0  0  0  0  0  0  0  0  0
    7.7907   -1.4884    0.0000 C   0  0  0  0  0  0  0  0  0  0  0  0
    7.0512   -2.7934    0.0000 C   0  0  0  0  0  0  0  0  0  0  0  0
    7.8116   -4.0863    0.0000 C   0  0  0  0  0  0  0  0  0  0  0  0
    9.3116   -4.0743    0.0000 C   0  0  0  0  0  0  0  0  0  0  0  0
   10.0511   -2.7692    0.0000 C   0  0  0  0  0  0  0  0  0  0  0  0
    9.2906   -1.4763    0.0000 C   0  0  0  0  0  0  0  0  0  0  0  0
   10.0301   -0.1712    0.0000 C   0  0  0  0  0  0  0  0  0  0  0  0
   11.5301   -0.1592    0.0000 C   0  0  0  0  0  0  0  0  0  0  0  0
   12.2696    1.1459    0.0000 C   0  0  0  0  0  0  0  0  0  0  0  0
   11.5092    2.4388    0.0000 C   0  0  0  0  0  0  0  0  0  0  0  0
   10.0092    2.4268    0.0000 C   0  0  0  0  0  0  0  0  0  0  0  0
    9.2697    1.1217    0.0000 C   0  0  0  0  0  0  0  0  0  0  0  0
    0.7500   -1.2990    0.0000 C   0  0  0  0  0  0  0  0  0  0  0  0
    1.5000    0.0000    0.0000 C   0  0  0  0  0  0  0  0  0  0  0  0
    0.7500    1.2990    0.0000 C   0  0  0  0  0  0  0  0  0  0  0  0
   -0.7500    1.2990    0.0000 C   0  0  0  0  0  0  0  0  0  0  0  0
   -1.5000    0.0000    0.0000 C   0  0  0  0  0  0  0  0  0  0  0  0
   -0.7500   -1.2990    0.0000 C   0  0  0  0  0  0  0  0  0  0  0  0
   -2.0782   -1.9961    0.0000 C   0  0  0  0  0  0  0  0  0  0  0  0
   -2.7212   -0.6409    0.0000 C   0  0  0  0  0  0  0  0  0  0  0  0
   -4.2164   -0.5202    0.0000 C   0  0  0  0  0  0  0  0  0  0  0  0
   -5.0685   -1.7547    0.0000 C   0  0  0  0  0  0  0  0  0  0  0  0
   -4.4254   -3.1099    0.0000 C   0  0  0  0  0  0  0  0  0  0  0  0
   -2.9303   -3.2306    0.0000 C   0  0  0  0  0  0  0  0  0  0  0  0
   -3.1111   -4.7197    0.0000 C   0  0  0  0  0  0  0  0  0  0  0  0
   -4.5917   -4.4790    0.0000 C   0  0  0  0  0  0  0  0  0  0  0  0
   -5.5403   -5.6410    0.0000 C   0  0  0  0  0  0  0  0  0  0  0  0
   -5.0084   -7.0435    0.0000 C   0  0  0  0  0  0  0  0  0  0  0  0
   -3.5278   -7.2841    0.0000 C   0  0  0  0  0  0  0  0  0  0  0  0
   -2.5792   -6.1222    0.0000 C   0  0  0  0  0  0  0  0  0  0  0  0
   -1.4564   -7.1169    0.0000 C   0  0  0  0  0  0  0  0  0  0  0  0
   -2.4955   -8.1987    0.0000 C   0  0  0  0  0  0  0  0  0  0  0  0
   -2.0782   -9.6395    0.0000 C   0  0  0  0  0  0  0  0  0  0  0  0
   -0.6218   -9.9984    0.0000 C   0  0  0  0  0  0  0  0  0  0  0  0
    0.4173   -8.9166    0.0000 C   0  0  0  0  0  0  0  0  0  0  0  0
   -0.0000   -7.4758    0.0000 C   0  0  0  0  0  0  0  0  0  0  0  0
    1.4564   -7.1169    0.0000 C   0  0  0  0  0  0  0  0  0  0  0  0
    1.7565   -8.5866    0.0000 C   0  0  0  0  0  0  0  0  0  0  0  0
    3.1793   -9.0616    0.0000 C   0  0  0  0  0  0  0  0  0  0  0  0
    4.3020   -8.0669    0.0000 C   0  0  0  0  0  0  0  0  0  0  0  0
    4.0020   -6.5972    0.0000 C   0  0  0  0  0  0  0  0  0  0  0  0
    2.5792   -6.1222    0.0000 C   0  0  0  0  0  0  0  0  0  0  0  0
  1  2  1  0
  2  3  2  0
  3  4  1  0
  4  5  1  0
  5  6  2  0
  5  7  1  0
  7  8  1  0
  8  9  2  0
  9 10  1  0
 10 11  2  0
 11 12  1  0
 12 13  1  0
 13 14  2  0
 14 15  1  0
 15 16  2  0
 16 17  1  0
 17 18  2  0
 18 19  1  0
 19 20  2  0
 20 21  1  0
 21 22  2  0
 22 23  1  0
 23 24  2  0
  4 25  1  0
 25 26  2  0
 26 27  1  0
 27 28  2  0
 28 29  1  0
 29 30  2  0
 30 31  1  0
 31 32  2  0
 32 33  1  0
 33 34  2  0
 34 35  1  0
 35 36  2  0
 36 37  1  0
 37 38  2  0
 38 39  1  0
 39 40  2  0
 40 41  1  0
 41 42  2  0
 42 43  1  0
 43 44  2  0
 44 45  1  0
 45 46  2  0
 46 47  1  0
 47 48  2  0
 48 49  1  0
 49 50  2  0
 50 51  1  0
 51 52  2  0
 52 53  1  0
 53 54  2  0
 54  2  1  0
 12  8  1  0
 18 13  1  0
 24 19  1  0
 30 25  1  0
 36 31  1  0
 42 37  1  0
 48 43  1  0
 54 49  1  0
M  END
>  <Title>  (530) 
idAASLgen9

$$$$

     RDKit          2D

 21 23  0  0  0  0  0  0  0  0999 V2000
    3.0000    0.0000    0.0000 C   0  0  0  0  0  0  0  0  0  0  0  0
    1.5000    0.0000    0.0000 C   0  0  0  0  0  0  0  0  0  0  0  0
    0.7500   -1.2990    0.0000 C   0  0  0  0  0  0  0  0  0  0  0  0
   -0.7500   -1.2990    0.0000 C   0  0  0  0  0  0  0  0  0  0  0  0
   -1.5000    0.0000    0.0000 C   0  0  0  0  0  0  0  0  0  0  0  0
   -3.0000    0.0000    0.0000 C   0  0  0  0  0  0  0  0  0  0  0  0
   -3.7500   -1.2990    0.0000 O   0  0  0  0  0  0  0  0  0  0  0  0
   -3.7500    1.2990    0.0000 N   0  0  0  0  0  0  0  0  0  0  0  0
   -5.2500    1.2990    0.0000 C   0  0  0  0  0  0  0  0  0  0  0  0
   -6.1317    0.0855    0.0000 N   0  0  0  0  0  0  0  0  0  0  0  0
   -7.5583    0.5490    0.0000 N   0  0  0  0  0  0  0  0  0  0  0  0
   -7.5583    2.0490    0.0000 N   0  0  0  0  0  0  0  0  0  0  0  0
   -6.1317    2.5126    0.0000 N   0  0  0  0  0  0  0  0  0  0  0  0
   -5.6682    3.9391    0.0000 C   0  0  0  0  0  0  0  0  0  0  0  0
   -4.2009    4.2510    0.0000 C   0  0  0  0  0  0  0  0  0  0  0  0
   -3.7374    5.6776    0.0000 C   0  0  0  0  0  0  0  0  0  0  0  0
   -4.7411    6.7923    0.0000 C   0  0  0  0  0  0  0  0  0  0  0  0
   -6.2083    6.4805    0.0000 C   0  0  0  0  0  0  0  0  0  0  0  0
   -6.6718    5.0539    0.0000 C   0  0  0  0  0  0  0  0  0  0  0  0
   -0.7500    1.2990    0.0000 C   0  0  0  0  0  0  0  0  0  0  0  0
    0.7500    1.2990    0.0000 C   0  0  0  0  0  0  0  0  0  0  0  0
  1  2  1  0
  2  3  1  0
  3  4  1  0
  4  5  1  0
  5  6  1  0
  6  7  2  0
  6  8  1  0
  8  9  1  0
  9 10  2  0
 10 11  1  0
 11 12  2  0
 12 13  1  0
 13 14  1  0
 14 15  2  0
 15 16  1  0
 16 17  2  0
 17 18  1  0
 18 19  2  0
  5 20  1  0
 20 21  1  0
 21  2  1  0
 13  9  1  0
 19 14  1  0
M  END
>  <Title>  (531) 
idAASMgen9

$$$$

     RDKit          2D

126126  0  0  0  0  0  0  0  0999 V2000
   31.3447    0.0000    0.0000 C   0  0  0  0  0  0  0  0  0  0  0  0
   29.8447    0.0000    0.0000 C   0  0  0  0  0  0  0  0  0  0  0  0
   29.8070    1.4995    0.0000 C   0  0  0  0  0  0  0  0  0  0  0  0
   29.6940    2.9953    0.0000 C   0  0  0  0  0  0  0  0  0  0  0  0
   29.5060    4.4834    0.0000 C   0  0  0  0  0  0  0  0  0  0  0  0
   29.2435    5.9603    0.0000 C   0  0  0  0  0  0  0  0  0  0  0  0
   28.9071    7.4221    0.0000 C   0  0  0  0  0  0  0  0  0  0  0  0
   28.4976    8.8651    0.0000 C   0  0  0  0  0  0  0  0  0  0  0  0
   28.0162   10.2858    0.0000 C   0  0  0  0  0  0  0  0  0  0  0  0
   27.4640   11.6804    0.0000 C   0  0  0  0  0  0  0  0  0  0  0  0
   26.8425   13.0456    0.0000 C   0  0  0  0  0  0  0  0  0  0  0  0
   26.1531   14.3778    0.0000 C   0  0  0  0  0  0  0  0  0  0  0  0
   25.3977   15.6737    0.0000 C   0  0  0  0  0  0  0  0  0  0  0  0
   24.5781   16.9300    0.0000 C   0  0  0  0  0  0  0  0  0  0  0  0
   23.6964   18.1435    0.0000 C   0  0  0  0  0  0  0  0  0  0  0  0
   22.7549   19.3112    0.0000 C   0  0  0  0  0  0  0  0  0  0  0  0
   21.7558   20.4301    0.0000 C   0  0  0  0  0  0  0  0  0  0  0  0
   20.7019   21.4974    0.0000 C   0  0  0  0  0  0  0  0  0  0  0  0
   19.5956   22.5104    0.0000 C   0  0  0  0  0  0  0  0  0  0  0  0
   18.4398   23.4665    0.0000 C   0  0  0  0  0  0  0  0  0  0  0  0
   17.2375   24.3634    0.0000 C   0  0  0  0  0  0  0  0  0  0  0  0
   15.9916   25.1987    0.0000 C   0  0  0  0  0  0  0  0  0  0  0  0
   14.7053   25.9704    0.0000 C   0  0  0  0  0  0  0  0  0  0  0  0
   13.3819   26.6764    0.0000 C   0  0  0  0  0  0  0  0  0  0  0  0
   12.0246   27.3151    0.0000 C   0  0  0  0  0  0  0  0  0  0  0  0
   10.6370   27.8848    0.0000 C   0  0  0  0  0  0  0  0  0  0  0  0
    9.2225   28.3840    0.0000 C   0  0  0  0  0  0  0  0  0  0  0  0
    7.7847   28.8115    0.0000 C   0  0  0  0  0  0  0  0  0  0  0  0
    6.3273   29.1663    0.0000 C   0  0  0  0  0  0  0  0  0  0  0  0
    4.8539   29.4473    0.0000 C   0  0  0  0  0  0  0  0  0  0  0  0
    3.3682   29.6540    0.0000 C   0  0  0  0  0  0  0  0  0  0  0  0
    1.8740   29.7858    0.0000 C   0  0  0  0  0  0  0  0  0  0  0  0
    0.3750   29.8423    0.0000 C   0  0  0  0  0  0  0  0  0  0  0  0
   -1.1249   29.8235    0.0000 C   0  0  0  0  0  0  0  0  0  0  0  0
   -2.6219   29.7293    0.0000 C   0  0  0  0  0  0  0  0  0  0  0  0
   -4.1123   29.5600    0.0000 C   0  0  0  0  0  0  0  0  0  0  0  0
   -5.5923   29.3161    0.0000 C   0  0  0  0  0  0  0  0  0  0  0  0
   -7.0582   28.9981    0.0000 C   0  0  0  0  0  0  0  0  0  0  0  0
   -8.5063   28.6068    0.0000 C   0  0  0  0  0  0  0  0  0  0  0  0
   -9.9329   28.1433    0.0000 C   0  0  0  0  0  0  0  0  0  0  0  0
  -11.3344   27.6086    0.0000 C   0  0  0  0  0  0  0  0  0  0  0  0
  -12.7073   27.0043    0.0000 C   0  0  0  0  0  0  0  0  0  0  0  0
  -14.0480   26.3317    0.0000 C   0  0  0  0  0  0  0  0  0  0  0  0
  -15.3533   25.5926    0.0000 C   0  0  0  0  0  0  0  0  0  0  0  0
  -16.6198   24.7889    0.0000 C   0  0  0  0  0  0  0  0  0  0  0  0
  -17.8443   23.9225    0.0000 C   0  0  0  0  0  0  0  0  0  0  0  0
  -19.0237   22.9957    0.0000 C   0  0  0  0  0  0  0  0  0  0  0  0
  -20.1551   22.0109    0.0000 C   0  0  0  0  0  0  0  0  0  0  0  0
  -21.2356   20.9704    0.0000 C   0  0  0  0  0  0  0  0  0  0  0  0
  -22.2624   19.8769    0.0000 C   0  0  0  0  0  0  0  0  0  0  0  0
  -23.2330   18.7333    0.0000 C   0  0  0  0  0  0  0  0  0  0  0  0
  -24.1449   17.5423    0.0000 C   0  0  0  0  0  0  0  0  0  0  0  0
  -24.9958   16.3070    0.0000 C   0  0  0  0  0  0  0  0  0  0  0  0
  -25.7835   15.0305    0.0000 C   0  0  0  0  0  0  0  0  0  0  0  0
  -26.5062   13.7160    0.0000 C   0  0  0  0  0  0  0  0  0  0  0  0
  -27.1618   12.3669    0.0000 C   0  0  0  0  0  0  0  0  0  0  0  0
  -27.7489   10.9866    0.0000 C   0  0  0  0  0  0  0  0  0  0  0  0
  -28.2659    9.5785    0.0000 C   0  0  0  0  0  0  0  0  0  0  0  0
  -28.7114    8.1462    0.0000 C   0  0  0  0  0  0  0  0  0  0  0  0
  -29.0845    6.6933    0.0000 C   0  0  0  0  0  0  0  0  0  0  0  0
  -29.3840    5.2235    0.0000 C   0  0  0  0  0  0  0  0  0  0  0  0
  -29.6094    3.7405    0.0000 C   0  0  0  0  0  0  0  0  0  0  0  0
  -29.7599    2.2481    0.0000 C   0  0  0  0  0  0  0  0  0  0  0  0
  -29.8353    0.7500    0.0000 C   0  0  0  0  0  0  0  0  0  0  0  0
  -29.8353   -0.7500    0.0000 C   0  0  0  0  0  0  0  0  0  0  0  0
  -29.7599   -2.2481    0.0000 C   0  0  0  0  0  0  0  0  0  0  0  0
  -29.6094   -3.7405    0.0000 C   0  0  0  0  0  0  0  0  0  0  0  0
  -29.3840   -5.2235    0.0000 C   0  0  0  0  0  0  0  0  0  0  0  0
  -29.0845   -6.6933    0.0000 C   0  0  0  0  0  0  0  0  0  0  0  0
  -28.7114   -8.1462    0.0000 C   0  0  0  0  0  0  0  0  0  0  0  0
  -28.2659   -9.5785    0.0000 C   0  0  0  0  0  0  0  0  0  0  0  0
  -27.7489  -10.9866    0.0000 C   0  0  0  0  0  0  0  0  0  0  0  0
  -27.1618  -12.3669    0.0000 C   0  0  0  0  0  0  0  0  0  0  0  0
  -26.5062  -13.7160    0.0000 C   0  0  0  0  0  0  0  0  0  0  0  0
  -25.7835  -15.0305    0.0000 C   0  0  0  0  0  0  0  0  0  0  0  0
  -24.9958  -16.3070    0.0000 C   0  0  0  0  0  0  0  0  0  0  0  0
  -24.1449  -17.5423    0.0000 C   0  0  0  0  0  0  0  0  0  0  0  0
  -23.2330  -18.7333    0.0000 C   0  0  0  0  0  0  0  0  0  0  0  0
  -22.2624  -19.8769    0.0000 C   0  0  0  0  0  0  0  0  0  0  0  0
  -21.2356  -20.9704    0.0000 C   0  0  0  0  0  0  0  0  0  0  0  0
  -20.1551  -22.0109    0.0000 C   0  0  0  0  0  0  0  0  0  0  0  0
  -19.0237  -22.9957    0.0000 C   0  0  0  0  0  0  0  0  0  0  0  0
  -17.8443  -23.9225    0.0000 C   0  0  0  0  0  0  0  0  0  0  0  0
  -16.6198  -24.7889    0.0000 C   0  0  0  0  0  0  0  0  0  0  0  0
  -15.3533  -25.5926    0.0000 C   0  0  0  0  0  0  0  0  0  0  0  0
  -14.0480  -26.3317    0.0000 C   0  0  0  0  0  0  0  0  0  0  0  0
  -12.7073  -27.0043    0.0000 C   0  0  0  0  0  0  0  0  0  0  0  0
  -11.3344  -27.6086    0.0000 C   0  0  0  0  0  0  0  0  0  0  0  0
   -9.9329  -28.1433    0.0000 C   0  0  0  0  0  0  0  0  0  0  0  0
   -8.5063  -28.6068    0.0000 C   0  0  0  0  0  0  0  0  0  0  0  0
   -7.0582  -28.9981    0.0000 C   0  0  0  0  0  0  0  0  0  0  0  0
   -5.5923  -29.3161    0.0000 C   0  0  0  0  0  0  0  0  0  0  0  0
   -4.1123  -29.5600    0.0000 C   0  0  0  0  0  0  0  0  0  0  0  0
   -2.6219  -29.7293    0.0000 C   0  0  0  0  0  0  0  0  0  0  0  0
   -1.1249  -29.8235    0.0000 C   0  0  0  0  0  0  0  0  0  0  0  0
    0.3750  -29.8423    0.0000 C   0  0  0  0  0  0  0  0  0  0  0  0
    1.8740  -29.7858    0.0000 C   0  0  0  0  0  0  0  0  0  0  0  0
    3.3682  -29.6540    0.0000 C   0  0  0  0  0  0  0  0  0  0  0  0
    4.8539  -29.4473    0.0000 C   0  0  0  0  0  0  0  0  0  0  0  0
    6.3273  -29.1663    0.0000 C   0  0  0  0  0  0  0  0  0  0  0  0
    7.7847  -28.8115    0.0000 C   0  0  0  0  0  0  0  0  0  0  0  0
    9.2225  -28.3840    0.0000 C   0  0  0  0  0  0  0  0  0  0  0  0
   10.6370  -27.8848    0.0000 C   0  0  0  0  0  0  0  0  0  0  0  0
   12.0246  -27.3151    0.0000 C   0  0  0  0  0  0  0  0  0  0  0  0
   13.3819  -26.6764    0.0000 C   0  0  0  0  0  0  0  0  0  0  0  0
   14.7053  -25.9704    0.0000 C   0  0  0  0  0  0  0  0  0  0  0  0
   15.9916  -25.1987    0.0000 C   0  0  0  0  0  0  0  0  0  0  0  0
   17.2375  -24.3634    0.0000 C   0  0  0  0  0  0  0  0  0  0  0  0
   18.4398  -23.4665    0.0000 C   0  0  0  0  0  0  0  0  0  0  0  0
   19.5956  -22.5104    0.0000 C   0  0  0  0  0  0  0  0  0  0  0  0
   20.7019  -21.4974    0.0000 C   0  0  0  0  0  0  0  0  0  0  0  0
   21.7558  -20.4301    0.0000 C   0  0  0  0  0  0  0  0  0  0  0  0
   22.7549  -19.3112    0.0000 C   0  0  0  0  0  0  0  0  0  0  0  0
   23.6964  -18.1435    0.0000 C   0  0  0  0  0  0  0  0  0  0  0  0
   24.5781  -16.9300    0.0000 C   0  0  0  0  0  0  0  0  0  0  0  0
   25.3977  -15.6737    0.0000 C   0  0  0  0  0  0  0  0  0  0  0  0
   26.1531  -14.3778    0.0000 C   0  0  0  0  0  0  0  0  0  0  0  0
   26.8425  -13.0456    0.0000 C   0  0  0  0  0  0  0  0  0  0  0  0
   27.4640  -11.6804    0.0000 C   0  0  0  0  0  0  0  0  0  0  0  0
   28.0162  -10.2858    0.0000 C   0  0  0  0  0  0  0  0  0  0  0  0
   28.4976   -8.8651    0.0000 C   0  0  0  0  0  0  0  0  0  0  0  0
   28.9071   -7.4221    0.0000 C   0  0  0  0  0  0  0  0  0  0  0  0
   29.2435   -5.9603    0.0000 C   0  0  0  0  0  0  0  0  0  0  0  0
   29.5060   -4.4834    0.0000 C   0  0  0  0  0  0  0  0  0  0  0  0
   29.6940   -2.9953    0.0000 C   0  0  0  0  0  0  0  0  0  0  0  0
   29.8070   -1.4995    0.0000 C   0  0  0  0  0  0  0  0  0  0  0  0
  1  2  1  0
  2  3  1  0
  3  4  1  0
  4  5  1  0
  5  6  1  0
  6  7  1  0
  7  8  1  0
  8  9  1  0
  9 10  1  0
 10 11  1  0
 11 12  1  0
 12 13  1  0
 13 14  1  0
 14 15  1  0
 15 16  1  0
 16 17  1  0
 17 18  1  0
 18 19  1  0
 19 20  1  0
 20 21  1  0
 21 22  1  0
 22 23  1  0
 23 24  1  0
 24 25  1  0
 25 26  1  0
 26 27  1  0
 27 28  1  0
 28 29  1  0
 29 30  1  0
 30 31  1  0
 31 32  1  0
 32 33  1  0
 33 34  1  0
 34 35  1  0
 35 36  1  0
 36 37  1  0
 37 38  1  0
 38 39  1  0
 39 40  1  0
 40 41  1  0
 41 42  1  0
 42 43  1  0
 43 44  1  0
 44 45  1  0
 45 46  1  0
 46 47  1  0
 47 48  1  0
 48 49  1  0
 49 50  1  0
 50 51  1  0
 51 52  1  0
 52 53  1  0
 53 54  1  0
 54 55  1  0
 55 56  1  0
 56 57  1  0
 57 58  1  0
 58 59  1  0
 59 60  1  0
 60 61  1  0
 61 62  1  0
 62 63  1  0
 63 64  1  0
 64 65  1  0
 65 66  1  0
 66 67  1  0
 67 68  1  0
 68 69  1  0
 69 70  1  0
 70 71  1  0
 71 72  1  0
 72 73  1  0
 73 74  1  0
 74 75  1  0
 75 76  1  0
 76 77  1  0
 77 78  1  0
 78 79  1  0
 79 80  1  0
 80 81  1  0
 81 82  1  0
 82 83  1  0
 83 84  1  0
 84 85  1  0
 85 86  1  0
 86 87  1  0
 87 88  1  0
 88 89  1  0
 89 90  1  0
 90 91  1  0
 91 92  1  0
 92 93  1  0
 93 94  1  0
 94 95  1  0
 95 96  1  0
 96 97  1  0
 97 98  1  0
 98 99  1  0
 99100  1  0
100101  1  0
101102  1  0
102103  1  0
103104  1  0
104105  1  0
105106  1  0
106107  1  0
107108  1  0
108109  1  0
109110  1  0
110111  1  0
111112  1  0
112113  1  0
113114  1  0
114115  1  0
115116  1  0
116117  1  0
117118  1  0
118119  1  0
119120  1  0
120121  1  0
121122  1  0
122123  1  0
123124  1  0
124125  1  0
125126  1  0
126  2  1  0
M  END
>  <Title>  (532) 
idAASNgen9

$$$$

     RDKit          2D

  7  7  0  0  0  0  0  0  0  0999 V2000
    2.7760    0.0000    0.0000 C   0  0  0  0  0  0  0  0  0  0  0  0
    1.2760    0.0000    0.0000 C   0  0  0  0  0  0  0  0  0  0  0  0
    0.3943    1.2135    0.0000 C   0  0  0  0  0  0  0  0  0  0  0  0
   -1.0323    0.7500    0.0000 C   0  0  0  0  0  0  0  0  0  0  0  0
   -2.2458    1.6317    0.0000 O   0  0  0  0  0  0  0  0  0  0  0  0
   -1.0323   -0.7500    0.0000 C   0  0  0  0  0  0  0  0  0  0  0  0
    0.3943   -1.2135    0.0000 C   0  0  0  0  0  0  0  0  0  0  0  0
  1  2  1  0
  2  3  2  0
  3  4  1  0
  4  5  1  0
  4  6  1  0
  6  7  2  0
  7  2  1  0
M  END
>  <Title>  (533) 
idAASOgen9

$$$$

     RDKit          2D

 69 79  0  0  0  0  0  0  0  0999 V2000
    6.9916   -6.2775    0.0000 C   0  0  0  0  0  0  0  0  0  0  0  0
    5.4951   -6.3798    0.0000 C   0  0  0  0  0  0  0  0  0  0  0  0
    5.1899   -4.9112    0.0000 C   0  0  0  0  0  0  0  0  0  0  0  0
    4.4998   -3.5794    0.0000 C   0  0  0  0  0  0  0  0  0  0  0  0
    3.4760   -2.4831    0.0000 C   0  0  0  0  0  0  0  0  0  0  0  0
    2.1944   -1.7037    0.0000 C   0  0  0  0  0  0  0  0  0  0  0  0
    2.7920   -0.3279    0.0000 C   0  0  0  0  0  0  0  0  0  0  0  0
    1.8993    0.8775    0.0000 O   0  0  0  0  0  0  0  0  0  0  0  0
    4.2823   -0.1575    0.0000 N   0  0  0  0  0  0  0  0  0  0  0  0
    4.8799    1.2183    0.0000 C   0  0  0  0  0  0  0  0  0  0  0  0
    6.3702    1.3886    0.0000 N   0  0  0  0  0  0  0  0  0  0  0  0
    6.9678    2.7645    0.0000 N   0  0  0  0  0  0  0  0  0  0  0  0
    6.0751    3.9699    0.0000 N   0  0  0  0  0  0  0  0  0  0  0  0
    4.5848    3.7995    0.0000 N   0  0  0  0  0  0  0  0  0  0  0  0
    3.9872    2.4237    0.0000 N   0  0  0  0  0  0  0  0  0  0  0  0
    0.7500   -1.2990    0.0000 C   0  0  0  0  0  0  0  0  0  0  0  0
    1.5000    0.0000    0.0000 C   0  0  0  0  0  0  0  0  0  0  0  0
    0.7500    1.2990    0.0000 C   0  0  0  0  0  0  0  0  0  0  0  0
   -0.7500    1.2990    0.0000 C   0  0  0  0  0  0  0  0  0  0  0  0
   -1.5000    0.0000    0.0000 C   0  0  0  0  0  0  0  0  0  0  0  0
   -0.7500   -1.2990    0.0000 C   0  0  0  0  0  0  0  0  0  0  0  0
   -2.1944   -1.7037    0.0000 C   0  0  0  0  0  0  0  0  0  0  0  0
   -2.2285   -0.2041    0.0000 C   0  0  0  0  0  0  0  0  0  0  0  0
   -3.5443    0.5161    0.0000 C   0  0  0  0  0  0  0  0  0  0  0  0
   -4.8259   -0.2633    0.0000 C   0  0  0  0  0  0  0  0  0  0  0  0
   -4.7918   -1.7629    0.0000 C   0  0  0  0  0  0  0  0  0  0  0  0
   -3.4760   -2.4831    0.0000 C   0  0  0  0  0  0  0  0  0  0  0  0
   -4.4998   -3.5794    0.0000 C   0  0  0  0  0  0  0  0  0  0  0  0
   -5.3082   -2.3158    0.0000 C   0  0  0  0  0  0  0  0  0  0  0  0
   -6.8066   -2.3841    0.0000 C   0  0  0  0  0  0  0  0  0  0  0  0
   -7.4967   -3.7159    0.0000 C   0  0  0  0  0  0  0  0  0  0  0  0
   -6.6884   -4.9795    0.0000 C   0  0  0  0  0  0  0  0  0  0  0  0
   -5.1899   -4.9112    0.0000 C   0  0  0  0  0  0  0  0  0  0  0  0
   -5.4951   -6.3798    0.0000 C   0  0  0  0  0  0  0  0  0  0  0  0
   -6.8423   -5.7202    0.0000 C   0  0  0  0  0  0  0  0  0  0  0  0
   -8.0871   -6.5571    0.0000 C   0  0  0  0  0  0  0  0  0  0  0  0
   -7.9848   -8.0536    0.0000 C   0  0  0  0  0  0  0  0  0  0  0  0
   -6.6376   -8.7132    0.0000 C   0  0  0  0  0  0  0  0  0  0  0  0
   -5.3928   -7.8763    0.0000 C   0  0  0  0  0  0  0  0  0  0  0  0
   -4.8904   -9.2897    0.0000 C   0  0  0  0  0  0  0  0  0  0  0  0
   -6.3842   -9.4261    0.0000 C   0  0  0  0  0  0  0  0  0  0  0  0
   -7.0130  -10.7880    0.0000 C   0  0  0  0  0  0  0  0  0  0  0  0
   -6.1480  -12.0134    0.0000 C   0  0  0  0  0  0  0  0  0  0  0  0
   -4.6542  -11.8770    0.0000 C   0  0  0  0  0  0  0  0  0  0  0  0
   -4.0254  -10.5152    0.0000 C   0  0  0  0  0  0  0  0  0  0  0  0
   -2.8618  -11.4618    0.0000 C   0  0  0  0  0  0  0  0  0  0  0  0
   -4.0673  -12.3545    0.0000 C   0  0  0  0  0  0  0  0  0  0  0  0
   -3.8969  -13.8448    0.0000 C   0  0  0  0  0  0  0  0  0  0  0  0
   -2.5211  -14.4424    0.0000 C   0  0  0  0  0  0  0  0  0  0  0  0
   -1.3157  -13.5497    0.0000 C   0  0  0  0  0  0  0  0  0  0  0  0
   -1.4860  -12.0594    0.0000 C   0  0  0  0  0  0  0  0  0  0  0  0
    0.0000  -12.2636    0.0000 C   0  0  0  0  0  0  0  0  0  0  0  0
   -0.5661  -13.6527    0.0000 C   0  0  0  0  0  0  0  0  0  0  0  0
    0.3538  -14.8375    0.0000 C   0  0  0  0  0  0  0  0  0  0  0  0
    1.8398  -14.6333    0.0000 C   0  0  0  0  0  0  0  0  0  0  0  0
    2.4059  -13.2442    0.0000 C   0  0  0  0  0  0  0  0  0  0  0  0
    1.4860  -12.0594    0.0000 C   0  0  0  0  0  0  0  0  0  0  0  0
    2.8618  -11.4618    0.0000 C   0  0  0  0  0  0  0  0  0  0  0  0
    3.0999  -12.9428    0.0000 C   0  0  0  0  0  0  0  0  0  0  0  0
    4.5015  -13.4772    0.0000 C   0  0  0  0  0  0  0  0  0  0  0  0
    5.6650  -12.5305    0.0000 C   0  0  0  0  0  0  0  0  0  0  0  0
    5.4270  -11.0495    0.0000 C   0  0  0  0  0  0  0  0  0  0  0  0
    4.0254  -10.5152    0.0000 C   0  0  0  0  0  0  0  0  0  0  0  0
    4.8904   -9.2897    0.0000 C   0  0  0  0  0  0  0  0  0  0  0  0
    5.8633  -10.4314    0.0000 C   0  0  0  0  0  0  0  0  0  0  0  0
    7.3385  -10.1598    0.0000 C   0  0  0  0  0  0  0  0  0  0  0  0
    7.8408   -8.7464    0.0000 C   0  0  0  0  0  0  0  0  0  0  0  0
    6.8679   -7.6046    0.0000 C   0  0  0  0  0  0  0  0  0  0  0  0
    5.3928   -7.8763    0.0000 C   0  0  0  0  0  0  0  0  0  0  0  0
  1  2  1  0
  2  3  2  0
  3  4  1  0
  4  5  2  0
  5  6  1  0
  6  7  1  0
  7  8  2  0
  7  9  1  0
  9 10  1  0
 10 11  2  0
 11 12  1  0
 12 13  2  0
 13 14  1  0
 14 15  2  0
  6 16  1  0
 16 17  2  0
 17 18  1  0
 18 19  2  0
 19 20  1  0
 20 21  2  0
 21 22  1  0
 22 23  2  0
 23 24  1  0
 24 25  2  0
 25 26  1  0
 26 27  2  0
 27 28  1  0
 28 29  2  0
 29 30  1  0
 30 31  2  0
 31 32  1  0
 32 33  2  0
 33 34  1  0
 34 35  2  0
 35 36  1  0
 36 37  2  0
 37 38  1  0
 38 39  2  0
 39 40  1  0
 40 41  2  0
 41 42  1  0
 42 43  2  0
 43 44  1  0
 44 45  2  0
 45 46  1  0
 46 47  2  0
 47 48  1  0
 48 49  2  0
 49 50  1  0
 50 51  2  0
 51 52  1  0
 52 53  2  0
 53 54  1  0
 54 55  2  0
 55 56  1  0
 56 57  2  0
 57 58  1  0
 58 59  2  0
 59 60  1  0
 60 61  2  0
 61 62  1  0
 62 63  2  0
 63 64  1  0
 64 65  2  0
 65 66  1  0
 66 67  2  0
 67 68  1  0
 68 69  2  0
 69  2  1  0
 15 10  1  0
 21 16  1  0
 27 22  1  0
 33 28  1  0
 39 34  1  0
 45 40  1  0
 51 46  1  0
 57 52  1  0
 63 58  1  0
 69 64  1  0
M  END
>  <Title>  (534) 
idAASPgen9

$$$$

     RDKit          2D

  6  6  0  0  0  0  0  0  0  0999 V2000
    2.7760    0.0000    0.0000 O   0  0  0  0  0  0  0  0  0  0  0  0
    1.2760    0.0000    0.0000 C   0  0  0  0  0  0  0  0  0  0  0  0
    0.3943    1.2135    0.0000 C   0  0  0  0  0  0  0  0  0  0  0  0
   -1.0323    0.7500    0.0000 C   0  0  0  0  0  0  0  0  0  0  0  0
   -1.0323   -0.7500    0.0000 C   0  0  0  0  0  0  0  0  0  0  0  0
    0.3943   -1.2135    0.0000 C   0  0  0  0  0  0  0  0  0  0  0  0
  1  2  1  0
  2  3  2  0
  3  4  1  0
  4  5  1  0
  5  6  2  0
  6  2  1  0
M  END
>  <Title>  (535) 
idAASQgen9

$$$$

     RDKit          2D

  9  9  0  0  0  0  0  0  0  0999 V2000
    5.0260   -1.2990    0.0000 C   0  0  0  0  0  0  0  0  0  0  0  0
    3.5260   -1.2990    0.0000 C   0  0  0  0  0  0  0  0  0  0  0  0
    2.7760   -2.5981    0.0000 O   0  0  0  0  0  0  0  0  0  0  0  0
    2.7760    0.0000    0.0000 N   0  0  0  0  0  0  0  0  0  0  0  0
    1.2760    0.0000    0.0000 C   0  0  0  0  0  0  0  0  0  0  0  0
    0.3943    1.2135    0.0000 C   0  0  0  0  0  0  0  0  0  0  0  0
   -1.0323    0.7500    0.0000 C   0  0  0  0  0  0  0  0  0  0  0  0
   -1.0323   -0.7500    0.0000 C   0  0  0  0  0  0  0  0  0  0  0  0
    0.3943   -1.2135    0.0000 C   0  0  0  0  0  0  0  0  0  0  0  0
  1  2  1  0
  2  3  2  0
  2  4  1  0
  4  5  1  0
  5  6  2  0
  6  7  1  0
  7  8  1  0
  8  9  2  0
  9  5  1  0
M  END
>  <Title>  (536) 
idAASRgen9

$$$$

     RDKit          2D

 24 25  0  0  0  0  0  0  0  0999 V2000
    4.0123   -7.6563    0.0000 C   0  0  0  0  0  0  0  0  0  0  0  0
    4.2211   -6.1709    0.0000 C   0  0  0  0  0  0  0  0  0  0  0  0
    4.4298   -4.6855    0.0000 C   0  0  0  0  0  0  0  0  0  0  0  0
    4.6386   -3.2001    0.0000 C   0  0  0  0  0  0  0  0  0  0  0  0
    4.8473   -1.7147    0.0000 C   0  0  0  0  0  0  0  0  0  0  0  0
    5.0561   -0.2293    0.0000 C   0  0  0  0  0  0  0  0  0  0  0  0
    5.2649    1.2561    0.0000 C   0  0  0  0  0  0  0  0  0  0  0  0
    5.4736    2.7415    0.0000 C   0  0  0  0  0  0  0  0  0  0  0  0
    5.6824    4.2269    0.0000 C   0  0  0  0  0  0  0  0  0  0  0  0
    7.1815    4.2793    0.0000 C   0  0  0  0  0  0  0  0  0  0  0  0
    5.3705    5.6941    0.0000 C   0  0  0  0  0  0  0  0  0  0  0  0
    5.8340    7.1207    0.0000 O   0  0  0  0  0  0  0  0  0  0  0  0
    4.2558    4.6904    0.0000 C   0  0  0  0  0  0  0  0  0  0  0  0
    2.7886    4.3786    0.0000 C   0  0  0  0  0  0  0  0  0  0  0  0
    2.3250    2.9520    0.0000 C   0  0  0  0  0  0  0  0  0  0  0  0
    0.8578    2.6401    0.0000 C   0  0  0  0  0  0  0  0  0  0  0  0
   -0.1459    3.7548    0.0000 C   0  0  0  0  0  0  0  0  0  0  0  0
   -1.6131    3.4430    0.0000 O   0  0  0  0  0  0  0  0  0  0  0  0
    0.3177    5.1814    0.0000 O   0  0  0  0  0  0  0  0  0  0  0  0
    0.3943    1.2135    0.0000 C   0  0  0  0  0  0  0  0  0  0  0  0
    1.2760    0.0000    0.0000 C   0  0  0  0  0  0  0  0  0  0  0  0
    0.3943   -1.2135    0.0000 C   0  0  0  0  0  0  0  0  0  0  0  0
   -1.0323   -0.7500    0.0000 C   0  0  0  0  0  0  0  0  0  0  0  0
   -1.0323    0.7500    0.0000 C   0  0  0  0  0  0  0  0  0  0  0  0
  1  2  3  0
  2  3  1  0
  3  4  3  0
  4  5  1  0
  5  6  3  0
  6  7  1  0
  7  8  3  0
  8  9  1  0
  9 10  1  0
  9 11  1  0
 11 12  2  0
 11 13  1  0
 13 14  2  3
 14 15  1  0
 15 16  2  3
 16 17  1  0
 17 18  2  0
 17 19  1  0
 16 20  1  0
 20 21  2  0
 21 22  1  0
 22 23  2  0
 23 24  1  0
 13  9  1  0
 24 20  1  0
M  END
>  <Title>  (537) 
idAASSgen9

$$$$

     RDKit          2D

  9  9  0  0  0  0  0  0  0  0999 V2000
    6.5260   -1.2990    0.0000 C   0  0  0  0  0  0  0  0  0  0  0  0
    5.0260   -1.2990    0.0000 C   0  0  0  0  0  0  0  0  0  0  0  0
    3.5260   -1.2990    0.0000 C   0  0  0  0  0  0  0  0  0  0  0  0
    2.7760    0.0000    0.0000 N   0  0  0  0  0  0  0  0  0  0  0  0
    1.2760    0.0000    0.0000 C   0  0  0  0  0  0  0  0  0  0  0  0
    0.3943    1.2135    0.0000 C   0  0  0  0  0  0  0  0  0  0  0  0
   -1.0323    0.7500    0.0000 C   0  0  0  0  0  0  0  0  0  0  0  0
   -1.0323   -0.7500    0.0000 C   0  0  0  0  0  0  0  0  0  0  0  0
    0.3943   -1.2135    0.0000 C   0  0  0  0  0  0  0  0  0  0  0  0
  1  2  3  0
  2  3  1  0
  3  4  1  0
  4  5  1  0
  5  6  2  0
  6  7  1  0
  7  8  1  0
  8  9  2  0
  9  5  1  0
M  END
>  <Title>  (538) 
idAASTgen9

$$$$

     RDKit          2D

 13 13  0  0  0  0  0  0  0  0999 V2000
   15.8660    0.0000    0.0000 C   0  0  0  0  0  0  0  0  0  0  0  0
   14.3660    0.0000    0.0000 C   0  0  0  0  0  0  0  0  0  0  0  0
   12.8660    0.0000    0.0000 C   0  0  0  0  0  0  0  0  0  0  0  0
   11.3660    0.0000    0.0000 C   0  0  0  0  0  0  0  0  0  0  0  0
    9.8660    0.0000    0.0000 C   0  0  0  0  0  0  0  0  0  0  0  0
    8.3660    0.0000    0.0000 C   0  0  0  0  0  0  0  0  0  0  0  0
    6.8660    0.0000    0.0000 C   0  0  0  0  0  0  0  0  0  0  0  0
    5.3660    0.0000    0.0000 C   0  0  0  0  0  0  0  0  0  0  0  0
    3.8660    0.0000    0.0000 C   0  0  0  0  0  0  0  0  0  0  0  0
    2.3660    0.0000    0.0000 C   0  0  0  0  0  0  0  0  0  0  0  0
    0.8660    0.0000    0.0000 C   0  0  0  0  0  0  0  0  0  0  0  0
   -0.4330    0.7500    0.0000 C   0  0  0  0  0  0  0  0  0  0  0  0
   -0.4330   -0.7500    0.0000 C   0  0  0  0  0  0  0  0  0  0  0  0
  1  2  3  0
  2  3  1  0
  3  4  3  0
  4  5  1  0
  5  6  3  0
  6  7  1  0
  7  8  3  0
  8  9  1  0
  9 10  3  0
 10 11  1  0
 11 12  2  0
 12 13  1  0
 13 11  1  0
M  END
>  <Title>  (539) 
idAASUgen9

$$$$

     RDKit          2D

 67 77  0  0  0  0  0  0  0  0999 V2000
    7.1178   -9.5486    0.0000 C   0  0  0  0  0  0  0  0  0  0  0  0
    5.6912   -9.0851    0.0000 C   0  0  0  0  0  0  0  0  0  0  0  0
    5.9722   -7.6116    0.0000 C   0  0  0  0  0  0  0  0  0  0  0  0
    5.8781   -6.1146    0.0000 C   0  0  0  0  0  0  0  0  0  0  0  0
    7.3515   -5.8335    0.0000 C   0  0  0  0  0  0  0  0  0  0  0  0
    5.4145   -4.6880    0.0000 C   0  0  0  0  0  0  0  0  0  0  0  0
    6.7718   -4.0493    0.0000 O   0  0  0  0  0  0  0  0  0  0  0  0
    4.6108   -3.4215    0.0000 N   0  0  0  0  0  0  0  0  0  0  0  0
    3.5173   -2.3947    0.0000 C   0  0  0  0  0  0  0  0  0  0  0  0
    4.6108   -1.3679    0.0000 N   0  0  0  0  0  0  0  0  0  0  0  0
    3.9721   -0.0106    0.0000 N   0  0  0  0  0  0  0  0  0  0  0  0
    2.4839   -0.1986    0.0000 N   0  0  0  0  0  0  0  0  0  0  0  0
    2.2029   -1.6721    0.0000 N   0  0  0  0  0  0  0  0  0  0  0  0
    0.7500   -1.2990    0.0000 C   0  0  0  0  0  0  0  0  0  0  0  0
    1.5000    0.0000    0.0000 C   0  0  0  0  0  0  0  0  0  0  0  0
    0.7500    1.2990    0.0000 C   0  0  0  0  0  0  0  0  0  0  0  0
   -0.7500    1.2990    0.0000 C   0  0  0  0  0  0  0  0  0  0  0  0
   -1.5000    0.0000    0.0000 C   0  0  0  0  0  0  0  0  0  0  0  0
   -0.7500   -1.2990    0.0000 C   0  0  0  0  0  0  0  0  0  0  0  0
   -2.2029   -1.6721    0.0000 C   0  0  0  0  0  0  0  0  0  0  0  0
   -2.7849   -0.5096    0.0000 C   0  0  0  0  0  0  0  0  0  0  0  0
   -3.4692   -0.0952    0.0000 C   0  0  0  0  0  0  0  0  0  0  0  0
   -4.1702   -0.4806    0.0000 C   0  0  0  0  0  0  0  0  0  0  0  0
   -4.1870   -1.2804    0.0000 C   0  0  0  0  0  0  0  0  0  0  0  0
   -3.5173   -2.3947    0.0000 C   0  0  0  0  0  0  0  0  0  0  0  0
   -4.6108   -3.4215    0.0000 C   0  0  0  0  0  0  0  0  0  0  0  0
   -5.3057   -2.0922    0.0000 C   0  0  0  0  0  0  0  0  0  0  0  0
   -6.8044   -2.0294    0.0000 C   0  0  0  0  0  0  0  0  0  0  0  0
   -7.6082   -3.2959    0.0000 C   0  0  0  0  0  0  0  0  0  0  0  0
   -6.9132   -4.6252    0.0000 C   0  0  0  0  0  0  0  0  0  0  0  0
   -5.4145   -4.6880    0.0000 C   0  0  0  0  0  0  0  0  0  0  0  0
   -5.8781   -6.1146    0.0000 C   0  0  0  0  0  0  0  0  0  0  0  0
   -7.1714   -5.9831    0.0000 C   0  0  0  0  0  0  0  0  0  0  0  0
   -7.8880   -6.3388    0.0000 C   0  0  0  0  0  0  0  0  0  0  0  0
   -7.9382   -7.1373    0.0000 C   0  0  0  0  0  0  0  0  0  0  0  0
   -7.2719   -7.5800    0.0000 C   0  0  0  0  0  0  0  0  0  0  0  0
   -5.9722   -7.6116    0.0000 C   0  0  0  0  0  0  0  0  0  0  0  0
   -5.6912   -9.0851    0.0000 C   0  0  0  0  0  0  0  0  0  0  0  0
   -7.1859   -8.9596    0.0000 C   0  0  0  0  0  0  0  0  0  0  0  0
   -8.0420  -10.1913    0.0000 C   0  0  0  0  0  0  0  0  0  0  0  0
   -7.4033  -11.5485    0.0000 C   0  0  0  0  0  0  0  0  0  0  0  0
   -5.9086  -11.6740    0.0000 C   0  0  0  0  0  0  0  0  0  0  0  0
   -5.0525  -10.4423    0.0000 C   0  0  0  0  0  0  0  0  0  0  0  0
   -4.0964  -11.5981    0.0000 C   0  0  0  0  0  0  0  0  0  0  0  0
   -4.9004  -12.6196    0.0000 C   0  0  0  0  0  0  0  0  0  0  0  0
   -4.9840  -13.4153    0.0000 C   0  0  0  0  0  0  0  0  0  0  0  0
   -4.3368  -13.8855    0.0000 C   0  0  0  0  0  0  0  0  0  0  0  0
   -3.6059  -13.5601    0.0000 C   0  0  0  0  0  0  0  0  0  0  0  0
   -2.8828  -12.4798    0.0000 C   0  0  0  0  0  0  0  0  0  0  0  0
   -1.4882  -13.0319    0.0000 C   0  0  0  0  0  0  0  0  0  0  0  0
   -2.3951  -14.2267    0.0000 C   0  0  0  0  0  0  0  0  0  0  0  0
   -1.8138  -15.6095    0.0000 C   0  0  0  0  0  0  0  0  0  0  0  0
   -0.3256  -15.7975    0.0000 C   0  0  0  0  0  0  0  0  0  0  0  0
    0.5813  -14.6027    0.0000 C   0  0  0  0  0  0  0  0  0  0  0  0
   -0.0000  -13.2199    0.0000 C   0  0  0  0  0  0  0  0  0  0  0  0
    1.4882  -13.0319    0.0000 C   0  0  0  0  0  0  0  0  0  0  0  0
    1.9199  -14.2582    0.0000 C   0  0  0  0  0  0  0  0  0  0  0  0
    2.5468  -14.7551    0.0000 C   0  0  0  0  0  0  0  0  0  0  0  0
    3.2907  -14.4606    0.0000 C   0  0  0  0  0  0  0  0  0  0  0  0
    3.4075  -13.6692    0.0000 C   0  0  0  0  0  0  0  0  0  0  0  0
    2.8828  -12.4798    0.0000 C   0  0  0  0  0  0  0  0  0  0  0  0
    4.0964  -11.5981    0.0000 C   0  0  0  0  0  0  0  0  0  0  0  0
    4.6192  -13.0040    0.0000 C   0  0  0  0  0  0  0  0  0  0  0  0
    6.0982  -13.2542    0.0000 C   0  0  0  0  0  0  0  0  0  0  0  0
    7.0544  -12.0984    0.0000 C   0  0  0  0  0  0  0  0  0  0  0  0
    6.5315  -10.6925    0.0000 C   0  0  0  0  0  0  0  0  0  0  0  0
    5.0525  -10.4423    0.0000 C   0  0  0  0  0  0  0  0  0  0  0  0
  1  2  1  0
  2  3  2  0
  3  4  1  0
  4  5  1  0
  4  6  1  0
  6  7  2  0
  6  8  1  0
  8  9  1  0
  9 10  2  0
 10 11  1  0
 11 12  2  0
 12 13  1  0
 13 14  1  0
 14 15  2  0
 15 16  1  0
 16 17  2  0
 17 18  1  0
 18 19  2  0
 19 20  1  0
 20 21  2  0
 21 22  1  0
 22 23  2  0
 23 24  1  0
 24 25  2  0
 25 26  1  0
 26 27  2  0
 27 28  1  0
 28 29  2  0
 29 30  1  0
 30 31  2  0
 31 32  1  0
 32 33  2  0
 33 34  1  0
 34 35  2  0
 35 36  1  0
 36 37  2  0
 37 38  1  0
 38 39  2  0
 39 40  1  0
 40 41  2  0
 41 42  1  0
 42 43  2  0
 43 44  1  0
 44 45  2  0
 45 46  1  0
 46 47  2  0
 47 48  1  0
 48 49  2  0
 49 50  1  0
 50 51  2  0
 51 52  1  0
 52 53  2  0
 53 54  1  0
 54 55  2  0
 55 56  1  0
 56 57  2  0
 57 58  1  0
 58 59  2  0
 59 60  1  0
 60 61  2  0
 61 62  1  0
 62 63  2  0
 63 64  1  0
 64 65  2  0
 65 66  1  0
 66 67  2  0
 67  2  1  0
 13  9  1  0
 19 14  1  0
 25 20  1  0
 31 26  1  0
 37 32  1  0
 43 38  1  0
 49 44  1  0
 55 50  1  0
 61 56  1  0
 67 62  1  0
M  END
>  <Title>  (540) 
idAASVgen9

$$$$

     RDKit          2D

  8  8  0  0  0  0  0  0  0  0999 V2000
    5.0260   -1.2990    0.0000 C   0  0  0  0  0  0  0  0  0  0  0  0
    3.5260   -1.2990    0.0000 C   0  0  0  0  0  0  0  0  0  0  0  0
    2.7760    0.0000    0.0000 C   0  0  0  0  0  0  0  0  0  0  0  0
    1.2760    0.0000    0.0000 C   0  0  0  0  0  0  0  0  0  0  0  0
    0.3943    1.2135    0.0000 C   0  0  0  0  0  0  0  0  0  0  0  0
   -1.0323    0.7500    0.0000 C   0  0  0  0  0  0  0  0  0  0  0  0
   -1.0323   -0.7500    0.0000 C   0  0  0  0  0  0  0  0  0  0  0  0
    0.3943   -1.2135    0.0000 C   0  0  0  0  0  0  0  0  0  0  0  0
  1  2  1  0
  2  3  1  0
  3  4  1  0
  4  5  2  0
  5  6  1  0
  6  7  2  0
  7  8  1  0
  8  4  1  0
M  END
>  <Title>  (541) 
idAASWgen9

$$$$

     RDKit          2D

106107  0  0  0  0  0  0  0  0999 V2000
   -2.1548   -1.0881    0.0000 C   0  0  0  0  0  0  0  0  0  0  0  0
   -2.4847    0.3752    0.0000 C   0  0  0  0  0  0  0  0  0  0  0  0
   -3.9574    0.0905    0.0000 C   0  0  0  0  0  0  0  0  0  0  0  0
   -5.4449   -0.1030    0.0000 C   0  0  0  0  0  0  0  0  0  0  0  0
   -6.9415   -0.2046    0.0000 C   0  0  0  0  0  0  0  0  0  0  0  0
   -8.4414   -0.2138    0.0000 C   0  0  0  0  0  0  0  0  0  0  0  0
   -9.9391   -0.1307    0.0000 C   0  0  0  0  0  0  0  0  0  0  0  0
  -11.4289    0.0444    0.0000 C   0  0  0  0  0  0  0  0  0  0  0  0
  -12.9050    0.3110    0.0000 C   0  0  0  0  0  0  0  0  0  0  0  0
  -14.3619    0.6679    0.0000 C   0  0  0  0  0  0  0  0  0  0  0  0
  -15.7941    1.1138    0.0000 C   0  0  0  0  0  0  0  0  0  0  0  0
  -17.1961    1.6470    0.0000 C   0  0  0  0  0  0  0  0  0  0  0  0
  -18.5627    2.2656    0.0000 C   0  0  0  0  0  0  0  0  0  0  0  0
  -19.8885    2.9671    0.0000 C   0  0  0  0  0  0  0  0  0  0  0  0
  -21.1687    3.7488    0.0000 C   0  0  0  0  0  0  0  0  0  0  0  0
  -22.3983    4.6079    0.0000 C   0  0  0  0  0  0  0  0  0  0  0  0
  -23.5727    5.5411    0.0000 C   0  0  0  0  0  0  0  0  0  0  0  0
  -24.6874    6.5448    0.0000 C   0  0  0  0  0  0  0  0  0  0  0  0
  -25.7382    7.6152    0.0000 C   0  0  0  0  0  0  0  0  0  0  0  0
  -26.7211    8.7483    0.0000 C   0  0  0  0  0  0  0  0  0  0  0  0
  -27.6325    9.9397    0.0000 C   0  0  0  0  0  0  0  0  0  0  0  0
  -28.4687   11.1850    0.0000 C   0  0  0  0  0  0  0  0  0  0  0  0
  -29.2267   12.4794    0.0000 C   0  0  0  0  0  0  0  0  0  0  0  0
  -29.9035   13.8180    0.0000 C   0  0  0  0  0  0  0  0  0  0  0  0
  -30.4967   15.1957    0.0000 C   0  0  0  0  0  0  0  0  0  0  0  0
  -31.0040   16.6074    0.0000 C   0  0  0  0  0  0  0  0  0  0  0  0
  -31.4233   18.0475    0.0000 C   0  0  0  0  0  0  0  0  0  0  0  0
  -31.7532   19.5108    0.0000 C   0  0  0  0  0  0  0  0  0  0  0  0
  -31.9925   20.9916    0.0000 C   0  0  0  0  0  0  0  0  0  0  0  0
  -32.1401   22.4843    0.0000 C   0  0  0  0  0  0  0  0  0  0  0  0
  -32.1955   23.9833    0.0000 C   0  0  0  0  0  0  0  0  0  0  0  0
  -32.1585   25.4829    0.0000 C   0  0  0  0  0  0  0  0  0  0  0  0
  -32.0293   26.9773    0.0000 C   0  0  0  0  0  0  0  0  0  0  0  0
  -31.8084   28.4609    0.0000 C   0  0  0  0  0  0  0  0  0  0  0  0
  -31.4965   29.9281    0.0000 C   0  0  0  0  0  0  0  0  0  0  0  0
  -31.0949   31.3734    0.0000 C   0  0  0  0  0  0  0  0  0  0  0  0
  -30.6051   32.7912    0.0000 C   0  0  0  0  0  0  0  0  0  0  0  0
  -30.0289   34.1761    0.0000 C   0  0  0  0  0  0  0  0  0  0  0  0
  -29.3686   35.5229    0.0000 C   0  0  0  0  0  0  0  0  0  0  0  0
  -28.6266   36.8266    0.0000 C   0  0  0  0  0  0  0  0  0  0  0  0
  -27.8058   38.0820    0.0000 C   0  0  0  0  0  0  0  0  0  0  0  0
  -26.9093   39.2846    0.0000 C   0  0  0  0  0  0  0  0  0  0  0  0
  -25.9404   40.4297    0.0000 C   0  0  0  0  0  0  0  0  0  0  0  0
  -24.9028   41.5130    0.0000 C   0  0  0  0  0  0  0  0  0  0  0  0
  -23.8005   42.5303    0.0000 C   0  0  0  0  0  0  0  0  0  0  0  0
  -22.6377   43.4779    0.0000 C   0  0  0  0  0  0  0  0  0  0  0  0
  -21.4188   44.3521    0.0000 C   0  0  0  0  0  0  0  0  0  0  0  0
  -20.1484   45.1496    0.0000 C   0  0  0  0  0  0  0  0  0  0  0  0
  -18.8312   45.8674    0.0000 C   0  0  0  0  0  0  0  0  0  0  0  0
  -17.4724   46.5027    0.0000 C   0  0  0  0  0  0  0  0  0  0  0  0
  -16.0771   47.0531    0.0000 C   0  0  0  0  0  0  0  0  0  0  0  0
  -14.6505   47.5167    0.0000 C   0  0  0  0  0  0  0  0  0  0  0  0
  -13.1981   47.8915    0.0000 C   0  0  0  0  0  0  0  0  0  0  0  0
  -11.7254   48.1762    0.0000 C   0  0  0  0  0  0  0  0  0  0  0  0
  -10.2379   48.3697    0.0000 C   0  0  0  0  0  0  0  0  0  0  0  0
   -8.7413   48.4713    0.0000 C   0  0  0  0  0  0  0  0  0  0  0  0
   -7.2414   48.4805    0.0000 C   0  0  0  0  0  0  0  0  0  0  0  0
   -5.7437   48.3974    0.0000 C   0  0  0  0  0  0  0  0  0  0  0  0
   -4.2539   48.2222    0.0000 C   0  0  0  0  0  0  0  0  0  0  0  0
   -2.7778   47.9557    0.0000 C   0  0  0  0  0  0  0  0  0  0  0  0
   -1.3209   47.5988    0.0000 C   0  0  0  0  0  0  0  0  0  0  0  0
    0.1113   47.1529    0.0000 C   0  0  0  0  0  0  0  0  0  0  0  0
    1.5133   46.6196    0.0000 C   0  0  0  0  0  0  0  0  0  0  0  0
    2.8799   46.0011    0.0000 C   0  0  0  0  0  0  0  0  0  0  0  0
    4.2057   45.2996    0.0000 C   0  0  0  0  0  0  0  0  0  0  0  0
    5.4859   44.5178    0.0000 C   0  0  0  0  0  0  0  0  0  0  0  0
    6.7155   43.6587    0.0000 C   0  0  0  0  0  0  0  0  0  0  0  0
    7.8899   42.7256    0.0000 C   0  0  0  0  0  0  0  0  0  0  0  0
    9.0046   41.7219    0.0000 C   0  0  0  0  0  0  0  0  0  0  0  0
   10.0554   40.6515    0.0000 C   0  0  0  0  0  0  0  0  0  0  0  0
   11.0384   39.5184    0.0000 C   0  0  0  0  0  0  0  0  0  0  0  0
   11.9497   38.3269    0.0000 C   0  0  0  0  0  0  0  0  0  0  0  0
   12.7859   37.0817    0.0000 C   0  0  0  0  0  0  0  0  0  0  0  0
   13.5439   35.7873    0.0000 C   0  0  0  0  0  0  0  0  0  0  0  0
   14.2207   34.4487    0.0000 C   0  0  0  0  0  0  0  0  0  0  0  0
   14.8139   33.0709    0.0000 C   0  0  0  0  0  0  0  0  0  0  0  0
   15.3212   31.6593    0.0000 C   0  0  0  0  0  0  0  0  0  0  0  0
   15.7405   30.2191    0.0000 C   0  0  0  0  0  0  0  0  0  0  0  0
   16.0705   28.7559    0.0000 C   0  0  0  0  0  0  0  0  0  0  0  0
   16.3097   27.2751    0.0000 C   0  0  0  0  0  0  0  0  0  0  0  0
   16.4573   25.7823    0.0000 C   0  0  0  0  0  0  0  0  0  0  0  0
   16.5127   24.2834    0.0000 C   0  0  0  0  0  0  0  0  0  0  0  0
   16.4757   22.7838    0.0000 C   0  0  0  0  0  0  0  0  0  0  0  0
   16.3465   21.2894    0.0000 C   0  0  0  0  0  0  0  0  0  0  0  0
   16.1256   19.8058    0.0000 C   0  0  0  0  0  0  0  0  0  0  0  0
   15.8137   18.3385    0.0000 C   0  0  0  0  0  0  0  0  0  0  0  0
   15.4121   16.8933    0.0000 C   0  0  0  0  0  0  0  0  0  0  0  0
   14.9223   15.4755    0.0000 C   0  0  0  0  0  0  0  0  0  0  0  0
   14.3462   14.0906    0.0000 C   0  0  0  0  0  0  0  0  0  0  0  0
   13.6858   12.7437    0.0000 C   0  0  0  0  0  0  0  0  0  0  0  0
   12.9438   11.4401    0.0000 C   0  0  0  0  0  0  0  0  0  0  0  0
   12.1230   10.1846    0.0000 C   0  0  0  0  0  0  0  0  0  0  0  0
   11.2265    8.9821    0.0000 C   0  0  0  0  0  0  0  0  0  0  0  0
   10.2576    7.8370    0.0000 C   0  0  0  0  0  0  0  0  0  0  0  0
    9.2200    6.7537    0.0000 C   0  0  0  0  0  0  0  0  0  0  0  0
    8.1178    5.7363    0.0000 C   0  0  0  0  0  0  0  0  0  0  0  0
    6.9549    4.7888    0.0000 C   0  0  0  0  0  0  0  0  0  0  0  0
    5.7360    3.9146    0.0000 C   0  0  0  0  0  0  0  0  0  0  0  0
    4.4656    3.1171    0.0000 C   0  0  0  0  0  0  0  0  0  0  0  0
    3.1485    2.3993    0.0000 C   0  0  0  0  0  0  0  0  0  0  0  0
    1.7896    1.7640    0.0000 C   0  0  0  0  0  0  0  0  0  0  0  0
    0.3943    1.2135    0.0000 C   0  0  0  0  0  0  0  0  0  0  0  0
    1.2760    0.0000    0.0000 C   0  0  0  0  0  0  0  0  0  0  0  0
    0.3943   -1.2135    0.0000 C   0  0  0  0  0  0  0  0  0  0  0  0
   -1.0323   -0.7500    0.0000 C   0  0  0  0  0  0  0  0  0  0  0  0
   -1.0323    0.7500    0.0000 C   0  0  0  0  0  0  0  0  0  0  0  0
  1  2  1  0
  2  3  1  0
  3  4  1  0
  4  5  1  0
  5  6  1  0
  6  7  1  0
  7  8  1  0
  8  9  1  0
  9 10  1  0
 10 11  1  0
 11 12  1  0
 12 13  1  0
 13 14  1  0
 14 15  1  0
 15 16  1  0
 16 17  1  0
 17 18  1  0
 18 19  1  0
 19 20  1  0
 20 21  1  0
 21 22  1  0
 22 23  1  0
 23 24  1  0
 24 25  1  0
 25 26  1  0
 26 27  1  0
 27 28  1  0
 28 29  1  0
 29 30  1  0
 30 31  1  0
 31 32  1  0
 32 33  1  0
 33 34  1  0
 34 35  1  0
 35 36  1  0
 36 37  1  0
 37 38  1  0
 38 39  1  0
 39 40  1  0
 40 41  1  0
 41 42  1  0
 42 43  1  0
 43 44  1  0
 44 45  1  0
 45 46  1  0
 46 47  1  0
 47 48  1  0
 48 49  1  0
 49 50  1  0
 50 51  1  0
 51 52  1  0
 52 53  1  0
 53 54  1  0
 54 55  1  0
 55 56  1  0
 56 57  1  0
 57 58  1  0
 58 59  1  0
 59 60  1  0
 60 61  1  0
 61 62  1  0
 62 63  1  0
 63 64  1  0
 64 65  1  0
 65 66  1  0
 66 67  1  0
 67 68  1  0
 68 69  1  0
 69 70  1  0
 70 71  1  0
 71 72  1  0
 72 73  1  0
 73 74  1  0
 74 75  1  0
 75 76  1  0
 76 77  1  0
 77 78  1  0
 78 79  1  0
 79 80  1  0
 80 81  1  0
 81 82  2  0
 82 83  1  0
 83 84  2  0
 84 85  1  0
 85 86  2  0
 86 87  1  0
 87 88  2  0
 88 89  1  0
 89 90  2  0
 90 91  1  0
 91 92  2  0
 92 93  1  0
 93 94  2  0
 94 95  1  0
 95 96  2  0
 96 97  1  0
 97 98  2  0
 98 99  1  0
 99100  2  0
100101  1  0
101102  2  0
102103  1  0
103104  2  0
104105  1  0
105106  2  0
106  2  1  0
106102  1  0
M  END
>  <Title>  (542) 
idAASXgen9

$$$$

     RDKit          2D

 14 14  0  0  0  0  0  0  0  0999 V2000
   10.5078  -11.4907    0.0000 C   0  0  0  0  0  0  0  0  0  0  0  0
    9.5437  -10.3416    0.0000 C   0  0  0  0  0  0  0  0  0  0  0  0
    8.5795   -9.1925    0.0000 C   0  0  0  0  0  0  0  0  0  0  0  0
    7.6153   -8.0435    0.0000 C   0  0  0  0  0  0  0  0  0  0  0  0
    6.6511   -6.8944    0.0000 C   0  0  0  0  0  0  0  0  0  0  0  0
    5.6869   -5.7453    0.0000 C   0  0  0  0  0  0  0  0  0  0  0  0
    4.7228   -4.5963    0.0000 C   0  0  0  0  0  0  0  0  0  0  0  0
    3.7586   -3.4472    0.0000 C   0  0  0  0  0  0  0  0  0  0  0  0
    2.7944   -2.2981    0.0000 C   0  0  0  0  0  0  0  0  0  0  0  0
    1.8302   -1.1491    0.0000 C   0  0  0  0  0  0  0  0  0  0  0  0
    0.8660    0.0000    0.0000 C   0  0  0  0  0  0  0  0  0  0  0  0
    1.8302    1.1491    0.0000 C   0  0  0  0  0  0  0  0  0  0  0  0
   -0.4330    0.7500    0.0000 C   0  0  0  0  0  0  0  0  0  0  0  0
   -0.4330   -0.7500    0.0000 C   0  0  0  0  0  0  0  0  0  0  0  0
  1  2  3  0
  2  3  1  0
  3  4  3  0
  4  5  1  0
  5  6  3  0
  6  7  1  0
  7  8  3  0
  8  9  1  0
  9 10  3  0
 10 11  1  0
 11 12  1  0
 11 13  1  0
 13 14  1  0
 14 11  1  0
M  END
>  <Title>  (543) 
idAASYgen9

$$$$

     RDKit          2D

 10 10  0  0  0  0  0  0  0  0999 V2000
    7.2760   -2.5981    0.0000 C   0  0  0  0  0  0  0  0  0  0  0  0
    6.5260   -1.2990    0.0000 C   0  0  0  0  0  0  0  0  0  0  0  0
    5.7760   -0.0000    0.0000 C   0  0  0  0  0  0  0  0  0  0  0  0
    4.2760   -0.0000    0.0000 C   0  0  0  0  0  0  0  0  0  0  0  0
    2.7760    0.0000    0.0000 C   0  0  0  0  0  0  0  0  0  0  0  0
    1.2760    0.0000    0.0000 C   0  0  0  0  0  0  0  0  0  0  0  0
    0.3943    1.2135    0.0000 C   0  0  0  0  0  0  0  0  0  0  0  0
   -1.0323    0.7500    0.0000 C   0  0  0  0  0  0  0  0  0  0  0  0
   -1.0323   -0.7500    0.0000 C   0  0  0  0  0  0  0  0  0  0  0  0
    0.3943   -1.2135    0.0000 C   0  0  0  0  0  0  0  0  0  0  0  0
  1  2  3  0
  2  3  1  0
  3  4  1  0
  4  5  3  0
  5  6  1  0
  6  7  2  0
  7  8  1  0
  8  9  2  0
  9 10  1  0
 10  6  1  0
M  END
>  <Title>  (544) 
idAASZgen9

$$$$

     RDKit          2D

 23 23  0  0  0  0  0  0  0  0999 V2000
   22.8107   -1.2990    0.0000 C   0  0  0  0  0  0  0  0  0  0  0  0
   21.3107   -1.2990    0.0000 C   0  0  0  0  0  0  0  0  0  0  0  0
   20.5607    0.0000    0.0000 C   0  0  0  0  0  0  0  0  0  0  0  0
   19.0607    0.0000    0.0000 C   0  0  0  0  0  0  0  0  0  0  0  0
   17.5607    0.0000    0.0000 C   0  0  0  0  0  0  0  0  0  0  0  0
   16.0607    0.0000    0.0000 C   0  0  0  0  0  0  0  0  0  0  0  0
   14.5607    0.0000    0.0000 C   0  0  0  0  0  0  0  0  0  0  0  0
   13.0607    0.0000    0.0000 C   0  0  0  0  0  0  0  0  0  0  0  0
   11.5607    0.0000    0.0000 C   0  0  0  0  0  0  0  0  0  0  0  0
   10.0607    0.0000    0.0000 C   0  0  0  0  0  0  0  0  0  0  0  0
    8.5607    0.0000    0.0000 C   0  0  0  0  0  0  0  0  0  0  0  0
    7.0607    0.0000    0.0000 C   0  0  0  0  0  0  0  0  0  0  0  0
    5.5607    0.0000    0.0000 C   0  0  0  0  0  0  0  0  0  0  0  0
    4.0607    0.0000    0.0000 C   0  0  0  0  0  0  0  0  0  0  0  0
    2.5607    0.0000    0.0000 C   0  0  0  0  0  0  0  0  0  0  0  0
    1.0607    0.0000    0.0000 C   0  0  0  0  0  0  0  0  0  0  0  0
   -0.0000   -1.0607    0.0000 C   0  0  0  0  0  0  0  0  0  0  0  0
   -1.0607    0.0000    0.0000 C   0  0  0  0  0  0  0  0  0  0  0  0
   -2.5607    0.0000    0.0000 C   0  0  0  0  0  0  0  0  0  0  0  0
   -3.3107   -1.2990    0.0000 O   0  0  0  0  0  0  0  0  0  0  0  0
   -3.3107    1.2990    0.0000 O   0  0  0  0  0  0  0  0  0  0  0  0
    0.0000    1.0607    0.0000 C   0  0  0  0  0  0  0  0  0  0  0  0
    0.0000    2.5607    0.0000 O   0  0  0  0  0  0  0  0  0  0  0  0
  1  2  1  0
  2  3  1  0
  3  4  1  0
  4  5  3  0
  5  6  1  0
  6  7  3  0
  7  8  1  0
  8  9  3  0
  9 10  1  0
 10 11  3  0
 11 12  1  0
 12 13  3  0
 13 14  1  0
 14 15  3  0
 15 16  1  0
 16 17  2  0
 17 18  1  0
 18 19  1  0
 19 20  2  0
 19 21  1  0
 18 22  1  0
 22 23  2  0
 22 16  1  0
M  END
>  <Title>  (545) 
idAATAgen9

$$$$

     RDKit          2D

 69 69  0  0  0  0  0  0  0  0999 V2000
   16.4782    0.0000    0.0000 C   0  0  0  0  0  0  0  0  0  0  0  0
   16.4100    1.4984    0.0000 C   0  0  0  0  0  0  0  0  0  0  0  0
   16.2057    2.9845    0.0000 C   0  0  0  0  0  0  0  0  0  0  0  0
   15.8672    4.4458    0.0000 C   0  0  0  0  0  0  0  0  0  0  0  0
   15.3972    5.8702    0.0000 C   0  0  0  0  0  0  0  0  0  0  0  0
   14.7996    7.2460    0.0000 C   0  0  0  0  0  0  0  0  0  0  0  0
   14.0793    8.5618    0.0000 C   0  0  0  0  0  0  0  0  0  0  0  0
   13.2424    9.8067    0.0000 C   0  0  0  0  0  0  0  0  0  0  0  0
   12.2958   10.9702    0.0000 C   0  0  0  0  0  0  0  0  0  0  0  0
   11.2473   12.0429    0.0000 C   0  0  0  0  0  0  0  0  0  0  0  0
   10.1056   13.0158    0.0000 C   0  0  0  0  0  0  0  0  0  0  0  0
    8.8801   13.8808    0.0000 C   0  0  0  0  0  0  0  0  0  0  0  0
    7.5811   14.6308    0.0000 C   0  0  0  0  0  0  0  0  0  0  0  0
    6.2192   15.2595    0.0000 C   0  0  0  0  0  0  0  0  0  0  0  0
    4.8058   15.7619    0.0000 C   0  0  0  0  0  0  0  0  0  0  0  0
    3.3526   16.1336    0.0000 C   0  0  0  0  0  0  0  0  0  0  0  0
    1.8716   16.3716    0.0000 C   0  0  0  0  0  0  0  0  0  0  0  0
    0.3751   16.4740    0.0000 C   0  0  0  0  0  0  0  0  0  0  0  0
   -1.1245   16.4398    0.0000 C   0  0  0  0  0  0  0  0  0  0  0  0
   -2.6148   16.2694    0.0000 C   0  0  0  0  0  0  0  0  0  0  0  0
   -4.0834   15.9643    0.0000 C   0  0  0  0  0  0  0  0  0  0  0  0
   -5.5182   15.5268    0.0000 C   0  0  0  0  0  0  0  0  0  0  0  0
   -6.9073   14.9607    0.0000 C   0  0  0  0  0  0  0  0  0  0  0  0
   -8.2391   14.2706    0.0000 C   0  0  0  0  0  0  0  0  0  0  0  0
   -9.5027   13.4622    0.0000 C   0  0  0  0  0  0  0  0  0  0  0  0
  -10.6875   12.5423    0.0000 C   0  0  0  0  0  0  0  0  0  0  0  0
  -11.7837   11.5185    0.0000 C   0  0  0  0  0  0  0  0  0  0  0  0
  -12.7823   10.3992    0.0000 C   0  0  0  0  0  0  0  0  0  0  0  0
  -13.6750    9.1938    0.0000 C   0  0  0  0  0  0  0  0  0  0  0  0
  -14.4544    7.9121    0.0000 C   0  0  0  0  0  0  0  0  0  0  0  0
  -15.1140    6.5649    0.0000 C   0  0  0  0  0  0  0  0  0  0  0  0
  -15.6484    5.1634    0.0000 C   0  0  0  0  0  0  0  0  0  0  0  0
  -16.0531    3.7190    0.0000 C   0  0  0  0  0  0  0  0  0  0  0  0
  -16.3248    2.2438    0.0000 C   0  0  0  0  0  0  0  0  0  0  0  0
  -16.4612    0.7500    0.0000 C   0  0  0  0  0  0  0  0  0  0  0  0
  -16.4612   -0.7500    0.0000 C   0  0  0  0  0  0  0  0  0  0  0  0
  -16.3248   -2.2438    0.0000 C   0  0  0  0  0  0  0  0  0  0  0  0
  -16.0531   -3.7190    0.0000 C   0  0  0  0  0  0  0  0  0  0  0  0
  -15.6484   -5.1634    0.0000 C   0  0  0  0  0  0  0  0  0  0  0  0
  -15.1140   -6.5649    0.0000 C   0  0  0  0  0  0  0  0  0  0  0  0
  -14.4544   -7.9121    0.0000 C   0  0  0  0  0  0  0  0  0  0  0  0
  -13.6750   -9.1938    0.0000 C   0  0  0  0  0  0  0  0  0  0  0  0
  -12.7823  -10.3992    0.0000 C   0  0  0  0  0  0  0  0  0  0  0  0
  -11.7837  -11.5185    0.0000 C   0  0  0  0  0  0  0  0  0  0  0  0
  -10.6875  -12.5423    0.0000 C   0  0  0  0  0  0  0  0  0  0  0  0
   -9.5027  -13.4622    0.0000 C   0  0  0  0  0  0  0  0  0  0  0  0
   -8.2391  -14.2706    0.0000 C   0  0  0  0  0  0  0  0  0  0  0  0
   -6.9073  -14.9607    0.0000 C   0  0  0  0  0  0  0  0  0  0  0  0
   -5.5182  -15.5268    0.0000 C   0  0  0  0  0  0  0  0  0  0  0  0
   -4.0834  -15.9643    0.0000 C   0  0  0  0  0  0  0  0  0  0  0  0
   -2.6148  -16.2694    0.0000 C   0  0  0  0  0  0  0  0  0  0  0  0
   -1.1245  -16.4398    0.0000 C   0  0  0  0  0  0  0  0  0  0  0  0
    0.3751  -16.4740    0.0000 C   0  0  0  0  0  0  0  0  0  0  0  0
    1.8716  -16.3716    0.0000 C   0  0  0  0  0  0  0  0  0  0  0  0
    3.3526  -16.1336    0.0000 C   0  0  0  0  0  0  0  0  0  0  0  0
    4.8058  -15.7619    0.0000 C   0  0  0  0  0  0  0  0  0  0  0  0
    6.2192  -15.2595    0.0000 C   0  0  0  0  0  0  0  0  0  0  0  0
    7.5811  -14.6308    0.0000 C   0  0  0  0  0  0  0  0  0  0  0  0
    8.8801  -13.8808    0.0000 C   0  0  0  0  0  0  0  0  0  0  0  0
   10.1056  -13.0158    0.0000 C   0  0  0  0  0  0  0  0  0  0  0  0
   11.2473  -12.0429    0.0000 C   0  0  0  0  0  0  0  0  0  0  0  0
   12.2958  -10.9702    0.0000 C   0  0  0  0  0  0  0  0  0  0  0  0
   13.2424   -9.8067    0.0000 C   0  0  0  0  0  0  0  0  0  0  0  0
   14.0793   -8.5618    0.0000 C   0  0  0  0  0  0  0  0  0  0  0  0
   14.7996   -7.2460    0.0000 C   0  0  0  0  0  0  0  0  0  0  0  0
   15.3972   -5.8702    0.0000 C   0  0  0  0  0  0  0  0  0  0  0  0
   15.8672   -4.4458    0.0000 C   0  0  0  0  0  0  0  0  0  0  0  0
   16.2057   -2.9845    0.0000 C   0  0  0  0  0  0  0  0  0  0  0  0
   16.4100   -1.4984    0.0000 C   0  0  0  0  0  0  0  0  0  0  0  0
  1  2  2  0
  2  3  1  0
  3  4  1  0
  4  5  1  0
  5  6  1  0
  6  7  1  0
  7  8  1  0
  8  9  1  0
  9 10  1  0
 10 11  1  0
 11 12  1  0
 12 13  1  0
 13 14  1  0
 14 15  1  0
 15 16  1  0
 16 17  1  0
 17 18  1  0
 18 19  1  0
 19 20  1  0
 20 21  1  0
 21 22  1  0
 22 23  1  0
 23 24  1  0
 24 25  1  0
 25 26  1  0
 26 27  1  0
 27 28  1  0
 28 29  1  0
 29 30  1  0
 30 31  1  0
 31 32  1  0
 32 33  1  0
 33 34  1  0
 34 35  1  0
 35 36  1  0
 36 37  1  0
 37 38  1  0
 38 39  1  0
 39 40  1  0
 40 41  1  0
 41 42  1  0
 42 43  1  0
 43 44  1  0
 44 45  1  0
 45 46  1  0
 46 47  1  0
 47 48  1  0
 48 49  1  0
 49 50  1  0
 50 51  1  0
 51 52  1  0
 52 53  1  0
 53 54  1  0
 54 55  1  0
 55 56  1  0
 56 57  1  0
 57 58  1  0
 58 59  1  0
 59 60  1  0
 60 61  1  0
 61 62  1  0
 62 63  1  0
 63 64  1  0
 64 65  1  0
 65 66  1  0
 66 67  1  0
 67 68  1  0
 68 69  1  0
 69  1  1  0
M  END
>  <Title>  (546) 
idAATBgen9

$$$$

     RDKit          2D

 11 11  0  0  0  0  0  0  0  0999 V2000
    4.2760   -0.0000    0.0000 N   0  0  0  0  0  0  0  0  0  0  0  0
    2.7760    0.0000    0.0000 C   0  0  0  0  0  0  0  0  0  0  0  0
    1.2760    0.0000    0.0000 C   0  0  0  0  0  0  0  0  0  0  0  0
    0.3943    1.2135    0.0000 C   0  0  0  0  0  0  0  0  0  0  0  0
   -1.0323    0.7500    0.0000 C   0  0  0  0  0  0  0  0  0  0  0  0
   -1.0323   -0.7500    0.0000 C   0  0  0  0  0  0  0  0  0  0  0  0
   -2.2458   -1.6317    0.0000 O   0  0  0  0  0  0  0  0  0  0  0  0
   -3.6161   -1.0216    0.0000 C   0  0  0  0  0  0  0  0  0  0  0  0
   -3.7729    0.4702    0.0000 O   0  0  0  0  0  0  0  0  0  0  0  0
   -4.8297   -1.9033    0.0000 O   0  0  0  0  0  0  0  0  0  0  0  0
    0.3943   -1.2135    0.0000 C   0  0  0  0  0  0  0  0  0  0  0  0
  1  2  3  0
  2  3  1  0
  3  4  1  0
  4  5  2  0
  5  6  1  0
  6  7  1  0
  7  8  1  0
  8  9  2  0
  8 10  1  0
  6 11  1  0
 11  3  1  0
M  END
>  <Title>  (547) 
idAATCgen9

$$$$

     RDKit          2D

113113  0  0  0  0  0  0  0  0999 V2000
   28.2415    0.0000    0.0000 C   0  0  0  0  0  0  0  0  0  0  0  0
   26.7415    0.0000    0.0000 C   0  0  0  0  0  0  0  0  0  0  0  0
   26.6995   -1.4994    0.0000 C   0  0  0  0  0  0  0  0  0  0  0  0
   26.5734   -2.9941    0.0000 C   0  0  0  0  0  0  0  0  0  0  0  0
   26.3637   -4.4794    0.0000 C   0  0  0  0  0  0  0  0  0  0  0  0
   26.0711   -5.9506    0.0000 C   0  0  0  0  0  0  0  0  0  0  0  0
   25.6964   -7.4030    0.0000 C   0  0  0  0  0  0  0  0  0  0  0  0
   25.2409   -8.8322    0.0000 C   0  0  0  0  0  0  0  0  0  0  0  0
   24.7060  -10.2335    0.0000 C   0  0  0  0  0  0  0  0  0  0  0  0
   24.0933  -11.6027    0.0000 C   0  0  0  0  0  0  0  0  0  0  0  0
   23.4048  -12.9354    0.0000 C   0  0  0  0  0  0  0  0  0  0  0  0
   22.6427  -14.2274    0.0000 C   0  0  0  0  0  0  0  0  0  0  0  0
   21.8094  -15.4746    0.0000 C   0  0  0  0  0  0  0  0  0  0  0  0
   20.9074  -16.6731    0.0000 C   0  0  0  0  0  0  0  0  0  0  0  0
   19.9396  -17.8191    0.0000 C   0  0  0  0  0  0  0  0  0  0  0  0
   18.9091  -18.9091    0.0000 C   0  0  0  0  0  0  0  0  0  0  0  0
   17.8191  -19.9396    0.0000 C   0  0  0  0  0  0  0  0  0  0  0  0
   16.6731  -20.9074    0.0000 C   0  0  0  0  0  0  0  0  0  0  0  0
   15.4746  -21.8094    0.0000 C   0  0  0  0  0  0  0  0  0  0  0  0
   14.2274  -22.6427    0.0000 C   0  0  0  0  0  0  0  0  0  0  0  0
   12.9354  -23.4048    0.0000 C   0  0  0  0  0  0  0  0  0  0  0  0
   11.6027  -24.0933    0.0000 C   0  0  0  0  0  0  0  0  0  0  0  0
   10.2335  -24.7060    0.0000 C   0  0  0  0  0  0  0  0  0  0  0  0
    8.8322  -25.2409    0.0000 C   0  0  0  0  0  0  0  0  0  0  0  0
    7.4030  -25.6964    0.0000 C   0  0  0  0  0  0  0  0  0  0  0  0
    5.9506  -26.0711    0.0000 C   0  0  0  0  0  0  0  0  0  0  0  0
    4.4794  -26.3637    0.0000 C   0  0  0  0  0  0  0  0  0  0  0  0
    2.9941  -26.5734    0.0000 C   0  0  0  0  0  0  0  0  0  0  0  0
    1.4994  -26.6995    0.0000 C   0  0  0  0  0  0  0  0  0  0  0  0
   -0.0000  -26.7415    0.0000 C   0  0  0  0  0  0  0  0  0  0  0  0
   -1.4994  -26.6995    0.0000 C   0  0  0  0  0  0  0  0  0  0  0  0
   -2.9941  -26.5734    0.0000 C   0  0  0  0  0  0  0  0  0  0  0  0
   -4.4794  -26.3637    0.0000 C   0  0  0  0  0  0  0  0  0  0  0  0
   -5.9506  -26.0711    0.0000 C   0  0  0  0  0  0  0  0  0  0  0  0
   -7.4030  -25.6964    0.0000 C   0  0  0  0  0  0  0  0  0  0  0  0
   -8.8322  -25.2409    0.0000 C   0  0  0  0  0  0  0  0  0  0  0  0
  -10.2335  -24.7060    0.0000 C   0  0  0  0  0  0  0  0  0  0  0  0
  -11.6027  -24.0933    0.0000 C   0  0  0  0  0  0  0  0  0  0  0  0
  -12.9354  -23.4048    0.0000 C   0  0  0  0  0  0  0  0  0  0  0  0
  -14.2274  -22.6427    0.0000 C   0  0  0  0  0  0  0  0  0  0  0  0
  -15.4746  -21.8094    0.0000 C   0  0  0  0  0  0  0  0  0  0  0  0
  -16.6731  -20.9074    0.0000 C   0  0  0  0  0  0  0  0  0  0  0  0
  -17.8191  -19.9396    0.0000 C   0  0  0  0  0  0  0  0  0  0  0  0
  -18.9091  -18.9091    0.0000 C   0  0  0  0  0  0  0  0  0  0  0  0
  -19.9396  -17.8191    0.0000 C   0  0  0  0  0  0  0  0  0  0  0  0
  -20.9074  -16.6731    0.0000 C   0  0  0  0  0  0  0  0  0  0  0  0
  -21.8094  -15.4746    0.0000 C   0  0  0  0  0  0  0  0  0  0  0  0
  -22.6427  -14.2274    0.0000 C   0  0  0  0  0  0  0  0  0  0  0  0
  -23.4048  -12.9354    0.0000 C   0  0  0  0  0  0  0  0  0  0  0  0
  -24.0933  -11.6027    0.0000 C   0  0  0  0  0  0  0  0  0  0  0  0
  -24.7060  -10.2335    0.0000 C   0  0  0  0  0  0  0  0  0  0  0  0
  -25.2409   -8.8322    0.0000 C   0  0  0  0  0  0  0  0  0  0  0  0
  -25.6964   -7.4030    0.0000 C   0  0  0  0  0  0  0  0  0  0  0  0
  -26.0711   -5.9506    0.0000 C   0  0  0  0  0  0  0  0  0  0  0  0
  -26.3637   -4.4794    0.0000 C   0  0  0  0  0  0  0  0  0  0  0  0
  -26.5734   -2.9941    0.0000 C   0  0  0  0  0  0  0  0  0  0  0  0
  -26.6995   -1.4994    0.0000 C   0  0  0  0  0  0  0  0  0  0  0  0
  -26.7415    0.0000    0.0000 C   0  0  0  0  0  0  0  0  0  0  0  0
  -26.6995    1.4994    0.0000 C   0  0  0  0  0  0  0  0  0  0  0  0
  -26.5734    2.9941    0.0000 C   0  0  0  0  0  0  0  0  0  0  0  0
  -26.3637    4.4794    0.0000 C   0  0  0  0  0  0  0  0  0  0  0  0
  -26.0711    5.9506    0.0000 C   0  0  0  0  0  0  0  0  0  0  0  0
  -25.6964    7.4030    0.0000 C   0  0  0  0  0  0  0  0  0  0  0  0
  -25.2409    8.8322    0.0000 C   0  0  0  0  0  0  0  0  0  0  0  0
  -24.7060   10.2335    0.0000 C   0  0  0  0  0  0  0  0  0  0  0  0
  -24.0933   11.6027    0.0000 C   0  0  0  0  0  0  0  0  0  0  0  0
  -23.4048   12.9354    0.0000 C   0  0  0  0  0  0  0  0  0  0  0  0
  -22.6427   14.2274    0.0000 C   0  0  0  0  0  0  0  0  0  0  0  0
  -21.8094   15.4746    0.0000 C   0  0  0  0  0  0  0  0  0  0  0  0
  -20.9074   16.6731    0.0000 C   0  0  0  0  0  0  0  0  0  0  0  0
  -19.9396   17.8191    0.0000 C   0  0  0  0  0  0  0  0  0  0  0  0
  -18.9091   18.9091    0.0000 C   0  0  0  0  0  0  0  0  0  0  0  0
  -17.8191   19.9396    0.0000 C   0  0  0  0  0  0  0  0  0  0  0  0
  -16.6731   20.9074    0.0000 C   0  0  0  0  0  0  0  0  0  0  0  0
  -15.4746   21.8094    0.0000 C   0  0  0  0  0  0  0  0  0  0  0  0
  -14.2274   22.6427    0.0000 C   0  0  0  0  0  0  0  0  0  0  0  0
  -12.9354   23.4048    0.0000 C   0  0  0  0  0  0  0  0  0  0  0  0
  -11.6027   24.0933    0.0000 C   0  0  0  0  0  0  0  0  0  0  0  0
  -10.2335   24.7060    0.0000 C   0  0  0  0  0  0  0  0  0  0  0  0
   -8.8322   25.2409    0.0000 C   0  0  0  0  0  0  0  0  0  0  0  0
   -7.4030   25.6964    0.0000 C   0  0  0  0  0  0  0  0  0  0  0  0
   -5.9506   26.0711    0.0000 C   0  0  0  0  0  0  0  0  0  0  0  0
   -4.4794   26.3637    0.0000 C   0  0  0  0  0  0  0  0  0  0  0  0
   -2.9941   26.5734    0.0000 C   0  0  0  0  0  0  0  0  0  0  0  0
   -1.4994   26.6995    0.0000 C   0  0  0  0  0  0  0  0  0  0  0  0
    0.0000   26.7415    0.0000 C   0  0  0  0  0  0  0  0  0  0  0  0
    1.4994   26.6995    0.0000 C   0  0  0  0  0  0  0  0  0  0  0  0
    2.9941   26.5734    0.0000 C   0  0  0  0  0  0  0  0  0  0  0  0
    4.4794   26.3637    0.0000 C   0  0  0  0  0  0  0  0  0  0  0  0
    5.9506   26.0711    0.0000 C   0  0  0  0  0  0  0  0  0  0  0  0
    7.4030   25.6964    0.0000 C   0  0  0  0  0  0  0  0  0  0  0  0
    8.8322   25.2409    0.0000 C   0  0  0  0  0  0  0  0  0  0  0  0
   10.2335   24.7060    0.0000 C   0  0  0  0  0  0  0  0  0  0  0  0
   11.6027   24.0933    0.0000 C   0  0  0  0  0  0  0  0  0  0  0  0
   12.9354   23.4048    0.0000 C   0  0  0  0  0  0  0  0  0  0  0  0
   14.2274   22.6427    0.0000 C   0  0  0  0  0  0  0  0  0  0  0  0
   15.4746   21.8094    0.0000 C   0  0  0  0  0  0  0  0  0  0  0  0
   16.6731   20.9074    0.0000 C   0  0  0  0  0  0  0  0  0  0  0  0
   17.8191   19.9396    0.0000 C   0  0  0  0  0  0  0  0  0  0  0  0
   18.9091   18.9091    0.0000 C   0  0  0  0  0  0  0  0  0  0  0  0
   19.9396   17.8191    0.0000 C   0  0  0  0  0  0  0  0  0  0  0  0
   20.9074   16.6731    0.0000 C   0  0  0  0  0  0  0  0  0  0  0  0
   21.8094   15.4746    0.0000 C   0  0  0  0  0  0  0  0  0  0  0  0
   22.6427   14.2274    0.0000 C   0  0  0  0  0  0  0  0  0  0  0  0
   23.4048   12.9354    0.0000 C   0  0  0  0  0  0  0  0  0  0  0  0
   24.0933   11.6027    0.0000 C   0  0  0  0  0  0  0  0  0  0  0  0
   24.7060   10.2335    0.0000 C   0  0  0  0  0  0  0  0  0  0  0  0
   25.2409    8.8322    0.0000 C   0  0  0  0  0  0  0  0  0  0  0  0
   25.6964    7.4030    0.0000 C   0  0  0  0  0  0  0  0  0  0  0  0
   26.0711    5.9506    0.0000 C   0  0  0  0  0  0  0  0  0  0  0  0
   26.3637    4.4794    0.0000 C   0  0  0  0  0  0  0  0  0  0  0  0
   26.5734    2.9941    0.0000 C   0  0  0  0  0  0  0  0  0  0  0  0
   26.6995    1.4994    0.0000 C   0  0  0  0  0  0  0  0  0  0  0  0
  1  2  1  0
  2  3  2  0
  3  4  1  0
  4  5  1  0
  5  6  1  0
  6  7  1  0
  7  8  1  0
  8  9  1  0
  9 10  1  0
 10 11  1  0
 11 12  1  0
 12 13  1  0
 13 14  1  0
 14 15  1  0
 15 16  1  0
 16 17  1  0
 17 18  1  0
 18 19  1  0
 19 20  1  0
 20 21  1  0
 21 22  1  0
 22 23  1  0
 23 24  1  0
 24 25  1  0
 25 26  1  0
 26 27  1  0
 27 28  1  0
 28 29  1  0
 29 30  1  0
 30 31  1  0
 31 32  1  0
 32 33  1  0
 33 34  1  0
 34 35  1  0
 35 36  1  0
 36 37  1  0
 37 38  1  0
 38 39  1  0
 39 40  1  0
 40 41  1  0
 41 42  1  0
 42 43  1  0
 43 44  1  0
 44 45  1  0
 45 46  1  0
 46 47  1  0
 47 48  1  0
 48 49  1  0
 49 50  1  0
 50 51  1  0
 51 52  1  0
 52 53  1  0
 53 54  1  0
 54 55  1  0
 55 56  1  0
 56 57  1  0
 57 58  1  0
 58 59  1  0
 59 60  1  0
 60 61  1  0
 61 62  1  0
 62 63  1  0
 63 64  1  0
 64 65  1  0
 65 66  1  0
 66 67  1  0
 67 68  1  0
 68 69  1  0
 69 70  1  0
 70 71  1  0
 71 72  1  0
 72 73  1  0
 73 74  1  0
 74 75  1  0
 75 76  1  0
 76 77  1  0
 77 78  1  0
 78 79  1  0
 79 80  1  0
 80 81  1  0
 81 82  1  0
 82 83  1  0
 83 84  1  0
 84 85  1  0
 85 86  1  0
 86 87  1  0
 87 88  1  0
 88 89  1  0
 89 90  1  0
 90 91  1  0
 91 92  1  0
 92 93  1  0
 93 94  1  0
 94 95  1  0
 95 96  1  0
 96 97  1  0
 97 98  1  0
 98 99  1  0
 99100  1  0
100101  1  0
101102  1  0
102103  1  0
103104  1  0
104105  1  0
105106  1  0
106107  1  0
107108  1  0
108109  1  0
109110  1  0
110111  1  0
111112  1  0
112113  1  0
113  2  1  0
M  END
>  <Title>  (548) 
idAATDgen9

$$$$

     RDKit          2D

 63 72  0  0  0  0  0  0  0  0999 V2000
    6.5139   -6.7631    0.0000 C   0  0  0  0  0  0  0  0  0  0  0  0
    5.0181   -6.6510    0.0000 C   0  0  0  0  0  0  0  0  0  0  0  0
    4.9060   -5.1552    0.0000 C   0  0  0  0  0  0  0  0  0  0  0  0
    4.3580   -3.7589    0.0000 C   0  0  0  0  0  0  0  0  0  0  0  0
    3.4227   -2.5862    0.0000 C   0  0  0  0  0  0  0  0  0  0  0  0
    2.1834   -1.7412    0.0000 C   0  0  0  0  0  0  0  0  0  0  0  0
    2.8342   -0.3897    0.0000 C   0  0  0  0  0  0  0  0  0  0  0  0
    1.9892    0.8496    0.0000 O   0  0  0  0  0  0  0  0  0  0  0  0
    4.3300   -0.2776    0.0000 N   0  0  0  0  0  0  0  0  0  0  0  0
    4.9808    1.0738    0.0000 C   0  0  0  0  0  0  0  0  0  0  0  0
    6.4766    1.1859    0.0000 N   0  0  0  0  0  0  0  0  0  0  0  0
    7.1274    2.5374    0.0000 N   0  0  0  0  0  0  0  0  0  0  0  0
    6.2825    3.7767    0.0000 N   0  0  0  0  0  0  0  0  0  0  0  0
    4.7867    3.6646    0.0000 N   0  0  0  0  0  0  0  0  0  0  0  0
    4.1358    2.3132    0.0000 N   0  0  0  0  0  0  0  0  0  0  0  0
    0.7500   -1.2990    0.0000 C   0  0  0  0  0  0  0  0  0  0  0  0
    1.5000    0.0000    0.0000 C   0  0  0  0  0  0  0  0  0  0  0  0
    0.7500    1.2990    0.0000 C   0  0  0  0  0  0  0  0  0  0  0  0
   -0.7500    1.2990    0.0000 C   0  0  0  0  0  0  0  0  0  0  0  0
   -1.5000    0.0000    0.0000 C   0  0  0  0  0  0  0  0  0  0  0  0
   -0.7500   -1.2990    0.0000 C   0  0  0  0  0  0  0  0  0  0  0  0
   -2.1834   -1.7412    0.0000 C   0  0  0  0  0  0  0  0  0  0  0  0
   -2.2955   -0.2454    0.0000 C   0  0  0  0  0  0  0  0  0  0  0  0
   -3.6469    0.4055    0.0000 C   0  0  0  0  0  0  0  0  0  0  0  0
   -4.8863   -0.4395    0.0000 C   0  0  0  0  0  0  0  0  0  0  0  0
   -4.7742   -1.9353    0.0000 C   0  0  0  0  0  0  0  0  0  0  0  0
   -3.4227   -2.5862    0.0000 C   0  0  0  0  0  0  0  0  0  0  0  0
   -4.3580   -3.7589    0.0000 C   0  0  0  0  0  0  0  0  0  0  0  0
   -5.2932   -2.5862    0.0000 C   0  0  0  0  0  0  0  0  0  0  0  0
   -6.7764   -2.8097    0.0000 C   0  0  0  0  0  0  0  0  0  0  0  0
   -7.3244   -4.2060    0.0000 C   0  0  0  0  0  0  0  0  0  0  0  0
   -6.3892   -5.3788    0.0000 C   0  0  0  0  0  0  0  0  0  0  0  0
   -4.9060   -5.1552    0.0000 C   0  0  0  0  0  0  0  0  0  0  0  0
   -5.0181   -6.6510    0.0000 C   0  0  0  0  0  0  0  0  0  0  0  0
   -6.4514   -6.2089    0.0000 C   0  0  0  0  0  0  0  0  0  0  0  0
   -7.5510   -7.2291    0.0000 C   0  0  0  0  0  0  0  0  0  0  0  0
   -7.2172   -8.6915    0.0000 C   0  0  0  0  0  0  0  0  0  0  0  0
   -5.7839   -9.1337    0.0000 C   0  0  0  0  0  0  0  0  0  0  0  0
   -4.6843   -8.1134    0.0000 C   0  0  0  0  0  0  0  0  0  0  0  0
   -3.9343   -9.4124    0.0000 C   0  0  0  0  0  0  0  0  0  0  0  0
   -5.3676   -9.8546    0.0000 C   0  0  0  0  0  0  0  0  0  0  0  0
   -5.7014  -11.3170    0.0000 C   0  0  0  0  0  0  0  0  0  0  0  0
   -4.6018  -12.3372    0.0000 C   0  0  0  0  0  0  0  0  0  0  0  0
   -3.1685  -11.8951    0.0000 C   0  0  0  0  0  0  0  0  0  0  0  0
   -2.8347  -10.4327    0.0000 C   0  0  0  0  0  0  0  0  0  0  0  0
   -1.4832  -11.0835    0.0000 C   0  0  0  0  0  0  0  0  0  0  0  0
   -2.4185  -12.2563    0.0000 C   0  0  0  0  0  0  0  0  0  0  0  0
   -1.8705  -13.6526    0.0000 C   0  0  0  0  0  0  0  0  0  0  0  0
   -0.3872  -13.8762    0.0000 C   0  0  0  0  0  0  0  0  0  0  0  0
    0.5480  -12.7034    0.0000 C   0  0  0  0  0  0  0  0  0  0  0  0
   -0.0000  -11.3071    0.0000 C   0  0  0  0  0  0  0  0  0  0  0  0
    1.4832  -11.0835    0.0000 C   0  0  0  0  0  0  0  0  0  0  0  0
    1.3712  -12.5793    0.0000 C   0  0  0  0  0  0  0  0  0  0  0  0
    2.6105  -13.4243    0.0000 C   0  0  0  0  0  0  0  0  0  0  0  0
    3.9620  -12.7735    0.0000 C   0  0  0  0  0  0  0  0  0  0  0  0
    4.0741  -11.2777    0.0000 C   0  0  0  0  0  0  0  0  0  0  0  0
    2.8347  -10.4327    0.0000 C   0  0  0  0  0  0  0  0  0  0  0  0
    3.9343   -9.4124    0.0000 C   0  0  0  0  0  0  0  0  0  0  0  0
    4.6843  -10.7115    0.0000 C   0  0  0  0  0  0  0  0  0  0  0  0
    6.1843  -10.7115    0.0000 C   0  0  0  0  0  0  0  0  0  0  0  0
    6.9343   -9.4124    0.0000 C   0  0  0  0  0  0  0  0  0  0  0  0
    6.1843   -8.1134    0.0000 C   0  0  0  0  0  0  0  0  0  0  0  0
    4.6843   -8.1134    0.0000 C   0  0  0  0  0  0  0  0  0  0  0  0
  1  2  1  0
  2  3  2  0
  3  4  1  0
  4  5  2  0
  5  6  1  0
  6  7  1  0
  7  8  2  0
  7  9  1  0
  9 10  1  0
 10 11  2  0
 11 12  1  0
 12 13  2  0
 13 14  1  0
 14 15  2  0
  6 16  1  0
 16 17  2  0
 17 18  1  0
 18 19  2  0
 19 20  1  0
 20 21  2  0
 21 22  1  0
 22 23  2  0
 23 24  1  0
 24 25  2  0
 25 26  1  0
 26 27  2  0
 27 28  1  0
 28 29  2  0
 29 30  1  0
 30 31  2  0
 31 32  1  0
 32 33  2  0
 33 34  1  0
 34 35  2  0
 35 36  1  0
 36 37  2  0
 37 38  1  0
 38 39  2  0
 39 40  1  0
 40 41  2  0
 41 42  1  0
 42 43  2  0
 43 44  1  0
 44 45  2  0
 45 46  1  0
 46 47  2  0
 47 48  1  0
 48 49  2  0
 49 50  1  0
 50 51  2  0
 51 52  1  0
 52 53  2  0
 53 54  1  0
 54 55  2  0
 55 56  1  0
 56 57  2  0
 57 58  1  0
 58 59  2  0
 59 60  1  0
 60 61  2  0
 61 62  1  0
 62 63  2  0
 63  2  1  0
 15 10  1  0
 21 16  1  0
 27 22  1  0
 33 28  1  0
 39 34  1  0
 45 40  1  0
 51 46  1  0
 57 52  1  0
 63 58  1  0
M  END
>  <Title>  (549) 
idAATEgen9

$$$$

     RDKit          2D

 43 49  0  0  0  0  0  0  0  0999 V2000
    3.1097   -7.2078    0.0000 C   0  0  0  0  0  0  0  0  0  0  0  0
    2.0490   -6.1471    0.0000 C   0  0  0  0  0  0  0  0  0  0  0  0
    2.7990   -4.8481    0.0000 C   0  0  0  0  0  0  0  0  0  0  0  0
    2.7990   -3.3481    0.0000 C   0  0  0  0  0  0  0  0  0  0  0  0
    2.0490   -2.0490    0.0000 C   0  0  0  0  0  0  0  0  0  0  0  0
    3.1097   -0.9884    0.0000 C   0  0  0  0  0  0  0  0  0  0  0  0
    2.7215    0.4605    0.0000 O   0  0  0  0  0  0  0  0  0  0  0  0
    4.5586   -1.3766    0.0000 N   0  0  0  0  0  0  0  0  0  0  0  0
    5.6192   -0.3159    0.0000 C   0  0  0  0  0  0  0  0  0  0  0  0
    5.3846    1.1656    0.0000 N   0  0  0  0  0  0  0  0  0  0  0  0
    6.7211    1.8466    0.0000 N   0  0  0  0  0  0  0  0  0  0  0  0
    7.7818    0.7859    0.0000 N   0  0  0  0  0  0  0  0  0  0  0  0
    7.1008   -0.5506    0.0000 N   0  0  0  0  0  0  0  0  0  0  0  0
    7.7818   -1.8871    0.0000 C   0  0  0  0  0  0  0  0  0  0  0  0
    6.9648   -3.1451    0.0000 C   0  0  0  0  0  0  0  0  0  0  0  0
    7.6458   -4.4816    0.0000 C   0  0  0  0  0  0  0  0  0  0  0  0
    9.1437   -4.5601    0.0000 C   0  0  0  0  0  0  0  0  0  0  0  0
    9.9607   -3.3021    0.0000 C   0  0  0  0  0  0  0  0  0  0  0  0
    9.2797   -1.9656    0.0000 C   0  0  0  0  0  0  0  0  0  0  0  0
    0.7500   -1.2990    0.0000 C   0  0  0  0  0  0  0  0  0  0  0  0
    1.5000    0.0000    0.0000 C   0  0  0  0  0  0  0  0  0  0  0  0
    0.7500    1.2990    0.0000 C   0  0  0  0  0  0  0  0  0  0  0  0
   -0.7500    1.2990    0.0000 C   0  0  0  0  0  0  0  0  0  0  0  0
   -1.5000    0.0000    0.0000 C   0  0  0  0  0  0  0  0  0  0  0  0
   -0.7500   -1.2990    0.0000 C   0  0  0  0  0  0  0  0  0  0  0  0
   -2.0490   -2.0490    0.0000 C   0  0  0  0  0  0  0  0  0  0  0  0
   -2.7990   -0.7500    0.0000 C   0  0  0  0  0  0  0  0  0  0  0  0
   -4.2990   -0.7500    0.0000 C   0  0  0  0  0  0  0  0  0  0  0  0
   -5.0490   -2.0490    0.0000 C   0  0  0  0  0  0  0  0  0  0  0  0
   -4.2990   -3.3481    0.0000 C   0  0  0  0  0  0  0  0  0  0  0  0
   -2.7990   -3.3481    0.0000 C   0  0  0  0  0  0  0  0  0  0  0  0
   -2.7990   -4.8481    0.0000 C   0  0  0  0  0  0  0  0  0  0  0  0
   -4.2990   -4.8481    0.0000 C   0  0  0  0  0  0  0  0  0  0  0  0
   -5.0490   -6.1471    0.0000 C   0  0  0  0  0  0  0  0  0  0  0  0
   -4.2990   -7.4462    0.0000 C   0  0  0  0  0  0  0  0  0  0  0  0
   -2.7990   -7.4462    0.0000 C   0  0  0  0  0  0  0  0  0  0  0  0
   -2.0490   -6.1471    0.0000 C   0  0  0  0  0  0  0  0  0  0  0  0
   -0.7500   -6.8971    0.0000 C   0  0  0  0  0  0  0  0  0  0  0  0
   -1.5000   -8.1962    0.0000 C   0  0  0  0  0  0  0  0  0  0  0  0
   -0.7500   -9.4952    0.0000 C   0  0  0  0  0  0  0  0  0  0  0  0
    0.7500   -9.4952    0.0000 C   0  0  0  0  0  0  0  0  0  0  0  0
    1.5000   -8.1962    0.0000 C   0  0  0  0  0  0  0  0  0  0  0  0
    0.7500   -6.8971    0.0000 C   0  0  0  0  0  0  0  0  0  0  0  0
  1  2  1  0
  2  3  1  0
  3  4  1  0
  4  5  1  0
  5  6  1  0
  6  7  2  0
  6  8  1  0
  8  9  1  0
  9 10  2  0
 10 11  1  0
 11 12  2  0
 12 13  1  0
 13 14  1  0
 14 15  2  0
 15 16  1  0
 16 17  2  0
 17 18  1  0
 18 19  2  0
  5 20  1  0
 20 21  2  0
 21 22  1  0
 22 23  2  0
 23 24  1  0
 24 25  2  0
 25 26  1  0
 26 27  2  0
 27 28  1  0
 28 29  2  0
 29 30  1  0
 30 31  2  0
 31 32  1  0
 32 33  2  0
 33 34  1  0
 34 35  2  0
 35 36  1  0
 36 37  2  0
 37 38  1  0
 38 39  2  0
 39 40  1  0
 40 41  2  0
 41 42  1  0
 42 43  2  0
 43  2  1  0
 13  9  1  0
 19 14  1  0
 25 20  1  0
 31 26  1  0
 37 32  1  0
 43 38  1  0
M  END
>  <Title>  (550) 
idAATFgen9

$$$$

     RDKit          2D

 16 16  0  0  0  0  0  0  0  0999 V2000
   16.5000    0.0000    0.0000 C   0  0  0  0  0  0  0  0  0  0  0  0
   15.0000    0.0000    0.0000 C   0  0  0  0  0  0  0  0  0  0  0  0
   13.5000    0.0000    0.0000 C   0  0  0  0  0  0  0  0  0  0  0  0
   12.0000    0.0000    0.0000 C   0  0  0  0  0  0  0  0  0  0  0  0
   10.5000    0.0000    0.0000 C   0  0  0  0  0  0  0  0  0  0  0  0
    9.0000    0.0000    0.0000 C   0  0  0  0  0  0  0  0  0  0  0  0
    7.5000    0.0000    0.0000 C   0  0  0  0  0  0  0  0  0  0  0  0
    6.0000    0.0000    0.0000 C   0  0  0  0  0  0  0  0  0  0  0  0
    4.5000    0.0000    0.0000 C   0  0  0  0  0  0  0  0  0  0  0  0
    3.0000    0.0000    0.0000 C   0  0  0  0  0  0  0  0  0  0  0  0
    1.5000    0.0000    0.0000 C   0  0  0  0  0  0  0  0  0  0  0  0
    0.7500   -1.2990    0.0000 C   0  0  0  0  0  0  0  0  0  0  0  0
   -0.7500   -1.2990    0.0000 C   0  0  0  0  0  0  0  0  0  0  0  0
   -1.5000    0.0000    0.0000 C   0  0  0  0  0  0  0  0  0  0  0  0
   -0.7500    1.2990    0.0000 C   0  0  0  0  0  0  0  0  0  0  0  0
    0.7500    1.2990    0.0000 C   0  0  0  0  0  0  0  0  0  0  0  0
  1  2  3  0
  2  3  1  0
  3  4  3  0
  4  5  1  0
  5  6  3  0
  6  7  1  0
  7  8  3  0
  8  9  1  0
  9 10  3  0
 10 11  1  0
 11 12  2  0
 12 13  1  0
 13 14  2  0
 14 15  1  0
 15 16  1  0
 16 11  1  0
M  END
>  <Title>  (551) 
idAATGgen9

$$$$

     RDKit          2D

  6  6  0  0  0  0  0  0  0  0999 V2000
    2.7760    0.0000    0.0000 C   0  0  0  0  0  0  0  0  0  0  0  0
    1.2760    0.0000    0.0000 C   0  0  0  0  0  0  0  0  0  0  0  0
    0.3943    1.2135    0.0000 C   0  0  0  0  0  0  0  0  0  0  0  0
   -1.0323    0.7500    0.0000 C   0  0  0  0  0  0  0  0  0  0  0  0
   -1.0323   -0.7500    0.0000 C   0  0  0  0  0  0  0  0  0  0  0  0
    0.3943   -1.2135    0.0000 C   0  0  0  0  0  0  0  0  0  0  0  0
  1  2  1  0
  2  3  1  0
  3  4  1  0
  4  5  2  0
  5  6  1  0
  6  2  1  0
M  END
>  <Title>  (552) 
idAATHgen9

$$$$

     RDKit          2D

 19 20  0  0  0  0  0  0  0  0999 V2000
    0.7500   -6.4952    0.0000 C   0  0  0  0  0  0  0  0  0  0  0  0
    1.5000   -5.1962    0.0000 C   0  0  0  0  0  0  0  0  0  0  0  0
    0.7500   -3.8971    0.0000 N   0  0  0  0  0  0  0  0  0  0  0  0
    1.5000   -2.5981    0.0000 C   0  0  0  0  0  0  0  0  0  0  0  0
    3.0000   -2.5981    0.0000 O   0  0  0  0  0  0  0  0  0  0  0  0
    0.7500   -1.2990    0.0000 C   0  0  0  0  0  0  0  0  0  0  0  0
    1.5000    0.0000    0.0000 C   0  0  0  0  0  0  0  0  0  0  0  0
    0.7500    1.2990    0.0000 C   0  0  0  0  0  0  0  0  0  0  0  0
   -0.7500    1.2990    0.0000 C   0  0  0  0  0  0  0  0  0  0  0  0
   -1.5000    0.0000    0.0000 C   0  0  0  0  0  0  0  0  0  0  0  0
   -0.7500   -1.2990    0.0000 C   0  0  0  0  0  0  0  0  0  0  0  0
    3.0000   -5.1962    0.0000 C   0  0  0  0  0  0  0  0  0  0  0  0
    3.7500   -3.8971    0.0000 O   0  0  0  0  0  0  0  0  0  0  0  0
    3.7500   -6.4952    0.0000 N   0  0  0  0  0  0  0  0  0  0  0  0
    5.2500   -6.4952    0.0000 C   0  0  0  0  0  0  0  0  0  0  0  0
    6.1317   -5.2817    0.0000 C   0  0  0  0  0  0  0  0  0  0  0  0
    7.5583   -5.7452    0.0000 C   0  0  0  0  0  0  0  0  0  0  0  0
    7.5583   -7.2452    0.0000 C   0  0  0  0  0  0  0  0  0  0  0  0
    6.1317   -7.7087    0.0000 C   0  0  0  0  0  0  0  0  0  0  0  0
  1  2  1  0
  2  3  1  0
  3  4  1  0
  4  5  2  0
  4  6  1  0
  6  7  2  0
  7  8  1  0
  8  9  2  0
  9 10  1  0
 10 11  2  0
  2 12  1  0
 12 13  2  0
 12 14  1  0
 14 15  1  0
 15 16  2  0
 16 17  1  0
 17 18  2  0
 18 19  1  0
 11  6  1  0
 19 15  1  0
M  END
>  <Title>  (553) 
idAATIgen9

$$$$

     RDKit          2D

 91 93  0  0  0  0  0  0  0  0999 V2000
    7.7454   -7.7578    0.0000 C   0  0  0  0  0  0  0  0  0  0  0  0
    9.2084   -7.4267    0.0000 C   0  0  0  0  0  0  0  0  0  0  0  0
    9.6344   -8.8650    0.0000 C   0  0  0  0  0  0  0  0  0  0  0  0
   10.2445  -10.2353    0.0000 C   0  0  0  0  0  0  0  0  0  0  0  0
   11.0283  -11.5142    0.0000 C   0  0  0  0  0  0  0  0  0  0  0  0
   11.9722  -12.6800    0.0000 C   0  0  0  0  0  0  0  0  0  0  0  0
   13.0603  -13.7125    0.0000 C   0  0  0  0  0  0  0  0  0  0  0  0
   14.2738  -14.5942    0.0000 C   0  0  0  0  0  0  0  0  0  0  0  0
   15.5921  -15.3099    0.0000 C   0  0  0  0  0  0  0  0  0  0  0  0
   16.9924  -15.8475    0.0000 C   0  0  0  0  0  0  0  0  0  0  0  0
   18.4510  -16.1976    0.0000 C   0  0  0  0  0  0  0  0  0  0  0  0
   19.9428  -16.3544    0.0000 C   0  0  0  0  0  0  0  0  0  0  0  0
   21.4423  -16.3152    0.0000 C   0  0  0  0  0  0  0  0  0  0  0  0
   22.9238  -16.0805    0.0000 C   0  0  0  0  0  0  0  0  0  0  0  0
   24.3620  -15.6545    0.0000 C   0  0  0  0  0  0  0  0  0  0  0  0
   25.7323  -15.0444    0.0000 C   0  0  0  0  0  0  0  0  0  0  0  0
   27.0113  -14.2606    0.0000 C   0  0  0  0  0  0  0  0  0  0  0  0
   28.1770  -13.3166    0.0000 C   0  0  0  0  0  0  0  0  0  0  0  0
   29.2095  -12.2286    0.0000 C   0  0  0  0  0  0  0  0  0  0  0  0
   30.0912  -11.0151    0.0000 C   0  0  0  0  0  0  0  0  0  0  0  0
   30.8070   -9.6968    0.0000 C   0  0  0  0  0  0  0  0  0  0  0  0
   31.3445   -8.2965    0.0000 C   0  0  0  0  0  0  0  0  0  0  0  0
   31.6947   -6.8379    0.0000 C   0  0  0  0  0  0  0  0  0  0  0  0
   31.8515   -5.3461    0.0000 C   0  0  0  0  0  0  0  0  0  0  0  0
   31.8122   -3.8466    0.0000 C   0  0  0  0  0  0  0  0  0  0  0  0
   31.5776   -2.3651    0.0000 C   0  0  0  0  0  0  0  0  0  0  0  0
   31.1515   -0.9269    0.0000 C   0  0  0  0  0  0  0  0  0  0  0  0
   30.5414    0.4434    0.0000 C   0  0  0  0  0  0  0  0  0  0  0  0
   29.7577    1.7224    0.0000 C   0  0  0  0  0  0  0  0  0  0  0  0
   28.8137    2.8881    0.0000 C   0  0  0  0  0  0  0  0  0  0  0  0
   27.7256    3.9207    0.0000 C   0  0  0  0  0  0  0  0  0  0  0  0
   26.5121    4.8023    0.0000 C   0  0  0  0  0  0  0  0  0  0  0  0
   25.1939    5.5181    0.0000 C   0  0  0  0  0  0  0  0  0  0  0  0
   23.7935    6.0556    0.0000 C   0  0  0  0  0  0  0  0  0  0  0  0
   22.3350    6.4058    0.0000 C   0  0  0  0  0  0  0  0  0  0  0  0
   20.8432    6.5626    0.0000 C   0  0  0  0  0  0  0  0  0  0  0  0
   19.3437    6.5233    0.0000 C   0  0  0  0  0  0  0  0  0  0  0  0
   17.8622    6.2887    0.0000 C   0  0  0  0  0  0  0  0  0  0  0  0
   16.4239    5.8626    0.0000 C   0  0  0  0  0  0  0  0  0  0  0  0
   15.0536    5.2525    0.0000 C   0  0  0  0  0  0  0  0  0  0  0  0
   13.7747    4.4688    0.0000 C   0  0  0  0  0  0  0  0  0  0  0  0
   12.6089    3.5248    0.0000 C   0  0  0  0  0  0  0  0  0  0  0  0
   11.5764    2.4367    0.0000 C   0  0  0  0  0  0  0  0  0  0  0  0
   10.6947    1.2232    0.0000 C   0  0  0  0  0  0  0  0  0  0  0  0
    9.9790   -0.0950    0.0000 C   0  0  0  0  0  0  0  0  0  0  0  0
    9.4414   -1.4954    0.0000 C   0  0  0  0  0  0  0  0  0  0  0  0
    8.8591   -0.0000    0.0000 C   0  0  0  0  0  0  0  0  0  0  0  0
    8.7501    1.3859    0.0000 C   0  0  0  0  0  0  0  0  0  0  0  0
    8.4255    2.7376    0.0000 C   0  0  0  0  0  0  0  0  0  0  0  0
    7.8935    4.0220    0.0000 C   0  0  0  0  0  0  0  0  0  0  0  0
    7.1672    5.2073    0.0000 C   0  0  0  0  0  0  0  0  0  0  0  0
    6.2643    6.2643    0.0000 C   0  0  0  0  0  0  0  0  0  0  0  0
    5.2073    7.1672    0.0000 C   0  0  0  0  0  0  0  0  0  0  0  0
    4.0220    7.8935    0.0000 C   0  0  0  0  0  0  0  0  0  0  0  0
    2.7376    8.4255    0.0000 C   0  0  0  0  0  0  0  0  0  0  0  0
    1.3859    8.7501    0.0000 C   0  0  0  0  0  0  0  0  0  0  0  0
    0.0000    8.8591    0.0000 C   0  0  0  0  0  0  0  0  0  0  0  0
   -1.3859    8.7501    0.0000 C   0  0  0  0  0  0  0  0  0  0  0  0
   -2.7376    8.4255    0.0000 C   0  0  0  0  0  0  0  0  0  0  0  0
   -4.0220    7.8935    0.0000 C   0  0  0  0  0  0  0  0  0  0  0  0
   -5.2073    7.1672    0.0000 C   0  0  0  0  0  0  0  0  0  0  0  0
   -6.2643    6.2643    0.0000 C   0  0  0  0  0  0  0  0  0  0  0  0
   -7.1672    5.2073    0.0000 C   0  0  0  0  0  0  0  0  0  0  0  0
   -7.8935    4.0220    0.0000 C   0  0  0  0  0  0  0  0  0  0  0  0
   -8.4255    2.7376    0.0000 C   0  0  0  0  0  0  0  0  0  0  0  0
   -8.7501    1.3859    0.0000 C   0  0  0  0  0  0  0  0  0  0  0  0
   -8.8591    0.0000    0.0000 C   0  0  0  0  0  0  0  0  0  0  0  0
   -8.7501   -1.3859    0.0000 C   0  0  0  0  0  0  0  0  0  0  0  0
   -8.4255   -2.7376    0.0000 C   0  0  0  0  0  0  0  0  0  0  0  0
   -7.8935   -4.0220    0.0000 C   0  0  0  0  0  0  0  0  0  0  0  0
   -7.1672   -5.2073    0.0000 C   0  0  0  0  0  0  0  0  0  0  0  0
   -6.2643   -6.2643    0.0000 C   0  0  0  0  0  0  0  0  0  0  0  0
   -5.2073   -7.1672    0.0000 C   0  0  0  0  0  0  0  0  0  0  0  0
   -4.0220   -7.8935    0.0000 C   0  0  0  0  0  0  0  0  0  0  0  0
   -2.7376   -8.4255    0.0000 C   0  0  0  0  0  0  0  0  0  0  0  0
   -1.3859   -8.7501    0.0000 C   0  0  0  0  0  0  0  0  0  0  0  0
   -0.0000   -8.8591    0.0000 C   0  0  0  0  0  0  0  0  0  0  0  0
    1.3859   -8.7501    0.0000 C   0  0  0  0  0  0  0  0  0  0  0  0
    2.7376   -8.4255    0.0000 C   0  0  0  0  0  0  0  0  0  0  0  0
    4.0220   -7.8935    0.0000 C   0  0  0  0  0  0  0  0  0  0  0  0
    5.2073   -7.1672    0.0000 C   0  0  0  0  0  0  0  0  0  0  0  0
    6.2643   -6.2643    0.0000 C   0  0  0  0  0  0  0  0  0  0  0  0
    7.1672   -5.2073    0.0000 C   0  0  0  0  0  0  0  0  0  0  0  0
    7.8935   -4.0220    0.0000 C   0  0  0  0  0  0  0  0  0  0  0  0
    9.0913   -2.9539    0.0000 C   0  0  0  0  0  0  0  0  0  0  0  0
    8.9345   -4.4457    0.0000 C   0  0  0  0  0  0  0  0  0  0  0  0
   10.2134   -3.6620    0.0000 C   0  0  0  0  0  0  0  0  0  0  0  0
   11.5317   -4.3777    0.0000 C   0  0  0  0  0  0  0  0  0  0  0  0
   11.5709   -5.8772    0.0000 C   0  0  0  0  0  0  0  0  0  0  0  0
   10.2920   -6.6609    0.0000 C   0  0  0  0  0  0  0  0  0  0  0  0
    8.9737   -5.9452    0.0000 C   0  0  0  0  0  0  0  0  0  0  0  0
  1  2  1  0
  2  3  1  0
  3  4  1  0
  4  5  1  0
  5  6  2  0
  6  7  1  0
  7  8  1  0
  8  9  1  0
  9 10  1  0
 10 11  1  0
 11 12  1  0
 12 13  1  0
 13 14  1  0
 14 15  1  0
 15 16  1  0
 16 17  1  0
 17 18  1  0
 18 19  1  0
 19 20  1  0
 20 21  1  0
 21 22  1  0
 22 23  1  0
 23 24  1  0
 24 25  1  0
 25 26  1  0
 26 27  1  0
 27 28  1  0
 28 29  1  0
 29 30  1  0
 30 31  1  0
 31 32  1  0
 32 33  1  0
 33 34  1  0
 34 35  1  0
 35 36  1  0
 36 37  1  0
 37 38  1  0
 38 39  1  0
 39 40  1  0
 40 41  1  0
 41 42  1  0
 42 43  1  0
 43 44  1  0
 44 45  1  0
 45 46  1  0
 46 47  1  0
 47 48  1  0
 48 49  1  0
 49 50  1  0
 50 51  1  0
 51 52  1  0
 52 53  1  0
 53 54  1  0
 54 55  1  0
 55 56  1  0
 56 57  1  0
 57 58  1  0
 58 59  1  0
 59 60  1  0
 60 61  1  0
 61 62  1  0
 62 63  1  0
 63 64  1  0
 64 65  1  0
 65 66  1  0
 66 67  1  0
 67 68  1  0
 68 69  1  0
 69 70  1  0
 70 71  1  0
 71 72  1  0
 72 73  1  0
 73 74  1  0
 74 75  1  0
 75 76  1  0
 76 77  1  0
 77 78  1  0
 78 79  1  0
 79 80  1  0
 80 81  1  0
 81 82  1  0
 82 83  1  0
 83 84  1  0
 84 85  1  0
 85 86  1  0
 86 87  2  0
 87 88  1  0
 88 89  2  0
 89 90  1  0
 90 91  2  0
 91  2  1  0
 85 46  1  0
 91 86  1  0
M  END
>  <Title>  (554) 
idAATJgen9

$$$$

     RDKit          2D

  9  8  0  0  0  0  0  0  0  0999 V2000
    0.0000    0.0000    0.0000 C   0  0  0  0  0  0  0  0  0  0  0  0
   -0.0000   -1.5000    0.0000 C   0  0  0  0  0  0  0  0  0  0  0  0
   -0.0000   -3.0000    0.0000 C   0  0  0  0  0  0  0  0  0  0  0  0
   -0.0000   -4.5000    0.0000 C   0  0  0  0  0  0  0  0  0  0  0  0
   -0.0000   -6.0000    0.0000 C   0  0  0  0  0  0  0  0  0  0  0  0
   -0.0000   -7.5000    0.0000 C   0  0  0  0  0  0  0  0  0  0  0  0
   -0.0000   -9.0000    0.0000 C   0  0  0  0  0  0  0  0  0  0  0  0
   -0.0000  -10.5000    0.0000 C   0  0  0  0  0  0  0  0  0  0  0  0
   -0.0000  -12.0000    0.0000 C   0  0  0  0  0  0  0  0  0  0  0  0
  1  2  3  0
  2  3  1  0
  3  4  3  0
  4  5  1  0
  5  6  3  0
  6  7  1  0
  7  8  3  0
  8  9  1  0
M  END
>  <Title>  (555) 
idAATKgen9

$$$$

     RDKit          2D

  7  7  0  0  0  0  0  0  0  0999 V2000
    2.7760    0.0000    0.0000 C   0  0  0  0  0  0  0  0  0  0  0  0
    1.2760    0.0000    0.0000 C   0  0  0  0  0  0  0  0  0  0  0  0
    0.3943    1.2135    0.0000 C   0  0  0  0  0  0  0  0  0  0  0  0
   -1.0323    0.7500    0.0000 C   0  0  0  0  0  0  0  0  0  0  0  0
   -1.0323   -0.7500    0.0000 C   0  0  0  0  0  0  0  0  0  0  0  0
   -2.2458   -1.6317    0.0000 C   0  0  0  0  0  0  0  0  0  0  0  0
    0.3943   -1.2135    0.0000 C   0  0  0  0  0  0  0  0  0  0  0  0
  1  2  1  0
  2  3  2  0
  3  4  1  0
  4  5  1  0
  5  6  1  0
  5  7  2  0
  7  2  1  0
M  END
>  <Title>  (556) 
idAATLgen9

$$$$

     RDKit          2D

  9  9  0  0  0  0  0  0  0  0999 V2000
    3.7500    1.2990    0.0000 O   0  0  0  0  0  0  0  0  0  0  0  0
    3.0000    0.0000    0.0000 C   0  0  0  0  0  0  0  0  0  0  0  0
    3.7500   -1.2990    0.0000 O   0  0  0  0  0  0  0  0  0  0  0  0
    1.5000    0.0000    0.0000 C   0  0  0  0  0  0  0  0  0  0  0  0
    0.7500   -1.2990    0.0000 C   0  0  0  0  0  0  0  0  0  0  0  0
   -0.7500   -1.2990    0.0000 C   0  0  0  0  0  0  0  0  0  0  0  0
   -1.5000    0.0000    0.0000 C   0  0  0  0  0  0  0  0  0  0  0  0
   -0.7500    1.2990    0.0000 N   0  0  0  0  0  0  0  0  0  0  0  0
    0.7500    1.2990    0.0000 C   0  0  0  0  0  0  0  0  0  0  0  0
  1  2  2  0
  2  3  1  0
  2  4  1  0
  4  5  2  0
  5  6  1  0
  6  7  2  0
  7  8  1  0
  8  9  2  0
  9  4  1  0
M  END
>  <Title>  (557) 
idAATMgen9

$$$$

     RDKit          2D

 38 43  0  0  0  0  0  0  0  0999 V2000
    3.1097   -7.2078    0.0000 C   0  0  0  0  0  0  0  0  0  0  0  0
    2.0490   -6.1471    0.0000 C   0  0  0  0  0  0  0  0  0  0  0  0
    2.7990   -4.8481    0.0000 C   0  0  0  0  0  0  0  0  0  0  0  0
    2.7990   -3.3481    0.0000 C   0  0  0  0  0  0  0  0  0  0  0  0
    2.0490   -2.0490    0.0000 C   0  0  0  0  0  0  0  0  0  0  0  0
    3.1097   -0.9884    0.0000 C   0  0  0  0  0  0  0  0  0  0  0  0
    2.7215    0.4605    0.0000 O   0  0  0  0  0  0  0  0  0  0  0  0
    4.5586   -1.3766    0.0000 N   0  0  0  0  0  0  0  0  0  0  0  0
    5.6192   -0.3159    0.0000 C   0  0  0  0  0  0  0  0  0  0  0  0
    7.0681   -0.7042    0.0000 N   0  0  0  0  0  0  0  0  0  0  0  0
    8.1288    0.3565    0.0000 N   0  0  0  0  0  0  0  0  0  0  0  0
    7.7406    1.8054    0.0000 N   0  0  0  0  0  0  0  0  0  0  0  0
    6.2917    2.1936    0.0000 N   0  0  0  0  0  0  0  0  0  0  0  0
    5.2310    1.1329    0.0000 N   0  0  0  0  0  0  0  0  0  0  0  0
    0.7500   -1.2990    0.0000 C   0  0  0  0  0  0  0  0  0  0  0  0
    1.5000    0.0000    0.0000 C   0  0  0  0  0  0  0  0  0  0  0  0
    0.7500    1.2990    0.0000 C   0  0  0  0  0  0  0  0  0  0  0  0
   -0.7500    1.2990    0.0000 C   0  0  0  0  0  0  0  0  0  0  0  0
   -1.5000    0.0000    0.0000 C   0  0  0  0  0  0  0  0  0  0  0  0
   -0.7500   -1.2990    0.0000 C   0  0  0  0  0  0  0  0  0  0  0  0
   -2.0490   -2.0490    0.0000 C   0  0  0  0  0  0  0  0  0  0  0  0
   -2.7990   -0.7500    0.0000 C   0  0  0  0  0  0  0  0  0  0  0  0
   -4.2990   -0.7500    0.0000 C   0  0  0  0  0  0  0  0  0  0  0  0
   -5.0490   -2.0490    0.0000 C   0  0  0  0  0  0  0  0  0  0  0  0
   -4.2990   -3.3481    0.0000 C   0  0  0  0  0  0  0  0  0  0  0  0
   -2.7990   -3.3481    0.0000 C   0  0  0  0  0  0  0  0  0  0  0  0
   -2.7990   -4.8481    0.0000 C   0  0  0  0  0  0  0  0  0  0  0  0
   -4.2990   -4.8481    0.0000 C   0  0  0  0  0  0  0  0  0  0  0  0
   -5.0490   -6.1471    0.0000 C   0  0  0  0  0  0  0  0  0  0  0  0
   -4.2990   -7.4462    0.0000 C   0  0  0  0  0  0  0  0  0  0  0  0
   -2.7990   -7.4462    0.0000 C   0  0  0  0  0  0  0  0  0  0  0  0
   -2.0490   -6.1471    0.0000 C   0  0  0  0  0  0  0  0  0  0  0  0
   -0.7500   -6.8971    0.0000 C   0  0  0  0  0  0  0  0  0  0  0  0
   -1.5000   -8.1962    0.0000 C   0  0  0  0  0  0  0  0  0  0  0  0
   -0.7500   -9.4952    0.0000 C   0  0  0  0  0  0  0  0  0  0  0  0
    0.7500   -9.4952    0.0000 C   0  0  0  0  0  0  0  0  0  0  0  0
    1.5000   -8.1962    0.0000 C   0  0  0  0  0  0  0  0  0  0  0  0
    0.7500   -6.8971    0.0000 C   0  0  0  0  0  0  0  0  0  0  0  0
  1  2  1  0
  2  3  1  0
  3  4  2  0
  4  5  1  0
  5  6  1  0
  6  7  2  0
  6  8  1  0
  8  9  1  0
  9 10  2  0
 10 11  1  0
 11 12  2  0
 12 13  1  0
 13 14  2  0
  5 15  1  0
 15 16  2  0
 16 17  1  0
 17 18  2  0
 18 19  1  0
 19 20  2  0
 20 21  1  0
 21 22  2  0
 22 23  1  0
 23 24  2  0
 24 25  1  0
 25 26  2  0
 26 27  1  0
 27 28  2  0
 28 29  1  0
 29 30  2  0
 30 31  1  0
 31 32  2  0
 32 33  1  0
 33 34  2  0
 34 35  1  0
 35 36  2  0
 36 37  1  0
 37 38  2  0
 38  2  1  0
 14  9  1  0
 20 15  1  0
 26 21  1  0
 32 27  1  0
 38 33  1  0
M  END
>  <Title>  (558) 
idAATNgen9

$$$$

     RDKit          2D

102102  0  0  0  0  0  0  0  0999 V2000
   25.6159   -0.0000    0.0000 C   0  0  0  0  0  0  0  0  0  0  0  0
   24.1159    0.0000    0.0000 C   0  0  0  0  0  0  0  0  0  0  0  0
   24.0692    1.4993    0.0000 C   0  0  0  0  0  0  0  0  0  0  0  0
   23.9294    2.9927    0.0000 C   0  0  0  0  0  0  0  0  0  0  0  0
   23.6971    4.4746    0.0000 C   0  0  0  0  0  0  0  0  0  0  0  0
   23.3731    5.9392    0.0000 C   0  0  0  0  0  0  0  0  0  0  0  0
   22.9586    7.3808    0.0000 C   0  0  0  0  0  0  0  0  0  0  0  0
   22.4553    8.7939    0.0000 C   0  0  0  0  0  0  0  0  0  0  0  0
   21.8652   10.1729    0.0000 C   0  0  0  0  0  0  0  0  0  0  0  0
   21.1904   11.5126    0.0000 C   0  0  0  0  0  0  0  0  0  0  0  0
   20.4337   12.8077    0.0000 C   0  0  0  0  0  0  0  0  0  0  0  0
   19.5979   14.0533    0.0000 C   0  0  0  0  0  0  0  0  0  0  0  0
   18.6863   15.2445    0.0000 C   0  0  0  0  0  0  0  0  0  0  0  0
   17.7025   16.3767    0.0000 C   0  0  0  0  0  0  0  0  0  0  0  0
   16.6501   17.4456    0.0000 C   0  0  0  0  0  0  0  0  0  0  0  0
   15.5333   18.4470    0.0000 C   0  0  0  0  0  0  0  0  0  0  0  0
   14.3564   19.3770    0.0000 C   0  0  0  0  0  0  0  0  0  0  0  0
   13.1240   20.2321    0.0000 C   0  0  0  0  0  0  0  0  0  0  0  0
   11.8407   21.0088    0.0000 C   0  0  0  0  0  0  0  0  0  0  0  0
   10.5117   21.7043    0.0000 C   0  0  0  0  0  0  0  0  0  0  0  0
    9.1420   22.3159    0.0000 C   0  0  0  0  0  0  0  0  0  0  0  0
    7.7370   22.8411    0.0000 C   0  0  0  0  0  0  0  0  0  0  0  0
    6.3020   23.2779    0.0000 C   0  0  0  0  0  0  0  0  0  0  0  0
    4.8426   23.6246    0.0000 C   0  0  0  0  0  0  0  0  0  0  0  0
    3.3645   23.8800    0.0000 C   0  0  0  0  0  0  0  0  0  0  0  0
    1.8734   24.0430    0.0000 C   0  0  0  0  0  0  0  0  0  0  0  0
    0.3750   24.1129    0.0000 C   0  0  0  0  0  0  0  0  0  0  0  0
   -1.1248   24.0896    0.0000 C   0  0  0  0  0  0  0  0  0  0  0  0
   -2.6202   23.9731    0.0000 C   0  0  0  0  0  0  0  0  0  0  0  0
   -4.1056   23.7638    0.0000 C   0  0  0  0  0  0  0  0  0  0  0  0
   -5.5750   23.4626    0.0000 C   0  0  0  0  0  0  0  0  0  0  0  0
   -7.0229   23.0706    0.0000 C   0  0  0  0  0  0  0  0  0  0  0  0
   -8.4436   22.5894    0.0000 C   0  0  0  0  0  0  0  0  0  0  0  0
   -9.8316   22.0208    0.0000 C   0  0  0  0  0  0  0  0  0  0  0  0
  -11.1816   21.3669    0.0000 C   0  0  0  0  0  0  0  0  0  0  0  0
  -12.4884   20.6304    0.0000 C   0  0  0  0  0  0  0  0  0  0  0  0
  -13.7468   19.8141    0.0000 C   0  0  0  0  0  0  0  0  0  0  0  0
  -14.9521   18.9212    0.0000 C   0  0  0  0  0  0  0  0  0  0  0  0
  -16.0995   17.9550    0.0000 C   0  0  0  0  0  0  0  0  0  0  0  0
  -17.1846   16.9194    0.0000 C   0  0  0  0  0  0  0  0  0  0  0  0
  -18.2032   15.8183    0.0000 C   0  0  0  0  0  0  0  0  0  0  0  0
  -19.1514   14.6560    0.0000 C   0  0  0  0  0  0  0  0  0  0  0  0
  -20.0255   13.4370    0.0000 C   0  0  0  0  0  0  0  0  0  0  0  0
  -20.8222   12.1660    0.0000 C   0  0  0  0  0  0  0  0  0  0  0  0
  -21.5382   10.8480    0.0000 C   0  0  0  0  0  0  0  0  0  0  0  0
  -22.1710    9.4880    0.0000 C   0  0  0  0  0  0  0  0  0  0  0  0
  -22.7180    8.0913    0.0000 C   0  0  0  0  0  0  0  0  0  0  0  0
  -23.1771    6.6633    0.0000 C   0  0  0  0  0  0  0  0  0  0  0  0
  -23.5465    5.2095    0.0000 C   0  0  0  0  0  0  0  0  0  0  0  0
  -23.8248    3.7355    0.0000 C   0  0  0  0  0  0  0  0  0  0  0  0
  -24.0109    2.2471    0.0000 C   0  0  0  0  0  0  0  0  0  0  0  0
  -24.1042    0.7500    0.0000 C   0  0  0  0  0  0  0  0  0  0  0  0
  -24.1042   -0.7500    0.0000 C   0  0  0  0  0  0  0  0  0  0  0  0
  -24.0109   -2.2471    0.0000 C   0  0  0  0  0  0  0  0  0  0  0  0
  -23.8248   -3.7355    0.0000 C   0  0  0  0  0  0  0  0  0  0  0  0
  -23.5465   -5.2095    0.0000 C   0  0  0  0  0  0  0  0  0  0  0  0
  -23.1771   -6.6633    0.0000 C   0  0  0  0  0  0  0  0  0  0  0  0
  -22.7180   -8.0913    0.0000 C   0  0  0  0  0  0  0  0  0  0  0  0
  -22.1710   -9.4880    0.0000 C   0  0  0  0  0  0  0  0  0  0  0  0
  -21.5382  -10.8480    0.0000 C   0  0  0  0  0  0  0  0  0  0  0  0
  -20.8222  -12.1660    0.0000 C   0  0  0  0  0  0  0  0  0  0  0  0
  -20.0255  -13.4370    0.0000 C   0  0  0  0  0  0  0  0  0  0  0  0
  -19.1514  -14.6560    0.0000 C   0  0  0  0  0  0  0  0  0  0  0  0
  -18.2032  -15.8183    0.0000 C   0  0  0  0  0  0  0  0  0  0  0  0
  -17.1846  -16.9194    0.0000 C   0  0  0  0  0  0  0  0  0  0  0  0
  -16.0995  -17.9550    0.0000 C   0  0  0  0  0  0  0  0  0  0  0  0
  -14.9521  -18.9212    0.0000 C   0  0  0  0  0  0  0  0  0  0  0  0
  -13.7468  -19.8141    0.0000 C   0  0  0  0  0  0  0  0  0  0  0  0
  -12.4884  -20.6304    0.0000 C   0  0  0  0  0  0  0  0  0  0  0  0
  -11.1816  -21.3669    0.0000 C   0  0  0  0  0  0  0  0  0  0  0  0
   -9.8316  -22.0208    0.0000 C   0  0  0  0  0  0  0  0  0  0  0  0
   -8.4436  -22.5894    0.0000 C   0  0  0  0  0  0  0  0  0  0  0  0
   -7.0229  -23.0706    0.0000 C   0  0  0  0  0  0  0  0  0  0  0  0
   -5.5750  -23.4626    0.0000 C   0  0  0  0  0  0  0  0  0  0  0  0
   -4.1056  -23.7638    0.0000 C   0  0  0  0  0  0  0  0  0  0  0  0
   -2.6202  -23.9731    0.0000 C   0  0  0  0  0  0  0  0  0  0  0  0
   -1.1248  -24.0896    0.0000 C   0  0  0  0  0  0  0  0  0  0  0  0
    0.3750  -24.1129    0.0000 C   0  0  0  0  0  0  0  0  0  0  0  0
    1.8734  -24.0430    0.0000 C   0  0  0  0  0  0  0  0  0  0  0  0
    3.3645  -23.8800    0.0000 C   0  0  0  0  0  0  0  0  0  0  0  0
    4.8426  -23.6246    0.0000 C   0  0  0  0  0  0  0  0  0  0  0  0
    6.3020  -23.2779    0.0000 C   0  0  0  0  0  0  0  0  0  0  0  0
    7.7370  -22.8411    0.0000 C   0  0  0  0  0  0  0  0  0  0  0  0
    9.1420  -22.3159    0.0000 C   0  0  0  0  0  0  0  0  0  0  0  0
   10.5117  -21.7043    0.0000 C   0  0  0  0  0  0  0  0  0  0  0  0
   11.8407  -21.0088    0.0000 C   0  0  0  0  0  0  0  0  0  0  0  0
   13.1240  -20.2321    0.0000 C   0  0  0  0  0  0  0  0  0  0  0  0
   14.3564  -19.3770    0.0000 C   0  0  0  0  0  0  0  0  0  0  0  0
   15.5333  -18.4470    0.0000 C   0  0  0  0  0  0  0  0  0  0  0  0
   16.6501  -17.4456    0.0000 C   0  0  0  0  0  0  0  0  0  0  0  0
   17.7025  -16.3767    0.0000 C   0  0  0  0  0  0  0  0  0  0  0  0
   18.6863  -15.2445    0.0000 C   0  0  0  0  0  0  0  0  0  0  0  0
   19.5979  -14.0533    0.0000 C   0  0  0  0  0  0  0  0  0  0  0  0
   20.4337  -12.8077    0.0000 C   0  0  0  0  0  0  0  0  0  0  0  0
   21.1904  -11.5126    0.0000 C   0  0  0  0  0  0  0  0  0  0  0  0
   21.8652  -10.1729    0.0000 C   0  0  0  0  0  0  0  0  0  0  0  0
   22.4553   -8.7939    0.0000 C   0  0  0  0  0  0  0  0  0  0  0  0
   22.9586   -7.3808    0.0000 C   0  0  0  0  0  0  0  0  0  0  0  0
   23.3731   -5.9392    0.0000 C   0  0  0  0  0  0  0  0  0  0  0  0
   23.6971   -4.4746    0.0000 C   0  0  0  0  0  0  0  0  0  0  0  0
   23.9294   -2.9927    0.0000 C   0  0  0  0  0  0  0  0  0  0  0  0
   24.0692   -1.4993    0.0000 C   0  0  0  0  0  0  0  0  0  0  0  0
  1  2  1  0
  2  3  1  0
  3  4  2  0
  4  5  1  0
  5  6  2  0
  6  7  1  0
  7  8  2  0
  8  9  1  0
  9 10  1  0
 10 11  1  0
 11 12  1  0
 12 13  1  0
 13 14  1  0
 14 15  1  0
 15 16  1  0
 16 17  1  0
 17 18  1  0
 18 19  1  0
 19 20  1  0
 20 21  1  0
 21 22  1  0
 22 23  1  0
 23 24  1  0
 24 25  1  0
 25 26  1  0
 26 27  1  0
 27 28  1  0
 28 29  1  0
 29 30  1  0
 30 31  1  0
 31 32  1  0
 32 33  1  0
 33 34  1  0
 34 35  1  0
 35 36  1  0
 36 37  1  0
 37 38  1  0
 38 39  1  0
 39 40  1  0
 40 41  1  0
 41 42  1  0
 42 43  1  0
 43 44  1  0
 44 45  1  0
 45 46  1  0
 46 47  1  0
 47 48  1  0
 48 49  1  0
 49 50  1  0
 50 51  1  0
 51 52  1  0
 52 53  1  0
 53 54  1  0
 54 55  1  0
 55 56  1  0
 56 57  1  0
 57 58  1  0
 58 59  1  0
 59 60  1  0
 60 61  1  0
 61 62  1  0
 62 63  1  0
 63 64  1  0
 64 65  1  0
 65 66  1  0
 66 67  1  0
 67 68  1  0
 68 69  1  0
 69 70  1  0
 70 71  1  0
 71 72  1  0
 72 73  1  0
 73 74  1  0
 74 75  1  0
 75 76  1  0
 76 77  1  0
 77 78  1  0
 78 79  1  0
 79 80  1  0
 80 81  1  0
 81 82  1  0
 82 83  1  0
 83 84  1  0
 84 85  1  0
 85 86  1  0
 86 87  1  0
 87 88  1  0
 88 89  1  0
 89 90  1  0
 90 91  1  0
 91 92  1  0
 92 93  1  0
 93 94  1  0
 94 95  1  0
 95 96  1  0
 96 97  1  0
 97 98  1  0
 98 99  1  0
 99100  1  0
100101  1  0
101102  1  0
102  2  1  0
M  END
>  <Title>  (559) 
idAATOgen9

$$$$

     RDKit          2D

 20 21  0  0  0  0  0  0  0  0999 V2000
    0.7500   -6.4952    0.0000 C   0  0  0  0  0  0  0  0  0  0  0  0
    1.5000   -5.1962    0.0000 C   0  0  0  0  0  0  0  0  0  0  0  0
    3.0000   -5.1962    0.0000 O   0  0  0  0  0  0  0  0  0  0  0  0
    0.7500   -3.8971    0.0000 C   0  0  0  0  0  0  0  0  0  0  0  0
    1.5000   -2.5981    0.0000 C   0  0  0  0  0  0  0  0  0  0  0  0
    0.7500   -1.2990    0.0000 C   0  0  0  0  0  0  0  0  0  0  0  0
    1.5000    0.0000    0.0000 C   0  0  0  0  0  0  0  0  0  0  0  0
    0.7500    1.2990    0.0000 C   0  0  0  0  0  0  0  0  0  0  0  0
   -0.7500    1.2990    0.0000 C   0  0  0  0  0  0  0  0  0  0  0  0
   -1.5000    0.0000    0.0000 C   0  0  0  0  0  0  0  0  0  0  0  0
   -0.7500   -1.2990    0.0000 C   0  0  0  0  0  0  0  0  0  0  0  0
   -0.7500   -3.8971    0.0000 N   0  0  0  0  0  0  0  0  0  0  0  0
   -1.5000   -5.1962    0.0000 C   0  0  0  0  0  0  0  0  0  0  0  0
   -0.7500   -6.4952    0.0000 O   0  0  0  0  0  0  0  0  0  0  0  0
   -3.0000   -5.1962    0.0000 C   0  0  0  0  0  0  0  0  0  0  0  0
   -3.8817   -6.4097    0.0000 C   0  0  0  0  0  0  0  0  0  0  0  0
   -5.3083   -5.9462    0.0000 C   0  0  0  0  0  0  0  0  0  0  0  0
   -5.3083   -4.4462    0.0000 C   0  0  0  0  0  0  0  0  0  0  0  0
   -6.5218   -3.5645    0.0000 O   0  0  0  0  0  0  0  0  0  0  0  0
   -3.8817   -3.9826    0.0000 N   0  0  0  0  0  0  0  0  0  0  0  0
  1  2  1  0
  2  3  2  0
  2  4  1  0
  4  5  1  0
  5  6  1  0
  6  7  2  0
  7  8  1  0
  8  9  2  0
  9 10  1  0
 10 11  2  0
  4 12  1  0
 12 13  1  0
 13 14  2  0
 13 15  1  0
 15 16  1  0
 16 17  1  0
 17 18  1  0
 18 19  2  0
 18 20  1  0
 11  6  1  0
 20 15  1  0
M  END
>  <Title>  (560) 
idAATPgen9

$$$$

     RDKit          2D

 91 92  0  0  0  0  0  0  0  0999 V2000
   -2.4119    0.0810    0.0000 C   0  0  0  0  0  0  0  0  0  0  0  0
   -2.2459   -1.4098    0.0000 C   0  0  0  0  0  0  0  0  0  0  0  0
   -3.7295   -1.6308    0.0000 C   0  0  0  0  0  0  0  0  0  0  0  0
   -5.1928   -1.9607    0.0000 C   0  0  0  0  0  0  0  0  0  0  0  0
   -6.6277   -2.3978    0.0000 C   0  0  0  0  0  0  0  0  0  0  0  0
   -8.0264   -2.9396    0.0000 C   0  0  0  0  0  0  0  0  0  0  0  0
   -9.3813   -3.5833    0.0000 C   0  0  0  0  0  0  0  0  0  0  0  0
  -10.6849   -4.3253    0.0000 C   0  0  0  0  0  0  0  0  0  0  0  0
  -11.9302   -5.1615    0.0000 C   0  0  0  0  0  0  0  0  0  0  0  0
  -13.1103   -6.0875    0.0000 C   0  0  0  0  0  0  0  0  0  0  0  0
  -14.2188   -7.0980    0.0000 C   0  0  0  0  0  0  0  0  0  0  0  0
  -15.2497   -8.1876    0.0000 C   0  0  0  0  0  0  0  0  0  0  0  0
  -16.1973   -9.3505    0.0000 C   0  0  0  0  0  0  0  0  0  0  0  0
  -17.0564  -10.5801    0.0000 C   0  0  0  0  0  0  0  0  0  0  0  0
  -17.8223  -11.8698    0.0000 C   0  0  0  0  0  0  0  0  0  0  0  0
  -18.4909  -13.2125    0.0000 C   0  0  0  0  0  0  0  0  0  0  0  0
  -19.0585  -14.6010    0.0000 C   0  0  0  0  0  0  0  0  0  0  0  0
  -19.5221  -16.0275    0.0000 C   0  0  0  0  0  0  0  0  0  0  0  0
  -19.8790  -17.4845    0.0000 C   0  0  0  0  0  0  0  0  0  0  0  0
  -20.1273  -18.9638    0.0000 C   0  0  0  0  0  0  0  0  0  0  0  0
  -20.2657  -20.4574    0.0000 C   0  0  0  0  0  0  0  0  0  0  0  0
  -20.2934  -21.9571    0.0000 C   0  0  0  0  0  0  0  0  0  0  0  0
  -20.2103  -23.4548    0.0000 C   0  0  0  0  0  0  0  0  0  0  0  0
  -20.0168  -24.9423    0.0000 C   0  0  0  0  0  0  0  0  0  0  0  0
  -19.7140  -26.4114    0.0000 C   0  0  0  0  0  0  0  0  0  0  0  0
  -19.3035  -27.8541    0.0000 C   0  0  0  0  0  0  0  0  0  0  0  0
  -18.7876  -29.2626    0.0000 C   0  0  0  0  0  0  0  0  0  0  0  0
  -18.1690  -30.6291    0.0000 C   0  0  0  0  0  0  0  0  0  0  0  0
  -17.4513  -31.9463    0.0000 C   0  0  0  0  0  0  0  0  0  0  0  0
  -16.6382  -33.2068    0.0000 C   0  0  0  0  0  0  0  0  0  0  0  0
  -15.7342  -34.4038    0.0000 C   0  0  0  0  0  0  0  0  0  0  0  0
  -14.7443  -35.5308    0.0000 C   0  0  0  0  0  0  0  0  0  0  0  0
  -13.6739  -36.5816    0.0000 C   0  0  0  0  0  0  0  0  0  0  0  0
  -12.5288  -37.5505    0.0000 C   0  0  0  0  0  0  0  0  0  0  0  0
  -11.3153  -38.4322    0.0000 C   0  0  0  0  0  0  0  0  0  0  0  0
  -10.0400  -39.2218    0.0000 C   0  0  0  0  0  0  0  0  0  0  0  0
   -8.7098  -39.9151    0.0000 C   0  0  0  0  0  0  0  0  0  0  0  0
   -7.3321  -40.5083    0.0000 C   0  0  0  0  0  0  0  0  0  0  0  0
   -5.9143  -40.9981    0.0000 C   0  0  0  0  0  0  0  0  0  0  0  0
   -4.4642  -41.3819    0.0000 C   0  0  0  0  0  0  0  0  0  0  0  0
   -2.9898  -41.6575    0.0000 C   0  0  0  0  0  0  0  0  0  0  0  0
   -1.4990  -41.8235    0.0000 C   0  0  0  0  0  0  0  0  0  0  0  0
   -0.0000  -41.8789    0.0000 C   0  0  0  0  0  0  0  0  0  0  0  0
    1.4990  -41.8235    0.0000 C   0  0  0  0  0  0  0  0  0  0  0  0
    2.9898  -41.6575    0.0000 C   0  0  0  0  0  0  0  0  0  0  0  0
    4.4642  -41.3819    0.0000 C   0  0  0  0  0  0  0  0  0  0  0  0
    5.9143  -40.9981    0.0000 C   0  0  0  0  0  0  0  0  0  0  0  0
    7.3321  -40.5083    0.0000 C   0  0  0  0  0  0  0  0  0  0  0  0
    8.7098  -39.9151    0.0000 C   0  0  0  0  0  0  0  0  0  0  0  0
   10.0400  -39.2218    0.0000 C   0  0  0  0  0  0  0  0  0  0  0  0
   11.3153  -38.4322    0.0000 C   0  0  0  0  0  0  0  0  0  0  0  0
   12.5288  -37.5505    0.0000 C   0  0  0  0  0  0  0  0  0  0  0  0
   13.6739  -36.5816    0.0000 C   0  0  0  0  0  0  0  0  0  0  0  0
   14.7443  -35.5308    0.0000 C   0  0  0  0  0  0  0  0  0  0  0  0
   15.7342  -34.4038    0.0000 C   0  0  0  0  0  0  0  0  0  0  0  0
   16.6382  -33.2068    0.0000 C   0  0  0  0  0  0  0  0  0  0  0  0
   17.4513  -31.9463    0.0000 C   0  0  0  0  0  0  0  0  0  0  0  0
   18.1690  -30.6291    0.0000 C   0  0  0  0  0  0  0  0  0  0  0  0
   18.7876  -29.2626    0.0000 C   0  0  0  0  0  0  0  0  0  0  0  0
   19.3035  -27.8541    0.0000 C   0  0  0  0  0  0  0  0  0  0  0  0
   19.7140  -26.4114    0.0000 C   0  0  0  0  0  0  0  0  0  0  0  0
   20.0168  -24.9423    0.0000 C   0  0  0  0  0  0  0  0  0  0  0  0
   20.2103  -23.4548    0.0000 C   0  0  0  0  0  0  0  0  0  0  0  0
   20.2934  -21.9571    0.0000 C   0  0  0  0  0  0  0  0  0  0  0  0
   20.2657  -20.4574    0.0000 C   0  0  0  0  0  0  0  0  0  0  0  0
   20.1273  -18.9638    0.0000 C   0  0  0  0  0  0  0  0  0  0  0  0
   19.8790  -17.4845    0.0000 C   0  0  0  0  0  0  0  0  0  0  0  0
   19.5221  -16.0275    0.0000 C   0  0  0  0  0  0  0  0  0  0  0  0
   19.0585  -14.6010    0.0000 C   0  0  0  0  0  0  0  0  0  0  0  0
   18.4909  -13.2125    0.0000 C   0  0  0  0  0  0  0  0  0  0  0  0
   17.8223  -11.8698    0.0000 C   0  0  0  0  0  0  0  0  0  0  0  0
   17.0564  -10.5801    0.0000 C   0  0  0  0  0  0  0  0  0  0  0  0
   16.1973   -9.3505    0.0000 C   0  0  0  0  0  0  0  0  0  0  0  0
   15.2497   -8.1876    0.0000 C   0  0  0  0  0  0  0  0  0  0  0  0
   14.2188   -7.0980    0.0000 C   0  0  0  0  0  0  0  0  0  0  0  0
   13.1103   -6.0875    0.0000 C   0  0  0  0  0  0  0  0  0  0  0  0
   11.9302   -5.1615    0.0000 C   0  0  0  0  0  0  0  0  0  0  0  0
   10.6849   -4.3253    0.0000 C   0  0  0  0  0  0  0  0  0  0  0  0
    9.3813   -3.5833    0.0000 C   0  0  0  0  0  0  0  0  0  0  0  0
    8.0264   -2.9396    0.0000 C   0  0  0  0  0  0  0  0  0  0  0  0
    6.6277   -2.3978    0.0000 C   0  0  0  0  0  0  0  0  0  0  0  0
    5.1928   -1.9607    0.0000 C   0  0  0  0  0  0  0  0  0  0  0  0
    3.7295   -1.6308    0.0000 C   0  0  0  0  0  0  0  0  0  0  0  0
    2.2459   -1.4098    0.0000 C   0  0  0  0  0  0  0  0  0  0  0  0
    2.4119    0.0810    0.0000 C   0  0  0  0  0  0  0  0  0  0  0  0
    0.7500   -1.2990    0.0000 C   0  0  0  0  0  0  0  0  0  0  0  0
    1.5000    0.0000    0.0000 C   0  0  0  0  0  0  0  0  0  0  0  0
    0.7500    1.2990    0.0000 C   0  0  0  0  0  0  0  0  0  0  0  0
   -0.7500    1.2990    0.0000 C   0  0  0  0  0  0  0  0  0  0  0  0
   -1.5000    0.0000    0.0000 C   0  0  0  0  0  0  0  0  0  0  0  0
   -0.7500   -1.2990    0.0000 C   0  0  0  0  0  0  0  0  0  0  0  0
  1  2  1  0
  2  3  1  0
  3  4  1  0
  4  5  1  0
  5  6  1  0
  6  7  1  0
  7  8  1  0
  8  9  1  0
  9 10  1  0
 10 11  1  0
 11 12  1  0
 12 13  1  0
 13 14  1  0
 14 15  1  0
 15 16  1  0
 16 17  1  0
 17 18  1  0
 18 19  1  0
 19 20  1  0
 20 21  1  0
 21 22  1  0
 22 23  1  0
 23 24  1  0
 24 25  1  0
 25 26  1  0
 26 27  1  0
 27 28  1  0
 28 29  1  0
 29 30  1  0
 30 31  1  0
 31 32  1  0
 32 33  1  0
 33 34  1  0
 34 35  1  0
 35 36  1  0
 36 37  1  0
 37 38  1  0
 38 39  1  0
 39 40  1  0
 40 41  1  0
 41 42  1  0
 42 43  1  0
 43 44  1  0
 44 45  1  0
 45 46  1  0
 46 47  1  0
 47 48  1  0
 48 49  1  0
 49 50  1  0
 50 51  1  0
 51 52  1  0
 52 53  1  0
 53 54  1  0
 54 55  1  0
 55 56  1  0
 56 57  1  0
 57 58  1  0
 58 59  1  0
 59 60  1  0
 60 61  1  0
 61 62  1  0
 62 63  1  0
 63 64  1  0
 64 65  1  0
 65 66  1  0
 66 67  1  0
 67 68  1  0
 68 69  1  0
 69 70  1  0
 70 71  1  0
 71 72  1  0
 72 73  1  0
 73 74  1  0
 74 75  1  0
 75 76  1  0
 76 77  1  0
 77 78  1  0
 78 79  1  0
 79 80  1  0
 80 81  1  0
 81 82  1  0
 82 83  1  0
 83 84  1  0
 84 85  1  0
 84 86  1  0
 86 87  2  0
 87 88  1  0
 88 89  2  0
 89 90  1  0
 90 91  2  0
 91  2  1  0
 91 86  1  0
M  END
>  <Title>  (561) 
idAATQgen9

$$$$

     RDKit          2D

 19 19  0  0  0  0  0  0  0  0999 V2000
   16.5000    0.0000    0.0000 C   0  0  0  0  0  0  0  0  0  0  0  0
   15.0000    0.0000    0.0000 C   0  0  0  0  0  0  0  0  0  0  0  0
   13.5000    0.0000    0.0000 C   0  0  0  0  0  0  0  0  0  0  0  0
   12.0000    0.0000    0.0000 C   0  0  0  0  0  0  0  0  0  0  0  0
   10.5000    0.0000    0.0000 C   0  0  0  0  0  0  0  0  0  0  0  0
    9.0000    0.0000    0.0000 C   0  0  0  0  0  0  0  0  0  0  0  0
    7.5000    0.0000    0.0000 C   0  0  0  0  0  0  0  0  0  0  0  0
    6.0000    0.0000    0.0000 C   0  0  0  0  0  0  0  0  0  0  0  0
    4.5000    0.0000    0.0000 C   0  0  0  0  0  0  0  0  0  0  0  0
    3.0000    0.0000    0.0000 C   0  0  0  0  0  0  0  0  0  0  0  0
    1.5000    0.0000    0.0000 C   0  0  0  0  0  0  0  0  0  0  0  0
    0.7500   -1.2990    0.0000 C   0  0  0  0  0  0  0  0  0  0  0  0
   -0.7500   -1.2990    0.0000 C   0  0  0  0  0  0  0  0  0  0  0  0
   -1.5000    0.0000    0.0000 C   0  0  0  0  0  0  0  0  0  0  0  0
   -3.0000    0.0000    0.0000 C   0  0  0  0  0  0  0  0  0  0  0  0
   -4.5000    0.0000    0.0000 N   0  0  0  0  0  0  0  0  0  0  0  0
   -0.7500    1.2990    0.0000 C   0  0  0  0  0  0  0  0  0  0  0  0
   -1.5000    2.5981    0.0000 C   0  0  0  0  0  0  0  0  0  0  0  0
    0.7500    1.2990    0.0000 C   0  0  0  0  0  0  0  0  0  0  0  0
  1  2  3  0
  2  3  1  0
  3  4  3  0
  4  5  1  0
  5  6  3  0
  6  7  1  0
  7  8  3  0
  8  9  1  0
  9 10  3  0
 10 11  1  0
 11 12  2  0
 12 13  1  0
 13 14  2  0
 14 15  1  0
 15 16  3  0
 14 17  1  0
 17 18  1  0
 17 19  2  0
 19 11  1  0
M  END
>  <Title>  (562) 
idAATRgen9

$$$$

     RDKit          2D

 11 11  0  0  0  0  0  0  0  0999 V2000
    5.7760   -2.5981    0.0000 C   0  0  0  0  0  0  0  0  0  0  0  0
    5.0260   -1.2990    0.0000 C   0  0  0  0  0  0  0  0  0  0  0  0
    5.7760    0.0000    0.0000 C   0  0  0  0  0  0  0  0  0  0  0  0
    3.5260   -1.2990    0.0000 C   0  0  0  0  0  0  0  0  0  0  0  0
    2.7760   -2.5981    0.0000 O   0  0  0  0  0  0  0  0  0  0  0  0
    2.7760    0.0000    0.0000 N   0  0  0  0  0  0  0  0  0  0  0  0
    1.2760    0.0000    0.0000 C   0  0  0  0  0  0  0  0  0  0  0  0
    0.3943    1.2135    0.0000 C   0  0  0  0  0  0  0  0  0  0  0  0
   -1.0323    0.7500    0.0000 C   0  0  0  0  0  0  0  0  0  0  0  0
   -1.0323   -0.7500    0.0000 C   0  0  0  0  0  0  0  0  0  0  0  0
    0.3943   -1.2135    0.0000 C   0  0  0  0  0  0  0  0  0  0  0  0
  1  2  1  0
  2  3  1  0
  2  4  1  0
  4  5  2  0
  4  6  1  0
  6  7  1  0
  7  8  2  0
  8  9  1  0
  9 10  2  0
 10 11  1  0
 11  7  1  0
M  END
>  <Title>  (563) 
idAATSgen9

$$$$

     RDKit          2D

 24 26  0  0  0  0  0  0  0  0999 V2000
    3.6929    0.0000    0.0000 C   0  0  0  0  0  0  0  0  0  0  0  0
    2.1929    0.0000    0.0000 C   0  0  0  0  0  0  0  0  0  0  0  0
    1.6798    1.4095    0.0000 C   0  0  0  0  0  0  0  0  0  0  0  0
    0.3808    2.1595    0.0000 C   0  0  0  0  0  0  0  0  0  0  0  0
   -1.0964    1.8991    0.0000 C   0  0  0  0  0  0  0  0  0  0  0  0
   -2.0606    0.7500    0.0000 C   0  0  0  0  0  0  0  0  0  0  0  0
   -2.0606   -0.7500    0.0000 C   0  0  0  0  0  0  0  0  0  0  0  0
   -1.0964   -1.8991    0.0000 C   0  0  0  0  0  0  0  0  0  0  0  0
   -1.8464   -3.1981    0.0000 C   0  0  0  0  0  0  0  0  0  0  0  0
   -1.0964   -4.4971    0.0000 O   0  0  0  0  0  0  0  0  0  0  0  0
   -3.3464   -3.1981    0.0000 N   0  0  0  0  0  0  0  0  0  0  0  0
   -4.0964   -4.4971    0.0000 C   0  0  0  0  0  0  0  0  0  0  0  0
   -3.4863   -5.8675    0.0000 N   0  0  0  0  0  0  0  0  0  0  0  0
   -4.6010   -6.8712    0.0000 N   0  0  0  0  0  0  0  0  0  0  0  0
   -5.9001   -6.1212    0.0000 N   0  0  0  0  0  0  0  0  0  0  0  0
   -5.5882   -4.6539    0.0000 N   0  0  0  0  0  0  0  0  0  0  0  0
   -6.5919   -3.5392    0.0000 C   0  0  0  0  0  0  0  0  0  0  0  0
   -6.1284   -2.1126    0.0000 C   0  0  0  0  0  0  0  0  0  0  0  0
   -7.1321   -0.9979    0.0000 C   0  0  0  0  0  0  0  0  0  0  0  0
   -8.5993   -1.3098    0.0000 C   0  0  0  0  0  0  0  0  0  0  0  0
   -9.0628   -2.7364    0.0000 C   0  0  0  0  0  0  0  0  0  0  0  0
   -8.0591   -3.8511    0.0000 C   0  0  0  0  0  0  0  0  0  0  0  0
    0.3808   -2.1595    0.0000 C   0  0  0  0  0  0  0  0  0  0  0  0
    1.6798   -1.4095    0.0000 C   0  0  0  0  0  0  0  0  0  0  0  0
  1  2  1  0
  2  3  2  0
  3  4  1  0
  4  5  1  0
  5  6  1  0
  6  7  1  0
  7  8  1  0
  8  9  1  0
  9 10  2  0
  9 11  1  0
 11 12  1  0
 12 13  2  0
 13 14  1  0
 14 15  2  0
 15 16  1  0
 16 17  1  0
 17 18  2  0
 18 19  1  0
 19 20  2  0
 20 21  1  0
 21 22  2  0
  8 23  1  0
 23 24  2  0
 24  2  1  0
 16 12  1  0
 22 17  1  0
M  END
>  <Title>  (564) 
idAATTgen9

$$$$

     RDKit          2D

 12 12  0  0  0  0  0  0  0  0999 V2000
   10.5000    0.0000    0.0000 C   0  0  0  0  0  0  0  0  0  0  0  0
    9.0000    0.0000    0.0000 C   0  0  0  0  0  0  0  0  0  0  0  0
    7.5000    0.0000    0.0000 C   0  0  0  0  0  0  0  0  0  0  0  0
    6.0000    0.0000    0.0000 C   0  0  0  0  0  0  0  0  0  0  0  0
    4.5000    0.0000    0.0000 C   0  0  0  0  0  0  0  0  0  0  0  0
    3.0000    0.0000    0.0000 C   0  0  0  0  0  0  0  0  0  0  0  0
    1.5000    0.0000    0.0000 C   0  0  0  0  0  0  0  0  0  0  0  0
    0.7500   -1.2990    0.0000 C   0  0  0  0  0  0  0  0  0  0  0  0
   -0.7500   -1.2990    0.0000 C   0  0  0  0  0  0  0  0  0  0  0  0
   -1.5000    0.0000    0.0000 C   0  0  0  0  0  0  0  0  0  0  0  0
   -0.7500    1.2990    0.0000 C   0  0  0  0  0  0  0  0  0  0  0  0
    0.7500    1.2990    0.0000 C   0  0  0  0  0  0  0  0  0  0  0  0
  1  2  3  0
  2  3  1  0
  3  4  3  0
  4  5  1  0
  5  6  3  0
  6  7  1  0
  7  8  2  0
  8  9  1  0
  9 10  2  0
 10 11  1  0
 11 12  2  0
 12  7  1  0
M  END
>  <Title>  (565) 
idAATUgen9

$$$$

     RDKit          2D

 20 22  0  0  0  0  0  0  0  0999 V2000
    4.2760   -0.0000    0.0000 N   0  0  0  0  0  0  0  0  0  0  0  0
    2.7760    0.0000    0.0000 C   0  0  0  0  0  0  0  0  0  0  0  0
    1.2760    0.0000    0.0000 C   0  0  0  0  0  0  0  0  0  0  0  0
    0.3943    1.2135    0.0000 C   0  0  0  0  0  0  0  0  0  0  0  0
   -1.0323    0.7500    0.0000 C   0  0  0  0  0  0  0  0  0  0  0  0
   -2.2458    1.6317    0.0000 C   0  0  0  0  0  0  0  0  0  0  0  0
   -3.6161    1.0216    0.0000 O   0  0  0  0  0  0  0  0  0  0  0  0
   -2.0890    3.1235    0.0000 N   0  0  0  0  0  0  0  0  0  0  0  0
   -3.3025    4.0051    0.0000 C   0  0  0  0  0  0  0  0  0  0  0  0
   -4.7291    3.5416    0.0000 N   0  0  0  0  0  0  0  0  0  0  0  0
   -5.6108    4.7551    0.0000 N   0  0  0  0  0  0  0  0  0  0  0  0
   -4.7291    5.9687    0.0000 N   0  0  0  0  0  0  0  0  0  0  0  0
   -3.3025    5.5051    0.0000 N   0  0  0  0  0  0  0  0  0  0  0  0
   -2.0890    6.3868    0.0000 N   0  0  0  0  0  0  0  0  0  0  0  0
   -2.0890    7.8868    0.0000 C   0  0  0  0  0  0  0  0  0  0  0  0
   -0.6624    8.3503    0.0000 C   0  0  0  0  0  0  0  0  0  0  0  0
    0.2192    7.1368    0.0000 C   0  0  0  0  0  0  0  0  0  0  0  0
   -0.6624    5.9233    0.0000 C   0  0  0  0  0  0  0  0  0  0  0  0
   -1.0323   -0.7500    0.0000 C   0  0  0  0  0  0  0  0  0  0  0  0
    0.3943   -1.2135    0.0000 C   0  0  0  0  0  0  0  0  0  0  0  0
  1  2  3  0
  2  3  1  0
  3  4  2  0
  4  5  1  0
  5  6  1  0
  6  7  2  0
  6  8  1  0
  8  9  1  0
  9 10  2  0
 10 11  1  0
 11 12  2  0
 12 13  1  0
 13 14  1  0
 14 15  1  0
 15 16  1  0
 16 17  1  0
 17 18  1  0
  5 19  1  0
 19 20  1  0
 20  3  1  0
 13  9  1  0
 18 14  1  0
M  END
>  <Title>  (566) 
idAATVgen9

$$$$

     RDKit          2D

  9  9  0  0  0  0  0  0  0  0999 V2000
    2.7760   -2.5981    0.0000 O   0  0  0  0  0  0  0  0  0  0  0  0
    3.5260   -1.2990    0.0000 C   0  0  0  0  0  0  0  0  0  0  0  0
    5.0260   -1.2990    0.0000 O   0  0  0  0  0  0  0  0  0  0  0  0
    2.7760    0.0000    0.0000 O   0  0  0  0  0  0  0  0  0  0  0  0
    1.2760    0.0000    0.0000 C   0  0  0  0  0  0  0  0  0  0  0  0
    0.3943    1.2135    0.0000 C   0  0  0  0  0  0  0  0  0  0  0  0
   -1.0323    0.7500    0.0000 C   0  0  0  0  0  0  0  0  0  0  0  0
   -1.0323   -0.7500    0.0000 C   0  0  0  0  0  0  0  0  0  0  0  0
    0.3943   -1.2135    0.0000 C   0  0  0  0  0  0  0  0  0  0  0  0
  1  2  2  0
  2  3  1  0
  2  4  1  0
  4  5  1  0
  5  6  1  0
  6  7  1  0
  7  8  1  0
  8  9  1  0
  9  5  1  0
M  END
>  <Title>  (567) 
idAATWgen9

$$$$

     RDKit          2D

 49 56  0  0  0  0  0  0  0  0999 V2000
    5.0793   -4.2937    0.0000 C   0  0  0  0  0  0  0  0  0  0  0  0
    3.5875   -4.4504    0.0000 C   0  0  0  0  0  0  0  0  0  0  0  0
    3.1240   -3.0239    0.0000 C   0  0  0  0  0  0  0  0  0  0  0  0
    2.1203   -1.9091    0.0000 C   0  0  0  0  0  0  0  0  0  0  0  0
    3.0020   -0.6956    0.0000 C   0  0  0  0  0  0  0  0  0  0  0  0
    2.3919    0.6747    0.0000 O   0  0  0  0  0  0  0  0  0  0  0  0
    4.4938   -0.8524    0.0000 N   0  0  0  0  0  0  0  0  0  0  0  0
    5.3755    0.3611    0.0000 C   0  0  0  0  0  0  0  0  0  0  0  0
    6.8672    0.2043    0.0000 N   0  0  0  0  0  0  0  0  0  0  0  0
    7.7489    1.4178    0.0000 N   0  0  0  0  0  0  0  0  0  0  0  0
    7.1388    2.7882    0.0000 N   0  0  0  0  0  0  0  0  0  0  0  0
    5.6470    2.9450    0.0000 N   0  0  0  0  0  0  0  0  0  0  0  0
    4.7654    1.7314    0.0000 N   0  0  0  0  0  0  0  0  0  0  0  0
    0.7500   -1.2990    0.0000 C   0  0  0  0  0  0  0  0  0  0  0  0
    1.5000    0.0000    0.0000 C   0  0  0  0  0  0  0  0  0  0  0  0
    0.7500    1.2990    0.0000 C   0  0  0  0  0  0  0  0  0  0  0  0
   -0.7500    1.2990    0.0000 C   0  0  0  0  0  0  0  0  0  0  0  0
   -1.5000    0.0000    0.0000 C   0  0  0  0  0  0  0  0  0  0  0  0
   -0.7500   -1.2990    0.0000 C   0  0  0  0  0  0  0  0  0  0  0  0
   -2.1203   -1.9091    0.0000 C   0  0  0  0  0  0  0  0  0  0  0  0
   -2.5838   -0.4826    0.0000 C   0  0  0  0  0  0  0  0  0  0  0  0
   -4.0511   -0.1707    0.0000 C   0  0  0  0  0  0  0  0  0  0  0  0
   -5.0548   -1.2854    0.0000 C   0  0  0  0  0  0  0  0  0  0  0  0
   -4.5912   -2.7120    0.0000 C   0  0  0  0  0  0  0  0  0  0  0  0
   -3.1240   -3.0239    0.0000 C   0  0  0  0  0  0  0  0  0  0  0  0
   -3.5875   -4.4504    0.0000 C   0  0  0  0  0  0  0  0  0  0  0  0
   -4.9579   -3.8403    0.0000 C   0  0  0  0  0  0  0  0  0  0  0  0
   -6.1714   -4.7220    0.0000 C   0  0  0  0  0  0  0  0  0  0  0  0
   -6.0146   -6.2138    0.0000 C   0  0  0  0  0  0  0  0  0  0  0  0
   -4.6443   -6.8239    0.0000 C   0  0  0  0  0  0  0  0  0  0  0  0
   -3.4307   -5.9422    0.0000 C   0  0  0  0  0  0  0  0  0  0  0  0
   -2.6807   -7.2413    0.0000 C   0  0  0  0  0  0  0  0  0  0  0  0
   -4.0511   -7.8514    0.0000 C   0  0  0  0  0  0  0  0  0  0  0  0
   -4.2079   -9.3432    0.0000 C   0  0  0  0  0  0  0  0  0  0  0  0
   -2.9943  -10.2248    0.0000 C   0  0  0  0  0  0  0  0  0  0  0  0
   -1.6240   -9.6147    0.0000 C   0  0  0  0  0  0  0  0  0  0  0  0
   -1.4672   -8.1229    0.0000 C   0  0  0  0  0  0  0  0  0  0  0  0
   -0.0000   -8.4348    0.0000 C   0  0  0  0  0  0  0  0  0  0  0  0
   -0.4635   -9.8614    0.0000 C   0  0  0  0  0  0  0  0  0  0  0  0
    0.5402  -10.9761    0.0000 C   0  0  0  0  0  0  0  0  0  0  0  0
    2.0074  -10.6642    0.0000 C   0  0  0  0  0  0  0  0  0  0  0  0
    2.4709   -9.2377    0.0000 C   0  0  0  0  0  0  0  0  0  0  0  0
    1.4672   -8.1229    0.0000 C   0  0  0  0  0  0  0  0  0  0  0  0
    2.6807   -7.2413    0.0000 C   0  0  0  0  0  0  0  0  0  0  0  0
    3.4307   -8.5403    0.0000 C   0  0  0  0  0  0  0  0  0  0  0  0
    4.9307   -8.5403    0.0000 C   0  0  0  0  0  0  0  0  0  0  0  0
    5.6807   -7.2413    0.0000 C   0  0  0  0  0  0  0  0  0  0  0  0
    4.9307   -5.9422    0.0000 C   0  0  0  0  0  0  0  0  0  0  0  0
    3.4307   -5.9422    0.0000 C   0  0  0  0  0  0  0  0  0  0  0  0
  1  2  1  0
  2  3  2  0
  3  4  1  0
  4  5  1  0
  5  6  2  0
  5  7  1  0
  7  8  1  0
  8  9  2  0
  9 10  1  0
 10 11  2  0
 11 12  1  0
 12 13  2  0
  4 14  1  0
 14 15  2  0
 15 16  1  0
 16 17  2  0
 17 18  1  0
 18 19  2  0
 19 20  1  0
 20 21  2  0
 21 22  1  0
 22 23  2  0
 23 24  1  0
 24 25  2  0
 25 26  1  0
 26 27  2  0
 27 28  1  0
 28 29  2  0
 29 30  1  0
 30 31  2  0
 31 32  1  0
 32 33  2  0
 33 34  1  0
 34 35  2  0
 35 36  1  0
 36 37  2  0
 37 38  1  0
 38 39  2  0
 39 40  1  0
 40 41  2  0
 41 42  1  0
 42 43  2  0
 43 44  1  0
 44 45  2  0
 45 46  1  0
 46 47  2  0
 47 48  1  0
 48 49  2  0
 49  2  1  0
 13  8  1  0
 19 14  1  0
 25 20  1  0
 31 26  1  0
 37 32  1  0
 43 38  1  0
 49 44  1  0
M  END
>  <Title>  (568) 
idAATXgen9

$$$$

     RDKit          2D

106106  0  0  0  0  0  0  0  0999 V2000
   26.5706    0.0000    0.0000 C   0  0  0  0  0  0  0  0  0  0  0  0
   25.0706    0.0000    0.0000 C   0  0  0  0  0  0  0  0  0  0  0  0
   25.0258    1.4993    0.0000 C   0  0  0  0  0  0  0  0  0  0  0  0
   24.8913    2.9933    0.0000 C   0  0  0  0  0  0  0  0  0  0  0  0
   24.6677    4.4765    0.0000 C   0  0  0  0  0  0  0  0  0  0  0  0
   24.3559    5.9438    0.0000 C   0  0  0  0  0  0  0  0  0  0  0  0
   23.9568    7.3897    0.0000 C   0  0  0  0  0  0  0  0  0  0  0  0
   23.4720    8.8092    0.0000 C   0  0  0  0  0  0  0  0  0  0  0  0
   22.9032   10.1971    0.0000 C   0  0  0  0  0  0  0  0  0  0  0  0
   22.2523   11.5486    0.0000 C   0  0  0  0  0  0  0  0  0  0  0  0
   21.5219   12.8587    0.0000 C   0  0  0  0  0  0  0  0  0  0  0  0
   20.7143   14.1228    0.0000 C   0  0  0  0  0  0  0  0  0  0  0  0
   19.8327   15.3363    0.0000 C   0  0  0  0  0  0  0  0  0  0  0  0
   18.8800   16.4949    0.0000 C   0  0  0  0  0  0  0  0  0  0  0  0
   17.8597   17.5945    0.0000 C   0  0  0  0  0  0  0  0  0  0  0  0
   16.7755   18.6311    0.0000 C   0  0  0  0  0  0  0  0  0  0  0  0
   15.6313   19.6010    0.0000 C   0  0  0  0  0  0  0  0  0  0  0  0
   14.4311   20.5008    0.0000 C   0  0  0  0  0  0  0  0  0  0  0  0
   13.1792   21.3271    0.0000 C   0  0  0  0  0  0  0  0  0  0  0  0
   11.8802   22.0771    0.0000 C   0  0  0  0  0  0  0  0  0  0  0  0
   10.5386   22.7481    0.0000 C   0  0  0  0  0  0  0  0  0  0  0  0
    9.1593   23.3376    0.0000 C   0  0  0  0  0  0  0  0  0  0  0  0
    7.7473   23.8436    0.0000 C   0  0  0  0  0  0  0  0  0  0  0  0
    6.3074   24.2642    0.0000 C   0  0  0  0  0  0  0  0  0  0  0  0
    4.8451   24.5980    0.0000 C   0  0  0  0  0  0  0  0  0  0  0  0
    3.3653   24.8437    0.0000 C   0  0  0  0  0  0  0  0  0  0  0  0
    1.8735   25.0005    0.0000 C   0  0  0  0  0  0  0  0  0  0  0  0
    0.3750   25.0678    0.0000 C   0  0  0  0  0  0  0  0  0  0  0  0
   -1.1248   25.0454    0.0000 C   0  0  0  0  0  0  0  0  0  0  0  0
   -2.6206   24.9333    0.0000 C   0  0  0  0  0  0  0  0  0  0  0  0
   -4.1070   24.7320    0.0000 C   0  0  0  0  0  0  0  0  0  0  0  0
   -5.5787   24.4421    0.0000 C   0  0  0  0  0  0  0  0  0  0  0  0
   -7.0305   24.0647    0.0000 C   0  0  0  0  0  0  0  0  0  0  0  0
   -8.4571   23.6012    0.0000 C   0  0  0  0  0  0  0  0  0  0  0  0
   -9.8534   23.0532    0.0000 C   0  0  0  0  0  0  0  0  0  0  0  0
  -11.2144   22.4226    0.0000 C   0  0  0  0  0  0  0  0  0  0  0  0
  -12.5353   21.7118    0.0000 C   0  0  0  0  0  0  0  0  0  0  0  0
  -13.8113   20.9233    0.0000 C   0  0  0  0  0  0  0  0  0  0  0  0
  -15.0379   20.0599    0.0000 C   0  0  0  0  0  0  0  0  0  0  0  0
  -16.2107   19.1246    0.0000 C   0  0  0  0  0  0  0  0  0  0  0  0
  -17.3254   18.1209    0.0000 C   0  0  0  0  0  0  0  0  0  0  0  0
  -18.3781   17.0524    0.0000 C   0  0  0  0  0  0  0  0  0  0  0  0
  -19.3650   15.9228    0.0000 C   0  0  0  0  0  0  0  0  0  0  0  0
  -20.2826   14.7362    0.0000 C   0  0  0  0  0  0  0  0  0  0  0  0
  -21.1276   13.4968    0.0000 C   0  0  0  0  0  0  0  0  0  0  0  0
  -21.8969   12.2091    0.0000 C   0  0  0  0  0  0  0  0  0  0  0  0
  -22.5879   10.8777    0.0000 C   0  0  0  0  0  0  0  0  0  0  0  0
  -23.1980    9.5074    0.0000 C   0  0  0  0  0  0  0  0  0  0  0  0
  -23.7250    8.1031    0.0000 C   0  0  0  0  0  0  0  0  0  0  0  0
  -24.1672    6.6697    0.0000 C   0  0  0  0  0  0  0  0  0  0  0  0
  -24.5228    5.2125    0.0000 C   0  0  0  0  0  0  0  0  0  0  0  0
  -24.7906    3.7366    0.0000 C   0  0  0  0  0  0  0  0  0  0  0  0
  -24.9697    2.2473    0.0000 C   0  0  0  0  0  0  0  0  0  0  0  0
  -25.0594    0.7500    0.0000 C   0  0  0  0  0  0  0  0  0  0  0  0
  -25.0594   -0.7500    0.0000 C   0  0  0  0  0  0  0  0  0  0  0  0
  -24.9697   -2.2473    0.0000 C   0  0  0  0  0  0  0  0  0  0  0  0
  -24.7906   -3.7366    0.0000 C   0  0  0  0  0  0  0  0  0  0  0  0
  -24.5228   -5.2125    0.0000 C   0  0  0  0  0  0  0  0  0  0  0  0
  -24.1672   -6.6697    0.0000 C   0  0  0  0  0  0  0  0  0  0  0  0
  -23.7250   -8.1031    0.0000 C   0  0  0  0  0  0  0  0  0  0  0  0
  -23.1980   -9.5074    0.0000 C   0  0  0  0  0  0  0  0  0  0  0  0
  -22.5879  -10.8777    0.0000 C   0  0  0  0  0  0  0  0  0  0  0  0
  -21.8969  -12.2091    0.0000 C   0  0  0  0  0  0  0  0  0  0  0  0
  -21.1276  -13.4968    0.0000 C   0  0  0  0  0  0  0  0  0  0  0  0
  -20.2826  -14.7362    0.0000 C   0  0  0  0  0  0  0  0  0  0  0  0
  -19.3650  -15.9228    0.0000 C   0  0  0  0  0  0  0  0  0  0  0  0
  -18.3781  -17.0524    0.0000 C   0  0  0  0  0  0  0  0  0  0  0  0
  -17.3254  -18.1209    0.0000 C   0  0  0  0  0  0  0  0  0  0  0  0
  -16.2107  -19.1246    0.0000 C   0  0  0  0  0  0  0  0  0  0  0  0
  -15.0379  -20.0599    0.0000 C   0  0  0  0  0  0  0  0  0  0  0  0
  -13.8113  -20.9233    0.0000 C   0  0  0  0  0  0  0  0  0  0  0  0
  -12.5353  -21.7118    0.0000 C   0  0  0  0  0  0  0  0  0  0  0  0
  -11.2144  -22.4226    0.0000 C   0  0  0  0  0  0  0  0  0  0  0  0
   -9.8534  -23.0532    0.0000 C   0  0  0  0  0  0  0  0  0  0  0  0
   -8.4571  -23.6012    0.0000 C   0  0  0  0  0  0  0  0  0  0  0  0
   -7.0305  -24.0647    0.0000 C   0  0  0  0  0  0  0  0  0  0  0  0
   -5.5787  -24.4421    0.0000 C   0  0  0  0  0  0  0  0  0  0  0  0
   -4.1070  -24.7320    0.0000 C   0  0  0  0  0  0  0  0  0  0  0  0
   -2.6206  -24.9333    0.0000 C   0  0  0  0  0  0  0  0  0  0  0  0
   -1.1248  -25.0454    0.0000 C   0  0  0  0  0  0  0  0  0  0  0  0
    0.3750  -25.0678    0.0000 C   0  0  0  0  0  0  0  0  0  0  0  0
    1.8735  -25.0005    0.0000 C   0  0  0  0  0  0  0  0  0  0  0  0
    3.3653  -24.8437    0.0000 C   0  0  0  0  0  0  0  0  0  0  0  0
    4.8451  -24.5980    0.0000 C   0  0  0  0  0  0  0  0  0  0  0  0
    6.3074  -24.2642    0.0000 C   0  0  0  0  0  0  0  0  0  0  0  0
    7.7473  -23.8436    0.0000 C   0  0  0  0  0  0  0  0  0  0  0  0
    9.1593  -23.3376    0.0000 C   0  0  0  0  0  0  0  0  0  0  0  0
   10.5386  -22.7481    0.0000 C   0  0  0  0  0  0  0  0  0  0  0  0
   11.8802  -22.0771    0.0000 C   0  0  0  0  0  0  0  0  0  0  0  0
   13.1792  -21.3271    0.0000 C   0  0  0  0  0  0  0  0  0  0  0  0
   14.4311  -20.5008    0.0000 C   0  0  0  0  0  0  0  0  0  0  0  0
   15.6313  -19.6010    0.0000 C   0  0  0  0  0  0  0  0  0  0  0  0
   16.7755  -18.6311    0.0000 C   0  0  0  0  0  0  0  0  0  0  0  0
   17.8597  -17.5945    0.0000 C   0  0  0  0  0  0  0  0  0  0  0  0
   18.8800  -16.4949    0.0000 C   0  0  0  0  0  0  0  0  0  0  0  0
   19.8327  -15.3363    0.0000 C   0  0  0  0  0  0  0  0  0  0  0  0
   20.7143  -14.1228    0.0000 C   0  0  0  0  0  0  0  0  0  0  0  0
   21.5219  -12.8587    0.0000 C   0  0  0  0  0  0  0  0  0  0  0  0
   22.2523  -11.5486    0.0000 C   0  0  0  0  0  0  0  0  0  0  0  0
   22.9032  -10.1971    0.0000 C   0  0  0  0  0  0  0  0  0  0  0  0
   23.4720   -8.8092    0.0000 C   0  0  0  0  0  0  0  0  0  0  0  0
   23.9568   -7.3897    0.0000 C   0  0  0  0  0  0  0  0  0  0  0  0
   24.3559   -5.9438    0.0000 C   0  0  0  0  0  0  0  0  0  0  0  0
   24.6677   -4.4765    0.0000 C   0  0  0  0  0  0  0  0  0  0  0  0
   24.8913   -2.9933    0.0000 C   0  0  0  0  0  0  0  0  0  0  0  0
   25.0258   -1.4993    0.0000 C   0  0  0  0  0  0  0  0  0  0  0  0
  1  2  1  0
  2  3  2  0
  3  4  1  0
  4  5  1  0
  5  6  1  0
  6  7  1  0
  7  8  1  0
  8  9  1  0
  9 10  1  0
 10 11  1  0
 11 12  1  0
 12 13  1  0
 13 14  1  0
 14 15  1  0
 15 16  1  0
 16 17  1  0
 17 18  1  0
 18 19  1  0
 19 20  1  0
 20 21  1  0
 21 22  1  0
 22 23  1  0
 23 24  1  0
 24 25  1  0
 25 26  1  0
 26 27  1  0
 27 28  1  0
 28 29  1  0
 29 30  1  0
 30 31  1  0
 31 32  1  0
 32 33  1  0
 33 34  1  0
 34 35  1  0
 35 36  1  0
 36 37  1  0
 37 38  1  0
 38 39  1  0
 39 40  1  0
 40 41  1  0
 41 42  1  0
 42 43  1  0
 43 44  1  0
 44 45  1  0
 45 46  1  0
 46 47  1  0
 47 48  1  0
 48 49  1  0
 49 50  1  0
 50 51  1  0
 51 52  1  0
 52 53  1  0
 53 54  1  0
 54 55  1  0
 55 56  1  0
 56 57  1  0
 57 58  1  0
 58 59  1  0
 59 60  1  0
 60 61  1  0
 61 62  1  0
 62 63  1  0
 63 64  1  0
 64 65  1  0
 65 66  1  0
 66 67  1  0
 67 68  1  0
 68 69  1  0
 69 70  1  0
 70 71  1  0
 71 72  1  0
 72 73  1  0
 73 74  1  0
 74 75  1  0
 75 76  1  0
 76 77  1  0
 77 78  1  0
 78 79  1  0
 79 80  1  0
 80 81  1  0
 81 82  1  0
 82 83  1  0
 83 84  1  0
 84 85  1  0
 85 86  1  0
 86 87  1  0
 87 88  1  0
 88 89  1  0
 89 90  1  0
 90 91  1  0
 91 92  1  0
 92 93  1  0
 93 94  1  0
 94 95  1  0
 95 96  1  0
 96 97  1  0
 97 98  1  0
 98 99  1  0
 99100  1  0
100101  1  0
101102  1  0
102103  1  0
103104  1  0
104105  1  0
105106  1  0
106  2  1  0
M  END
>  <Title>  (569) 
idAATYgen9

$$$$

     RDKit          2D

  9  8  0  0  0  0  0  0  0  0999 V2000
    0.0000    0.0000    0.0000 C   0  0  0  0  0  0  0  0  0  0  0  0
    1.2990    0.7500    0.0000 C   0  0  0  0  0  0  0  0  0  0  0  0
    2.5981   -0.0000    0.0000 C   0  0  0  0  0  0  0  0  0  0  0  0
    2.5981   -1.5000    0.0000 O   0  0  0  0  0  0  0  0  0  0  0  0
    3.8971    0.7500    0.0000 C   0  0  0  0  0  0  0  0  0  0  0  0
    5.1962   -0.0000    0.0000 C   0  0  0  0  0  0  0  0  0  0  0  0
    6.4952   -0.7500    0.0000 C   0  0  0  0  0  0  0  0  0  0  0  0
    4.4462   -1.2990    0.0000 F   0  0  0  0  0  0  0  0  0  0  0  0
    5.9462    1.2990    0.0000 F   0  0  0  0  0  0  0  0  0  0  0  0
  1  2  1  0
  2  3  1  0
  3  4  2  0
  3  5  1  0
  5  6  1  0
  6  7  1  0
  6  8  1  0
  6  9  1  0
M  END
>  <Title>  (570) 
idAATZgen9

$$$$

     RDKit          2D

 94 95  0  0  0  0  0  0  0  0999 V2000
   -2.4048    0.0868    0.0000 C   0  0  0  0  0  0  0  0  0  0  0  0
   -2.2463   -1.4048    0.0000 C   0  0  0  0  0  0  0  0  0  0  0  0
   -3.7313   -1.6159    0.0000 C   0  0  0  0  0  0  0  0  0  0  0  0
   -5.1978   -1.9313    0.0000 C   0  0  0  0  0  0  0  0  0  0  0  0
   -6.6384   -2.3492    0.0000 C   0  0  0  0  0  0  0  0  0  0  0  0
   -8.0459   -2.8678    0.0000 C   0  0  0  0  0  0  0  0  0  0  0  0
   -9.4134   -3.4843    0.0000 C   0  0  0  0  0  0  0  0  0  0  0  0
  -10.7339   -4.1958    0.0000 C   0  0  0  0  0  0  0  0  0  0  0  0
  -12.0009   -4.9987    0.0000 C   0  0  0  0  0  0  0  0  0  0  0  0
  -13.2082   -5.8889    0.0000 C   0  0  0  0  0  0  0  0  0  0  0  0
  -14.3497   -6.8620    0.0000 C   0  0  0  0  0  0  0  0  0  0  0  0
  -15.4197   -7.9133    0.0000 C   0  0  0  0  0  0  0  0  0  0  0  0
  -16.4128   -9.0374    0.0000 C   0  0  0  0  0  0  0  0  0  0  0  0
  -17.3242  -10.2288    0.0000 C   0  0  0  0  0  0  0  0  0  0  0  0
  -18.1493  -11.4815    0.0000 C   0  0  0  0  0  0  0  0  0  0  0  0
  -18.8840  -12.7893    0.0000 C   0  0  0  0  0  0  0  0  0  0  0  0
  -19.5245  -14.1456    0.0000 C   0  0  0  0  0  0  0  0  0  0  0  0
  -20.0679  -15.5437    0.0000 C   0  0  0  0  0  0  0  0  0  0  0  0
  -20.5112  -16.9767    0.0000 C   0  0  0  0  0  0  0  0  0  0  0  0
  -20.8524  -18.4374    0.0000 C   0  0  0  0  0  0  0  0  0  0  0  0
  -21.0896  -19.9185    0.0000 C   0  0  0  0  0  0  0  0  0  0  0  0
  -21.2218  -21.4127    0.0000 C   0  0  0  0  0  0  0  0  0  0  0  0
  -21.2483  -22.9125    0.0000 C   0  0  0  0  0  0  0  0  0  0  0  0
  -21.1689  -24.4104    0.0000 C   0  0  0  0  0  0  0  0  0  0  0  0
  -20.9841  -25.8989    0.0000 C   0  0  0  0  0  0  0  0  0  0  0  0
  -20.6947  -27.3707    0.0000 C   0  0  0  0  0  0  0  0  0  0  0  0
  -20.3022  -28.8185    0.0000 C   0  0  0  0  0  0  0  0  0  0  0  0
  -19.8085  -30.2349    0.0000 C   0  0  0  0  0  0  0  0  0  0  0  0
  -19.2162  -31.6130    0.0000 C   0  0  0  0  0  0  0  0  0  0  0  0
  -18.5282  -32.9459    0.0000 C   0  0  0  0  0  0  0  0  0  0  0  0
  -17.7478  -34.2269    0.0000 C   0  0  0  0  0  0  0  0  0  0  0  0
  -16.8790  -35.4497    0.0000 C   0  0  0  0  0  0  0  0  0  0  0  0
  -15.9262  -36.6082    0.0000 C   0  0  0  0  0  0  0  0  0  0  0  0
  -14.8940  -37.6966    0.0000 C   0  0  0  0  0  0  0  0  0  0  0  0
  -13.7875  -38.7094    0.0000 C   0  0  0  0  0  0  0  0  0  0  0  0
  -12.6124  -39.6417    0.0000 C   0  0  0  0  0  0  0  0  0  0  0  0
  -11.3745  -40.4887    0.0000 C   0  0  0  0  0  0  0  0  0  0  0  0
  -10.0799  -41.2464    0.0000 C   0  0  0  0  0  0  0  0  0  0  0  0
   -8.7351  -41.9108    0.0000 C   0  0  0  0  0  0  0  0  0  0  0  0
   -7.3467  -42.4787    0.0000 C   0  0  0  0  0  0  0  0  0  0  0  0
   -5.9218  -42.9473    0.0000 C   0  0  0  0  0  0  0  0  0  0  0  0
   -4.4674  -43.3141    0.0000 C   0  0  0  0  0  0  0  0  0  0  0  0
   -2.9907  -43.5775    0.0000 C   0  0  0  0  0  0  0  0  0  0  0  0
   -1.4991  -43.7361    0.0000 C   0  0  0  0  0  0  0  0  0  0  0  0
   -0.0000  -43.7890    0.0000 C   0  0  0  0  0  0  0  0  0  0  0  0
    1.4991  -43.7361    0.0000 C   0  0  0  0  0  0  0  0  0  0  0  0
    2.9907  -43.5775    0.0000 C   0  0  0  0  0  0  0  0  0  0  0  0
    4.4674  -43.3141    0.0000 C   0  0  0  0  0  0  0  0  0  0  0  0
    5.9218  -42.9473    0.0000 C   0  0  0  0  0  0  0  0  0  0  0  0
    7.3467  -42.4787    0.0000 C   0  0  0  0  0  0  0  0  0  0  0  0
    8.7351  -41.9108    0.0000 C   0  0  0  0  0  0  0  0  0  0  0  0
   10.0799  -41.2464    0.0000 C   0  0  0  0  0  0  0  0  0  0  0  0
   11.3745  -40.4887    0.0000 C   0  0  0  0  0  0  0  0  0  0  0  0
   12.6124  -39.6417    0.0000 C   0  0  0  0  0  0  0  0  0  0  0  0
   13.7875  -38.7094    0.0000 C   0  0  0  0  0  0  0  0  0  0  0  0
   14.8940  -37.6966    0.0000 C   0  0  0  0  0  0  0  0  0  0  0  0
   15.9262  -36.6082    0.0000 C   0  0  0  0  0  0  0  0  0  0  0  0
   16.8790  -35.4497    0.0000 C   0  0  0  0  0  0  0  0  0  0  0  0
   17.7478  -34.2269    0.0000 C   0  0  0  0  0  0  0  0  0  0  0  0
   18.5282  -32.9459    0.0000 C   0  0  0  0  0  0  0  0  0  0  0  0
   19.2162  -31.6130    0.0000 C   0  0  0  0  0  0  0  0  0  0  0  0
   19.8085  -30.2349    0.0000 C   0  0  0  0  0  0  0  0  0  0  0  0
   20.3022  -28.8185    0.0000 C   0  0  0  0  0  0  0  0  0  0  0  0
   20.6947  -27.3707    0.0000 C   0  0  0  0  0  0  0  0  0  0  0  0
   20.9841  -25.8989    0.0000 C   0  0  0  0  0  0  0  0  0  0  0  0
   21.1689  -24.4104    0.0000 C   0  0  0  0  0  0  0  0  0  0  0  0
   21.2483  -22.9125    0.0000 C   0  0  0  0  0  0  0  0  0  0  0  0
   21.2218  -21.4127    0.0000 C   0  0  0  0  0  0  0  0  0  0  0  0
   21.0896  -19.9185    0.0000 C   0  0  0  0  0  0  0  0  0  0  0  0
   20.8524  -18.4374    0.0000 C   0  0  0  0  0  0  0  0  0  0  0  0
   20.5112  -16.9767    0.0000 C   0  0  0  0  0  0  0  0  0  0  0  0
   20.0679  -15.5437    0.0000 C   0  0  0  0  0  0  0  0  0  0  0  0
   19.5245  -14.1456    0.0000 C   0  0  0  0  0  0  0  0  0  0  0  0
   18.8840  -12.7893    0.0000 C   0  0  0  0  0  0  0  0  0  0  0  0
   18.1493  -11.4815    0.0000 C   0  0  0  0  0  0  0  0  0  0  0  0
   17.3242  -10.2288    0.0000 C   0  0  0  0  0  0  0  0  0  0  0  0
   16.4128   -9.0374    0.0000 C   0  0  0  0  0  0  0  0  0  0  0  0
   15.4197   -7.9133    0.0000 C   0  0  0  0  0  0  0  0  0  0  0  0
   14.3497   -6.8620    0.0000 C   0  0  0  0  0  0  0  0  0  0  0  0
   13.2082   -5.8889    0.0000 C   0  0  0  0  0  0  0  0  0  0  0  0
   12.0009   -4.9987    0.0000 C   0  0  0  0  0  0  0  0  0  0  0  0
   10.7339   -4.1958    0.0000 C   0  0  0  0  0  0  0  0  0  0  0  0
    9.4134   -3.4843    0.0000 C   0  0  0  0  0  0  0  0  0  0  0  0
    8.0459   -2.8678    0.0000 C   0  0  0  0  0  0  0  0  0  0  0  0
    6.6384   -2.3492    0.0000 C   0  0  0  0  0  0  0  0  0  0  0  0
    5.1978   -1.9313    0.0000 C   0  0  0  0  0  0  0  0  0  0  0  0
    3.7313   -1.6159    0.0000 C   0  0  0  0  0  0  0  0  0  0  0  0
    2.2463   -1.4048    0.0000 C   0  0  0  0  0  0  0  0  0  0  0  0
    0.7500   -1.2990    0.0000 C   0  0  0  0  0  0  0  0  0  0  0  0
    1.5000    0.0000    0.0000 C   0  0  0  0  0  0  0  0  0  0  0  0
    0.7500    1.2990    0.0000 C   0  0  0  0  0  0  0  0  0  0  0  0
   -0.7500    1.2990    0.0000 C   0  0  0  0  0  0  0  0  0  0  0  0
   -1.5000    0.0000    0.0000 C   0  0  0  0  0  0  0  0  0  0  0  0
   -0.7500   -1.2990    0.0000 C   0  0  0  0  0  0  0  0  0  0  0  0
  1  2  1  0
  2  3  1  0
  3  4  1  0
  4  5  1  0
  5  6  1  0
  6  7  1  0
  7  8  1  0
  8  9  1  0
  9 10  1  0
 10 11  1  0
 11 12  1  0
 12 13  1  0
 13 14  1  0
 14 15  1  0
 15 16  1  0
 16 17  1  0
 17 18  1  0
 18 19  1  0
 19 20  1  0
 20 21  1  0
 21 22  1  0
 22 23  1  0
 23 24  1  0
 24 25  1  0
 25 26  1  0
 26 27  1  0
 27 28  1  0
 28 29  1  0
 29 30  1  0
 30 31  1  0
 31 32  1  0
 32 33  1  0
 33 34  1  0
 34 35  1  0
 35 36  1  0
 36 37  1  0
 37 38  1  0
 38 39  1  0
 39 40  1  0
 40 41  1  0
 41 42  1  0
 42 43  1  0
 43 44  1  0
 44 45  1  0
 45 46  1  0
 46 47  1  0
 47 48  1  0
 48 49  1  0
 49 50  1  0
 50 51  1  0
 51 52  1  0
 52 53  1  0
 53 54  1  0
 54 55  1  0
 55 56  1  0
 56 57  1  0
 57 58  1  0
 58 59  1  0
 59 60  1  0
 60 61  1  0
 61 62  1  0
 62 63  1  0
 63 64  1  0
 64 65  1  0
 65 66  1  0
 66 67  1  0
 67 68  1  0
 68 69  1  0
 69 70  1  0
 70 71  1  0
 71 72  1  0
 72 73  1  0
 73 74  1  0
 74 75  1  0
 75 76  1  0
 76 77  1  0
 77 78  1  0
 78 79  1  0
 79 80  1  0
 80 81  1  0
 81 82  1  0
 82 83  1  0
 83 84  1  0
 84 85  1  0
 85 86  1  0
 86 87  1  0
 87 88  1  0
 88 89  1  0
 89 90  2  0
 90 91  1  0
 91 92  2  0
 92 93  1  0
 93 94  2  0
 94  2  1  0
 94 89  1  0
M  END
>  <Title>  (571) 
idAAUAgen9

$$$$

     RDKit          2D

 89 90  0  0  0  0  0  0  0  0999 V2000
   -2.4138    0.0794    0.0000 C   0  0  0  0  0  0  0  0  0  0  0  0
   -2.2458   -1.4111    0.0000 C   0  0  0  0  0  0  0  0  0  0  0  0
   -3.7291   -1.6347    0.0000 C   0  0  0  0  0  0  0  0  0  0  0  0
   -5.1914   -1.9685    0.0000 C   0  0  0  0  0  0  0  0  0  0  0  0
   -6.6248   -2.4106    0.0000 C   0  0  0  0  0  0  0  0  0  0  0  0
   -8.0211   -2.9586    0.0000 C   0  0  0  0  0  0  0  0  0  0  0  0
   -9.3726   -3.6094    0.0000 C   0  0  0  0  0  0  0  0  0  0  0  0
  -10.6716   -4.3594    0.0000 C   0  0  0  0  0  0  0  0  0  0  0  0
  -11.9110   -5.2044    0.0000 C   0  0  0  0  0  0  0  0  0  0  0  0
  -13.0837   -6.1397    0.0000 C   0  0  0  0  0  0  0  0  0  0  0  0
  -14.1833   -7.1599    0.0000 C   0  0  0  0  0  0  0  0  0  0  0  0
  -15.2035   -8.2595    0.0000 C   0  0  0  0  0  0  0  0  0  0  0  0
  -16.1388   -9.4322    0.0000 C   0  0  0  0  0  0  0  0  0  0  0  0
  -16.9838  -10.6716    0.0000 C   0  0  0  0  0  0  0  0  0  0  0  0
  -17.7338  -11.9706    0.0000 C   0  0  0  0  0  0  0  0  0  0  0  0
  -18.3846  -13.3221    0.0000 C   0  0  0  0  0  0  0  0  0  0  0  0
  -18.9326  -14.7184    0.0000 C   0  0  0  0  0  0  0  0  0  0  0  0
  -19.3747  -16.1518    0.0000 C   0  0  0  0  0  0  0  0  0  0  0  0
  -19.7085  -17.6142    0.0000 C   0  0  0  0  0  0  0  0  0  0  0  0
  -19.9321  -19.0974    0.0000 C   0  0  0  0  0  0  0  0  0  0  0  0
  -20.0442  -20.5932    0.0000 C   0  0  0  0  0  0  0  0  0  0  0  0
  -20.0442  -22.0932    0.0000 C   0  0  0  0  0  0  0  0  0  0  0  0
  -19.9321  -23.5890    0.0000 C   0  0  0  0  0  0  0  0  0  0  0  0
  -19.7085  -25.0723    0.0000 C   0  0  0  0  0  0  0  0  0  0  0  0
  -19.3747  -26.5347    0.0000 C   0  0  0  0  0  0  0  0  0  0  0  0
  -18.9326  -27.9680    0.0000 C   0  0  0  0  0  0  0  0  0  0  0  0
  -18.3846  -29.3643    0.0000 C   0  0  0  0  0  0  0  0  0  0  0  0
  -17.7338  -30.7158    0.0000 C   0  0  0  0  0  0  0  0  0  0  0  0
  -16.9838  -32.0148    0.0000 C   0  0  0  0  0  0  0  0  0  0  0  0
  -16.1388  -33.2542    0.0000 C   0  0  0  0  0  0  0  0  0  0  0  0
  -15.2035  -34.4269    0.0000 C   0  0  0  0  0  0  0  0  0  0  0  0
  -14.1833  -35.5265    0.0000 C   0  0  0  0  0  0  0  0  0  0  0  0
  -13.0837  -36.5468    0.0000 C   0  0  0  0  0  0  0  0  0  0  0  0
  -11.9110  -37.4820    0.0000 C   0  0  0  0  0  0  0  0  0  0  0  0
  -10.6716  -38.3270    0.0000 C   0  0  0  0  0  0  0  0  0  0  0  0
   -9.3726  -39.0770    0.0000 C   0  0  0  0  0  0  0  0  0  0  0  0
   -8.0211  -39.7278    0.0000 C   0  0  0  0  0  0  0  0  0  0  0  0
   -6.6248  -40.2758    0.0000 C   0  0  0  0  0  0  0  0  0  0  0  0
   -5.1914  -40.7179    0.0000 C   0  0  0  0  0  0  0  0  0  0  0  0
   -3.7291  -41.0517    0.0000 C   0  0  0  0  0  0  0  0  0  0  0  0
   -2.2458  -41.2753    0.0000 C   0  0  0  0  0  0  0  0  0  0  0  0
   -0.7500  -41.3874    0.0000 C   0  0  0  0  0  0  0  0  0  0  0  0
    0.7500  -41.3874    0.0000 C   0  0  0  0  0  0  0  0  0  0  0  0
    2.2458  -41.2753    0.0000 C   0  0  0  0  0  0  0  0  0  0  0  0
    3.7291  -41.0517    0.0000 C   0  0  0  0  0  0  0  0  0  0  0  0
    5.1914  -40.7179    0.0000 C   0  0  0  0  0  0  0  0  0  0  0  0
    6.6248  -40.2758    0.0000 C   0  0  0  0  0  0  0  0  0  0  0  0
    8.0211  -39.7278    0.0000 C   0  0  0  0  0  0  0  0  0  0  0  0
    9.3726  -39.0770    0.0000 C   0  0  0  0  0  0  0  0  0  0  0  0
   10.6716  -38.3270    0.0000 C   0  0  0  0  0  0  0  0  0  0  0  0
   11.9110  -37.4820    0.0000 C   0  0  0  0  0  0  0  0  0  0  0  0
   13.0837  -36.5468    0.0000 C   0  0  0  0  0  0  0  0  0  0  0  0
   14.1833  -35.5265    0.0000 C   0  0  0  0  0  0  0  0  0  0  0  0
   15.2035  -34.4269    0.0000 C   0  0  0  0  0  0  0  0  0  0  0  0
   16.1388  -33.2542    0.0000 C   0  0  0  0  0  0  0  0  0  0  0  0
   16.9838  -32.0148    0.0000 C   0  0  0  0  0  0  0  0  0  0  0  0
   17.7338  -30.7158    0.0000 C   0  0  0  0  0  0  0  0  0  0  0  0
   18.3846  -29.3643    0.0000 C   0  0  0  0  0  0  0  0  0  0  0  0
   18.9326  -27.9680    0.0000 C   0  0  0  0  0  0  0  0  0  0  0  0
   19.3747  -26.5347    0.0000 C   0  0  0  0  0  0  0  0  0  0  0  0
   19.7085  -25.0723    0.0000 C   0  0  0  0  0  0  0  0  0  0  0  0
   19.9321  -23.5890    0.0000 C   0  0  0  0  0  0  0  0  0  0  0  0
   20.0442  -22.0932    0.0000 C   0  0  0  0  0  0  0  0  0  0  0  0
   20.0442  -20.5932    0.0000 C   0  0  0  0  0  0  0  0  0  0  0  0
   19.9321  -19.0974    0.0000 C   0  0  0  0  0  0  0  0  0  0  0  0
   19.7085  -17.6142    0.0000 C   0  0  0  0  0  0  0  0  0  0  0  0
   19.3747  -16.1518    0.0000 C   0  0  0  0  0  0  0  0  0  0  0  0
   18.9326  -14.7184    0.0000 C   0  0  0  0  0  0  0  0  0  0  0  0
   18.3846  -13.3221    0.0000 C   0  0  0  0  0  0  0  0  0  0  0  0
   17.7338  -11.9706    0.0000 C   0  0  0  0  0  0  0  0  0  0  0  0
   16.9838  -10.6716    0.0000 C   0  0  0  0  0  0  0  0  0  0  0  0
   16.1388   -9.4322    0.0000 C   0  0  0  0  0  0  0  0  0  0  0  0
   15.2035   -8.2595    0.0000 C   0  0  0  0  0  0  0  0  0  0  0  0
   14.1833   -7.1599    0.0000 C   0  0  0  0  0  0  0  0  0  0  0  0
   13.0837   -6.1397    0.0000 C   0  0  0  0  0  0  0  0  0  0  0  0
   11.9110   -5.2044    0.0000 C   0  0  0  0  0  0  0  0  0  0  0  0
   10.6716   -4.3594    0.0000 C   0  0  0  0  0  0  0  0  0  0  0  0
    9.3726   -3.6094    0.0000 C   0  0  0  0  0  0  0  0  0  0  0  0
    8.0211   -2.9586    0.0000 C   0  0  0  0  0  0  0  0  0  0  0  0
    6.6248   -2.4106    0.0000 C   0  0  0  0  0  0  0  0  0  0  0  0
    5.1914   -1.9685    0.0000 C   0  0  0  0  0  0  0  0  0  0  0  0
    3.7291   -1.6347    0.0000 C   0  0  0  0  0  0  0  0  0  0  0  0
    2.2458   -1.4111    0.0000 C   0  0  0  0  0  0  0  0  0  0  0  0
    0.7500   -1.2990    0.0000 C   0  0  0  0  0  0  0  0  0  0  0  0
    1.5000    0.0000    0.0000 C   0  0  0  0  0  0  0  0  0  0  0  0
    0.7500    1.2990    0.0000 C   0  0  0  0  0  0  0  0  0  0  0  0
   -0.7500    1.2990    0.0000 C   0  0  0  0  0  0  0  0  0  0  0  0
   -1.5000    0.0000    0.0000 C   0  0  0  0  0  0  0  0  0  0  0  0
   -0.7500   -1.2990    0.0000 C   0  0  0  0  0  0  0  0  0  0  0  0
  1  2  1  0
  2  3  1  0
  3  4  1  0
  4  5  1  0
  5  6  1  0
  6  7  1  0
  7  8  1  0
  8  9  1  0
  9 10  1  0
 10 11  1  0
 11 12  1  0
 12 13  1  0
 13 14  1  0
 14 15  1  0
 15 16  1  0
 16 17  1  0
 17 18  1  0
 18 19  1  0
 19 20  1  0
 20 21  1  0
 21 22  1  0
 22 23  1  0
 23 24  1  0
 24 25  1  0
 25 26  1  0
 26 27  1  0
 27 28  1  0
 28 29  1  0
 29 30  1  0
 30 31  1  0
 31 32  1  0
 32 33  1  0
 33 34  1  0
 34 35  1  0
 35 36  1  0
 36 37  1  0
 37 38  1  0
 38 39  1  0
 39 40  1  0
 40 41  1  0
 41 42  1  0
 42 43  1  0
 43 44  1  0
 44 45  1  0
 45 46  1  0
 46 47  1  0
 47 48  1  0
 48 49  1  0
 49 50  1  0
 50 51  1  0
 51 52  1  0
 52 53  1  0
 53 54  1  0
 54 55  1  0
 55 56  1  0
 56 57  1  0
 57 58  1  0
 58 59  1  0
 59 60  2  0
 60 61  1  0
 61 62  2  0
 62 63  1  0
 63 64  2  0
 64 65  1  0
 65 66  2  0
 66 67  1  0
 67 68  2  0
 68 69  1  0
 69 70  2  0
 70 71  1  0
 71 72  2  0
 72 73  1  0
 73 74  2  0
 74 75  1  0
 75 76  2  0
 76 77  1  0
 77 78  2  0
 78 79  1  0
 79 80  2  0
 80 81  1  0
 81 82  2  0
 82 83  1  0
 83 84  2  0
 84 85  1  0
 85 86  1  0
 86 87  2  0
 87 88  1  0
 88 89  2  0
 89  2  1  0
 89 84  1  0
M  END
>  <Title>  (572) 
idAAUBgen9

$$$$

     RDKit          2D

 13 13  0  0  0  0  0  0  0  0999 V2000
    7.5000    0.0000    0.0000 C   0  0  0  0  0  0  0  0  0  0  0  0
    6.0000    0.0000    0.0000 C   0  0  0  0  0  0  0  0  0  0  0  0
    4.5000    0.0000    0.0000 C   0  0  0  0  0  0  0  0  0  0  0  0
    3.0000    0.0000    0.0000 C   0  0  0  0  0  0  0  0  0  0  0  0
    1.5000    0.0000    0.0000 C   0  0  0  0  0  0  0  0  0  0  0  0
    0.7500   -1.2990    0.0000 C   0  0  0  0  0  0  0  0  0  0  0  0
   -0.7500   -1.2990    0.0000 C   0  0  0  0  0  0  0  0  0  0  0  0
   -1.5000   -2.5981    0.0000 O   0  0  0  0  0  0  0  0  0  0  0  0
   -1.5000    0.0000    0.0000 C   0  0  0  0  0  0  0  0  0  0  0  0
   -0.7500    1.2990    0.0000 C   0  0  0  0  0  0  0  0  0  0  0  0
   -1.5000    2.5981    0.0000 O   0  0  0  0  0  0  0  0  0  0  0  0
    0.7500    1.2990    0.0000 C   0  0  0  0  0  0  0  0  0  0  0  0
    1.5000    2.5981    0.0000 O   0  0  0  0  0  0  0  0  0  0  0  0
  1  2  3  0
  2  3  1  0
  3  4  3  0
  4  5  1  0
  5  6  2  0
  6  7  1  0
  7  8  1  0
  7  9  1  0
  9 10  1  0
 10 11  1  0
 10 12  1  0
 12 13  1  0
 12  5  1  0
M  END
>  <Title>  (573) 
idAAUCgen9

$$$$

     RDKit          2D

  9  9  0  0  0  0  0  0  0  0999 V2000
    3.0000    0.0000    0.0000 C   0  0  0  0  0  0  0  0  0  0  0  0
    1.5000    0.0000    0.0000 C   0  0  0  0  0  0  0  0  0  0  0  0
    0.7500   -1.2990    0.0000 C   0  0  0  0  0  0  0  0  0  0  0  0
   -0.7500   -1.2990    0.0000 C   0  0  0  0  0  0  0  0  0  0  0  0
   -1.5000    0.0000    0.0000 C   0  0  0  0  0  0  0  0  0  0  0  0
   -3.0000    0.0000    0.0000 C   0  0  0  0  0  0  0  0  0  0  0  0
   -4.5000    0.0000    0.0000 N   0  0  0  0  0  0  0  0  0  0  0  0
   -0.7500    1.2990    0.0000 C   0  0  0  0  0  0  0  0  0  0  0  0
    0.7500    1.2990    0.0000 C   0  0  0  0  0  0  0  0  0  0  0  0
  1  2  1  0
  2  3  2  0
  3  4  1  0
  4  5  2  0
  5  6  1  0
  6  7  3  0
  5  8  1  0
  8  9  2  0
  9  2  1  0
M  END
>  <Title>  (574) 
idAAUDgen9

$$$$

     RDKit          2D

 32 36  0  0  0  0  0  0  0  0999 V2000
    1.2135   -7.3421    0.0000 C   0  0  0  0  0  0  0  0  0  0  0  0
    0.7500   -5.9156    0.0000 C   0  0  0  0  0  0  0  0  0  0  0  0
    1.9635   -5.0339    0.0000 C   0  0  0  0  0  0  0  0  0  0  0  0
    2.4271   -3.6073    0.0000 C   0  0  0  0  0  0  0  0  0  0  0  0
    1.9635   -2.1807    0.0000 C   0  0  0  0  0  0  0  0  0  0  0  0
    3.1771   -1.2990    0.0000 C   0  0  0  0  0  0  0  0  0  0  0  0
    3.0203    0.1927    0.0000 O   0  0  0  0  0  0  0  0  0  0  0  0
    4.5474   -1.9091    0.0000 N   0  0  0  0  0  0  0  0  0  0  0  0
    5.7609   -1.0275    0.0000 C   0  0  0  0  0  0  0  0  0  0  0  0
    7.1312   -1.6376    0.0000 N   0  0  0  0  0  0  0  0  0  0  0  0
    8.3447   -0.7559    0.0000 N   0  0  0  0  0  0  0  0  0  0  0  0
    8.1879    0.7359    0.0000 N   0  0  0  0  0  0  0  0  0  0  0  0
    6.8176    1.3460    0.0000 N   0  0  0  0  0  0  0  0  0  0  0  0
    5.6041    0.4643    0.0000 N   0  0  0  0  0  0  0  0  0  0  0  0
    0.7500   -1.2990    0.0000 C   0  0  0  0  0  0  0  0  0  0  0  0
    1.5000    0.0000    0.0000 C   0  0  0  0  0  0  0  0  0  0  0  0
    0.7500    1.2990    0.0000 C   0  0  0  0  0  0  0  0  0  0  0  0
   -0.7500    1.2990    0.0000 C   0  0  0  0  0  0  0  0  0  0  0  0
   -1.5000    0.0000    0.0000 C   0  0  0  0  0  0  0  0  0  0  0  0
   -0.7500   -1.2990    0.0000 C   0  0  0  0  0  0  0  0  0  0  0  0
   -1.9635   -2.1807    0.0000 C   0  0  0  0  0  0  0  0  0  0  0  0
   -2.9672   -1.0660    0.0000 C   0  0  0  0  0  0  0  0  0  0  0  0
   -4.4344   -1.3779    0.0000 C   0  0  0  0  0  0  0  0  0  0  0  0
   -4.8980   -2.8045    0.0000 C   0  0  0  0  0  0  0  0  0  0  0  0
   -3.8943   -3.9192    0.0000 C   0  0  0  0  0  0  0  0  0  0  0  0
   -2.4271   -3.6073    0.0000 C   0  0  0  0  0  0  0  0  0  0  0  0
   -1.9635   -5.0339    0.0000 C   0  0  0  0  0  0  0  0  0  0  0  0
   -3.3338   -5.6440    0.0000 C   0  0  0  0  0  0  0  0  0  0  0  0
   -3.4906   -7.1358    0.0000 C   0  0  0  0  0  0  0  0  0  0  0  0
   -2.2771   -8.0175    0.0000 C   0  0  0  0  0  0  0  0  0  0  0  0
   -0.9068   -7.4073    0.0000 C   0  0  0  0  0  0  0  0  0  0  0  0
   -0.7500   -5.9156    0.0000 C   0  0  0  0  0  0  0  0  0  0  0  0
  1  2  1  0
  2  3  1  0
  3  4  2  0
  4  5  1  0
  5  6  1  0
  6  7  2  0
  6  8  1  0
  8  9  1  0
  9 10  2  0
 10 11  1  0
 11 12  2  0
 12 13  1  0
 13 14  2  0
  5 15  1  0
 15 16  2  0
 16 17  1  0
 17 18  2  0
 18 19  1  0
 19 20  2  0
 20 21  1  0
 21 22  2  0
 22 23  1  0
 23 24  2  0
 24 25  1  0
 25 26  2  0
 26 27  1  0
 27 28  2  0
 28 29  1  0
 29 30  2  0
 30 31  1  0
 31 32  2  0
 32  2  1  0
 14  9  1  0
 20 15  1  0
 26 21  1  0
 32 27  1  0
M  END
>  <Title>  (575) 
idAAUEgen9

$$$$

     RDKit          2D

 15 15  0  0  0  0  0  0  0  0999 V2000
   15.5260   -1.2990    0.0000 C   0  0  0  0  0  0  0  0  0  0  0  0
   14.7760   -0.0000    0.0000 C   0  0  0  0  0  0  0  0  0  0  0  0
   13.2760   -0.0000    0.0000 C   0  0  0  0  0  0  0  0  0  0  0  0
   11.7760   -0.0000    0.0000 C   0  0  0  0  0  0  0  0  0  0  0  0
   10.2760   -0.0000    0.0000 C   0  0  0  0  0  0  0  0  0  0  0  0
    8.7760   -0.0000    0.0000 C   0  0  0  0  0  0  0  0  0  0  0  0
    7.2760   -0.0000    0.0000 C   0  0  0  0  0  0  0  0  0  0  0  0
    5.7760   -0.0000    0.0000 C   0  0  0  0  0  0  0  0  0  0  0  0
    4.2760   -0.0000    0.0000 C   0  0  0  0  0  0  0  0  0  0  0  0
    2.7760    0.0000    0.0000 C   0  0  0  0  0  0  0  0  0  0  0  0
    1.2760    0.0000    0.0000 C   0  0  0  0  0  0  0  0  0  0  0  0
    0.3943    1.2135    0.0000 C   0  0  0  0  0  0  0  0  0  0  0  0
   -1.0323    0.7500    0.0000 C   0  0  0  0  0  0  0  0  0  0  0  0
   -1.0323   -0.7500    0.0000 C   0  0  0  0  0  0  0  0  0  0  0  0
    0.3943   -1.2135    0.0000 C   0  0  0  0  0  0  0  0  0  0  0  0
  1  2  2  0
  2  3  1  0
  3  4  3  0
  4  5  1  0
  5  6  3  0
  6  7  1  0
  7  8  3  0
  8  9  1  0
  9 10  3  0
 10 11  1  0
 11 12  2  0
 12 13  1  0
 13 14  1  0
 14 15  2  0
 15 11  1  0
M  END
>  <Title>  (576) 
idAAUFgen9

$$$$

     RDKit          2D

 19 21  0  0  0  0  0  0  0  0999 V2000
    8.8895    1.8539    0.0000 C   0  0  0  0  0  0  0  0  0  0  0  0
    7.8858    0.7391    0.0000 C   0  0  0  0  0  0  0  0  0  0  0  0
    7.9643   -0.7588    0.0000 C   0  0  0  0  0  0  0  0  0  0  0  0
    6.4664   -0.8373    0.0000 C   0  0  0  0  0  0  0  0  0  0  0  0
    5.4627   -1.9520    0.0000 C   0  0  0  0  0  0  0  0  0  0  0  0
    5.9262   -3.3786    0.0000 O   0  0  0  0  0  0  0  0  0  0  0  0
    3.9955   -1.6402    0.0000 N   0  0  0  0  0  0  0  0  0  0  0  0
    2.9918   -2.7549    0.0000 C   0  0  0  0  0  0  0  0  0  0  0  0
    3.3037   -4.2221    0.0000 N   0  0  0  0  0  0  0  0  0  0  0  0
    2.0046   -4.9721    0.0000 N   0  0  0  0  0  0  0  0  0  0  0  0
    0.8899   -3.9684    0.0000 N   0  0  0  0  0  0  0  0  0  0  0  0
    1.5000   -2.5981    0.0000 N   0  0  0  0  0  0  0  0  0  0  0  0
    0.7500   -1.2990    0.0000 C   0  0  0  0  0  0  0  0  0  0  0  0
    1.5000    0.0000    0.0000 C   0  0  0  0  0  0  0  0  0  0  0  0
    0.7500    1.2990    0.0000 C   0  0  0  0  0  0  0  0  0  0  0  0
   -0.7500    1.2990    0.0000 C   0  0  0  0  0  0  0  0  0  0  0  0
   -1.5000    0.0000    0.0000 C   0  0  0  0  0  0  0  0  0  0  0  0
   -0.7500   -1.2990    0.0000 C   0  0  0  0  0  0  0  0  0  0  0  0
    6.3879    0.6606    0.0000 C   0  0  0  0  0  0  0  0  0  0  0  0
  1  2  1  0
  2  3  2  0
  3  4  1  0
  4  5  1  0
  5  6  2  0
  5  7  1  0
  7  8  1  0
  8  9  2  0
  9 10  1  0
 10 11  2  0
 11 12  1  0
 12 13  1  0
 13 14  2  0
 14 15  1  0
 15 16  2  0
 16 17  1  0
 17 18  2  0
  4 19  1  0
 19  2  1  0
 12  8  1  0
 18 13  1  0
M  END
>  <Title>  (577) 
idAAUGgen9

$$$$

     RDKit          2D

 41 41  0  0  0  0  0  0  0  0999 V2000
   12.8322   -1.2990    0.0000 C   0  0  0  0  0  0  0  0  0  0  0  0
   11.3322   -1.2990    0.0000 C   0  0  0  0  0  0  0  0  0  0  0  0
   10.5822    0.0000    0.0000 C   0  0  0  0  0  0  0  0  0  0  0  0
    9.0822    0.0000    0.0000 C   0  0  0  0  0  0  0  0  0  0  0  0
    8.9583   -1.4949    0.0000 C   0  0  0  0  0  0  0  0  0  0  0  0
    8.5901   -2.9490    0.0000 C   0  0  0  0  0  0  0  0  0  0  0  0
    7.9875   -4.3226    0.0000 C   0  0  0  0  0  0  0  0  0  0  0  0
    7.1671   -5.5784    0.0000 C   0  0  0  0  0  0  0  0  0  0  0  0
    6.1512   -6.6820    0.0000 C   0  0  0  0  0  0  0  0  0  0  0  0
    4.9675   -7.6033    0.0000 C   0  0  0  0  0  0  0  0  0  0  0  0
    3.6483   -8.3172    0.0000 C   0  0  0  0  0  0  0  0  0  0  0  0
    2.2295   -8.8043    0.0000 C   0  0  0  0  0  0  0  0  0  0  0  0
    0.7500   -9.0512    0.0000 C   0  0  0  0  0  0  0  0  0  0  0  0
   -0.7500   -9.0512    0.0000 C   0  0  0  0  0  0  0  0  0  0  0  0
   -2.2295   -8.8043    0.0000 C   0  0  0  0  0  0  0  0  0  0  0  0
   -3.6483   -8.3172    0.0000 C   0  0  0  0  0  0  0  0  0  0  0  0
   -4.9675   -7.6033    0.0000 C   0  0  0  0  0  0  0  0  0  0  0  0
   -6.1512   -6.6820    0.0000 C   0  0  0  0  0  0  0  0  0  0  0  0
   -7.1671   -5.5784    0.0000 C   0  0  0  0  0  0  0  0  0  0  0  0
   -7.9875   -4.3226    0.0000 C   0  0  0  0  0  0  0  0  0  0  0  0
   -8.5901   -2.9490    0.0000 C   0  0  0  0  0  0  0  0  0  0  0  0
   -8.9583   -1.4949    0.0000 C   0  0  0  0  0  0  0  0  0  0  0  0
   -9.0822    0.0000    0.0000 C   0  0  0  0  0  0  0  0  0  0  0  0
   -8.9583    1.4949    0.0000 C   0  0  0  0  0  0  0  0  0  0  0  0
   -8.5901    2.9490    0.0000 C   0  0  0  0  0  0  0  0  0  0  0  0
   -7.9875    4.3226    0.0000 C   0  0  0  0  0  0  0  0  0  0  0  0
   -7.1671    5.5784    0.0000 C   0  0  0  0  0  0  0  0  0  0  0  0
   -6.1512    6.6820    0.0000 C   0  0  0  0  0  0  0  0  0  0  0  0
   -4.9675    7.6033    0.0000 C   0  0  0  0  0  0  0  0  0  0  0  0
   -3.6483    8.3172    0.0000 C   0  0  0  0  0  0  0  0  0  0  0  0
   -2.2295    8.8043    0.0000 C   0  0  0  0  0  0  0  0  0  0  0  0
   -0.7500    9.0512    0.0000 C   0  0  0  0  0  0  0  0  0  0  0  0
    0.7500    9.0512    0.0000 C   0  0  0  0  0  0  0  0  0  0  0  0
    2.2295    8.8043    0.0000 C   0  0  0  0  0  0  0  0  0  0  0  0
    3.6483    8.3172    0.0000 C   0  0  0  0  0  0  0  0  0  0  0  0
    4.9675    7.6033    0.0000 C   0  0  0  0  0  0  0  0  0  0  0  0
    6.1512    6.6820    0.0000 C   0  0  0  0  0  0  0  0  0  0  0  0
    7.1671    5.5784    0.0000 C   0  0  0  0  0  0  0  0  0  0  0  0
    7.9875    4.3226    0.0000 C   0  0  0  0  0  0  0  0  0  0  0  0
    8.5901    2.9490    0.0000 C   0  0  0  0  0  0  0  0  0  0  0  0
    8.9583    1.4949    0.0000 C   0  0  0  0  0  0  0  0  0  0  0  0
  1  2  1  0
  2  3  1  0
  3  4  1  0
  4  5  1  0
  5  6  1  0
  6  7  1  0
  7  8  1  0
  8  9  1  0
  9 10  1  0
 10 11  1  0
 11 12  1  0
 12 13  1  0
 13 14  1  0
 14 15  1  0
 15 16  1  0
 16 17  1  0
 17 18  1  0
 18 19  1  0
 19 20  1  0
 20 21  1  0
 21 22  1  0
 22 23  1  0
 23 24  1  0
 24 25  1  0
 25 26  1  0
 26 27  1  0
 27 28  1  0
 28 29  1  0
 29 30  1  0
 30 31  1  0
 31 32  1  0
 32 33  1  0
 33 34  1  0
 34 35  1  0
 35 36  1  0
 36 37  1  0
 37 38  1  0
 38 39  1  0
 39 40  1  0
 40 41  1  0
 41  4  1  0
M  END
>  <Title>  (578) 
idAAUHgen9

$$$$

     RDKit          2D

  8  8  0  0  0  0  0  0  0  0999 V2000
    5.0260   -1.2990    0.0000 C   0  0  0  0  0  0  0  0  0  0  0  0
    3.5260   -1.2990    0.0000 C   0  0  0  0  0  0  0  0  0  0  0  0
    2.7760    0.0000    0.0000 N   0  0  0  0  0  0  0  0  0  0  0  0
    1.2760    0.0000    0.0000 C   0  0  0  0  0  0  0  0  0  0  0  0
    0.3943    1.2135    0.0000 C   0  0  0  0  0  0  0  0  0  0  0  0
   -1.0323    0.7500    0.0000 C   0  0  0  0  0  0  0  0  0  0  0  0
   -1.0323   -0.7500    0.0000 C   0  0  0  0  0  0  0  0  0  0  0  0
    0.3943   -1.2135    0.0000 C   0  0  0  0  0  0  0  0  0  0  0  0
  1  2  1  0
  2  3  1  0
  3  4  1  0
  4  5  2  0
  5  6  1  0
  6  7  1  0
  7  8  2  0
  8  4  1  0
M  END
>  <Title>  (579) 
idAAUIgen9

$$$$

     RDKit          2D

  9  9  0  0  0  0  0  0  0  0999 V2000
    2.7760   -2.5981    0.0000 O   0  0  0  0  0  0  0  0  0  0  0  0
    3.5260   -1.2990    0.0000 C   0  0  0  0  0  0  0  0  0  0  0  0
    5.0260   -1.2990    0.0000 O   0  0  0  0  0  0  0  0  0  0  0  0
    2.7760    0.0000    0.0000 O   0  0  0  0  0  0  0  0  0  0  0  0
    1.2760    0.0000    0.0000 C   0  0  0  0  0  0  0  0  0  0  0  0
    0.3943    1.2135    0.0000 C   0  0  0  0  0  0  0  0  0  0  0  0
   -1.0323    0.7500    0.0000 C   0  0  0  0  0  0  0  0  0  0  0  0
   -1.0323   -0.7500    0.0000 C   0  0  0  0  0  0  0  0  0  0  0  0
    0.3943   -1.2135    0.0000 C   0  0  0  0  0  0  0  0  0  0  0  0
  1  2  2  0
  2  3  1  0
  2  4  1  0
  4  5  1  0
  5  6  2  0
  6  7  1  0
  7  8  1  0
  8  9  2  0
  9  5  1  0
M  END
>  <Title>  (580) 
idAAUJgen9

$$$$

     RDKit          2D

 15 16  0  0  0  0  0  0  0  0999 V2000
   -0.7360   -6.1923    0.0000 O   0  0  0  0  0  0  0  0  0  0  0  0
    0.4775   -7.0740    0.0000 C   0  0  0  0  0  0  0  0  0  0  0  0
    0.3207   -8.5658    0.0000 O   0  0  0  0  0  0  0  0  0  0  0  0
    1.8478   -6.4639    0.0000 O   0  0  0  0  0  0  0  0  0  0  0  0
    2.0046   -4.9721    0.0000 C   0  0  0  0  0  0  0  0  0  0  0  0
    3.3037   -4.2221    0.0000 C   0  0  0  0  0  0  0  0  0  0  0  0
    2.9918   -2.7549    0.0000 C   0  0  0  0  0  0  0  0  0  0  0  0
    1.5000   -2.5981    0.0000 C   0  0  0  0  0  0  0  0  0  0  0  0
    0.7500   -1.2990    0.0000 C   0  0  0  0  0  0  0  0  0  0  0  0
    1.5000    0.0000    0.0000 C   0  0  0  0  0  0  0  0  0  0  0  0
    0.7500    1.2990    0.0000 C   0  0  0  0  0  0  0  0  0  0  0  0
   -0.7500    1.2990    0.0000 C   0  0  0  0  0  0  0  0  0  0  0  0
   -1.5000    0.0000    0.0000 C   0  0  0  0  0  0  0  0  0  0  0  0
   -0.7500   -1.2990    0.0000 N   0  0  0  0  0  0  0  0  0  0  0  0
    0.8899   -3.9684    0.0000 C   0  0  0  0  0  0  0  0  0  0  0  0
  1  2  2  0
  2  3  1  0
  2  4  1  0
  4  5  1  0
  5  6  1  0
  6  7  2  0
  7  8  1  0
  8  9  1  0
  9 10  2  0
 10 11  1  0
 11 12  2  0
 12 13  1  0
 13 14  2  0
  8 15  1  0
 15  5  1  0
 14  9  1  0
M  END
>  <Title>  (581) 
idAAUKgen9

$$$$

     RDKit          2D

 20 22  0  0  0  0  0  0  0  0999 V2000
    9.8932    2.9686    0.0000 N   0  0  0  0  0  0  0  0  0  0  0  0
    8.8895    1.8539    0.0000 C   0  0  0  0  0  0  0  0  0  0  0  0
    7.8858    0.7391    0.0000 C   0  0  0  0  0  0  0  0  0  0  0  0
    7.9643   -0.7588    0.0000 C   0  0  0  0  0  0  0  0  0  0  0  0
    6.4664   -0.8373    0.0000 C   0  0  0  0  0  0  0  0  0  0  0  0
    5.4627   -1.9520    0.0000 C   0  0  0  0  0  0  0  0  0  0  0  0
    5.9262   -3.3786    0.0000 O   0  0  0  0  0  0  0  0  0  0  0  0
    3.9955   -1.6402    0.0000 N   0  0  0  0  0  0  0  0  0  0  0  0
    2.9918   -2.7549    0.0000 C   0  0  0  0  0  0  0  0  0  0  0  0
    3.3037   -4.2221    0.0000 N   0  0  0  0  0  0  0  0  0  0  0  0
    2.0046   -4.9721    0.0000 N   0  0  0  0  0  0  0  0  0  0  0  0
    0.8899   -3.9684    0.0000 N   0  0  0  0  0  0  0  0  0  0  0  0
    1.5000   -2.5981    0.0000 N   0  0  0  0  0  0  0  0  0  0  0  0
    0.7500   -1.2990    0.0000 C   0  0  0  0  0  0  0  0  0  0  0  0
    1.5000    0.0000    0.0000 C   0  0  0  0  0  0  0  0  0  0  0  0
    0.7500    1.2990    0.0000 C   0  0  0  0  0  0  0  0  0  0  0  0
   -0.7500    1.2990    0.0000 C   0  0  0  0  0  0  0  0  0  0  0  0
   -1.5000    0.0000    0.0000 C   0  0  0  0  0  0  0  0  0  0  0  0
   -0.7500   -1.2990    0.0000 C   0  0  0  0  0  0  0  0  0  0  0  0
    6.3879    0.6606    0.0000 C   0  0  0  0  0  0  0  0  0  0  0  0
  1  2  3  0
  2  3  1  0
  3  4  2  0
  4  5  1  0
  5  6  1  0
  6  7  2  0
  6  8  1  0
  8  9  1  0
  9 10  2  0
 10 11  1  0
 11 12  2  0
 12 13  1  0
 13 14  1  0
 14 15  2  0
 15 16  1  0
 16 17  2  0
 17 18  1  0
 18 19  2  0
  5 20  1  0
 20  3  1  0
 13  9  1  0
 19 14  1  0
M  END
>  <Title>  (582) 
idAAULgen9

$$$$

     RDKit          2D

  9  8  0  0  0  0  0  0  0  0999 V2000
    0.0000    0.0000    0.0000 C   0  0  0  0  0  0  0  0  0  0  0  0
    1.2990    0.7500    0.0000 C   0  0  0  0  0  0  0  0  0  0  0  0
    2.5981   -0.0000    0.0000 C   0  0  0  0  0  0  0  0  0  0  0  0
    3.8971    0.7500    0.0000 C   0  0  0  0  0  0  0  0  0  0  0  0
    5.1962   -0.0000    0.0000 C   0  0  0  0  0  0  0  0  0  0  0  0
    6.4952    0.7500    0.0000 C   0  0  0  0  0  0  0  0  0  0  0  0
    7.7942   -0.0000    0.0000 C   0  0  0  0  0  0  0  0  0  0  0  0
    9.0933    0.7500    0.0000 C   0  0  0  0  0  0  0  0  0  0  0  0
   10.3923   -0.0000    0.0000 C   0  0  0  0  0  0  0  0  0  0  0  0
  1  2  1  0
  2  3  1  0
  3  4  1  0
  4  5  1  0
  5  6  1  0
  6  7  1  0
  7  8  1  0
  8  9  1  0
M  END
>  <Title>  (583) 
idAAUMgen9

$$$$

     RDKit          2D

 16 15  0  0  0  0  0  0  0  0999 V2000
    0.0000    0.0000    0.0000 C   0  0  0  0  0  0  0  0  0  0  0  0
   -0.0000   -1.5000    0.0000 C   0  0  0  0  0  0  0  0  0  0  0  0
   -0.0000   -3.0000    0.0000 C   0  0  0  0  0  0  0  0  0  0  0  0
   -0.0000   -4.5000    0.0000 C   0  0  0  0  0  0  0  0  0  0  0  0
   -0.0000   -6.0000    0.0000 C   0  0  0  0  0  0  0  0  0  0  0  0
   -0.0000   -7.5000    0.0000 C   0  0  0  0  0  0  0  0  0  0  0  0
   -0.0000   -9.0000    0.0000 C   0  0  0  0  0  0  0  0  0  0  0  0
   -0.0000  -10.5000    0.0000 C   0  0  0  0  0  0  0  0  0  0  0  0
   -0.0000  -12.0000    0.0000 C   0  0  0  0  0  0  0  0  0  0  0  0
   -0.0000  -13.5000    0.0000 C   0  0  0  0  0  0  0  0  0  0  0  0
   -0.0000  -15.0000    0.0000 C   0  0  0  0  0  0  0  0  0  0  0  0
   -0.0000  -16.5000    0.0000 C   0  0  0  0  0  0  0  0  0  0  0  0
   -0.0000  -18.0000    0.0000 C   0  0  0  0  0  0  0  0  0  0  0  0
    1.2990  -18.7500    0.0000 C   0  0  0  0  0  0  0  0  0  0  0  0
    2.5981  -18.0000    0.0000 O   0  0  0  0  0  0  0  0  0  0  0  0
    1.2990  -20.2500    0.0000 O   0  0  0  0  0  0  0  0  0  0  0  0
  1  2  3  0
  2  3  1  0
  3  4  3  0
  4  5  1  0
  5  6  3  0
  6  7  1  0
  7  8  3  0
  8  9  1  0
  9 10  3  0
 10 11  1  0
 11 12  3  0
 12 13  1  0
 13 14  1  0
 14 15  2  0
 14 16  1  0
M  END
>  <Title>  (584) 
idAAUNgen9

$$$$

     RDKit          2D

 16 17  0  0  0  0  0  0  0  0999 V2000
    3.0000    0.0000    0.0000 C   0  0  0  0  0  0  0  0  0  0  0  0
    1.5000    0.0000    0.0000 C   0  0  0  0  0  0  0  0  0  0  0  0
    0.7500   -1.2990    0.0000 C   0  0  0  0  0  0  0  0  0  0  0  0
   -0.7500   -1.2990    0.0000 C   0  0  0  0  0  0  0  0  0  0  0  0
   -1.5000    0.0000    0.0000 C   0  0  0  0  0  0  0  0  0  0  0  0
   -0.7500    1.2990    0.0000 C   0  0  0  0  0  0  0  0  0  0  0  0
   -1.5000    2.5981    0.0000 C   0  0  0  0  0  0  0  0  0  0  0  0
   -3.0000    2.5981    0.0000 O   0  0  0  0  0  0  0  0  0  0  0  0
   -0.7500    3.8971    0.0000 N   0  0  0  0  0  0  0  0  0  0  0  0
   -1.5000    5.1962    0.0000 C   0  0  0  0  0  0  0  0  0  0  0  0
   -0.7500    6.4952    0.0000 N   0  0  0  0  0  0  0  0  0  0  0  0
   -1.5000    7.7942    0.0000 N   0  0  0  0  0  0  0  0  0  0  0  0
   -3.0000    7.7942    0.0000 N   0  0  0  0  0  0  0  0  0  0  0  0
   -3.7500    6.4952    0.0000 N   0  0  0  0  0  0  0  0  0  0  0  0
   -3.0000    5.1962    0.0000 N   0  0  0  0  0  0  0  0  0  0  0  0
    0.7500    1.2990    0.0000 C   0  0  0  0  0  0  0  0  0  0  0  0
  1  2  1  0
  2  3  2  0
  3  4  1  0
  4  5  1  0
  5  6  1  0
  6  7  1  0
  7  8  2  0
  7  9  1  0
  9 10  1  0
 10 11  2  0
 11 12  1  0
 12 13  2  0
 13 14  1  0
 14 15  2  0
  6 16  1  0
 16  2  1  0
 15 10  1  0
M  END
>  <Title>  (585) 
idAAUOgen9

$$$$

     RDKit          2D

  7  7  0  0  0  0  0  0  0  0999 V2000
    4.0607    0.0000    0.0000 N   0  0  0  0  0  0  0  0  0  0  0  0
    2.5607    0.0000    0.0000 C   0  0  0  0  0  0  0  0  0  0  0  0
    1.0607    0.0000    0.0000 C   0  0  0  0  0  0  0  0  0  0  0  0
   -0.0000   -1.0607    0.0000 C   0  0  0  0  0  0  0  0  0  0  0  0
   -0.0000   -2.5607    0.0000 O   0  0  0  0  0  0  0  0  0  0  0  0
   -1.0607    0.0000    0.0000 C   0  0  0  0  0  0  0  0  0  0  0  0
    0.0000    1.0607    0.0000 C   0  0  0  0  0  0  0  0  0  0  0  0
  1  2  3  0
  2  3  1  0
  3  4  2  0
  4  5  1  0
  4  6  1  0
  6  7  2  0
  7  3  1  0
M  END
>  <Title>  (586) 
idAAUPgen9

$$$$

     RDKit          2D

 87 87  0  0  0  0  0  0  0  0999 V2000
   21.7969    0.0000    0.0000 C   0  0  0  0  0  0  0  0  0  0  0  0
   20.2969    0.0000    0.0000 C   0  0  0  0  0  0  0  0  0  0  0  0
   20.2414    1.4990    0.0000 C   0  0  0  0  0  0  0  0  0  0  0  0
   20.0755    2.9898    0.0000 C   0  0  0  0  0  0  0  0  0  0  0  0
   19.7998    4.4642    0.0000 C   0  0  0  0  0  0  0  0  0  0  0  0
   19.4161    5.9143    0.0000 C   0  0  0  0  0  0  0  0  0  0  0  0
   18.9263    7.3321    0.0000 C   0  0  0  0  0  0  0  0  0  0  0  0
   18.3331    8.7098    0.0000 C   0  0  0  0  0  0  0  0  0  0  0  0
   17.6398   10.0400    0.0000 C   0  0  0  0  0  0  0  0  0  0  0  0
   16.8501   11.3153    0.0000 C   0  0  0  0  0  0  0  0  0  0  0  0
   15.9685   12.5288    0.0000 C   0  0  0  0  0  0  0  0  0  0  0  0
   14.9996   13.6739    0.0000 C   0  0  0  0  0  0  0  0  0  0  0  0
   13.9488   14.7443    0.0000 C   0  0  0  0  0  0  0  0  0  0  0  0
   12.8218   15.7342    0.0000 C   0  0  0  0  0  0  0  0  0  0  0  0
   11.6247   16.6382    0.0000 C   0  0  0  0  0  0  0  0  0  0  0  0
   10.3642   17.4513    0.0000 C   0  0  0  0  0  0  0  0  0  0  0  0
    9.0471   18.1690    0.0000 C   0  0  0  0  0  0  0  0  0  0  0  0
    7.6806   18.7876    0.0000 C   0  0  0  0  0  0  0  0  0  0  0  0
    6.2721   19.3035    0.0000 C   0  0  0  0  0  0  0  0  0  0  0  0
    4.8293   19.7140    0.0000 C   0  0  0  0  0  0  0  0  0  0  0  0
    3.3602   20.0168    0.0000 C   0  0  0  0  0  0  0  0  0  0  0  0
    1.8728   20.2103    0.0000 C   0  0  0  0  0  0  0  0  0  0  0  0
    0.3751   20.2934    0.0000 C   0  0  0  0  0  0  0  0  0  0  0  0
   -1.1247   20.2657    0.0000 C   0  0  0  0  0  0  0  0  0  0  0  0
   -2.6183   20.1273    0.0000 C   0  0  0  0  0  0  0  0  0  0  0  0
   -4.0976   19.8790    0.0000 C   0  0  0  0  0  0  0  0  0  0  0  0
   -5.5545   19.5221    0.0000 C   0  0  0  0  0  0  0  0  0  0  0  0
   -6.9811   19.0585    0.0000 C   0  0  0  0  0  0  0  0  0  0  0  0
   -8.3695   18.4909    0.0000 C   0  0  0  0  0  0  0  0  0  0  0  0
   -9.7123   17.8223    0.0000 C   0  0  0  0  0  0  0  0  0  0  0  0
  -11.0020   17.0564    0.0000 C   0  0  0  0  0  0  0  0  0  0  0  0
  -12.2316   16.1973    0.0000 C   0  0  0  0  0  0  0  0  0  0  0  0
  -13.3944   15.2497    0.0000 C   0  0  0  0  0  0  0  0  0  0  0  0
  -14.4841   14.2188    0.0000 C   0  0  0  0  0  0  0  0  0  0  0  0
  -15.4946   13.1103    0.0000 C   0  0  0  0  0  0  0  0  0  0  0  0
  -16.4205   11.9302    0.0000 C   0  0  0  0  0  0  0  0  0  0  0  0
  -17.2568   10.6849    0.0000 C   0  0  0  0  0  0  0  0  0  0  0  0
  -17.9987    9.3813    0.0000 C   0  0  0  0  0  0  0  0  0  0  0  0
  -18.6424    8.0264    0.0000 C   0  0  0  0  0  0  0  0  0  0  0  0
  -19.1843    6.6277    0.0000 C   0  0  0  0  0  0  0  0  0  0  0  0
  -19.6214    5.1928    0.0000 C   0  0  0  0  0  0  0  0  0  0  0  0
  -19.9513    3.7295    0.0000 C   0  0  0  0  0  0  0  0  0  0  0  0
  -20.1722    2.2459    0.0000 C   0  0  0  0  0  0  0  0  0  0  0  0
  -20.2830    0.7500    0.0000 C   0  0  0  0  0  0  0  0  0  0  0  0
  -20.2830   -0.7500    0.0000 C   0  0  0  0  0  0  0  0  0  0  0  0
  -20.1722   -2.2459    0.0000 C   0  0  0  0  0  0  0  0  0  0  0  0
  -19.9513   -3.7295    0.0000 C   0  0  0  0  0  0  0  0  0  0  0  0
  -19.6214   -5.1928    0.0000 C   0  0  0  0  0  0  0  0  0  0  0  0
  -19.1843   -6.6277    0.0000 C   0  0  0  0  0  0  0  0  0  0  0  0
  -18.6424   -8.0264    0.0000 C   0  0  0  0  0  0  0  0  0  0  0  0
  -17.9987   -9.3813    0.0000 C   0  0  0  0  0  0  0  0  0  0  0  0
  -17.2568  -10.6849    0.0000 C   0  0  0  0  0  0  0  0  0  0  0  0
  -16.4205  -11.9302    0.0000 C   0  0  0  0  0  0  0  0  0  0  0  0
  -15.4946  -13.1103    0.0000 C   0  0  0  0  0  0  0  0  0  0  0  0
  -14.4841  -14.2188    0.0000 C   0  0  0  0  0  0  0  0  0  0  0  0
  -13.3944  -15.2497    0.0000 C   0  0  0  0  0  0  0  0  0  0  0  0
  -12.2316  -16.1973    0.0000 C   0  0  0  0  0  0  0  0  0  0  0  0
  -11.0020  -17.0564    0.0000 C   0  0  0  0  0  0  0  0  0  0  0  0
   -9.7123  -17.8223    0.0000 C   0  0  0  0  0  0  0  0  0  0  0  0
   -8.3695  -18.4909    0.0000 C   0  0  0  0  0  0  0  0  0  0  0  0
   -6.9811  -19.0585    0.0000 C   0  0  0  0  0  0  0  0  0  0  0  0
   -5.5545  -19.5221    0.0000 C   0  0  0  0  0  0  0  0  0  0  0  0
   -4.0976  -19.8790    0.0000 C   0  0  0  0  0  0  0  0  0  0  0  0
   -2.6183  -20.1273    0.0000 C   0  0  0  0  0  0  0  0  0  0  0  0
   -1.1247  -20.2657    0.0000 C   0  0  0  0  0  0  0  0  0  0  0  0
    0.3751  -20.2934    0.0000 C   0  0  0  0  0  0  0  0  0  0  0  0
    1.8728  -20.2103    0.0000 C   0  0  0  0  0  0  0  0  0  0  0  0
    3.3602  -20.0168    0.0000 C   0  0  0  0  0  0  0  0  0  0  0  0
    4.8293  -19.7140    0.0000 C   0  0  0  0  0  0  0  0  0  0  0  0
    6.2721  -19.3035    0.0000 C   0  0  0  0  0  0  0  0  0  0  0  0
    7.6806  -18.7876    0.0000 C   0  0  0  0  0  0  0  0  0  0  0  0
    9.0471  -18.1690    0.0000 C   0  0  0  0  0  0  0  0  0  0  0  0
   10.3642  -17.4513    0.0000 C   0  0  0  0  0  0  0  0  0  0  0  0
   11.6247  -16.6382    0.0000 C   0  0  0  0  0  0  0  0  0  0  0  0
   12.8218  -15.7342    0.0000 C   0  0  0  0  0  0  0  0  0  0  0  0
   13.9488  -14.7443    0.0000 C   0  0  0  0  0  0  0  0  0  0  0  0
   14.9996  -13.6739    0.0000 C   0  0  0  0  0  0  0  0  0  0  0  0
   15.9685  -12.5288    0.0000 C   0  0  0  0  0  0  0  0  0  0  0  0
   16.8501  -11.3153    0.0000 C   0  0  0  0  0  0  0  0  0  0  0  0
   17.6398  -10.0400    0.0000 C   0  0  0  0  0  0  0  0  0  0  0  0
   18.3331   -8.7098    0.0000 C   0  0  0  0  0  0  0  0  0  0  0  0
   18.9263   -7.3321    0.0000 C   0  0  0  0  0  0  0  0  0  0  0  0
   19.4161   -5.9143    0.0000 C   0  0  0  0  0  0  0  0  0  0  0  0
   19.7998   -4.4642    0.0000 C   0  0  0  0  0  0  0  0  0  0  0  0
   20.0755   -2.9898    0.0000 C   0  0  0  0  0  0  0  0  0  0  0  0
   20.2414   -1.4990    0.0000 C   0  0  0  0  0  0  0  0  0  0  0  0
   21.7374   -1.6098    0.0000 C   0  0  0  0  0  0  0  0  0  0  0  0
  1  2  1  0
  2  3  2  0
  3  4  1  0
  4  5  2  0
  5  6  1  0
  6  7  2  0
  7  8  1  0
  8  9  2  0
  9 10  1  0
 10 11  2  0
 11 12  1  0
 12 13  2  0
 13 14  1  0
 14 15  2  0
 15 16  1  0
 16 17  2  0
 17 18  1  0
 18 19  2  0
 19 20  1  0
 20 21  2  0
 21 22  1  0
 22 23  2  0
 23 24  1  0
 24 25  1  0
 25 26  1  0
 26 27  1  0
 27 28  1  0
 28 29  1  0
 29 30  1  0
 30 31  1  0
 31 32  1  0
 32 33  1  0
 33 34  1  0
 34 35  1  0
 35 36  1  0
 36 37  1  0
 37 38  1  0
 38 39  1  0
 39 40  1  0
 40 41  1  0
 41 42  1  0
 42 43  1  0
 43 44  1  0
 44 45  1  0
 45 46  1  0
 46 47  1  0
 47 48  1  0
 48 49  1  0
 49 50  1  0
 50 51  1  0
 51 52  1  0
 52 53  1  0
 53 54  1  0
 54 55  1  0
 55 56  1  0
 56 57  1  0
 57 58  1  0
 58 59  1  0
 59 60  1  0
 60 61  1  0
 61 62  1  0
 62 63  1  0
 63 64  1  0
 64 65  1  0
 65 66  1  0
 66 67  1  0
 67 68  1  0
 68 69  1  0
 69 70  1  0
 70 71  1  0
 71 72  1  0
 72 73  1  0
 73 74  1  0
 74 75  1  0
 75 76  1  0
 76 77  1  0
 77 78  1  0
 78 79  1  0
 79 80  1  0
 80 81  1  0
 81 82  1  0
 82 83  1  0
 83 84  1  0
 84 85  1  0
 85 86  1  0
 86 87  1  0
 86  2  1  0
M  END
>  <Title>  (587) 
idAAUQgen9

$$$$

     RDKit          2D

 50 57  0  0  0  0  0  0  0  0999 V2000
    5.2417   -6.1122    0.0000 C   0  0  0  0  0  0  0  0  0  0  0  0
    3.7705   -5.8195    0.0000 C   0  0  0  0  0  0  0  0  0  0  0  0
    3.7705   -4.3195    0.0000 C   0  0  0  0  0  0  0  0  0  0  0  0
    3.1965   -2.9337    0.0000 C   0  0  0  0  0  0  0  0  0  0  0  0
    2.1358   -1.8731    0.0000 C   0  0  0  0  0  0  0  0  0  0  0  0
    2.9692   -0.6259    0.0000 C   0  0  0  0  0  0  0  0  0  0  0  0
    2.3057    0.7195    0.0000 O   0  0  0  0  0  0  0  0  0  0  0  0
    4.4660   -0.7240    0.0000 N   0  0  0  0  0  0  0  0  0  0  0  0
    5.2993    0.5232    0.0000 C   0  0  0  0  0  0  0  0  0  0  0  0
    6.7961    0.4251    0.0000 N   0  0  0  0  0  0  0  0  0  0  0  0
    7.6295    1.6723    0.0000 N   0  0  0  0  0  0  0  0  0  0  0  0
    6.9660    3.0176    0.0000 N   0  0  0  0  0  0  0  0  0  0  0  0
    5.4692    3.1158    0.0000 N   0  0  0  0  0  0  0  0  0  0  0  0
    4.6359    1.8686    0.0000 N   0  0  0  0  0  0  0  0  0  0  0  0
    0.7500   -1.2990    0.0000 C   0  0  0  0  0  0  0  0  0  0  0  0
    1.5000    0.0000    0.0000 C   0  0  0  0  0  0  0  0  0  0  0  0
    0.7500    1.2990    0.0000 C   0  0  0  0  0  0  0  0  0  0  0  0
   -0.7500    1.2990    0.0000 C   0  0  0  0  0  0  0  0  0  0  0  0
   -1.5000    0.0000    0.0000 C   0  0  0  0  0  0  0  0  0  0  0  0
   -0.7500   -1.2990    0.0000 C   0  0  0  0  0  0  0  0  0  0  0  0
   -2.1358   -1.8731    0.0000 C   0  0  0  0  0  0  0  0  0  0  0  0
   -2.5240   -0.4242    0.0000 C   0  0  0  0  0  0  0  0  0  0  0  0
   -3.9729   -0.0359    0.0000 C   0  0  0  0  0  0  0  0  0  0  0  0
   -5.0336   -1.0966    0.0000 C   0  0  0  0  0  0  0  0  0  0  0  0
   -4.6454   -2.5455    0.0000 C   0  0  0  0  0  0  0  0  0  0  0  0
   -3.1965   -2.9337    0.0000 C   0  0  0  0  0  0  0  0  0  0  0  0
   -3.7705   -4.3195    0.0000 C   0  0  0  0  0  0  0  0  0  0  0  0
   -5.0695   -3.5695    0.0000 C   0  0  0  0  0  0  0  0  0  0  0  0
   -6.3686   -4.3195    0.0000 C   0  0  0  0  0  0  0  0  0  0  0  0
   -6.3686   -5.8195    0.0000 C   0  0  0  0  0  0  0  0  0  0  0  0
   -5.0695   -6.5695    0.0000 C   0  0  0  0  0  0  0  0  0  0  0  0
   -3.7705   -5.8195    0.0000 C   0  0  0  0  0  0  0  0  0  0  0  0
   -3.1965   -7.2054    0.0000 C   0  0  0  0  0  0  0  0  0  0  0  0
   -4.6454   -7.5936    0.0000 C   0  0  0  0  0  0  0  0  0  0  0  0
   -5.0336   -9.0425    0.0000 C   0  0  0  0  0  0  0  0  0  0  0  0
   -3.9729  -10.1031    0.0000 C   0  0  0  0  0  0  0  0  0  0  0  0
   -2.5240   -9.7149    0.0000 C   0  0  0  0  0  0  0  0  0  0  0  0
   -2.1358   -8.2660    0.0000 C   0  0  0  0  0  0  0  0  0  0  0  0
   -0.7500   -8.8400    0.0000 C   0  0  0  0  0  0  0  0  0  0  0  0
   -1.5000  -10.1391    0.0000 C   0  0  0  0  0  0  0  0  0  0  0  0
   -0.7500  -11.4381    0.0000 C   0  0  0  0  0  0  0  0  0  0  0  0
    0.7500  -11.4381    0.0000 C   0  0  0  0  0  0  0  0  0  0  0  0
    1.5000  -10.1391    0.0000 C   0  0  0  0  0  0  0  0  0  0  0  0
    0.7500   -8.8400    0.0000 C   0  0  0  0  0  0  0  0  0  0  0  0
    2.1358   -8.2660    0.0000 C   0  0  0  0  0  0  0  0  0  0  0  0
    2.5240   -9.7149    0.0000 C   0  0  0  0  0  0  0  0  0  0  0  0
    3.9729  -10.1031    0.0000 C   0  0  0  0  0  0  0  0  0  0  0  0
    5.0336   -9.0425    0.0000 C   0  0  0  0  0  0  0  0  0  0  0  0
    4.6454   -7.5936    0.0000 C   0  0  0  0  0  0  0  0  0  0  0  0
    3.1965   -7.2054    0.0000 C   0  0  0  0  0  0  0  0  0  0  0  0
  1  2  1  0
  2  3  1  0
  3  4  2  0
  4  5  1  0
  5  6  1  0
  6  7  2  0
  6  8  1  0
  8  9  1  0
  9 10  2  0
 10 11  1  0
 11 12  2  0
 12 13  1  0
 13 14  2  0
  5 15  1  0
 15 16  2  0
 16 17  1  0
 17 18  2  0
 18 19  1  0
 19 20  2  0
 20 21  1  0
 21 22  2  0
 22 23  1  0
 23 24  2  0
 24 25  1  0
 25 26  2  0
 26 27  1  0
 27 28  2  0
 28 29  1  0
 29 30  2  0
 30 31  1  0
 31 32  2  0
 32 33  1  0
 33 34  2  0
 34 35  1  0
 35 36  2  0
 36 37  1  0
 37 38  2  0
 38 39  1  0
 39 40  2  0
 40 41  1  0
 41 42  2  0
 42 43  1  0
 43 44  2  0
 44 45  1  0
 45 46  2  0
 46 47  1  0
 47 48  2  0
 48 49  1  0
 49 50  2  0
 50  2  1  0
 14  9  1  0
 20 15  1  0
 26 21  1  0
 32 27  1  0
 38 33  1  0
 44 39  1  0
 50 45  1  0
M  END
>  <Title>  (588) 
idAAURgen9

$$$$

     RDKit          2D

 16 17  0  0  0  0  0  0  0  0999 V2000
    7.0607  -12.2294    0.0000 C   0  0  0  0  0  0  0  0  0  0  0  0
    6.3107  -10.9304    0.0000 C   0  0  0  0  0  0  0  0  0  0  0  0
    5.5607   -9.6313    0.0000 C   0  0  0  0  0  0  0  0  0  0  0  0
    4.8107   -8.3323    0.0000 C   0  0  0  0  0  0  0  0  0  0  0  0
    4.0607   -7.0333    0.0000 C   0  0  0  0  0  0  0  0  0  0  0  0
    3.3107   -5.7342    0.0000 C   0  0  0  0  0  0  0  0  0  0  0  0
    2.5607   -4.4352    0.0000 C   0  0  0  0  0  0  0  0  0  0  0  0
    1.1118   -4.0470    0.0000 C   0  0  0  0  0  0  0  0  0  0  0  0
    1.5000   -2.5981    0.0000 C   0  0  0  0  0  0  0  0  0  0  0  0
    0.7500   -1.2990    0.0000 C   0  0  0  0  0  0  0  0  0  0  0  0
    1.5000    0.0000    0.0000 C   0  0  0  0  0  0  0  0  0  0  0  0
    0.7500    1.2990    0.0000 C   0  0  0  0  0  0  0  0  0  0  0  0
   -0.7500    1.2990    0.0000 C   0  0  0  0  0  0  0  0  0  0  0  0
   -1.5000    0.0000    0.0000 C   0  0  0  0  0  0  0  0  0  0  0  0
   -0.7500   -1.2990    0.0000 C   0  0  0  0  0  0  0  0  0  0  0  0
    2.9489   -2.9863    0.0000 C   0  0  0  0  0  0  0  0  0  0  0  0
  1  2  3  0
  2  3  1  0
  3  4  3  0
  4  5  1  0
  5  6  3  0
  6  7  1  0
  7  8  2  0
  8  9  1  0
  9 10  1  0
 10 11  2  0
 11 12  1  0
 12 13  2  0
 13 14  1  0
 14 15  2  0
  9 16  2  0
 16  7  1  0
 15 10  1  0
M  END
>  <Title>  (589) 
idAAUSgen9

$$$$

     RDKit          2D

 10 10  0  0  0  0  0  0  0  0999 V2000
    3.0000   -2.5981    0.0000 O   0  0  0  0  0  0  0  0  0  0  0  0
    3.7500   -1.2990    0.0000 C   0  0  0  0  0  0  0  0  0  0  0  0
    5.2500   -1.2990    0.0000 O   0  0  0  0  0  0  0  0  0  0  0  0
    3.0000    0.0000    0.0000 O   0  0  0  0  0  0  0  0  0  0  0  0
    1.5000    0.0000    0.0000 C   0  0  0  0  0  0  0  0  0  0  0  0
    0.7500   -1.2990    0.0000 C   0  0  0  0  0  0  0  0  0  0  0  0
   -0.7500   -1.2990    0.0000 C   0  0  0  0  0  0  0  0  0  0  0  0
   -1.5000    0.0000    0.0000 C   0  0  0  0  0  0  0  0  0  0  0  0
   -0.7500    1.2990    0.0000 C   0  0  0  0  0  0  0  0  0  0  0  0
    0.7500    1.2990    0.0000 C   0  0  0  0  0  0  0  0  0  0  0  0
  1  2  2  0
  2  3  1  0
  2  4  1  0
  4  5  1  0
  5  6  2  0
  6  7  1  0
  7  8  1  0
  8  9  1  0
  9 10  1  0
 10  5  1  0
M  END
>  <Title>  (590) 
idAAUTgen9

$$$$

     RDKit          2D

106109  0  0  0  0  0  0  0  0999 V2000
   24.6949    4.7051    0.0000 C   0  0  0  0  0  0  0  0  0  0  0  0
   25.3481    3.3548    0.0000 C   0  0  0  0  0  0  0  0  0  0  0  0
   26.8441    3.2453    0.0000 C   0  0  0  0  0  0  0  0  0  0  0  0
   27.4972    1.8950    0.0000 C   0  0  0  0  0  0  0  0  0  0  0  0
   26.6544    0.6542    0.0000 C   0  0  0  0  0  0  0  0  0  0  0  0
   25.1584    0.7637    0.0000 C   0  0  0  0  0  0  0  0  0  0  0  0
   24.5052    2.1140    0.0000 C   0  0  0  0  0  0  0  0  0  0  0  0
   23.0092    2.2235    0.0000 C   0  0  0  0  0  0  0  0  0  0  0  0
   22.3561    3.5738    0.0000 C   0  0  0  0  0  0  0  0  0  0  0  0
   20.8601    3.6833    0.0000 C   0  0  0  0  0  0  0  0  0  0  0  0
   20.0172    2.4425    0.0000 C   0  0  0  0  0  0  0  0  0  0  0  0
   20.6704    1.0921    0.0000 C   0  0  0  0  0  0  0  0  0  0  0  0
   22.1664    0.9827    0.0000 C   0  0  0  0  0  0  0  0  0  0  0  0
   22.8196   -0.3677    0.0000 C   0  0  0  0  0  0  0  0  0  0  0  0
   24.3156   -0.4772    0.0000 C   0  0  0  0  0  0  0  0  0  0  0  0
   24.9688   -1.8275    0.0000 C   0  0  0  0  0  0  0  0  0  0  0  0
   24.1259   -3.0683    0.0000 C   0  0  0  0  0  0  0  0  0  0  0  0
   22.6299   -2.9588    0.0000 C   0  0  0  0  0  0  0  0  0  0  0  0
   21.9768   -1.6085    0.0000 C   0  0  0  0  0  0  0  0  0  0  0  0
   20.4808   -1.4990    0.0000 C   0  0  0  0  0  0  0  0  0  0  0  0
   20.5356    0.0000    0.0000 C   0  0  0  0  0  0  0  0  0  0  0  0
   20.4808    1.4990    0.0000 C   0  0  0  0  0  0  0  0  0  0  0  0
   20.3167    2.9900    0.0000 C   0  0  0  0  0  0  0  0  0  0  0  0
   20.0443    4.4650    0.0000 C   0  0  0  0  0  0  0  0  0  0  0  0
   19.6649    5.9163    0.0000 C   0  0  0  0  0  0  0  0  0  0  0  0
   19.1805    7.3359    0.0000 C   0  0  0  0  0  0  0  0  0  0  0  0
   18.5939    8.7165    0.0000 C   0  0  0  0  0  0  0  0  0  0  0  0
   17.9080   10.0505    0.0000 C   0  0  0  0  0  0  0  0  0  0  0  0
   17.1266   11.3309    0.0000 C   0  0  0  0  0  0  0  0  0  0  0  0
   16.2538   12.5508    0.0000 C   0  0  0  0  0  0  0  0  0  0  0  0
   15.2943   13.7038    0.0000 C   0  0  0  0  0  0  0  0  0  0  0  0
   14.2532   14.7836    0.0000 C   0  0  0  0  0  0  0  0  0  0  0  0
   13.1360   15.7846    0.0000 C   0  0  0  0  0  0  0  0  0  0  0  0
   11.9488   16.7014    0.0000 C   0  0  0  0  0  0  0  0  0  0  0  0
   10.6978   17.5290    0.0000 C   0  0  0  0  0  0  0  0  0  0  0  0
    9.3897   18.2631    0.0000 C   0  0  0  0  0  0  0  0  0  0  0  0
    8.0316   18.8998    0.0000 C   0  0  0  0  0  0  0  0  0  0  0  0
    6.6305   19.4357    0.0000 C   0  0  0  0  0  0  0  0  0  0  0  0
    5.1941   19.8678    0.0000 C   0  0  0  0  0  0  0  0  0  0  0  0
    3.7300   20.1940    0.0000 C   0  0  0  0  0  0  0  0  0  0  0  0
    2.2460   20.4124    0.0000 C   0  0  0  0  0  0  0  0  0  0  0  0
    0.7500   20.5219    0.0000 C   0  0  0  0  0  0  0  0  0  0  0  0
   -0.7500   20.5219    0.0000 C   0  0  0  0  0  0  0  0  0  0  0  0
   -2.2460   20.4124    0.0000 C   0  0  0  0  0  0  0  0  0  0  0  0
   -3.7300   20.1940    0.0000 C   0  0  0  0  0  0  0  0  0  0  0  0
   -5.1941   19.8678    0.0000 C   0  0  0  0  0  0  0  0  0  0  0  0
   -6.6305   19.4357    0.0000 C   0  0  0  0  0  0  0  0  0  0  0  0
   -8.0316   18.8998    0.0000 C   0  0  0  0  0  0  0  0  0  0  0  0
   -9.3897   18.2631    0.0000 C   0  0  0  0  0  0  0  0  0  0  0  0
  -10.6978   17.5290    0.0000 C   0  0  0  0  0  0  0  0  0  0  0  0
  -11.9488   16.7014    0.0000 C   0  0  0  0  0  0  0  0  0  0  0  0
  -13.1360   15.7846    0.0000 C   0  0  0  0  0  0  0  0  0  0  0  0
  -14.2532   14.7836    0.0000 C   0  0  0  0  0  0  0  0  0  0  0  0
  -15.2943   13.7038    0.0000 C   0  0  0  0  0  0  0  0  0  0  0  0
  -16.2538   12.5508    0.0000 C   0  0  0  0  0  0  0  0  0  0  0  0
  -17.1266   11.3309    0.0000 C   0  0  0  0  0  0  0  0  0  0  0  0
  -17.9080   10.0505    0.0000 C   0  0  0  0  0  0  0  0  0  0  0  0
  -18.5939    8.7165    0.0000 C   0  0  0  0  0  0  0  0  0  0  0  0
  -19.1805    7.3359    0.0000 C   0  0  0  0  0  0  0  0  0  0  0  0
  -19.6649    5.9163    0.0000 C   0  0  0  0  0  0  0  0  0  0  0  0
  -20.0443    4.4650    0.0000 C   0  0  0  0  0  0  0  0  0  0  0  0
  -20.3167    2.9900    0.0000 C   0  0  0  0  0  0  0  0  0  0  0  0
  -20.4808    1.4990    0.0000 C   0  0  0  0  0  0  0  0  0  0  0  0
  -20.5356    0.0000    0.0000 C   0  0  0  0  0  0  0  0  0  0  0  0
  -20.4808   -1.4990    0.0000 C   0  0  0  0  0  0  0  0  0  0  0  0
  -20.3167   -2.9900    0.0000 C   0  0  0  0  0  0  0  0  0  0  0  0
  -20.0443   -4.4650    0.0000 C   0  0  0  0  0  0  0  0  0  0  0  0
  -19.6649   -5.9163    0.0000 C   0  0  0  0  0  0  0  0  0  0  0  0
  -19.1805   -7.3359    0.0000 C   0  0  0  0  0  0  0  0  0  0  0  0
  -18.5939   -8.7165    0.0000 C   0  0  0  0  0  0  0  0  0  0  0  0
  -17.9080  -10.0505    0.0000 C   0  0  0  0  0  0  0  0  0  0  0  0
  -17.1266  -11.3309    0.0000 C   0  0  0  0  0  0  0  0  0  0  0  0
  -16.2538  -12.5508    0.0000 C   0  0  0  0  0  0  0  0  0  0  0  0
  -15.2943  -13.7038    0.0000 C   0  0  0  0  0  0  0  0  0  0  0  0
  -14.2532  -14.7836    0.0000 C   0  0  0  0  0  0  0  0  0  0  0  0
  -13.1360  -15.7846    0.0000 C   0  0  0  0  0  0  0  0  0  0  0  0
  -11.9488  -16.7014    0.0000 C   0  0  0  0  0  0  0  0  0  0  0  0
  -10.6978  -17.5290    0.0000 C   0  0  0  0  0  0  0  0  0  0  0  0
   -9.3897  -18.2631    0.0000 C   0  0  0  0  0  0  0  0  0  0  0  0
   -8.0316  -18.8998    0.0000 C   0  0  0  0  0  0  0  0  0  0  0  0
   -6.6305  -19.4357    0.0000 C   0  0  0  0  0  0  0  0  0  0  0  0
   -5.1941  -19.8678    0.0000 C   0  0  0  0  0  0  0  0  0  0  0  0
   -3.7300  -20.1940    0.0000 C   0  0  0  0  0  0  0  0  0  0  0  0
   -2.2460  -20.4124    0.0000 C   0  0  0  0  0  0  0  0  0  0  0  0
   -0.7500  -20.5219    0.0000 C   0  0  0  0  0  0  0  0  0  0  0  0
    0.7500  -20.5219    0.0000 C   0  0  0  0  0  0  0  0  0  0  0  0
    2.2460  -20.4124    0.0000 C   0  0  0  0  0  0  0  0  0  0  0  0
    3.7300  -20.1940    0.0000 C   0  0  0  0  0  0  0  0  0  0  0  0
    5.1941  -19.8678    0.0000 C   0  0  0  0  0  0  0  0  0  0  0  0
    6.6305  -19.4357    0.0000 C   0  0  0  0  0  0  0  0  0  0  0  0
    8.0316  -18.8998    0.0000 C   0  0  0  0  0  0  0  0  0  0  0  0
    9.3897  -18.2631    0.0000 C   0  0  0  0  0  0  0  0  0  0  0  0
   10.6978  -17.5290    0.0000 C   0  0  0  0  0  0  0  0  0  0  0  0
   11.9488  -16.7014    0.0000 C   0  0  0  0  0  0  0  0  0  0  0  0
   13.1360  -15.7846    0.0000 C   0  0  0  0  0  0  0  0  0  0  0  0
   14.2532  -14.7836    0.0000 C   0  0  0  0  0  0  0  0  0  0  0  0
   15.2943  -13.7038    0.0000 C   0  0  0  0  0  0  0  0  0  0  0  0
   16.2538  -12.5508    0.0000 C   0  0  0  0  0  0  0  0  0  0  0  0
   17.1266  -11.3309    0.0000 C   0  0  0  0  0  0  0  0  0  0  0  0
   17.9080  -10.0505    0.0000 C   0  0  0  0  0  0  0  0  0  0  0  0
   18.5939   -8.7165    0.0000 C   0  0  0  0  0  0  0  0  0  0  0  0
   19.1805   -7.3359    0.0000 C   0  0  0  0  0  0  0  0  0  0  0  0
   19.6649   -5.9163    0.0000 C   0  0  0  0  0  0  0  0  0  0  0  0
   20.0443   -4.4650    0.0000 C   0  0  0  0  0  0  0  0  0  0  0  0
   20.3167   -2.9900    0.0000 C   0  0  0  0  0  0  0  0  0  0  0  0
   21.8007   -3.2084    0.0000 C   0  0  0  0  0  0  0  0  0  0  0  0
  1  2  1  0
  2  3  2  0
  3  4  1  0
  4  5  2  0
  5  6  1  0
  6  7  2  0
  7  8  1  0
  8  9  2  0
  9 10  1  0
 10 11  2  0
 11 12  1  0
 12 13  2  0
 13 14  1  0
 14 15  2  0
 15 16  1  0
 16 17  2  0
 17 18  1  0
 18 19  2  0
 19 20  1  0
 20 21  2  0
 21 22  1  0
 22 23  2  0
 23 24  1  0
 24 25  2  0
 25 26  1  0
 26 27  2  0
 27 28  1  0
 28 29  2  0
 29 30  1  0
 30 31  1  0
 31 32  1  0
 32 33  1  0
 33 34  1  0
 34 35  1  0
 35 36  1  0
 36 37  1  0
 37 38  1  0
 38 39  1  0
 39 40  1  0
 40 41  1  0
 41 42  1  0
 42 43  1  0
 43 44  1  0
 44 45  1  0
 45 46  1  0
 46 47  1  0
 47 48  1  0
 48 49  1  0
 49 50  1  0
 50 51  1  0
 51 52  1  0
 52 53  1  0
 53 54  1  0
 54 55  1  0
 55 56  1  0
 56 57  1  0
 57 58  1  0
 58 59  1  0
 59 60  1  0
 60 61  1  0
 61 62  1  0
 62 63  1  0
 63 64  1  0
 64 65  1  0
 65 66  1  0
 66 67  1  0
 67 68  1  0
 68 69  1  0
 69 70  1  0
 70 71  1  0
 71 72  1  0
 72 73  1  0
 73 74  1  0
 74 75  1  0
 75 76  1  0
 76 77  1  0
 77 78  1  0
 78 79  1  0
 79 80  1  0
 80 81  1  0
 81 82  1  0
 82 83  1  0
 83 84  1  0
 84 85  1  0
 85 86  1  0
 86 87  1  0
 87 88  1  0
 88 89  1  0
 89 90  1  0
 90 91  1  0
 91 92  1  0
 92 93  1  0
 93 94  1  0
 94 95  1  0
 95 96  1  0
 96 97  1  0
 97 98  1  0
 98 99  1  0
 99100  1  0
100101  1  0
101102  1  0
102103  1  0
103104  1  0
104105  1  0
105106  1  0
  7  2  1  0
 13  8  1  0
 19 14  1  0
105 20  1  0
M  END
>  <Title>  (591) 
idAAUUgen9

$$$$

     RDKit          2D

101103  0  0  0  0  0  0  0  0999 V2000
    1.0351   -6.8118    0.0000 C   0  0  0  0  0  0  0  0  0  0  0  0
    2.5083   -7.0941    0.0000 C   0  0  0  0  0  0  0  0  0  0  0  0
    2.2856   -8.5775    0.0000 C   0  0  0  0  0  0  0  0  0  0  0  0
    2.1830  -10.0740    0.0000 C   0  0  0  0  0  0  0  0  0  0  0  0
    2.2011  -11.5738    0.0000 C   0  0  0  0  0  0  0  0  0  0  0  0
    2.3399  -13.0674    0.0000 C   0  0  0  0  0  0  0  0  0  0  0  0
    2.5984  -14.5450    0.0000 C   0  0  0  0  0  0  0  0  0  0  0  0
    2.9749  -15.9969    0.0000 C   0  0  0  0  0  0  0  0  0  0  0  0
    3.4671  -17.4139    0.0000 C   0  0  0  0  0  0  0  0  0  0  0  0
    4.0717  -18.7867    0.0000 C   0  0  0  0  0  0  0  0  0  0  0  0
    4.7847  -20.1063    0.0000 C   0  0  0  0  0  0  0  0  0  0  0  0
    5.6017  -21.3643    0.0000 C   0  0  0  0  0  0  0  0  0  0  0  0
    6.5172  -22.5525    0.0000 C   0  0  0  0  0  0  0  0  0  0  0  0
    7.5254  -23.6632    0.0000 C   0  0  0  0  0  0  0  0  0  0  0  0
    8.6197  -24.6891    0.0000 C   0  0  0  0  0  0  0  0  0  0  0  0
    9.7930  -25.6237    0.0000 C   0  0  0  0  0  0  0  0  0  0  0  0
   11.0377  -26.4608    0.0000 C   0  0  0  0  0  0  0  0  0  0  0  0
   12.3457  -27.1951    0.0000 C   0  0  0  0  0  0  0  0  0  0  0  0
   13.7085  -27.8217    0.0000 C   0  0  0  0  0  0  0  0  0  0  0  0
   15.1174  -28.3366    0.0000 C   0  0  0  0  0  0  0  0  0  0  0  0
   16.5631  -28.7365    0.0000 C   0  0  0  0  0  0  0  0  0  0  0  0
   18.0363  -29.0188    0.0000 C   0  0  0  0  0  0  0  0  0  0  0  0
   19.5274  -29.1816    0.0000 C   0  0  0  0  0  0  0  0  0  0  0  0
   21.0268  -29.2238    0.0000 C   0  0  0  0  0  0  0  0  0  0  0  0
   22.5248  -29.1453    0.0000 C   0  0  0  0  0  0  0  0  0  0  0  0
   24.0115  -28.9465    0.0000 C   0  0  0  0  0  0  0  0  0  0  0  0
   25.4775  -28.6288    0.0000 C   0  0  0  0  0  0  0  0  0  0  0  0
   26.9131  -28.1941    0.0000 C   0  0  0  0  0  0  0  0  0  0  0  0
   28.3091  -27.6453    0.0000 C   0  0  0  0  0  0  0  0  0  0  0  0
   29.6564  -26.9859    0.0000 C   0  0  0  0  0  0  0  0  0  0  0  0
   30.9463  -26.2202    0.0000 C   0  0  0  0  0  0  0  0  0  0  0  0
   32.1704  -25.3533    0.0000 C   0  0  0  0  0  0  0  0  0  0  0  0
   33.3208  -24.3907    0.0000 C   0  0  0  0  0  0  0  0  0  0  0  0
   34.3899  -23.3386    0.0000 C   0  0  0  0  0  0  0  0  0  0  0  0
   35.3710  -22.2039    0.0000 C   0  0  0  0  0  0  0  0  0  0  0  0
   36.2575  -20.9939    0.0000 C   0  0  0  0  0  0  0  0  0  0  0  0
   37.0439  -19.7165    0.0000 C   0  0  0  0  0  0  0  0  0  0  0  0
   37.7248  -18.3800    0.0000 C   0  0  0  0  0  0  0  0  0  0  0  0
   38.2961  -16.9930    0.0000 C   0  0  0  0  0  0  0  0  0  0  0  0
   38.7538  -15.5646    0.0000 C   0  0  0  0  0  0  0  0  0  0  0  0
   39.0952  -14.1040    0.0000 C   0  0  0  0  0  0  0  0  0  0  0  0
   39.3179  -12.6206    0.0000 C   0  0  0  0  0  0  0  0  0  0  0  0
   39.4205  -11.1241    0.0000 C   0  0  0  0  0  0  0  0  0  0  0  0
   39.4024   -9.6242    0.0000 C   0  0  0  0  0  0  0  0  0  0  0  0
   39.2637   -8.1306    0.0000 C   0  0  0  0  0  0  0  0  0  0  0  0
   39.0052   -6.6531    0.0000 C   0  0  0  0  0  0  0  0  0  0  0  0
   38.6286   -5.2011    0.0000 C   0  0  0  0  0  0  0  0  0  0  0  0
   38.1365   -3.7842    0.0000 C   0  0  0  0  0  0  0  0  0  0  0  0
   37.5319   -2.4114    0.0000 C   0  0  0  0  0  0  0  0  0  0  0  0
   36.8188   -1.0917    0.0000 C   0  0  0  0  0  0  0  0  0  0  0  0
   36.0018    0.1663    0.0000 C   0  0  0  0  0  0  0  0  0  0  0  0
   35.0863    1.3545    0.0000 C   0  0  0  0  0  0  0  0  0  0  0  0
   34.0781    2.4651    0.0000 C   0  0  0  0  0  0  0  0  0  0  0  0
   32.9838    3.4911    0.0000 C   0  0  0  0  0  0  0  0  0  0  0  0
   31.8106    4.4256    0.0000 C   0  0  0  0  0  0  0  0  0  0  0  0
   30.5659    5.2628    0.0000 C   0  0  0  0  0  0  0  0  0  0  0  0
   29.2579    5.9970    0.0000 C   0  0  0  0  0  0  0  0  0  0  0  0
   27.8950    6.6236    0.0000 C   0  0  0  0  0  0  0  0  0  0  0  0
   26.4862    7.1385    0.0000 C   0  0  0  0  0  0  0  0  0  0  0  0
   25.0405    7.5384    0.0000 C   0  0  0  0  0  0  0  0  0  0  0  0
   23.5673    7.8207    0.0000 C   0  0  0  0  0  0  0  0  0  0  0  0
   22.0761    7.9835    0.0000 C   0  0  0  0  0  0  0  0  0  0  0  0
   20.5767    8.0258    0.0000 C   0  0  0  0  0  0  0  0  0  0  0  0
   19.0788    7.9473    0.0000 C   0  0  0  0  0  0  0  0  0  0  0  0
   17.5920    7.7485    0.0000 C   0  0  0  0  0  0  0  0  0  0  0  0
   16.1260    7.4307    0.0000 C   0  0  0  0  0  0  0  0  0  0  0  0
   14.6904    6.9960    0.0000 C   0  0  0  0  0  0  0  0  0  0  0  0
   13.2944    6.4472    0.0000 C   0  0  0  0  0  0  0  0  0  0  0  0
   11.9471    5.7878    0.0000 C   0  0  0  0  0  0  0  0  0  0  0  0
   10.6572    5.0222    0.0000 C   0  0  0  0  0  0  0  0  0  0  0  0
    9.4331    4.1552    0.0000 C   0  0  0  0  0  0  0  0  0  0  0  0
    8.2828    3.1926    0.0000 C   0  0  0  0  0  0  0  0  0  0  0  0
    7.2136    2.1405    0.0000 C   0  0  0  0  0  0  0  0  0  0  0  0
    6.2326    1.0058    0.0000 C   0  0  0  0  0  0  0  0  0  0  0  0
    5.3460   -0.2042    0.0000 C   0  0  0  0  0  0  0  0  0  0  0  0
    4.5597   -1.4815    0.0000 C   0  0  0  0  0  0  0  0  0  0  0  0
    4.0943   -0.0000    0.0000 C   0  0  0  0  0  0  0  0  0  0  0  0
    3.8939    1.2652    0.0000 C   0  0  0  0  0  0  0  0  0  0  0  0
    3.3124    2.4066    0.0000 C   0  0  0  0  0  0  0  0  0  0  0  0
    2.4066    3.3124    0.0000 C   0  0  0  0  0  0  0  0  0  0  0  0
    1.2652    3.8939    0.0000 C   0  0  0  0  0  0  0  0  0  0  0  0
    0.0000    4.0943    0.0000 C   0  0  0  0  0  0  0  0  0  0  0  0
   -1.2652    3.8939    0.0000 C   0  0  0  0  0  0  0  0  0  0  0  0
   -2.4066    3.3124    0.0000 C   0  0  0  0  0  0  0  0  0  0  0  0
   -3.3124    2.4066    0.0000 C   0  0  0  0  0  0  0  0  0  0  0  0
   -3.8939    1.2652    0.0000 C   0  0  0  0  0  0  0  0  0  0  0  0
   -4.0943    0.0000    0.0000 C   0  0  0  0  0  0  0  0  0  0  0  0
   -3.8939   -1.2652    0.0000 C   0  0  0  0  0  0  0  0  0  0  0  0
   -3.3124   -2.4066    0.0000 C   0  0  0  0  0  0  0  0  0  0  0  0
   -2.4066   -3.3124    0.0000 C   0  0  0  0  0  0  0  0  0  0  0  0
   -1.2652   -3.8939    0.0000 C   0  0  0  0  0  0  0  0  0  0  0  0
   -0.0000   -4.0943    0.0000 C   0  0  0  0  0  0  0  0  0  0  0  0
    1.2652   -3.8939    0.0000 C   0  0  0  0  0  0  0  0  0  0  0  0
    2.4066   -3.3124    0.0000 C   0  0  0  0  0  0  0  0  0  0  0  0
    3.8787   -2.8180    0.0000 C   0  0  0  0  0  0  0  0  0  0  0  0
    3.3075   -4.2050    0.0000 C   0  0  0  0  0  0  0  0  0  0  0  0
    4.7734   -3.8872    0.0000 C   0  0  0  0  0  0  0  0  0  0  0  0
    5.7816   -4.9979    0.0000 C   0  0  0  0  0  0  0  0  0  0  0  0
    5.3238   -6.4263    0.0000 C   0  0  0  0  0  0  0  0  0  0  0  0
    3.8579   -6.7441    0.0000 C   0  0  0  0  0  0  0  0  0  0  0  0
    2.8497   -5.6335    0.0000 C   0  0  0  0  0  0  0  0  0  0  0  0
  1  2  1  0
  2  3  1  0
  3  4  1  0
  4  5  1  0
  5  6  1  0
  6  7  1  0
  7  8  1  0
  8  9  1  0
  9 10  1  0
 10 11  1  0
 11 12  1  0
 12 13  1  0
 13 14  1  0
 14 15  1  0
 15 16  1  0
 16 17  1  0
 17 18  1  0
 18 19  1  0
 19 20  1  0
 20 21  1  0
 21 22  1  0
 22 23  1  0
 23 24  1  0
 24 25  1  0
 25 26  1  0
 26 27  1  0
 27 28  1  0
 28 29  1  0
 29 30  1  0
 30 31  1  0
 31 32  1  0
 32 33  1  0
 33 34  1  0
 34 35  1  0
 35 36  1  0
 36 37  1  0
 37 38  1  0
 38 39  1  0
 39 40  1  0
 40 41  1  0
 41 42  1  0
 42 43  1  0
 43 44  1  0
 44 45  1  0
 45 46  1  0
 46 47  1  0
 47 48  1  0
 48 49  1  0
 49 50  1  0
 50 51  1  0
 51 52  1  0
 52 53  1  0
 53 54  1  0
 54 55  1  0
 55 56  1  0
 56 57  1  0
 57 58  1  0
 58 59  1  0
 59 60  1  0
 60 61  1  0
 61 62  1  0
 62 63  1  0
 63 64  1  0
 64 65  1  0
 65 66  1  0
 66 67  1  0
 67 68  1  0
 68 69  1  0
 69 70  1  0
 70 71  1  0
 71 72  1  0
 72 73  1  0
 73 74  1  0
 74 75  1  0
 75 76  1  0
 76 77  1  0
 77 78  1  0
 78 79  1  0
 79 80  1  0
 80 81  1  0
 81 82  1  0
 82 83  1  0
 83 84  1  0
 84 85  1  0
 85 86  1  0
 86 87  1  0
 87 88  1  0
 88 89  1  0
 89 90  1  0
 90 91  2  0
 91 92  1  0
 92 93  2  0
 93 94  1  0
 94 95  2  0
 95 96  1  0
 96 97  2  0
 97 98  1  0
 98 99  2  0
 99100  1  0
100101  2  0
101  2  1  0
 95 76  1  0
101 96  1  0
M  END
>  <Title>  (592) 
idAAUVgen9

$$$$

     RDKit          2D

121121  0  0  0  0  0  0  0  0999 V2000
   30.1512    0.0000    0.0000 C   0  0  0  0  0  0  0  0  0  0  0  0
   28.6512    0.0000    0.0000 C   0  0  0  0  0  0  0  0  0  0  0  0
   28.6119   -1.4995    0.0000 C   0  0  0  0  0  0  0  0  0  0  0  0
   28.4942   -2.9949    0.0000 C   0  0  0  0  0  0  0  0  0  0  0  0
   28.2984   -4.4820    0.0000 C   0  0  0  0  0  0  0  0  0  0  0  0
   28.0251   -5.9569    0.0000 C   0  0  0  0  0  0  0  0  0  0  0  0
   27.6749   -7.4155    0.0000 C   0  0  0  0  0  0  0  0  0  0  0  0
   27.2489   -8.8537    0.0000 C   0  0  0  0  0  0  0  0  0  0  0  0
   26.7482  -10.2677    0.0000 C   0  0  0  0  0  0  0  0  0  0  0  0
   26.1741  -11.6535    0.0000 C   0  0  0  0  0  0  0  0  0  0  0  0
   25.5284  -13.0074    0.0000 C   0  0  0  0  0  0  0  0  0  0  0  0
   24.8126  -14.3256    0.0000 C   0  0  0  0  0  0  0  0  0  0  0  0
   24.0289  -15.6045    0.0000 C   0  0  0  0  0  0  0  0  0  0  0  0
   23.1793  -16.8407    0.0000 C   0  0  0  0  0  0  0  0  0  0  0  0
   22.2661  -18.0308    0.0000 C   0  0  0  0  0  0  0  0  0  0  0  0
   21.2920  -19.1714    0.0000 C   0  0  0  0  0  0  0  0  0  0  0  0
   20.2594  -20.2594    0.0000 C   0  0  0  0  0  0  0  0  0  0  0  0
   19.1714  -21.2920    0.0000 C   0  0  0  0  0  0  0  0  0  0  0  0
   18.0308  -22.2661    0.0000 C   0  0  0  0  0  0  0  0  0  0  0  0
   16.8407  -23.1793    0.0000 C   0  0  0  0  0  0  0  0  0  0  0  0
   15.6045  -24.0289    0.0000 C   0  0  0  0  0  0  0  0  0  0  0  0
   14.3256  -24.8126    0.0000 C   0  0  0  0  0  0  0  0  0  0  0  0
   13.0074  -25.5284    0.0000 C   0  0  0  0  0  0  0  0  0  0  0  0
   11.6535  -26.1741    0.0000 C   0  0  0  0  0  0  0  0  0  0  0  0
   10.2677  -26.7482    0.0000 C   0  0  0  0  0  0  0  0  0  0  0  0
    8.8537  -27.2489    0.0000 C   0  0  0  0  0  0  0  0  0  0  0  0
    7.4155  -27.6749    0.0000 C   0  0  0  0  0  0  0  0  0  0  0  0
    5.9569  -28.0251    0.0000 C   0  0  0  0  0  0  0  0  0  0  0  0
    4.4820  -28.2984    0.0000 C   0  0  0  0  0  0  0  0  0  0  0  0
    2.9949  -28.4942    0.0000 C   0  0  0  0  0  0  0  0  0  0  0  0
    1.4995  -28.6119    0.0000 C   0  0  0  0  0  0  0  0  0  0  0  0
   -0.0000  -28.6512    0.0000 C   0  0  0  0  0  0  0  0  0  0  0  0
   -1.4995  -28.6119    0.0000 C   0  0  0  0  0  0  0  0  0  0  0  0
   -2.9949  -28.4942    0.0000 C   0  0  0  0  0  0  0  0  0  0  0  0
   -4.4820  -28.2984    0.0000 C   0  0  0  0  0  0  0  0  0  0  0  0
   -5.9569  -28.0251    0.0000 C   0  0  0  0  0  0  0  0  0  0  0  0
   -7.4155  -27.6749    0.0000 C   0  0  0  0  0  0  0  0  0  0  0  0
   -8.8537  -27.2489    0.0000 C   0  0  0  0  0  0  0  0  0  0  0  0
  -10.2677  -26.7482    0.0000 C   0  0  0  0  0  0  0  0  0  0  0  0
  -11.6535  -26.1741    0.0000 C   0  0  0  0  0  0  0  0  0  0  0  0
  -13.0074  -25.5284    0.0000 C   0  0  0  0  0  0  0  0  0  0  0  0
  -14.3256  -24.8126    0.0000 C   0  0  0  0  0  0  0  0  0  0  0  0
  -15.6045  -24.0289    0.0000 C   0  0  0  0  0  0  0  0  0  0  0  0
  -16.8407  -23.1793    0.0000 C   0  0  0  0  0  0  0  0  0  0  0  0
  -18.0308  -22.2661    0.0000 C   0  0  0  0  0  0  0  0  0  0  0  0
  -19.1714  -21.2920    0.0000 C   0  0  0  0  0  0  0  0  0  0  0  0
  -20.2594  -20.2594    0.0000 C   0  0  0  0  0  0  0  0  0  0  0  0
  -21.2920  -19.1714    0.0000 C   0  0  0  0  0  0  0  0  0  0  0  0
  -22.2661  -18.0308    0.0000 C   0  0  0  0  0  0  0  0  0  0  0  0
  -23.1793  -16.8407    0.0000 C   0  0  0  0  0  0  0  0  0  0  0  0
  -24.0289  -15.6045    0.0000 C   0  0  0  0  0  0  0  0  0  0  0  0
  -24.8126  -14.3256    0.0000 C   0  0  0  0  0  0  0  0  0  0  0  0
  -25.5284  -13.0074    0.0000 C   0  0  0  0  0  0  0  0  0  0  0  0
  -26.1741  -11.6535    0.0000 C   0  0  0  0  0  0  0  0  0  0  0  0
  -26.7482  -10.2677    0.0000 C   0  0  0  0  0  0  0  0  0  0  0  0
  -27.2489   -8.8537    0.0000 C   0  0  0  0  0  0  0  0  0  0  0  0
  -27.6749   -7.4155    0.0000 C   0  0  0  0  0  0  0  0  0  0  0  0
  -28.0251   -5.9569    0.0000 C   0  0  0  0  0  0  0  0  0  0  0  0
  -28.2984   -4.4820    0.0000 C   0  0  0  0  0  0  0  0  0  0  0  0
  -28.4942   -2.9949    0.0000 C   0  0  0  0  0  0  0  0  0  0  0  0
  -28.6119   -1.4995    0.0000 C   0  0  0  0  0  0  0  0  0  0  0  0
  -28.6512    0.0000    0.0000 C   0  0  0  0  0  0  0  0  0  0  0  0
  -28.6119    1.4995    0.0000 C   0  0  0  0  0  0  0  0  0  0  0  0
  -28.4942    2.9949    0.0000 C   0  0  0  0  0  0  0  0  0  0  0  0
  -28.2984    4.4820    0.0000 C   0  0  0  0  0  0  0  0  0  0  0  0
  -28.0251    5.9569    0.0000 C   0  0  0  0  0  0  0  0  0  0  0  0
  -27.6749    7.4155    0.0000 C   0  0  0  0  0  0  0  0  0  0  0  0
  -27.2489    8.8537    0.0000 C   0  0  0  0  0  0  0  0  0  0  0  0
  -26.7482   10.2677    0.0000 C   0  0  0  0  0  0  0  0  0  0  0  0
  -26.1741   11.6535    0.0000 C   0  0  0  0  0  0  0  0  0  0  0  0
  -25.5284   13.0074    0.0000 C   0  0  0  0  0  0  0  0  0  0  0  0
  -24.8126   14.3256    0.0000 C   0  0  0  0  0  0  0  0  0  0  0  0
  -24.0289   15.6045    0.0000 C   0  0  0  0  0  0  0  0  0  0  0  0
  -23.1793   16.8407    0.0000 C   0  0  0  0  0  0  0  0  0  0  0  0
  -22.2661   18.0308    0.0000 C   0  0  0  0  0  0  0  0  0  0  0  0
  -21.2920   19.1714    0.0000 C   0  0  0  0  0  0  0  0  0  0  0  0
  -20.2594   20.2594    0.0000 C   0  0  0  0  0  0  0  0  0  0  0  0
  -19.1714   21.2920    0.0000 C   0  0  0  0  0  0  0  0  0  0  0  0
  -18.0308   22.2661    0.0000 C   0  0  0  0  0  0  0  0  0  0  0  0
  -16.8407   23.1793    0.0000 C   0  0  0  0  0  0  0  0  0  0  0  0
  -15.6045   24.0289    0.0000 C   0  0  0  0  0  0  0  0  0  0  0  0
  -14.3256   24.8126    0.0000 C   0  0  0  0  0  0  0  0  0  0  0  0
  -13.0074   25.5284    0.0000 C   0  0  0  0  0  0  0  0  0  0  0  0
  -11.6535   26.1741    0.0000 C   0  0  0  0  0  0  0  0  0  0  0  0
  -10.2677   26.7482    0.0000 C   0  0  0  0  0  0  0  0  0  0  0  0
   -8.8537   27.2489    0.0000 C   0  0  0  0  0  0  0  0  0  0  0  0
   -7.4155   27.6749    0.0000 C   0  0  0  0  0  0  0  0  0  0  0  0
   -5.9569   28.0251    0.0000 C   0  0  0  0  0  0  0  0  0  0  0  0
   -4.4820   28.2984    0.0000 C   0  0  0  0  0  0  0  0  0  0  0  0
   -2.9949   28.4942    0.0000 C   0  0  0  0  0  0  0  0  0  0  0  0
   -1.4995   28.6119    0.0000 C   0  0  0  0  0  0  0  0  0  0  0  0
    0.0000   28.6512    0.0000 C   0  0  0  0  0  0  0  0  0  0  0  0
    1.4995   28.6119    0.0000 C   0  0  0  0  0  0  0  0  0  0  0  0
    2.9949   28.4942    0.0000 C   0  0  0  0  0  0  0  0  0  0  0  0
    4.4820   28.2984    0.0000 C   0  0  0  0  0  0  0  0  0  0  0  0
    5.9569   28.0251    0.0000 C   0  0  0  0  0  0  0  0  0  0  0  0
    7.4155   27.6749    0.0000 C   0  0  0  0  0  0  0  0  0  0  0  0
    8.8537   27.2489    0.0000 C   0  0  0  0  0  0  0  0  0  0  0  0
   10.2677   26.7482    0.0000 C   0  0  0  0  0  0  0  0  0  0  0  0
   11.6535   26.1741    0.0000 C   0  0  0  0  0  0  0  0  0  0  0  0
   13.0074   25.5284    0.0000 C   0  0  0  0  0  0  0  0  0  0  0  0
   14.3256   24.8126    0.0000 C   0  0  0  0  0  0  0  0  0  0  0  0
   15.6045   24.0289    0.0000 C   0  0  0  0  0  0  0  0  0  0  0  0
   16.8407   23.1793    0.0000 C   0  0  0  0  0  0  0  0  0  0  0  0
   18.0308   22.2661    0.0000 C   0  0  0  0  0  0  0  0  0  0  0  0
   19.1714   21.2920    0.0000 C   0  0  0  0  0  0  0  0  0  0  0  0
   20.2594   20.2594    0.0000 C   0  0  0  0  0  0  0  0  0  0  0  0
   21.2920   19.1714    0.0000 C   0  0  0  0  0  0  0  0  0  0  0  0
   22.2661   18.0308    0.0000 C   0  0  0  0  0  0  0  0  0  0  0  0
   23.1793   16.8407    0.0000 C   0  0  0  0  0  0  0  0  0  0  0  0
   24.0289   15.6045    0.0000 C   0  0  0  0  0  0  0  0  0  0  0  0
   24.8126   14.3256    0.0000 C   0  0  0  0  0  0  0  0  0  0  0  0
   25.5284   13.0074    0.0000 C   0  0  0  0  0  0  0  0  0  0  0  0
   26.1741   11.6535    0.0000 C   0  0  0  0  0  0  0  0  0  0  0  0
   26.7482   10.2677    0.0000 C   0  0  0  0  0  0  0  0  0  0  0  0
   27.2489    8.8537    0.0000 C   0  0  0  0  0  0  0  0  0  0  0  0
   27.6749    7.4155    0.0000 C   0  0  0  0  0  0  0  0  0  0  0  0
   28.0251    5.9569    0.0000 C   0  0  0  0  0  0  0  0  0  0  0  0
   28.2984    4.4820    0.0000 C   0  0  0  0  0  0  0  0  0  0  0  0
   28.4942    2.9949    0.0000 C   0  0  0  0  0  0  0  0  0  0  0  0
   28.6119    1.4995    0.0000 C   0  0  0  0  0  0  0  0  0  0  0  0
  1  2  1  0
  2  3  1  0
  3  4  1  0
  4  5  1  0
  5  6  1  0
  6  7  1  0
  7  8  1  0
  8  9  1  0
  9 10  1  0
 10 11  1  0
 11 12  1  0
 12 13  1  0
 13 14  1  0
 14 15  1  0
 15 16  1  0
 16 17  1  0
 17 18  1  0
 18 19  1  0
 19 20  1  0
 20 21  1  0
 21 22  1  0
 22 23  1  0
 23 24  1  0
 24 25  1  0
 25 26  1  0
 26 27  1  0
 27 28  1  0
 28 29  1  0
 29 30  1  0
 30 31  1  0
 31 32  1  0
 32 33  1  0
 33 34  1  0
 34 35  1  0
 35 36  1  0
 36 37  1  0
 37 38  1  0
 38 39  1  0
 39 40  1  0
 40 41  1  0
 41 42  1  0
 42 43  1  0
 43 44  1  0
 44 45  1  0
 45 46  1  0
 46 47  1  0
 47 48  1  0
 48 49  1  0
 49 50  1  0
 50 51  1  0
 51 52  1  0
 52 53  1  0
 53 54  1  0
 54 55  1  0
 55 56  1  0
 56 57  1  0
 57 58  1  0
 58 59  1  0
 59 60  1  0
 60 61  1  0
 61 62  1  0
 62 63  1  0
 63 64  1  0
 64 65  1  0
 65 66  1  0
 66 67  1  0
 67 68  1  0
 68 69  1  0
 69 70  1  0
 70 71  1  0
 71 72  1  0
 72 73  1  0
 73 74  1  0
 74 75  1  0
 75 76  1  0
 76 77  1  0
 77 78  1  0
 78 79  1  0
 79 80  1  0
 80 81  1  0
 81 82  1  0
 82 83  1  0
 83 84  1  0
 84 85  1  0
 85 86  1  0
 86 87  1  0
 87 88  1  0
 88 89  1  0
 89 90  1  0
 90 91  1  0
 91 92  1  0
 92 93  1  0
 93 94  1  0
 94 95  1  0
 95 96  1  0
 96 97  1  0
 97 98  1  0
 98 99  1  0
 99100  1  0
100101  1  0
101102  1  0
102103  1  0
103104  1  0
104105  1  0
105106  1  0
106107  1  0
107108  1  0
108109  1  0
109110  1  0
110111  1  0
111112  1  0
112113  1  0
113114  1  0
114115  1  0
115116  1  0
116117  1  0
117118  1  0
118119  1  0
119120  1  0
120121  1  0
121  2  1  0
M  END
>  <Title>  (593) 
idAAUWgen9

$$$$

     RDKit          2D

 13 14  0  0  0  0  0  0  0  0999 V2000
    4.9992   -0.5254    0.0000 N   0  0  0  0  0  0  0  0  0  0  0  0
    3.9955   -1.6402    0.0000 C   0  0  0  0  0  0  0  0  0  0  0  0
    2.9918   -2.7549    0.0000 C   0  0  0  0  0  0  0  0  0  0  0  0
    1.5000   -2.5981    0.0000 C   0  0  0  0  0  0  0  0  0  0  0  0
    0.7500   -1.2990    0.0000 C   0  0  0  0  0  0  0  0  0  0  0  0
    1.5000    0.0000    0.0000 C   0  0  0  0  0  0  0  0  0  0  0  0
    0.7500    1.2990    0.0000 C   0  0  0  0  0  0  0  0  0  0  0  0
   -0.7500    1.2990    0.0000 C   0  0  0  0  0  0  0  0  0  0  0  0
   -1.5000    0.0000    0.0000 C   0  0  0  0  0  0  0  0  0  0  0  0
   -0.7500   -1.2990    0.0000 C   0  0  0  0  0  0  0  0  0  0  0  0
    0.8899   -3.9684    0.0000 C   0  0  0  0  0  0  0  0  0  0  0  0
    2.0046   -4.9721    0.0000 C   0  0  0  0  0  0  0  0  0  0  0  0
    3.3037   -4.2221    0.0000 C   0  0  0  0  0  0  0  0  0  0  0  0
  1  2  3  0
  2  3  1  0
  3  4  2  0
  4  5  1  0
  5  6  2  0
  6  7  1  0
  7  8  2  0
  8  9  1  0
  9 10  2  0
  4 11  1  0
 11 12  1  0
 12 13  2  0
 13  3  1  0
 10  5  1  0
M  END
>  <Title>  (594) 
idAAUXgen9

$$$$

     RDKit          2D

 23 23  0  0  0  0  0  0  0  0999 V2000
    6.7700    0.0000    0.0000 C   0  0  0  0  0  0  0  0  0  0  0  0
    5.2700    0.0000    0.0000 C   0  0  0  0  0  0  0  0  0  0  0  0
    5.0565   -1.4847    0.0000 C   0  0  0  0  0  0  0  0  0  0  0  0
    4.4334   -2.8492    0.0000 C   0  0  0  0  0  0  0  0  0  0  0  0
    3.4511   -3.9828    0.0000 C   0  0  0  0  0  0  0  0  0  0  0  0
    2.1892   -4.7938    0.0000 C   0  0  0  0  0  0  0  0  0  0  0  0
    0.7500   -5.2164    0.0000 C   0  0  0  0  0  0  0  0  0  0  0  0
   -0.7500   -5.2164    0.0000 C   0  0  0  0  0  0  0  0  0  0  0  0
   -2.1892   -4.7938    0.0000 C   0  0  0  0  0  0  0  0  0  0  0  0
   -3.4511   -3.9828    0.0000 C   0  0  0  0  0  0  0  0  0  0  0  0
   -4.4334   -2.8492    0.0000 C   0  0  0  0  0  0  0  0  0  0  0  0
   -5.0565   -1.4847    0.0000 C   0  0  0  0  0  0  0  0  0  0  0  0
   -5.2700    0.0000    0.0000 C   0  0  0  0  0  0  0  0  0  0  0  0
   -5.0565    1.4847    0.0000 C   0  0  0  0  0  0  0  0  0  0  0  0
   -4.4334    2.8492    0.0000 C   0  0  0  0  0  0  0  0  0  0  0  0
   -3.4511    3.9828    0.0000 C   0  0  0  0  0  0  0  0  0  0  0  0
   -2.1892    4.7938    0.0000 C   0  0  0  0  0  0  0  0  0  0  0  0
   -0.7500    5.2164    0.0000 C   0  0  0  0  0  0  0  0  0  0  0  0
    0.7500    5.2164    0.0000 C   0  0  0  0  0  0  0  0  0  0  0  0
    2.1892    4.7938    0.0000 C   0  0  0  0  0  0  0  0  0  0  0  0
    3.4511    3.9828    0.0000 C   0  0  0  0  0  0  0  0  0  0  0  0
    4.4334    2.8492    0.0000 C   0  0  0  0  0  0  0  0  0  0  0  0
    5.0565    1.4847    0.0000 C   0  0  0  0  0  0  0  0  0  0  0  0
  1  2  1  0
  2  3  1  0
  3  4  1  0
  4  5  2  0
  5  6  1  0
  6  7  1  0
  7  8  1  0
  8  9  1  0
  9 10  1  0
 10 11  1  0
 11 12  1  0
 12 13  1  0
 13 14  1  0
 14 15  1  0
 15 16  1  0
 16 17  1  0
 17 18  1  0
 18 19  1  0
 19 20  1  0
 20 21  1  0
 21 22  1  0
 22 23  1  0
 23  2  1  0
M  END
>  <Title>  (595) 
idAAUYgen9

$$$$

     RDKit          2D

 20 22  0  0  0  0  0  0  0  0999 V2000
   10.0355    0.6881    0.0000 C   0  0  0  0  0  0  0  0  0  0  0  0
    8.5683    0.3762    0.0000 N   0  0  0  0  0  0  0  0  0  0  0  0
    7.4536    1.3799    0.0000 C   0  0  0  0  0  0  0  0  0  0  0  0
    6.1545    0.6299    0.0000 C   0  0  0  0  0  0  0  0  0  0  0  0
    6.4664   -0.8373    0.0000 C   0  0  0  0  0  0  0  0  0  0  0  0
    5.4627   -1.9520    0.0000 C   0  0  0  0  0  0  0  0  0  0  0  0
    5.9262   -3.3786    0.0000 O   0  0  0  0  0  0  0  0  0  0  0  0
    3.9955   -1.6402    0.0000 N   0  0  0  0  0  0  0  0  0  0  0  0
    2.9918   -2.7549    0.0000 C   0  0  0  0  0  0  0  0  0  0  0  0
    3.3037   -4.2221    0.0000 N   0  0  0  0  0  0  0  0  0  0  0  0
    2.0046   -4.9721    0.0000 N   0  0  0  0  0  0  0  0  0  0  0  0
    0.8899   -3.9684    0.0000 N   0  0  0  0  0  0  0  0  0  0  0  0
    1.5000   -2.5981    0.0000 N   0  0  0  0  0  0  0  0  0  0  0  0
    0.7500   -1.2990    0.0000 C   0  0  0  0  0  0  0  0  0  0  0  0
    1.5000    0.0000    0.0000 N   0  0  0  0  0  0  0  0  0  0  0  0
    0.7500    1.2990    0.0000 N   0  0  0  0  0  0  0  0  0  0  0  0
   -0.7500    1.2990    0.0000 N   0  0  0  0  0  0  0  0  0  0  0  0
   -1.5000    0.0000    0.0000 N   0  0  0  0  0  0  0  0  0  0  0  0
   -0.7500   -1.2990    0.0000 N   0  0  0  0  0  0  0  0  0  0  0  0
    7.9582   -0.9941    0.0000 C   0  0  0  0  0  0  0  0  0  0  0  0
  1  2  1  0
  2  3  1  0
  3  4  2  0
  4  5  1  0
  5  6  1  0
  6  7  2  0
  6  8  1  0
  8  9  1  0
  9 10  2  0
 10 11  1  0
 11 12  2  0
 12 13  1  0
 13 14  1  0
 14 15  2  0
 15 16  1  0
 16 17  2  0
 17 18  1  0
 18 19  2  0
  5 20  1  0
 20  2  1  0
 13  9  1  0
 19 14  1  0
M  END
>  <Title>  (596) 
idAAUZgen9

$$$$

     RDKit          2D

 11 12  0  0  0  0  0  0  0  0999 V2000
    3.3107   -5.7342    0.0000 O   0  0  0  0  0  0  0  0  0  0  0  0
    2.5607   -4.4352    0.0000 C   0  0  0  0  0  0  0  0  0  0  0  0
    1.1118   -4.0470    0.0000 C   0  0  0  0  0  0  0  0  0  0  0  0
    1.5000   -2.5981    0.0000 C   0  0  0  0  0  0  0  0  0  0  0  0
    0.7500   -1.2990    0.0000 C   0  0  0  0  0  0  0  0  0  0  0  0
    1.5000    0.0000    0.0000 C   0  0  0  0  0  0  0  0  0  0  0  0
    0.7500    1.2990    0.0000 C   0  0  0  0  0  0  0  0  0  0  0  0
   -0.7500    1.2990    0.0000 C   0  0  0  0  0  0  0  0  0  0  0  0
   -1.5000    0.0000    0.0000 C   0  0  0  0  0  0  0  0  0  0  0  0
   -0.7500   -1.2990    0.0000 C   0  0  0  0  0  0  0  0  0  0  0  0
    2.9489   -2.9863    0.0000 O   0  0  0  0  0  0  0  0  0  0  0  0
  1  2  2  0
  2  3  1  0
  3  4  2  0
  4  5  1  0
  5  6  2  0
  6  7  1  0
  7  8  2  0
  8  9  1  0
  9 10  2  0
  4 11  1  0
 11  2  1  0
 10  5  1  0
M  END
>  <Title>  (597) 
idAAVAgen9

$$$$

     RDKit          2D

 56 64  0  0  0  0  0  0  0  0999 V2000
    5.3686   -3.7837    0.0000 C   0  0  0  0  0  0  0  0  0  0  0  0
    3.9258   -4.1942    0.0000 C   0  0  0  0  0  0  0  0  0  0  0  0
    3.2572   -2.8514    0.0000 C   0  0  0  0  0  0  0  0  0  0  0  0
    2.1487   -1.8409    0.0000 C   0  0  0  0  0  0  0  0  0  0  0  0
    2.9384   -0.5656    0.0000 C   0  0  0  0  0  0  0  0  0  0  0  0
    4.4376   -0.6118    0.0000 C   0  0  0  0  0  0  0  0  0  0  0  0
    5.1473   -1.9333    0.0000 O   0  0  0  0  0  0  0  0  0  0  0  0
    5.2273    0.6636    0.0000 N   0  0  0  0  0  0  0  0  0  0  0  0
    6.7266    0.6174    0.0000 C   0  0  0  0  0  0  0  0  0  0  0  0
    7.4362   -0.7042    0.0000 N   0  0  0  0  0  0  0  0  0  0  0  0
    8.9355   -0.7503    0.0000 N   0  0  0  0  0  0  0  0  0  0  0  0
    9.7252    0.5250    0.0000 N   0  0  0  0  0  0  0  0  0  0  0  0
    9.0155    1.8465    0.0000 N   0  0  0  0  0  0  0  0  0  0  0  0
    7.5162    1.8927    0.0000 N   0  0  0  0  0  0  0  0  0  0  0  0
    0.7500   -1.2990    0.0000 C   0  0  0  0  0  0  0  0  0  0  0  0
    1.5000    0.0000    0.0000 C   0  0  0  0  0  0  0  0  0  0  0  0
    0.7500    1.2990    0.0000 C   0  0  0  0  0  0  0  0  0  0  0  0
   -0.7500    1.2990    0.0000 C   0  0  0  0  0  0  0  0  0  0  0  0
   -1.5000    0.0000    0.0000 C   0  0  0  0  0  0  0  0  0  0  0  0
   -0.7500   -1.2990    0.0000 C   0  0  0  0  0  0  0  0  0  0  0  0
   -2.1487   -1.8409    0.0000 C   0  0  0  0  0  0  0  0  0  0  0  0
   -2.4696   -0.3756    0.0000 C   0  0  0  0  0  0  0  0  0  0  0  0
   -3.8990    0.0791    0.0000 C   0  0  0  0  0  0  0  0  0  0  0  0
   -5.0075   -0.9314    0.0000 C   0  0  0  0  0  0  0  0  0  0  0  0
   -4.6866   -2.3967    0.0000 C   0  0  0  0  0  0  0  0  0  0  0  0
   -3.2572   -2.8514    0.0000 C   0  0  0  0  0  0  0  0  0  0  0  0
   -3.9258   -4.1942    0.0000 C   0  0  0  0  0  0  0  0  0  0  0  0
   -5.1501   -3.3275    0.0000 C   0  0  0  0  0  0  0  0  0  0  0  0
   -6.5128   -3.9545    0.0000 C   0  0  0  0  0  0  0  0  0  0  0  0
   -6.6512   -5.4481    0.0000 C   0  0  0  0  0  0  0  0  0  0  0  0
   -5.4269   -6.3147    0.0000 C   0  0  0  0  0  0  0  0  0  0  0  0
   -4.0642   -5.6878    0.0000 C   0  0  0  0  0  0  0  0  0  0  0  0
   -3.6537   -7.1305    0.0000 C   0  0  0  0  0  0  0  0  0  0  0  0
   -5.1424   -7.3149    0.0000 C   0  0  0  0  0  0  0  0  0  0  0  0
   -5.7270   -8.6962    0.0000 C   0  0  0  0  0  0  0  0  0  0  0  0
   -4.8231   -9.8932    0.0000 C   0  0  0  0  0  0  0  0  0  0  0  0
   -3.3345   -9.7089    0.0000 C   0  0  0  0  0  0  0  0  0  0  0  0
   -2.7498   -8.3276    0.0000 C   0  0  0  0  0  0  0  0  0  0  0  0
   -1.4745   -9.1172    0.0000 C   0  0  0  0  0  0  0  0  0  0  0  0
   -2.4504  -10.2563    0.0000 C   0  0  0  0  0  0  0  0  0  0  0  0
   -1.9519  -11.6710    0.0000 C   0  0  0  0  0  0  0  0  0  0  0  0
   -0.4774  -11.9467    0.0000 C   0  0  0  0  0  0  0  0  0  0  0  0
    0.4985  -10.8076    0.0000 C   0  0  0  0  0  0  0  0  0  0  0  0
   -0.0000   -9.3928    0.0000 C   0  0  0  0  0  0  0  0  0  0  0  0
    1.4745   -9.1172    0.0000 C   0  0  0  0  0  0  0  0  0  0  0  0
    1.5207  -10.6165    0.0000 C   0  0  0  0  0  0  0  0  0  0  0  0
    2.8422  -11.3261    0.0000 C   0  0  0  0  0  0  0  0  0  0  0  0
    4.1175  -10.5365    0.0000 C   0  0  0  0  0  0  0  0  0  0  0  0
    4.0713   -9.0372    0.0000 C   0  0  0  0  0  0  0  0  0  0  0  0
    2.7498   -8.3276    0.0000 C   0  0  0  0  0  0  0  0  0  0  0  0
    3.6537   -7.1305    0.0000 C   0  0  0  0  0  0  0  0  0  0  0  0
    4.6979   -8.2074    0.0000 C   0  0  0  0  0  0  0  0  0  0  0  0
    6.1526   -7.8415    0.0000 C   0  0  0  0  0  0  0  0  0  0  0  0
    6.5631   -6.3988    0.0000 C   0  0  0  0  0  0  0  0  0  0  0  0
    5.5189   -5.3219    0.0000 C   0  0  0  0  0  0  0  0  0  0  0  0
    4.0642   -5.6878    0.0000 C   0  0  0  0  0  0  0  0  0  0  0  0
  1  2  1  0
  2  3  2  0
  3  4  1  0
  4  5  1  0
  5  6  1  0
  6  7  2  0
  6  8  1  0
  8  9  1  0
  9 10  2  0
 10 11  1  0
 11 12  2  0
 12 13  1  0
 13 14  2  0
  4 15  1  0
 15 16  2  0
 16 17  1  0
 17 18  2  0
 18 19  1  0
 19 20  2  0
 20 21  1  0
 21 22  2  0
 22 23  1  0
 23 24  2  0
 24 25  1  0
 25 26  2  0
 26 27  1  0
 27 28  2  0
 28 29  1  0
 29 30  2  0
 30 31  1  0
 31 32  2  0
 32 33  1  0
 33 34  2  0
 34 35  1  0
 35 36  2  0
 36 37  1  0
 37 38  2  0
 38 39  1  0
 39 40  2  0
 40 41  1  0
 41 42  2  0
 42 43  1  0
 43 44  2  0
 44 45  1  0
 45 46  2  0
 46 47  1  0
 47 48  2  0
 48 49  1  0
 49 50  2  0
 50 51  1  0
 51 52  2  0
 52 53  1  0
 53 54  2  0
 54 55  1  0
 55 56  2  0
 56  2  1  0
 14  9  1  0
 20 15  1  0
 26 21  1  0
 32 27  1  0
 38 33  1  0
 44 39  1  0
 50 45  1  0
 56 51  1  0
M  END
>  <Title>  (598) 
idAAVBgen9

$$$$

     RDKit          2D

 80 84  0  0  0  0  0  0  0  0999 V2000
   -4.6068   11.7044    0.0000 C   0  0  0  0  0  0  0  0  0  0  0  0
   -3.1083   11.7709    0.0000 C   0  0  0  0  0  0  0  0  0  0  0  0
   -3.0935   13.2708    0.0000 C   0  0  0  0  0  0  0  0  0  0  0  0
   -2.9167   14.7603    0.0000 C   0  0  0  0  0  0  0  0  0  0  0  0
   -2.5798   16.2220    0.0000 C   0  0  0  0  0  0  0  0  0  0  0  0
   -2.0869   17.6387    0.0000 C   0  0  0  0  0  0  0  0  0  0  0  0
   -1.4437   18.9938    0.0000 C   0  0  0  0  0  0  0  0  0  0  0  0
   -0.6577   20.2714    0.0000 C   0  0  0  0  0  0  0  0  0  0  0  0
    0.2617   21.4566    0.0000 C   0  0  0  0  0  0  0  0  0  0  0  0
    1.3040   22.5354    0.0000 C   0  0  0  0  0  0  0  0  0  0  0  0
    2.4567   23.4951    0.0000 C   0  0  0  0  0  0  0  0  0  0  0  0
    3.7065   24.3246    0.0000 C   0  0  0  0  0  0  0  0  0  0  0  0
    5.0386   25.0142    0.0000 C   0  0  0  0  0  0  0  0  0  0  0  0
    6.4375   25.5556    0.0000 C   0  0  0  0  0  0  0  0  0  0  0  0
    7.8867   25.9427    0.0000 C   0  0  0  0  0  0  0  0  0  0  0  0
    9.3692   26.1707    0.0000 C   0  0  0  0  0  0  0  0  0  0  0  0
   10.8678   26.2372    0.0000 C   0  0  0  0  0  0  0  0  0  0  0  0
   12.3647   26.1412    0.0000 C   0  0  0  0  0  0  0  0  0  0  0  0
   13.8425   25.8840    0.0000 C   0  0  0  0  0  0  0  0  0  0  0  0
   15.2838   25.4685    0.0000 C   0  0  0  0  0  0  0  0  0  0  0  0
   16.6717   24.8996    0.0000 C   0  0  0  0  0  0  0  0  0  0  0  0
   17.9900   24.1840    0.0000 C   0  0  0  0  0  0  0  0  0  0  0  0
   19.2232   23.3300    0.0000 C   0  0  0  0  0  0  0  0  0  0  0  0
   20.3568   22.3477    0.0000 C   0  0  0  0  0  0  0  0  0  0  0  0
   21.3776   21.2486    0.0000 C   0  0  0  0  0  0  0  0  0  0  0  0
   22.2735   20.0456    0.0000 C   0  0  0  0  0  0  0  0  0  0  0  0
   23.0342   18.7528    0.0000 C   0  0  0  0  0  0  0  0  0  0  0  0
   23.6506   17.3853    0.0000 C   0  0  0  0  0  0  0  0  0  0  0  0
   24.1155   15.9591    0.0000 C   0  0  0  0  0  0  0  0  0  0  0  0
   24.4235   14.4911    0.0000 C   0  0  0  0  0  0  0  0  0  0  0  0
   24.5710   12.9984    0.0000 C   0  0  0  0  0  0  0  0  0  0  0  0
   24.5562   11.4984    0.0000 C   0  0  0  0  0  0  0  0  0  0  0  0
   24.3794   10.0089    0.0000 C   0  0  0  0  0  0  0  0  0  0  0  0
   24.0425    8.5472    0.0000 C   0  0  0  0  0  0  0  0  0  0  0  0
   23.5496    7.1305    0.0000 C   0  0  0  0  0  0  0  0  0  0  0  0
   22.9064    5.7754    0.0000 C   0  0  0  0  0  0  0  0  0  0  0  0
   22.1204    4.4978    0.0000 C   0  0  0  0  0  0  0  0  0  0  0  0
   21.2009    3.3127    0.0000 C   0  0  0  0  0  0  0  0  0  0  0  0
   20.1587    2.2339    0.0000 C   0  0  0  0  0  0  0  0  0  0  0  0
   19.0060    1.2741    0.0000 C   0  0  0  0  0  0  0  0  0  0  0  0
   17.7562    0.4446    0.0000 C   0  0  0  0  0  0  0  0  0  0  0  0
   16.4241   -0.2449    0.0000 C   0  0  0  0  0  0  0  0  0  0  0  0
   15.0252   -0.7864    0.0000 C   0  0  0  0  0  0  0  0  0  0  0  0
   13.5760   -1.1734    0.0000 C   0  0  0  0  0  0  0  0  0  0  0  0
   12.0934   -1.4015    0.0000 C   0  0  0  0  0  0  0  0  0  0  0  0
   10.5949   -1.4680    0.0000 C   0  0  0  0  0  0  0  0  0  0  0  0
    9.0980   -1.3720    0.0000 C   0  0  0  0  0  0  0  0  0  0  0  0
    7.6202   -1.1148    0.0000 C   0  0  0  0  0  0  0  0  0  0  0  0
    6.1789   -0.6993    0.0000 C   0  0  0  0  0  0  0  0  0  0  0  0
    4.7910   -0.1304    0.0000 C   0  0  0  0  0  0  0  0  0  0  0  0
    3.4727    0.5853    0.0000 C   0  0  0  0  0  0  0  0  0  0  0  0
    2.2395    1.4392    0.0000 C   0  0  0  0  0  0  0  0  0  0  0  0
    2.6621    0.0000    0.0000 C   0  0  0  0  0  0  0  0  0  0  0  0
    2.2395   -1.4392    0.0000 C   0  0  0  0  0  0  0  0  0  0  0  0
    1.1059   -2.4215    0.0000 C   0  0  0  0  0  0  0  0  0  0  0  0
   -0.3789   -2.6350    0.0000 C   0  0  0  0  0  0  0  0  0  0  0  0
   -1.7433   -2.0119    0.0000 C   0  0  0  0  0  0  0  0  0  0  0  0
   -2.5543   -0.7500    0.0000 C   0  0  0  0  0  0  0  0  0  0  0  0
   -2.5543    0.7500    0.0000 C   0  0  0  0  0  0  0  0  0  0  0  0
   -1.7433    2.0119    0.0000 C   0  0  0  0  0  0  0  0  0  0  0  0
   -0.3789    2.6350    0.0000 C   0  0  0  0  0  0  0  0  0  0  0  0
    1.1059    2.4215    0.0000 C   0  0  0  0  0  0  0  0  0  0  0  0
    0.0851    3.5206    0.0000 C   0  0  0  0  0  0  0  0  0  0  0  0
    1.5749    3.6950    0.0000 C   0  0  0  0  0  0  0  0  0  0  0  0
    2.1688    5.0725    0.0000 C   0  0  0  0  0  0  0  0  0  0  0  0
    1.2728    6.2755    0.0000 C   0  0  0  0  0  0  0  0  0  0  0  0
   -0.2170    6.1011    0.0000 C   0  0  0  0  0  0  0  0  0  0  0  0
   -0.8109    4.7237    0.0000 C   0  0  0  0  0  0  0  0  0  0  0  0
   -1.5715    6.0165    0.0000 C   0  0  0  0  0  0  0  0  0  0  0  0
   -2.4476    4.7989    0.0000 C   0  0  0  0  0  0  0  0  0  0  0  0
   -3.9401    4.9489    0.0000 C   0  0  0  0  0  0  0  0  0  0  0  0
   -4.5565    6.3164    0.0000 C   0  0  0  0  0  0  0  0  0  0  0  0
   -3.6804    7.5339    0.0000 C   0  0  0  0  0  0  0  0  0  0  0  0
   -2.1879    7.3840    0.0000 C   0  0  0  0  0  0  0  0  0  0  0  0
   -2.6528    8.8101    0.0000 C   0  0  0  0  0  0  0  0  0  0  0  0
   -1.2275    8.3428    0.0000 C   0  0  0  0  0  0  0  0  0  0  0  0
   -0.1101    9.3436    0.0000 C   0  0  0  0  0  0  0  0  0  0  0  0
   -0.4181   10.8116    0.0000 C   0  0  0  0  0  0  0  0  0  0  0  0
   -1.8435   11.2789    0.0000 C   0  0  0  0  0  0  0  0  0  0  0  0
   -2.9608   10.2782    0.0000 C   0  0  0  0  0  0  0  0  0  0  0  0
  1  2  1  0
  2  3  1  0
  3  4  1  0
  4  5  1  0
  5  6  1  0
  6  7  1  0
  7  8  1  0
  8  9  1  0
  9 10  1  0
 10 11  1  0
 11 12  1  0
 12 13  1  0
 13 14  1  0
 14 15  1  0
 15 16  1  0
 16 17  1  0
 17 18  1  0
 18 19  1  0
 19 20  1  0
 20 21  1  0
 21 22  1  0
 22 23  1  0
 23 24  1  0
 24 25  1  0
 25 26  1  0
 26 27  1  0
 27 28  1  0
 28 29  1  0
 29 30  1  0
 30 31  1  0
 31 32  1  0
 32 33  1  0
 33 34  1  0
 34 35  1  0
 35 36  1  0
 36 37  1  0
 37 38  1  0
 38 39  1  0
 39 40  1  0
 40 41  1  0
 41 42  1  0
 42 43  1  0
 43 44  1  0
 44 45  1  0
 45 46  1  0
 46 47  1  0
 47 48  1  0
 48 49  1  0
 49 50  1  0
 50 51  1  0
 51 52  1  0
 52 53  1  0
 53 54  1  0
 54 55  1  0
 55 56  2  0
 56 57  1  0
 57 58  2  0
 58 59  1  0
 59 60  2  0
 60 61  1  0
 61 62  2  0
 62 63  1  0
 63 64  2  0
 64 65  1  0
 65 66  2  0
 66 67  1  0
 67 68  2  0
 68 69  1  0
 69 70  2  0
 70 71  1  0
 71 72  2  0
 72 73  1  0
 73 74  2  0
 74 75  1  0
 75 76  2  0
 76 77  1  0
 77 78  2  0
 78 79  1  0
 79 80  2  0
 80  2  1  0
 62 52  1  0
 68 63  1  0
 74 69  1  0
 80 75  1  0
M  END
>  <Title>  (599) 
idAAVCgen9

$$$$

     RDKit          2D

 58 66  0  0  0  0  0  0  0  0999 V2000
    5.8191   -5.5525    0.0000 C   0  0  0  0  0  0  0  0  0  0  0  0
    4.3191   -5.5525    0.0000 C   0  0  0  0  0  0  0  0  0  0  0  0
    4.0586   -4.0753    0.0000 C   0  0  0  0  0  0  0  0  0  0  0  0
    3.3086   -2.7762    0.0000 C   0  0  0  0  0  0  0  0  0  0  0  0
    2.1595   -1.8121    0.0000 C   0  0  0  0  0  0  0  0  0  0  0  0
    2.9095   -0.5130    0.0000 C   0  0  0  0  0  0  0  0  0  0  0  0
    2.1595    0.7860    0.0000 O   0  0  0  0  0  0  0  0  0  0  0  0
    4.4095   -0.5130    0.0000 N   0  0  0  0  0  0  0  0  0  0  0  0
    5.1595    0.7860    0.0000 C   0  0  0  0  0  0  0  0  0  0  0  0
    6.6595    0.7860    0.0000 N   0  0  0  0  0  0  0  0  0  0  0  0
    7.4095    2.0850    0.0000 N   0  0  0  0  0  0  0  0  0  0  0  0
    6.6595    3.3841    0.0000 N   0  0  0  0  0  0  0  0  0  0  0  0
    5.1595    3.3841    0.0000 N   0  0  0  0  0  0  0  0  0  0  0  0
    4.4095    2.0850    0.0000 N   0  0  0  0  0  0  0  0  0  0  0  0
    0.7500   -1.2990    0.0000 C   0  0  0  0  0  0  0  0  0  0  0  0
    1.5000    0.0000    0.0000 C   0  0  0  0  0  0  0  0  0  0  0  0
    0.7500    1.2990    0.0000 C   0  0  0  0  0  0  0  0  0  0  0  0
   -0.7500    1.2990    0.0000 C   0  0  0  0  0  0  0  0  0  0  0  0
   -1.5000    0.0000    0.0000 C   0  0  0  0  0  0  0  0  0  0  0  0
   -0.7500   -1.2990    0.0000 C   0  0  0  0  0  0  0  0  0  0  0  0
   -2.1595   -1.8121    0.0000 C   0  0  0  0  0  0  0  0  0  0  0  0
   -2.4200   -0.3349    0.0000 C   0  0  0  0  0  0  0  0  0  0  0  0
   -3.8296    0.1782    0.0000 C   0  0  0  0  0  0  0  0  0  0  0  0
   -4.9786   -0.7860    0.0000 C   0  0  0  0  0  0  0  0  0  0  0  0
   -4.7181   -2.2632    0.0000 C   0  0  0  0  0  0  0  0  0  0  0  0
   -3.3086   -2.7762    0.0000 C   0  0  0  0  0  0  0  0  0  0  0  0
   -4.0586   -4.0753    0.0000 C   0  0  0  0  0  0  0  0  0  0  0  0
   -5.2077   -3.1111    0.0000 C   0  0  0  0  0  0  0  0  0  0  0  0
   -6.6172   -3.6241    0.0000 C   0  0  0  0  0  0  0  0  0  0  0  0
   -6.8777   -5.1013    0.0000 C   0  0  0  0  0  0  0  0  0  0  0  0
   -8.2872   -5.6144    0.0000 C   0  0  0  0  0  0  0  0  0  0  0  0
   -9.6968   -6.1274    0.0000 N   0  0  0  0  0  0  0  0  0  0  0  0
   -5.7286   -6.0655    0.0000 C   0  0  0  0  0  0  0  0  0  0  0  0
   -4.3191   -5.5525    0.0000 C   0  0  0  0  0  0  0  0  0  0  0  0
   -4.0586   -7.0297    0.0000 C   0  0  0  0  0  0  0  0  0  0  0  0
   -5.5586   -7.0297    0.0000 C   0  0  0  0  0  0  0  0  0  0  0  0
   -6.3086   -8.3287    0.0000 C   0  0  0  0  0  0  0  0  0  0  0  0
   -5.5586   -9.6278    0.0000 C   0  0  0  0  0  0  0  0  0  0  0  0
   -4.0586   -9.6278    0.0000 C   0  0  0  0  0  0  0  0  0  0  0  0
   -3.3086   -8.3287    0.0000 C   0  0  0  0  0  0  0  0  0  0  0  0
   -2.1595   -9.2929    0.0000 C   0  0  0  0  0  0  0  0  0  0  0  0
   -3.3086  -10.2571    0.0000 C   0  0  0  0  0  0  0  0  0  0  0  0
   -3.0481  -11.7343    0.0000 C   0  0  0  0  0  0  0  0  0  0  0  0
   -1.6386  -12.2474    0.0000 C   0  0  0  0  0  0  0  0  0  0  0  0
   -0.4895  -11.2832    0.0000 C   0  0  0  0  0  0  0  0  0  0  0  0
   -0.7500   -9.8060    0.0000 C   0  0  0  0  0  0  0  0  0  0  0  0
    0.7500   -9.8060    0.0000 C   0  0  0  0  0  0  0  0  0  0  0  0
    0.4895  -11.2832    0.0000 C   0  0  0  0  0  0  0  0  0  0  0  0
    1.6386  -12.2474    0.0000 C   0  0  0  0  0  0  0  0  0  0  0  0
    3.0481  -11.7343    0.0000 C   0  0  0  0  0  0  0  0  0  0  0  0
    3.3086  -10.2571    0.0000 C   0  0  0  0  0  0  0  0  0  0  0  0
    2.1595   -9.2929    0.0000 C   0  0  0  0  0  0  0  0  0  0  0  0
    3.3086   -8.3287    0.0000 C   0  0  0  0  0  0  0  0  0  0  0  0
    4.0586   -9.6278    0.0000 C   0  0  0  0  0  0  0  0  0  0  0  0
    5.5586   -9.6278    0.0000 C   0  0  0  0  0  0  0  0  0  0  0  0
    6.3086   -8.3287    0.0000 C   0  0  0  0  0  0  0  0  0  0  0  0
    5.5586   -7.0297    0.0000 C   0  0  0  0  0  0  0  0  0  0  0  0
    4.0586   -7.0297    0.0000 C   0  0  0  0  0  0  0  0  0  0  0  0
  1  2  1  0
  2  3  1  0
  3  4  1  0
  4  5  1  0
  5  6  1  0
  6  7  2  0
  6  8  1  0
  8  9  1  0
  9 10  2  0
 10 11  1  0
 11 12  2  0
 12 13  1  0
 13 14  2  0
  5 15  1  0
 15 16  2  0
 16 17  1  0
 17 18  2  0
 18 19  1  0
 19 20  2  0
 20 21  1  0
 21 22  2  0
 22 23  1  0
 23 24  2  0
 24 25  1  0
 25 26  2  0
 26 27  1  0
 27 28  2  0
 28 29  1  0
 29 30  2  0
 30 31  1  0
 31 32  3  0
 30 33  1  0
 33 34  2  0
 34 35  1  0
 35 36  2  0
 36 37  1  0
 37 38  2  0
 38 39  1  0
 39 40  2  0
 40 41  1  0
 41 42  2  0
 42 43  1  0
 43 44  2  0
 44 45  1  0
 45 46  2  0
 46 47  1  0
 47 48  2  0
 48 49  1  0
 49 50  2  0
 50 51  1  0
 51 52  2  0
 52 53  1  0
 53 54  2  0
 54 55  1  0
 55 56  2  0
 56 57  1  0
 57 58  2  0
 58  2  1  0
 14  9  1  0
 20 15  1  0
 26 21  1  0
 34 27  1  0
 40 35  1  0
 46 41  1  0
 52 47  1  0
 58 53  1  0
M  END
>  <Title>  (600) 
idAAVDgen9

$$$$

     RDKit          2D

 19 20  0  0  0  0  0  0  0  0999 V2000
    4.7193    6.1170    0.0000 C   0  0  0  0  0  0  0  0  0  0  0  0
    4.2558    4.6904    0.0000 C   0  0  0  0  0  0  0  0  0  0  0  0
    2.7886    4.3786    0.0000 C   0  0  0  0  0  0  0  0  0  0  0  0
    2.3250    2.9520    0.0000 C   0  0  0  0  0  0  0  0  0  0  0  0
    0.8578    2.6401    0.0000 C   0  0  0  0  0  0  0  0  0  0  0  0
   -0.1459    3.7548    0.0000 O   0  0  0  0  0  0  0  0  0  0  0  0
    0.3943    1.2135    0.0000 N   0  0  0  0  0  0  0  0  0  0  0  0
    1.2760    0.0000    0.0000 C   0  0  0  0  0  0  0  0  0  0  0  0
    0.3943   -1.2135    0.0000 C   0  0  0  0  0  0  0  0  0  0  0  0
   -1.0323   -0.7500    0.0000 C   0  0  0  0  0  0  0  0  0  0  0  0
   -2.2458   -1.6317    0.0000 C   0  0  0  0  0  0  0  0  0  0  0  0
   -2.0890   -3.1235    0.0000 O   0  0  0  0  0  0  0  0  0  0  0  0
   -3.6161   -1.0216    0.0000 O   0  0  0  0  0  0  0  0  0  0  0  0
   -1.0323    0.7500    0.0000 C   0  0  0  0  0  0  0  0  0  0  0  0
   -2.2458    1.6317    0.0000 O   0  0  0  0  0  0  0  0  0  0  0  0
    1.7849    5.4933    0.0000 C   0  0  0  0  0  0  0  0  0  0  0  0
    0.5128    4.6984    0.0000 C   0  0  0  0  0  0  0  0  0  0  0  0
    1.2230    6.8841    0.0000 C   0  0  0  0  0  0  0  0  0  0  0  0
    2.7084    6.6753    0.0000 C   0  0  0  0  0  0  0  0  0  0  0  0
  1  2  1  0
  2  3  2  3
  3  4  1  0
  4  5  1  0
  5  6  2  0
  5  7  1  0
  7  8  1  0
  8  9  1  0
  9 10  1  0
 10 11  1  0
 11 12  2  0
 11 13  1  0
 10 14  1  0
 14 15  2  0
  3 16  1  0
 16 17  1  0
 16 18  1  0
 18 19  2  0
 14  7  1  0
 19 16  1  0
M  END
>  <Title>  (601) 
idAAVEgen9

$$$$

     RDKit          2D

106108  0  0  0  0  0  0  0  0999 V2000
   -5.5432   -0.4180    0.0000 C   0  0  0  0  0  0  0  0  0  0  0  0
   -5.2061   -1.8796    0.0000 C   0  0  0  0  0  0  0  0  0  0  0  0
   -6.6560   -2.2639    0.0000 C   0  0  0  0  0  0  0  0  0  0  0  0
   -8.0780   -2.7413    0.0000 C   0  0  0  0  0  0  0  0  0  0  0  0
   -9.4661   -3.3097    0.0000 C   0  0  0  0  0  0  0  0  0  0  0  0
  -10.8146   -3.9667    0.0000 C   0  0  0  0  0  0  0  0  0  0  0  0
  -12.1176   -4.7097    0.0000 C   0  0  0  0  0  0  0  0  0  0  0  0
  -13.3699   -5.5355    0.0000 C   0  0  0  0  0  0  0  0  0  0  0  0
  -14.5660   -6.4406    0.0000 C   0  0  0  0  0  0  0  0  0  0  0  0
  -15.7011   -7.4212    0.0000 C   0  0  0  0  0  0  0  0  0  0  0  0
  -16.7703   -8.4732    0.0000 C   0  0  0  0  0  0  0  0  0  0  0  0
  -17.7692   -9.5923    0.0000 C   0  0  0  0  0  0  0  0  0  0  0  0
  -18.6935  -10.7736    0.0000 C   0  0  0  0  0  0  0  0  0  0  0  0
  -19.5395  -12.0123    0.0000 C   0  0  0  0  0  0  0  0  0  0  0  0
  -20.3034  -13.3032    0.0000 C   0  0  0  0  0  0  0  0  0  0  0  0
  -20.9823  -14.6408    0.0000 C   0  0  0  0  0  0  0  0  0  0  0  0
  -21.5731  -16.0195    0.0000 C   0  0  0  0  0  0  0  0  0  0  0  0
  -22.0734  -17.4336    0.0000 C   0  0  0  0  0  0  0  0  0  0  0  0
  -22.4812  -18.8772    0.0000 C   0  0  0  0  0  0  0  0  0  0  0  0
  -22.7946  -20.3440    0.0000 C   0  0  0  0  0  0  0  0  0  0  0  0
  -23.0124  -21.8281    0.0000 C   0  0  0  0  0  0  0  0  0  0  0  0
  -23.1338  -23.3232    0.0000 C   0  0  0  0  0  0  0  0  0  0  0  0
  -23.1581  -24.8230    0.0000 C   0  0  0  0  0  0  0  0  0  0  0  0
  -23.0852  -26.3213    0.0000 C   0  0  0  0  0  0  0  0  0  0  0  0
  -22.9155  -27.8116    0.0000 C   0  0  0  0  0  0  0  0  0  0  0  0
  -22.6498  -29.2879    0.0000 C   0  0  0  0  0  0  0  0  0  0  0  0
  -22.2890  -30.7439    0.0000 C   0  0  0  0  0  0  0  0  0  0  0  0
  -21.8347  -32.1734    0.0000 C   0  0  0  0  0  0  0  0  0  0  0  0
  -21.2888  -33.5706    0.0000 C   0  0  0  0  0  0  0  0  0  0  0  0
  -20.6537  -34.9295    0.0000 C   0  0  0  0  0  0  0  0  0  0  0  0
  -19.9319  -36.2444    0.0000 C   0  0  0  0  0  0  0  0  0  0  0  0
  -19.1265  -37.5098    0.0000 C   0  0  0  0  0  0  0  0  0  0  0  0
  -18.2409  -38.7205    0.0000 C   0  0  0  0  0  0  0  0  0  0  0  0
  -17.2788  -39.8713    0.0000 C   0  0  0  0  0  0  0  0  0  0  0  0
  -16.2442  -40.9574    0.0000 C   0  0  0  0  0  0  0  0  0  0  0  0
  -15.1415  -41.9743    0.0000 C   0  0  0  0  0  0  0  0  0  0  0  0
  -13.9753  -42.9176    0.0000 C   0  0  0  0  0  0  0  0  0  0  0  0
  -12.7504  -43.7835    0.0000 C   0  0  0  0  0  0  0  0  0  0  0  0
  -11.4721  -44.5683    0.0000 C   0  0  0  0  0  0  0  0  0  0  0  0
  -10.1457  -45.2687    0.0000 C   0  0  0  0  0  0  0  0  0  0  0  0
   -8.7767  -45.8818    0.0000 C   0  0  0  0  0  0  0  0  0  0  0  0
   -7.3709  -46.4049    0.0000 C   0  0  0  0  0  0  0  0  0  0  0  0
   -5.9341  -46.8360    0.0000 C   0  0  0  0  0  0  0  0  0  0  0  0
   -4.4725  -47.1731    0.0000 C   0  0  0  0  0  0  0  0  0  0  0  0
   -2.9921  -47.4150    0.0000 C   0  0  0  0  0  0  0  0  0  0  0  0
   -1.4992  -47.5605    0.0000 C   0  0  0  0  0  0  0  0  0  0  0  0
   -0.0000  -47.6091    0.0000 C   0  0  0  0  0  0  0  0  0  0  0  0
    1.4992  -47.5605    0.0000 C   0  0  0  0  0  0  0  0  0  0  0  0
    2.9921  -47.4150    0.0000 C   0  0  0  0  0  0  0  0  0  0  0  0
    4.4725  -47.1731    0.0000 C   0  0  0  0  0  0  0  0  0  0  0  0
    5.9341  -46.8360    0.0000 C   0  0  0  0  0  0  0  0  0  0  0  0
    7.3709  -46.4049    0.0000 C   0  0  0  0  0  0  0  0  0  0  0  0
    8.7767  -45.8818    0.0000 C   0  0  0  0  0  0  0  0  0  0  0  0
   10.1457  -45.2687    0.0000 C   0  0  0  0  0  0  0  0  0  0  0  0
   11.4721  -44.5683    0.0000 C   0  0  0  0  0  0  0  0  0  0  0  0
   12.7504  -43.7835    0.0000 C   0  0  0  0  0  0  0  0  0  0  0  0
   13.9753  -42.9176    0.0000 C   0  0  0  0  0  0  0  0  0  0  0  0
   15.1415  -41.9743    0.0000 C   0  0  0  0  0  0  0  0  0  0  0  0
   16.2442  -40.9574    0.0000 C   0  0  0  0  0  0  0  0  0  0  0  0
   17.2788  -39.8713    0.0000 C   0  0  0  0  0  0  0  0  0  0  0  0
   18.2409  -38.7205    0.0000 C   0  0  0  0  0  0  0  0  0  0  0  0
   19.1265  -37.5098    0.0000 C   0  0  0  0  0  0  0  0  0  0  0  0
   19.9319  -36.2444    0.0000 C   0  0  0  0  0  0  0  0  0  0  0  0
   20.6537  -34.9295    0.0000 C   0  0  0  0  0  0  0  0  0  0  0  0
   21.2888  -33.5706    0.0000 C   0  0  0  0  0  0  0  0  0  0  0  0
   21.8347  -32.1734    0.0000 C   0  0  0  0  0  0  0  0  0  0  0  0
   22.2890  -30.7439    0.0000 C   0  0  0  0  0  0  0  0  0  0  0  0
   22.6498  -29.2879    0.0000 C   0  0  0  0  0  0  0  0  0  0  0  0
   22.9155  -27.8116    0.0000 C   0  0  0  0  0  0  0  0  0  0  0  0
   23.0852  -26.3213    0.0000 C   0  0  0  0  0  0  0  0  0  0  0  0
   23.1581  -24.8230    0.0000 C   0  0  0  0  0  0  0  0  0  0  0  0
   23.1338  -23.3232    0.0000 C   0  0  0  0  0  0  0  0  0  0  0  0
   23.0124  -21.8281    0.0000 C   0  0  0  0  0  0  0  0  0  0  0  0
   22.7946  -20.3440    0.0000 C   0  0  0  0  0  0  0  0  0  0  0  0
   22.4812  -18.8772    0.0000 C   0  0  0  0  0  0  0  0  0  0  0  0
   22.0734  -17.4336    0.0000 C   0  0  0  0  0  0  0  0  0  0  0  0
   21.5731  -16.0195    0.0000 C   0  0  0  0  0  0  0  0  0  0  0  0
   20.9823  -14.6408    0.0000 C   0  0  0  0  0  0  0  0  0  0  0  0
   20.3034  -13.3032    0.0000 C   0  0  0  0  0  0  0  0  0  0  0  0
   19.5395  -12.0123    0.0000 C   0  0  0  0  0  0  0  0  0  0  0  0
   18.6935  -10.7736    0.0000 C   0  0  0  0  0  0  0  0  0  0  0  0
   17.7692   -9.5923    0.0000 C   0  0  0  0  0  0  0  0  0  0  0  0
   16.7703   -8.4732    0.0000 C   0  0  0  0  0  0  0  0  0  0  0  0
   15.7011   -7.4212    0.0000 C   0  0  0  0  0  0  0  0  0  0  0  0
   14.5660   -6.4406    0.0000 C   0  0  0  0  0  0  0  0  0  0  0  0
   13.3699   -5.5355    0.0000 C   0  0  0  0  0  0  0  0  0  0  0  0
   12.1176   -4.7097    0.0000 C   0  0  0  0  0  0  0  0  0  0  0  0
   10.8146   -3.9667    0.0000 C   0  0  0  0  0  0  0  0  0  0  0  0
    9.4661   -3.3097    0.0000 C   0  0  0  0  0  0  0  0  0  0  0  0
    8.0780   -2.7413    0.0000 C   0  0  0  0  0  0  0  0  0  0  0  0
    6.6560   -2.2639    0.0000 C   0  0  0  0  0  0  0  0  0  0  0  0
    5.2061   -1.8796    0.0000 C   0  0  0  0  0  0  0  0  0  0  0  0
    3.7343   -1.5899    0.0000 C   0  0  0  0  0  0  0  0  0  0  0  0
    2.2469   -1.3961    0.0000 C   0  0  0  0  0  0  0  0  0  0  0  0
    0.7500   -1.2990    0.0000 C   0  0  0  0  0  0  0  0  0  0  0  0
    1.5000    0.0000    0.0000 C   0  0  0  0  0  0  0  0  0  0  0  0
    0.7500    1.2990    0.0000 C   0  0  0  0  0  0  0  0  0  0  0  0
   -0.7500    1.2990    0.0000 C   0  0  0  0  0  0  0  0  0  0  0  0
   -1.5000    0.0000    0.0000 C   0  0  0  0  0  0  0  0  0  0  0  0
   -0.7500   -1.2990    0.0000 C   0  0  0  0  0  0  0  0  0  0  0  0
   -2.2469   -1.3961    0.0000 C   0  0  0  0  0  0  0  0  0  0  0  0
   -1.3353   -2.5874    0.0000 C   0  0  0  0  0  0  0  0  0  0  0  0
   -1.9112   -3.9724    0.0000 C   0  0  0  0  0  0  0  0  0  0  0  0
   -3.3986   -4.1662    0.0000 C   0  0  0  0  0  0  0  0  0  0  0  0
   -4.3102   -2.9750    0.0000 C   0  0  0  0  0  0  0  0  0  0  0  0
   -3.7343   -1.5899    0.0000 C   0  0  0  0  0  0  0  0  0  0  0  0
  1  2  1  0
  2  3  1  0
  3  4  1  0
  4  5  1  0
  5  6  1  0
  6  7  1  0
  7  8  1  0
  8  9  1  0
  9 10  1  0
 10 11  1  0
 11 12  1  0
 12 13  1  0
 13 14  1  0
 14 15  1  0
 15 16  1  0
 16 17  1  0
 17 18  1  0
 18 19  1  0
 19 20  1  0
 20 21  1  0
 21 22  1  0
 22 23  1  0
 23 24  1  0
 24 25  1  0
 25 26  1  0
 26 27  1  0
 27 28  1  0
 28 29  1  0
 29 30  1  0
 30 31  1  0
 31 32  1  0
 32 33  1  0
 33 34  1  0
 34 35  1  0
 35 36  1  0
 36 37  1  0
 37 38  1  0
 38 39  1  0
 39 40  1  0
 40 41  1  0
 41 42  1  0
 42 43  1  0
 43 44  1  0
 44 45  1  0
 45 46  1  0
 46 47  1  0
 47 48  1  0
 48 49  1  0
 49 50  1  0
 50 51  1  0
 51 52  1  0
 52 53  1  0
 53 54  1  0
 54 55  1  0
 55 56  1  0
 56 57  1  0
 57 58  1  0
 58 59  1  0
 59 60  1  0
 60 61  1  0
 61 62  1  0
 62 63  1  0
 63 64  1  0
 64 65  1  0
 65 66  1  0
 66 67  1  0
 67 68  1  0
 68 69  1  0
 69 70  1  0
 70 71  1  0
 71 72  1  0
 72 73  1  0
 73 74  1  0
 74 75  1  0
 75 76  1  0
 76 77  1  0
 77 78  1  0
 78 79  1  0
 79 80  1  0
 80 81  1  0
 81 82  1  0
 82 83  1  0
 83 84  1  0
 84 85  1  0
 85 86  1  0
 86 87  1  0
 87 88  1  0
 88 89  1  0
 89 90  1  0
 90 91  1  0
 91 92  1  0
 92 93  1  0
 93 94  1  0
 94 95  1  0
 95 96  1  0
 96 97  1  0
 97 98  1  0
 98 99  1  0
 99100  1  0
100101  1  0
101102  2  0
102103  1  0
103104  2  0
104105  1  0
105106  2  0
106  2  1  0
100 95  1  0
106101  1  0
M  END
>  <Title>  (602) 
idAAVFgen9

$$$$

     RDKit          2D

 26 29  0  0  0  0  0  0  0  0999 V2000
   -1.3240   -6.3062    0.0000 C   0  0  0  0  0  0  0  0  0  0  0  0
   -0.7500   -4.9204    0.0000 C   0  0  0  0  0  0  0  0  0  0  0  0
    0.7500   -4.9204    0.0000 C   0  0  0  0  0  0  0  0  0  0  0  0
    1.8107   -3.8597    0.0000 C   0  0  0  0  0  0  0  0  0  0  0  0
    1.8107   -2.3597    0.0000 C   0  0  0  0  0  0  0  0  0  0  0  0
    3.1965   -1.7857    0.0000 C   0  0  0  0  0  0  0  0  0  0  0  0
    3.3923   -0.2985    0.0000 O   0  0  0  0  0  0  0  0  0  0  0  0
    4.3865   -2.6988    0.0000 N   0  0  0  0  0  0  0  0  0  0  0  0
    5.7723   -2.1248    0.0000 C   0  0  0  0  0  0  0  0  0  0  0  0
    6.9624   -3.0379    0.0000 N   0  0  0  0  0  0  0  0  0  0  0  0
    8.3482   -2.4639    0.0000 N   0  0  0  0  0  0  0  0  0  0  0  0
    8.5440   -0.9767    0.0000 N   0  0  0  0  0  0  0  0  0  0  0  0
    7.3539   -0.0636    0.0000 N   0  0  0  0  0  0  0  0  0  0  0  0
    5.9681   -0.6376    0.0000 N   0  0  0  0  0  0  0  0  0  0  0  0
    0.7500   -1.2990    0.0000 C   0  0  0  0  0  0  0  0  0  0  0  0
    1.5000    0.0000    0.0000 C   0  0  0  0  0  0  0  0  0  0  0  0
    0.7500    1.2990    0.0000 C   0  0  0  0  0  0  0  0  0  0  0  0
   -0.7500    1.2990    0.0000 C   0  0  0  0  0  0  0  0  0  0  0  0
   -1.5000    0.0000    0.0000 C   0  0  0  0  0  0  0  0  0  0  0  0
   -0.7500   -1.2990    0.0000 C   0  0  0  0  0  0  0  0  0  0  0  0
   -1.8107   -2.3597    0.0000 C   0  0  0  0  0  0  0  0  0  0  0  0
   -3.1097   -1.6097    0.0000 C   0  0  0  0  0  0  0  0  0  0  0  0
   -4.4087   -2.3597    0.0000 C   0  0  0  0  0  0  0  0  0  0  0  0
   -4.4087   -3.8597    0.0000 C   0  0  0  0  0  0  0  0  0  0  0  0
   -3.1097   -4.6097    0.0000 C   0  0  0  0  0  0  0  0  0  0  0  0
   -1.8107   -3.8597    0.0000 C   0  0  0  0  0  0  0  0  0  0  0  0
  1  2  1  0
  2  3  1  0
  3  4  1  0
  4  5  1  0
  5  6  1  0
  6  7  2  0
  6  8  1  0
  8  9  1  0
  9 10  2  0
 10 11  1  0
 11 12  2  0
 12 13  1  0
 13 14  2  0
  5 15  1  0
 15 16  2  0
 16 17  1  0
 17 18  2  0
 18 19  1  0
 19 20  2  0
 20 21  1  0
 21 22  2  0
 22 23  1  0
 23 24  2  0
 24 25  1  0
 25 26  2  0
 26  2  1  0
 14  9  1  0
 20 15  1  0
 26 21  1  0
M  END
>  <Title>  (603) 
idAAVGgen9

$$$$

     RDKit          2D

 12 12  0  0  0  0  0  0  0  0999 V2000
    5.7760   -2.5981    0.0000 C   0  0  0  0  0  0  0  0  0  0  0  0
    5.0260   -1.2990    0.0000 C   0  0  0  0  0  0  0  0  0  0  0  0
    5.7760    0.0000    0.0000 C   0  0  0  0  0  0  0  0  0  0  0  0
    7.2760    0.0000    0.0000 O   0  0  0  0  0  0  0  0  0  0  0  0
    3.5260   -1.2990    0.0000 C   0  0  0  0  0  0  0  0  0  0  0  0
    2.7760   -2.5981    0.0000 O   0  0  0  0  0  0  0  0  0  0  0  0
    2.7760    0.0000    0.0000 N   0  0  0  0  0  0  0  0  0  0  0  0
    1.2760    0.0000    0.0000 C   0  0  0  0  0  0  0  0  0  0  0  0
    0.3943    1.2135    0.0000 C   0  0  0  0  0  0  0  0  0  0  0  0
   -1.0323    0.7500    0.0000 C   0  0  0  0  0  0  0  0  0  0  0  0
   -1.0323   -0.7500    0.0000 C   0  0  0  0  0  0  0  0  0  0  0  0
    0.3943   -1.2135    0.0000 C   0  0  0  0  0  0  0  0  0  0  0  0
  1  2  1  0
  2  3  1  0
  3  4  1  0
  2  5  1  0
  5  6  2  0
  5  7  1  0
  7  8  1  0
  8  9  2  0
  9 10  1  0
 10 11  2  0
 11 12  1  0
 12  8  1  0
M  END
>  <Title>  (604) 
idAAVHgen9

$$$$

     RDKit          2D

 10 10  0  0  0  0  0  0  0  0999 V2000
    4.5000    0.0000    0.0000 C   0  0  0  0  0  0  0  0  0  0  0  0
    3.0000    0.0000    0.0000 C   0  0  0  0  0  0  0  0  0  0  0  0
    1.5000    0.0000    0.0000 C   0  0  0  0  0  0  0  0  0  0  0  0
    0.7500   -1.2990    0.0000 C   0  0  0  0  0  0  0  0  0  0  0  0
   -0.7500   -1.2990    0.0000 C   0  0  0  0  0  0  0  0  0  0  0  0
   -1.5000    0.0000    0.0000 C   0  0  0  0  0  0  0  0  0  0  0  0
   -3.0000    0.0000    0.0000 C   0  0  0  0  0  0  0  0  0  0  0  0
   -4.5000    0.0000    0.0000 N   0  0  0  0  0  0  0  0  0  0  0  0
   -0.7500    1.2990    0.0000 C   0  0  0  0  0  0  0  0  0  0  0  0
    0.7500    1.2990    0.0000 C   0  0  0  0  0  0  0  0  0  0  0  0
  1  2  3  0
  2  3  1  0
  3  4  2  0
  4  5  1  0
  5  6  2  0
  6  7  1  0
  7  8  3  0
  6  9  1  0
  9 10  2  0
 10  3  1  0
M  END
>  <Title>  (605) 
idAAVIgen9

$$$$

     RDKit          2D

 32 36  0  0  0  0  0  0  0  0999 V2000
    1.2135   -7.3421    0.0000 C   0  0  0  0  0  0  0  0  0  0  0  0
    0.7500   -5.9156    0.0000 C   0  0  0  0  0  0  0  0  0  0  0  0
    1.9635   -5.0339    0.0000 C   0  0  0  0  0  0  0  0  0  0  0  0
    2.4271   -3.6073    0.0000 C   0  0  0  0  0  0  0  0  0  0  0  0
    1.9635   -2.1807    0.0000 C   0  0  0  0  0  0  0  0  0  0  0  0
    3.1771   -1.2990    0.0000 C   0  0  0  0  0  0  0  0  0  0  0  0
    3.0203    0.1927    0.0000 O   0  0  0  0  0  0  0  0  0  0  0  0
    4.5474   -1.9091    0.0000 N   0  0  0  0  0  0  0  0  0  0  0  0
    5.7609   -1.0275    0.0000 C   0  0  0  0  0  0  0  0  0  0  0  0
    7.1312   -1.6376    0.0000 N   0  0  0  0  0  0  0  0  0  0  0  0
    8.3447   -0.7559    0.0000 N   0  0  0  0  0  0  0  0  0  0  0  0
    8.1879    0.7359    0.0000 N   0  0  0  0  0  0  0  0  0  0  0  0
    6.8176    1.3460    0.0000 N   0  0  0  0  0  0  0  0  0  0  0  0
    5.6041    0.4643    0.0000 N   0  0  0  0  0  0  0  0  0  0  0  0
    0.7500   -1.2990    0.0000 C   0  0  0  0  0  0  0  0  0  0  0  0
    1.5000    0.0000    0.0000 C   0  0  0  0  0  0  0  0  0  0  0  0
    0.7500    1.2990    0.0000 C   0  0  0  0  0  0  0  0  0  0  0  0
   -0.7500    1.2990    0.0000 C   0  0  0  0  0  0  0  0  0  0  0  0
   -1.5000    0.0000    0.0000 C   0  0  0  0  0  0  0  0  0  0  0  0
   -0.7500   -1.2990    0.0000 C   0  0  0  0  0  0  0  0  0  0  0  0
   -1.9635   -2.1807    0.0000 C   0  0  0  0  0  0  0  0  0  0  0  0
   -2.9672   -1.0660    0.0000 C   0  0  0  0  0  0  0  0  0  0  0  0
   -4.4344   -1.3779    0.0000 C   0  0  0  0  0  0  0  0  0  0  0  0
   -4.8980   -2.8045    0.0000 C   0  0  0  0  0  0  0  0  0  0  0  0
   -3.8943   -3.9192    0.0000 C   0  0  0  0  0  0  0  0  0  0  0  0
   -2.4271   -3.6073    0.0000 C   0  0  0  0  0  0  0  0  0  0  0  0
   -1.9635   -5.0339    0.0000 C   0  0  0  0  0  0  0  0  0  0  0  0
   -3.3338   -5.6440    0.0000 C   0  0  0  0  0  0  0  0  0  0  0  0
   -3.4906   -7.1358    0.0000 C   0  0  0  0  0  0  0  0  0  0  0  0
   -2.2771   -8.0175    0.0000 C   0  0  0  0  0  0  0  0  0  0  0  0
   -0.9068   -7.4073    0.0000 C   0  0  0  0  0  0  0  0  0  0  0  0
   -0.7500   -5.9156    0.0000 C   0  0  0  0  0  0  0  0  0  0  0  0
  1  2  1  0
  2  3  1  0
  3  4  1  0
  4  5  1  0
  5  6  1  0
  6  7  2  0
  6  8  1  0
  8  9  1  0
  9 10  2  0
 10 11  1  0
 11 12  2  0
 12 13  1  0
 13 14  2  0
  5 15  1  0
 15 16  2  0
 16 17  1  0
 17 18  2  0
 18 19  1  0
 19 20  2  0
 20 21  1  0
 21 22  2  0
 22 23  1  0
 23 24  2  0
 24 25  1  0
 25 26  2  0
 26 27  1  0
 27 28  2  0
 28 29  1  0
 29 30  2  0
 30 31  1  0
 31 32  2  0
 32  2  1  0
 14  9  1  0
 20 15  1  0
 26 21  1  0
 32 27  1  0
M  END
>  <Title>  (606) 
idAAVJgen9

$$$$

     RDKit          2D

 51 51  0  0  0  0  0  0  0  0999 V2000
   13.4445   -0.0000    0.0000 C   0  0  0  0  0  0  0  0  0  0  0  0
   11.9445    0.0000    0.0000 C   0  0  0  0  0  0  0  0  0  0  0  0
   11.8503   -1.4970    0.0000 C   0  0  0  0  0  0  0  0  0  0  0  0
   11.5692   -2.9705    0.0000 C   0  0  0  0  0  0  0  0  0  0  0  0
   11.1057   -4.3971    0.0000 C   0  0  0  0  0  0  0  0  0  0  0  0
   10.4670   -5.7543    0.0000 C   0  0  0  0  0  0  0  0  0  0  0  0
    9.6633   -7.0208    0.0000 C   0  0  0  0  0  0  0  0  0  0  0  0
    8.7071   -8.1766    0.0000 C   0  0  0  0  0  0  0  0  0  0  0  0
    7.6137   -9.2034    0.0000 C   0  0  0  0  0  0  0  0  0  0  0  0
    6.4002  -10.0851    0.0000 C   0  0  0  0  0  0  0  0  0  0  0  0
    5.0857  -10.8077    0.0000 C   0  0  0  0  0  0  0  0  0  0  0  0
    3.6910  -11.3599    0.0000 C   0  0  0  0  0  0  0  0  0  0  0  0
    2.2382  -11.7329    0.0000 C   0  0  0  0  0  0  0  0  0  0  0  0
    0.7500  -11.9209    0.0000 C   0  0  0  0  0  0  0  0  0  0  0  0
   -0.7500  -11.9209    0.0000 C   0  0  0  0  0  0  0  0  0  0  0  0
   -2.2382  -11.7329    0.0000 C   0  0  0  0  0  0  0  0  0  0  0  0
   -3.6910  -11.3599    0.0000 C   0  0  0  0  0  0  0  0  0  0  0  0
   -5.0857  -10.8077    0.0000 C   0  0  0  0  0  0  0  0  0  0  0  0
   -6.4002  -10.0851    0.0000 C   0  0  0  0  0  0  0  0  0  0  0  0
   -7.6137   -9.2034    0.0000 C   0  0  0  0  0  0  0  0  0  0  0  0
   -8.7071   -8.1766    0.0000 C   0  0  0  0  0  0  0  0  0  0  0  0
   -9.6633   -7.0208    0.0000 C   0  0  0  0  0  0  0  0  0  0  0  0
  -10.4670   -5.7543    0.0000 C   0  0  0  0  0  0  0  0  0  0  0  0
  -11.1057   -4.3971    0.0000 C   0  0  0  0  0  0  0  0  0  0  0  0
  -11.5692   -2.9705    0.0000 C   0  0  0  0  0  0  0  0  0  0  0  0
  -11.8503   -1.4970    0.0000 C   0  0  0  0  0  0  0  0  0  0  0  0
  -11.9445   -0.0000    0.0000 C   0  0  0  0  0  0  0  0  0  0  0  0
  -11.8503    1.4970    0.0000 C   0  0  0  0  0  0  0  0  0  0  0  0
  -11.5692    2.9705    0.0000 C   0  0  0  0  0  0  0  0  0  0  0  0
  -11.1057    4.3971    0.0000 C   0  0  0  0  0  0  0  0  0  0  0  0
  -10.4670    5.7543    0.0000 C   0  0  0  0  0  0  0  0  0  0  0  0
   -9.6633    7.0208    0.0000 C   0  0  0  0  0  0  0  0  0  0  0  0
   -8.7071    8.1766    0.0000 C   0  0  0  0  0  0  0  0  0  0  0  0
   -7.6137    9.2034    0.0000 C   0  0  0  0  0  0  0  0  0  0  0  0
   -6.4002   10.0851    0.0000 C   0  0  0  0  0  0  0  0  0  0  0  0
   -5.0857   10.8077    0.0000 C   0  0  0  0  0  0  0  0  0  0  0  0
   -3.6910   11.3599    0.0000 C   0  0  0  0  0  0  0  0  0  0  0  0
   -2.2382   11.7329    0.0000 C   0  0  0  0  0  0  0  0  0  0  0  0
   -0.7500   11.9209    0.0000 C   0  0  0  0  0  0  0  0  0  0  0  0
    0.7500   11.9209    0.0000 C   0  0  0  0  0  0  0  0  0  0  0  0
    2.2382   11.7329    0.0000 C   0  0  0  0  0  0  0  0  0  0  0  0
    3.6910   11.3599    0.0000 C   0  0  0  0  0  0  0  0  0  0  0  0
    5.0857   10.8077    0.0000 C   0  0  0  0  0  0  0  0  0  0  0  0
    6.4002   10.0851    0.0000 C   0  0  0  0  0  0  0  0  0  0  0  0
    7.6137    9.2034    0.0000 C   0  0  0  0  0  0  0  0  0  0  0  0
    8.7071    8.1766    0.0000 C   0  0  0  0  0  0  0  0  0  0  0  0
    9.6633    7.0208    0.0000 C   0  0  0  0  0  0  0  0  0  0  0  0
   10.4670    5.7543    0.0000 C   0  0  0  0  0  0  0  0  0  0  0  0
   11.1057    4.3971    0.0000 C   0  0  0  0  0  0  0  0  0  0  0  0
   11.5692    2.9705    0.0000 C   0  0  0  0  0  0  0  0  0  0  0  0
   11.8503    1.4970    0.0000 C   0  0  0  0  0  0  0  0  0  0  0  0
  1  2  1  0
  2  3  1  0
  3  4  1  0
  4  5  1  0
  5  6  1  0
  6  7  1  0
  7  8  1  0
  8  9  1  0
  9 10  1  0
 10 11  1  0
 11 12  1  0
 12 13  1  0
 13 14  1  0
 14 15  1  0
 15 16  1  0
 16 17  1  0
 17 18  1  0
 18 19  1  0
 19 20  1  0
 20 21  1  0
 21 22  1  0
 22 23  1  0
 23 24  1  0
 24 25  1  0
 25 26  1  0
 26 27  1  0
 27 28  1  0
 28 29  1  0
 29 30  1  0
 30 31  1  0
 31 32  1  0
 32 33  1  0
 33 34  1  0
 34 35  1  0
 35 36  1  0
 36 37  1  0
 37 38  1  0
 38 39  1  0
 39 40  1  0
 40 41  1  0
 41 42  1  0
 42 43  1  0
 43 44  1  0
 44 45  1  0
 45 46  1  0
 46 47  1  0
 47 48  1  0
 48 49  1  0
 49 50  1  0
 50 51  1  0
 51  2  1  0
M  END
>  <Title>  (607) 
idAAVKgen9

$$$$

     RDKit          2D

 19 20  0  0  0  0  0  0  0  0999 V2000
    3.6422  -10.7743    0.0000 C   0  0  0  0  0  0  0  0  0  0  0  0
    3.0321   -9.4040    0.0000 C   0  0  0  0  0  0  0  0  0  0  0  0
    3.9138   -8.1905    0.0000 C   0  0  0  0  0  0  0  0  0  0  0  0
    3.3037   -6.8202    0.0000 C   0  0  0  0  0  0  0  0  0  0  0  0
    4.7302   -6.3566    0.0000 C   0  0  0  0  0  0  0  0  0  0  0  0
    2.9918   -5.3529    0.0000 C   0  0  0  0  0  0  0  0  0  0  0  0
    1.5000   -5.1962    0.0000 C   0  0  0  0  0  0  0  0  0  0  0  0
    0.7500   -3.8971    0.0000 C   0  0  0  0  0  0  0  0  0  0  0  0
    1.5000   -2.5981    0.0000 C   0  0  0  0  0  0  0  0  0  0  0  0
    0.7500   -1.2990    0.0000 C   0  0  0  0  0  0  0  0  0  0  0  0
    1.5000    0.0000    0.0000 C   0  0  0  0  0  0  0  0  0  0  0  0
    0.7500    1.2990    0.0000 C   0  0  0  0  0  0  0  0  0  0  0  0
   -0.7500    1.2990    0.0000 C   0  0  0  0  0  0  0  0  0  0  0  0
   -1.5000    0.0000    0.0000 C   0  0  0  0  0  0  0  0  0  0  0  0
   -0.7500   -1.2990    0.0000 C   0  0  0  0  0  0  0  0  0  0  0  0
    0.8899   -6.5665    0.0000 C   0  0  0  0  0  0  0  0  0  0  0  0
   -0.5773   -6.8783    0.0000 O   0  0  0  0  0  0  0  0  0  0  0  0
    2.0046   -7.5702    0.0000 C   0  0  0  0  0  0  0  0  0  0  0  0
    1.8478   -9.0619    0.0000 O   0  0  0  0  0  0  0  0  0  0  0  0
  1  2  1  0
  2  3  1  0
  3  4  1  0
  4  5  1  0
  4  6  1  0
  6  7  1  0
  7  8  1  0
  8  9  1  0
  9 10  1  0
 10 11  2  0
 11 12  1  0
 12 13  2  0
 13 14  1  0
 14 15  2  0
  7 16  1  0
 16 17  1  0
 16 18  1  0
 18 19  1  0
 18  4  1  0
 15 10  1  0
M  END
>  <Title>  (608) 
idAAVLgen9

$$$$

     RDKit          2D

 23 23  0  0  0  0  0  0  0  0999 V2000
   11.7760   15.5885    0.0000 C   0  0  0  0  0  0  0  0  0  0  0  0
   11.0260   14.2894    0.0000 C   0  0  0  0  0  0  0  0  0  0  0  0
   10.2760   12.9904    0.0000 C   0  0  0  0  0  0  0  0  0  0  0  0
    9.5260   11.6913    0.0000 C   0  0  0  0  0  0  0  0  0  0  0  0
    8.7760   10.3923    0.0000 C   0  0  0  0  0  0  0  0  0  0  0  0
    8.0260    9.0933    0.0000 C   0  0  0  0  0  0  0  0  0  0  0  0
    7.2760    7.7942    0.0000 C   0  0  0  0  0  0  0  0  0  0  0  0
    6.5260    6.4952    0.0000 C   0  0  0  0  0  0  0  0  0  0  0  0
    5.7760    5.1962    0.0000 C   0  0  0  0  0  0  0  0  0  0  0  0
    5.0260    3.8971    0.0000 C   0  0  0  0  0  0  0  0  0  0  0  0
    4.2760    2.5981    0.0000 C   0  0  0  0  0  0  0  0  0  0  0  0
    3.5260    1.2990    0.0000 C   0  0  0  0  0  0  0  0  0  0  0  0
    2.7760    0.0000    0.0000 C   0  0  0  0  0  0  0  0  0  0  0  0
    3.5260   -1.2990    0.0000 O   0  0  0  0  0  0  0  0  0  0  0  0
    1.2760    0.0000    0.0000 N   0  0  0  0  0  0  0  0  0  0  0  0
    0.3943    1.2135    0.0000 C   0  0  0  0  0  0  0  0  0  0  0  0
   -1.0323    0.7500    0.0000 C   0  0  0  0  0  0  0  0  0  0  0  0
   -1.0323   -0.7500    0.0000 C   0  0  0  0  0  0  0  0  0  0  0  0
   -2.2458   -1.6317    0.0000 C   0  0  0  0  0  0  0  0  0  0  0  0
   -2.0890   -3.1235    0.0000 O   0  0  0  0  0  0  0  0  0  0  0  0
   -3.6161   -1.0216    0.0000 O   0  0  0  0  0  0  0  0  0  0  0  0
    0.3943   -1.2135    0.0000 C   0  0  0  0  0  0  0  0  0  0  0  0
    0.8578   -2.6401    0.0000 O   0  0  0  0  0  0  0  0  0  0  0  0
  1  2  3  0
  2  3  1  0
  3  4  3  0
  4  5  1  0
  5  6  3  0
  6  7  1  0
  7  8  3  0
  8  9  1  0
  9 10  3  0
 10 11  1  0
 11 12  3  0
 12 13  1  0
 13 14  2  0
 13 15  1  0
 15 16  1  0
 16 17  1  0
 17 18  1  0
 18 19  1  0
 19 20  2  0
 19 21  1  0
 18 22  1  0
 22 23  2  0
 22 15  1  0
M  END
>  <Title>  (609) 
idAAVMgen9

$$$$

     RDKit          2D

  9  9  0  0  0  0  0  0  0  0999 V2000
    4.5000    0.0000    0.0000 C   0  0  0  0  0  0  0  0  0  0  0  0
    3.0000    0.0000    0.0000 C   0  0  0  0  0  0  0  0  0  0  0  0
    1.5000    0.0000    0.0000 C   0  0  0  0  0  0  0  0  0  0  0  0
    0.7500   -1.2990    0.0000 C   0  0  0  0  0  0  0  0  0  0  0  0
   -0.7500   -1.2990    0.0000 C   0  0  0  0  0  0  0  0  0  0  0  0
   -1.5000    0.0000    0.0000 N   0  0  0  0  0  0  0  0  0  0  0  0
   -3.0000    0.0000    0.0000 C   0  0  0  0  0  0  0  0  0  0  0  0
   -0.7500    1.2990    0.0000 C   0  0  0  0  0  0  0  0  0  0  0  0
    0.7500    1.2990    0.0000 N   0  0  0  0  0  0  0  0  0  0  0  0
  1  2  3  0
  2  3  1  0
  3  4  1  0
  4  5  2  0
  5  6  1  0
  6  7  1  0
  6  8  1  0
  8  9  1  0
  9  3  1  0
M  END
>  <Title>  (610) 
idAAVNgen9

$$$$

     RDKit          2D

 26 29  0  0  0  0  0  0  0  0999 V2000
    7.6104    2.8717    0.0000 C   0  0  0  0  0  0  0  0  0  0  0  0
    7.4536    1.3799    0.0000 C   0  0  0  0  0  0  0  0  0  0  0  0
    6.1545    0.6299    0.0000 C   0  0  0  0  0  0  0  0  0  0  0  0
    6.4664   -0.8373    0.0000 C   0  0  0  0  0  0  0  0  0  0  0  0
    5.4627   -1.9520    0.0000 C   0  0  0  0  0  0  0  0  0  0  0  0
    5.9262   -3.3786    0.0000 O   0  0  0  0  0  0  0  0  0  0  0  0
    3.9955   -1.6402    0.0000 N   0  0  0  0  0  0  0  0  0  0  0  0
    2.9918   -2.7549    0.0000 C   0  0  0  0  0  0  0  0  0  0  0  0
    3.3037   -4.2221    0.0000 N   0  0  0  0  0  0  0  0  0  0  0  0
    2.0046   -4.9721    0.0000 N   0  0  0  0  0  0  0  0  0  0  0  0
    0.8899   -3.9684    0.0000 N   0  0  0  0  0  0  0  0  0  0  0  0
    1.5000   -2.5981    0.0000 N   0  0  0  0  0  0  0  0  0  0  0  0
    0.7500   -1.2990    0.0000 C   0  0  0  0  0  0  0  0  0  0  0  0
    1.5000    0.0000    0.0000 C   0  0  0  0  0  0  0  0  0  0  0  0
    0.7500    1.2990    0.0000 C   0  0  0  0  0  0  0  0  0  0  0  0
   -0.7500    1.2990    0.0000 C   0  0  0  0  0  0  0  0  0  0  0  0
   -1.5000    2.5981    0.0000 C   0  0  0  0  0  0  0  0  0  0  0  0
   -0.7500    3.8971    0.0000 N   0  0  0  0  0  0  0  0  0  0  0  0
   -1.5000    5.1962    0.0000 N   0  0  0  0  0  0  0  0  0  0  0  0
   -3.0000    5.1962    0.0000 N   0  0  0  0  0  0  0  0  0  0  0  0
   -3.7500    3.8971    0.0000 N   0  0  0  0  0  0  0  0  0  0  0  0
   -3.0000    2.5981    0.0000 N   0  0  0  0  0  0  0  0  0  0  0  0
   -1.5000    0.0000    0.0000 C   0  0  0  0  0  0  0  0  0  0  0  0
   -0.7500   -1.2990    0.0000 C   0  0  0  0  0  0  0  0  0  0  0  0
    7.9582   -0.9941    0.0000 C   0  0  0  0  0  0  0  0  0  0  0  0
    8.5683    0.3762    0.0000 C   0  0  0  0  0  0  0  0  0  0  0  0
  1  2  1  0
  2  3  1  0
  3  4  2  0
  4  5  1  0
  5  6  2  0
  5  7  1  0
  7  8  1  0
  8  9  2  0
  9 10  1  0
 10 11  2  0
 11 12  1  0
 12 13  1  0
 13 14  2  0
 14 15  1  0
 15 16  2  0
 16 17  1  0
 17 18  2  0
 18 19  1  0
 19 20  2  0
 20 21  1  0
 21 22  2  0
 16 23  1  0
 23 24  2  0
  4 25  1  0
 25 26  1  0
 26  2  1  0
 12  8  1  0
 24 13  1  0
 22 17  1  0
M  END
>  <Title>  (611) 
idAAVOgen9

$$$$

     RDKit          2D

 21 23  0  0  0  0  0  0  0  0999 V2000
    1.6727   -5.5793    0.0000 C   0  0  0  0  0  0  0  0  0  0  0  0
    3.1399   -5.2674    0.0000 C   0  0  0  0  0  0  0  0  0  0  0  0
    4.2546   -6.2711    0.0000 C   0  0  0  0  0  0  0  0  0  0  0  0
    5.5537   -5.5211    0.0000 C   0  0  0  0  0  0  0  0  0  0  0  0
    5.2418   -4.0539    0.0000 C   0  0  0  0  0  0  0  0  0  0  0  0
    3.7500   -3.8971    0.0000 C   0  0  0  0  0  0  0  0  0  0  0  0
    3.0000   -2.5981    0.0000 C   0  0  0  0  0  0  0  0  0  0  0  0
    3.7500   -1.2990    0.0000 O   0  0  0  0  0  0  0  0  0  0  0  0
    1.5000   -2.5981    0.0000 O   0  0  0  0  0  0  0  0  0  0  0  0
    0.7500   -1.2990    0.0000 C   0  0  0  0  0  0  0  0  0  0  0  0
    1.5000    0.0000    0.0000 C   0  0  0  0  0  0  0  0  0  0  0  0
    0.7500    1.2990    0.0000 C   0  0  0  0  0  0  0  0  0  0  0  0
   -0.7500    1.2990    0.0000 C   0  0  0  0  0  0  0  0  0  0  0  0
   -1.5000    2.5981    0.0000 O   0  0  0  0  0  0  0  0  0  0  0  0
   -1.5000    0.0000    0.0000 C   0  0  0  0  0  0  0  0  0  0  0  0
   -0.7500   -1.2990    0.0000 C   0  0  0  0  0  0  0  0  0  0  0  0
   -1.5000   -2.5981    0.0000 C   0  0  0  0  0  0  0  0  0  0  0  0
   -0.8899   -3.9684    0.0000 C   0  0  0  0  0  0  0  0  0  0  0  0
   -2.0046   -4.9721    0.0000 C   0  0  0  0  0  0  0  0  0  0  0  0
   -3.3037   -4.2221    0.0000 C   0  0  0  0  0  0  0  0  0  0  0  0
   -2.9918   -2.7549    0.0000 C   0  0  0  0  0  0  0  0  0  0  0  0
  1  2  1  0
  2  3  2  0
  3  4  1  0
  4  5  1  0
  5  6  2  0
  6  7  1  0
  7  8  2  0
  7  9  1  0
  9 10  1  0
 10 11  2  0
 11 12  1  0
 12 13  2  0
 13 14  1  0
 13 15  1  0
 15 16  2  0
 16 17  1  0
 17 18  2  0
 18 19  1  0
 19 20  1  0
 20 21  2  0
  6  2  1  0
 16 10  1  0
 21 17  1  0
M  END
>  <Title>  (612) 
idAAVPgen9

$$$$

     RDKit          2D

106108  0  0  0  0  0  0  0  0999 V2000
   -5.5432   -0.4180    0.0000 C   0  0  0  0  0  0  0  0  0  0  0  0
   -5.2061   -1.8796    0.0000 C   0  0  0  0  0  0  0  0  0  0  0  0
   -6.6560   -2.2639    0.0000 C   0  0  0  0  0  0  0  0  0  0  0  0
   -8.0780   -2.7413    0.0000 C   0  0  0  0  0  0  0  0  0  0  0  0
   -9.4661   -3.3097    0.0000 C   0  0  0  0  0  0  0  0  0  0  0  0
  -10.8146   -3.9667    0.0000 C   0  0  0  0  0  0  0  0  0  0  0  0
  -12.1176   -4.7097    0.0000 C   0  0  0  0  0  0  0  0  0  0  0  0
  -13.3699   -5.5355    0.0000 C   0  0  0  0  0  0  0  0  0  0  0  0
  -14.5660   -6.4406    0.0000 C   0  0  0  0  0  0  0  0  0  0  0  0
  -15.7011   -7.4212    0.0000 C   0  0  0  0  0  0  0  0  0  0  0  0
  -16.7703   -8.4732    0.0000 C   0  0  0  0  0  0  0  0  0  0  0  0
  -17.7692   -9.5923    0.0000 C   0  0  0  0  0  0  0  0  0  0  0  0
  -18.6935  -10.7736    0.0000 C   0  0  0  0  0  0  0  0  0  0  0  0
  -19.5395  -12.0123    0.0000 C   0  0  0  0  0  0  0  0  0  0  0  0
  -20.3034  -13.3032    0.0000 C   0  0  0  0  0  0  0  0  0  0  0  0
  -20.9823  -14.6408    0.0000 C   0  0  0  0  0  0  0  0  0  0  0  0
  -21.5731  -16.0195    0.0000 C   0  0  0  0  0  0  0  0  0  0  0  0
  -22.0734  -17.4336    0.0000 C   0  0  0  0  0  0  0  0  0  0  0  0
  -22.4812  -18.8772    0.0000 C   0  0  0  0  0  0  0  0  0  0  0  0
  -22.7946  -20.3440    0.0000 C   0  0  0  0  0  0  0  0  0  0  0  0
  -23.0124  -21.8281    0.0000 C   0  0  0  0  0  0  0  0  0  0  0  0
  -23.1338  -23.3232    0.0000 C   0  0  0  0  0  0  0  0  0  0  0  0
  -23.1581  -24.8230    0.0000 C   0  0  0  0  0  0  0  0  0  0  0  0
  -23.0852  -26.3213    0.0000 C   0  0  0  0  0  0  0  0  0  0  0  0
  -22.9155  -27.8116    0.0000 C   0  0  0  0  0  0  0  0  0  0  0  0
  -22.6498  -29.2879    0.0000 C   0  0  0  0  0  0  0  0  0  0  0  0
  -22.2890  -30.7439    0.0000 C   0  0  0  0  0  0  0  0  0  0  0  0
  -21.8347  -32.1734    0.0000 C   0  0  0  0  0  0  0  0  0  0  0  0
  -21.2888  -33.5706    0.0000 C   0  0  0  0  0  0  0  0  0  0  0  0
  -20.6537  -34.9295    0.0000 C   0  0  0  0  0  0  0  0  0  0  0  0
  -19.9319  -36.2444    0.0000 C   0  0  0  0  0  0  0  0  0  0  0  0
  -19.1265  -37.5098    0.0000 C   0  0  0  0  0  0  0  0  0  0  0  0
  -18.2409  -38.7205    0.0000 C   0  0  0  0  0  0  0  0  0  0  0  0
  -17.2788  -39.8713    0.0000 C   0  0  0  0  0  0  0  0  0  0  0  0
  -16.2442  -40.9574    0.0000 C   0  0  0  0  0  0  0  0  0  0  0  0
  -15.1415  -41.9743    0.0000 C   0  0  0  0  0  0  0  0  0  0  0  0
  -13.9753  -42.9176    0.0000 C   0  0  0  0  0  0  0  0  0  0  0  0
  -12.7504  -43.7835    0.0000 C   0  0  0  0  0  0  0  0  0  0  0  0
  -11.4721  -44.5683    0.0000 C   0  0  0  0  0  0  0  0  0  0  0  0
  -10.1457  -45.2687    0.0000 C   0  0  0  0  0  0  0  0  0  0  0  0
   -8.7767  -45.8818    0.0000 C   0  0  0  0  0  0  0  0  0  0  0  0
   -7.3709  -46.4049    0.0000 C   0  0  0  0  0  0  0  0  0  0  0  0
   -5.9341  -46.8360    0.0000 C   0  0  0  0  0  0  0  0  0  0  0  0
   -4.4725  -47.1731    0.0000 C   0  0  0  0  0  0  0  0  0  0  0  0
   -2.9921  -47.4150    0.0000 C   0  0  0  0  0  0  0  0  0  0  0  0
   -1.4992  -47.5605    0.0000 C   0  0  0  0  0  0  0  0  0  0  0  0
   -0.0000  -47.6091    0.0000 C   0  0  0  0  0  0  0  0  0  0  0  0
    1.4992  -47.5605    0.0000 C   0  0  0  0  0  0  0  0  0  0  0  0
    2.9921  -47.4150    0.0000 C   0  0  0  0  0  0  0  0  0  0  0  0
    4.4725  -47.1731    0.0000 C   0  0  0  0  0  0  0  0  0  0  0  0
    5.9341  -46.8360    0.0000 C   0  0  0  0  0  0  0  0  0  0  0  0
    7.3709  -46.4049    0.0000 C   0  0  0  0  0  0  0  0  0  0  0  0
    8.7767  -45.8818    0.0000 C   0  0  0  0  0  0  0  0  0  0  0  0
   10.1457  -45.2687    0.0000 C   0  0  0  0  0  0  0  0  0  0  0  0
   11.4721  -44.5683    0.0000 C   0  0  0  0  0  0  0  0  0  0  0  0
   12.7504  -43.7835    0.0000 C   0  0  0  0  0  0  0  0  0  0  0  0
   13.9753  -42.9176    0.0000 C   0  0  0  0  0  0  0  0  0  0  0  0
   15.1415  -41.9743    0.0000 C   0  0  0  0  0  0  0  0  0  0  0  0
   16.2442  -40.9574    0.0000 C   0  0  0  0  0  0  0  0  0  0  0  0
   17.2788  -39.8713    0.0000 C   0  0  0  0  0  0  0  0  0  0  0  0
   18.2409  -38.7205    0.0000 C   0  0  0  0  0  0  0  0  0  0  0  0
   19.1265  -37.5098    0.0000 C   0  0  0  0  0  0  0  0  0  0  0  0
   19.9319  -36.2444    0.0000 C   0  0  0  0  0  0  0  0  0  0  0  0
   20.6537  -34.9295    0.0000 C   0  0  0  0  0  0  0  0  0  0  0  0
   21.2888  -33.5706    0.0000 C   0  0  0  0  0  0  0  0  0  0  0  0
   21.8347  -32.1734    0.0000 C   0  0  0  0  0  0  0  0  0  0  0  0
   22.2890  -30.7439    0.0000 C   0  0  0  0  0  0  0  0  0  0  0  0
   22.6498  -29.2879    0.0000 C   0  0  0  0  0  0  0  0  0  0  0  0
   22.9155  -27.8116    0.0000 C   0  0  0  0  0  0  0  0  0  0  0  0
   23.0852  -26.3213    0.0000 C   0  0  0  0  0  0  0  0  0  0  0  0
   23.1581  -24.8230    0.0000 C   0  0  0  0  0  0  0  0  0  0  0  0
   23.1338  -23.3232    0.0000 C   0  0  0  0  0  0  0  0  0  0  0  0
   23.0124  -21.8281    0.0000 C   0  0  0  0  0  0  0  0  0  0  0  0
   22.7946  -20.3440    0.0000 C   0  0  0  0  0  0  0  0  0  0  0  0
   22.4812  -18.8772    0.0000 C   0  0  0  0  0  0  0  0  0  0  0  0
   22.0734  -17.4336    0.0000 C   0  0  0  0  0  0  0  0  0  0  0  0
   21.5731  -16.0195    0.0000 C   0  0  0  0  0  0  0  0  0  0  0  0
   20.9823  -14.6408    0.0000 C   0  0  0  0  0  0  0  0  0  0  0  0
   20.3034  -13.3032    0.0000 C   0  0  0  0  0  0  0  0  0  0  0  0
   19.5395  -12.0123    0.0000 C   0  0  0  0  0  0  0  0  0  0  0  0
   18.6935  -10.7736    0.0000 C   0  0  0  0  0  0  0  0  0  0  0  0
   17.7692   -9.5923    0.0000 C   0  0  0  0  0  0  0  0  0  0  0  0
   16.7703   -8.4732    0.0000 C   0  0  0  0  0  0  0  0  0  0  0  0
   15.7011   -7.4212    0.0000 C   0  0  0  0  0  0  0  0  0  0  0  0
   14.5660   -6.4406    0.0000 C   0  0  0  0  0  0  0  0  0  0  0  0
   13.3699   -5.5355    0.0000 C   0  0  0  0  0  0  0  0  0  0  0  0
   12.1176   -4.7097    0.0000 C   0  0  0  0  0  0  0  0  0  0  0  0
   10.8146   -3.9667    0.0000 C   0  0  0  0  0  0  0  0  0  0  0  0
    9.4661   -3.3097    0.0000 C   0  0  0  0  0  0  0  0  0  0  0  0
    8.0780   -2.7413    0.0000 C   0  0  0  0  0  0  0  0  0  0  0  0
    6.6560   -2.2639    0.0000 C   0  0  0  0  0  0  0  0  0  0  0  0
    5.2061   -1.8796    0.0000 C   0  0  0  0  0  0  0  0  0  0  0  0
    3.7343   -1.5899    0.0000 C   0  0  0  0  0  0  0  0  0  0  0  0
    2.2469   -1.3961    0.0000 C   0  0  0  0  0  0  0  0  0  0  0  0
    0.7500   -1.2990    0.0000 C   0  0  0  0  0  0  0  0  0  0  0  0
    1.5000    0.0000    0.0000 C   0  0  0  0  0  0  0  0  0  0  0  0
    0.7500    1.2990    0.0000 C   0  0  0  0  0  0  0  0  0  0  0  0
   -0.7500    1.2990    0.0000 C   0  0  0  0  0  0  0  0  0  0  0  0
   -1.5000    0.0000    0.0000 C   0  0  0  0  0  0  0  0  0  0  0  0
   -0.7500   -1.2990    0.0000 C   0  0  0  0  0  0  0  0  0  0  0  0
   -2.2469   -1.3961    0.0000 C   0  0  0  0  0  0  0  0  0  0  0  0
   -1.3353   -2.5874    0.0000 C   0  0  0  0  0  0  0  0  0  0  0  0
   -1.9112   -3.9724    0.0000 C   0  0  0  0  0  0  0  0  0  0  0  0
   -3.3986   -4.1662    0.0000 C   0  0  0  0  0  0  0  0  0  0  0  0
   -4.3102   -2.9750    0.0000 C   0  0  0  0  0  0  0  0  0  0  0  0
   -3.7343   -1.5899    0.0000 C   0  0  0  0  0  0  0  0  0  0  0  0
  1  2  1  0
  2  3  1  0
  3  4  1  0
  4  5  1  0
  5  6  1  0
  6  7  1  0
  7  8  1  0
  8  9  1  0
  9 10  1  0
 10 11  1  0
 11 12  1  0
 12 13  1  0
 13 14  1  0
 14 15  1  0
 15 16  1  0
 16 17  1  0
 17 18  1  0
 18 19  1  0
 19 20  1  0
 20 21  1  0
 21 22  1  0
 22 23  1  0
 23 24  1  0
 24 25  1  0
 25 26  1  0
 26 27  1  0
 27 28  1  0
 28 29  1  0
 29 30  1  0
 30 31  1  0
 31 32  1  0
 32 33  1  0
 33 34  1  0
 34 35  1  0
 35 36  1  0
 36 37  1  0
 37 38  1  0
 38 39  1  0
 39 40  1  0
 40 41  1  0
 41 42  1  0
 42 43  1  0
 43 44  1  0
 44 45  1  0
 45 46  1  0
 46 47  1  0
 47 48  1  0
 48 49  1  0
 49 50  1  0
 50 51  1  0
 51 52  1  0
 52 53  1  0
 53 54  1  0
 54 55  1  0
 55 56  1  0
 56 57  1  0
 57 58  1  0
 58 59  1  0
 59 60  1  0
 60 61  1  0
 61 62  1  0
 62 63  1  0
 63 64  1  0
 64 65  1  0
 65 66  1  0
 66 67  1  0
 67 68  1  0
 68 69  1  0
 69 70  1  0
 70 71  1  0
 71 72  1  0
 72 73  1  0
 73 74  1  0
 74 75  1  0
 75 76  1  0
 76 77  1  0
 77 78  1  0
 78 79  1  0
 79 80  1  0
 80 81  1  0
 81 82  1  0
 82 83  1  0
 83 84  1  0
 84 85  1  0
 85 86  1  0
 86 87  1  0
 87 88  1  0
 88 89  1  0
 89 90  1  0
 90 91  1  0
 91 92  1  0
 92 93  1  0
 93 94  1  0
 94 95  2  0
 95 96  1  0
 96 97  1  0
 97 98  1  0
 98 99  1  0
 99100  2  0
100101  1  0
101102  2  0
102103  1  0
103104  2  0
104105  1  0
105106  2  0
106  2  1  0
100 95  1  0
106101  1  0
M  END
>  <Title>  (613) 
idAAVQgen9

$$$$

     RDKit          2D

 12 12  0  0  0  0  0  0  0  0999 V2000
    4.5000   -2.5981    0.0000 N   0  0  0  0  0  0  0  0  0  0  0  0
    3.7500   -1.2990    0.0000 C   0  0  0  0  0  0  0  0  0  0  0  0
    3.0000    0.0000    0.0000 C   0  0  0  0  0  0  0  0  0  0  0  0
    1.5000    0.0000    0.0000 C   0  0  0  0  0  0  0  0  0  0  0  0
    0.7500   -1.2990    0.0000 C   0  0  0  0  0  0  0  0  0  0  0  0
   -0.7500   -1.2990    0.0000 C   0  0  0  0  0  0  0  0  0  0  0  0
   -1.5000    0.0000    0.0000 C   0  0  0  0  0  0  0  0  0  0  0  0
   -3.0000    0.0000    0.0000 C   0  0  0  0  0  0  0  0  0  0  0  0
   -3.7500   -1.2990    0.0000 O   0  0  0  0  0  0  0  0  0  0  0  0
   -3.7500    1.2990    0.0000 O   0  0  0  0  0  0  0  0  0  0  0  0
   -0.7500    1.2990    0.0000 C   0  0  0  0  0  0  0  0  0  0  0  0
    0.7500    1.2990    0.0000 C   0  0  0  0  0  0  0  0  0  0  0  0
  1  2  3  0
  2  3  1  0
  3  4  1  0
  4  5  2  0
  5  6  1  0
  6  7  2  0
  7  8  1  0
  8  9  2  0
  8 10  1  0
  7 11  1  0
 11 12  2  0
 12  4  1  0
M  END
>  <Title>  (614) 
idAAVRgen9

$$$$

     RDKit          2D

 16 16  0  0  0  0  0  0  0  0999 V2000
   16.2760   -0.0000    0.0000 C   0  0  0  0  0  0  0  0  0  0  0  0
   14.7760   -0.0000    0.0000 C   0  0  0  0  0  0  0  0  0  0  0  0
   13.2760   -0.0000    0.0000 C   0  0  0  0  0  0  0  0  0  0  0  0
   11.7760   -0.0000    0.0000 C   0  0  0  0  0  0  0  0  0  0  0  0
   10.2760   -0.0000    0.0000 C   0  0  0  0  0  0  0  0  0  0  0  0
    8.7760   -0.0000    0.0000 C   0  0  0  0  0  0  0  0  0  0  0  0
    7.2760   -0.0000    0.0000 C   0  0  0  0  0  0  0  0  0  0  0  0
    5.7760   -0.0000    0.0000 C   0  0  0  0  0  0  0  0  0  0  0  0
    4.2760   -0.0000    0.0000 C   0  0  0  0  0  0  0  0  0  0  0  0
    2.7760    0.0000    0.0000 C   0  0  0  0  0  0  0  0  0  0  0  0
    1.2760    0.0000    0.0000 C   0  0  0  0  0  0  0  0  0  0  0  0
    0.3943    1.2135    0.0000 C   0  0  0  0  0  0  0  0  0  0  0  0
   -1.0323    0.7500    0.0000 C   0  0  0  0  0  0  0  0  0  0  0  0
   -2.2458    1.6317    0.0000 C   0  0  0  0  0  0  0  0  0  0  0  0
   -1.0323   -0.7500    0.0000 C   0  0  0  0  0  0  0  0  0  0  0  0
    0.3943   -1.2135    0.0000 C   0  0  0  0  0  0  0  0  0  0  0  0
  1  2  3  0
  2  3  1  0
  3  4  3  0
  4  5  1  0
  5  6  3  0
  6  7  1  0
  7  8  3  0
  8  9  1  0
  9 10  3  0
 10 11  1  0
 11 12  2  0
 12 13  1  0
 13 14  1  0
 13 15  1  0
 15 16  2  0
 16 11  1  0
M  END
>  <Title>  (615) 
idAAVSgen9

$$$$

     RDKit          2D

 56 64  0  0  0  0  0  0  0  0999 V2000
    5.8191   -5.5525    0.0000 C   0  0  0  0  0  0  0  0  0  0  0  0
    4.3191   -5.5525    0.0000 C   0  0  0  0  0  0  0  0  0  0  0  0
    4.0586   -4.0753    0.0000 C   0  0  0  0  0  0  0  0  0  0  0  0
    3.3086   -2.7762    0.0000 C   0  0  0  0  0  0  0  0  0  0  0  0
    2.1595   -1.8121    0.0000 C   0  0  0  0  0  0  0  0  0  0  0  0
    2.9095   -0.5130    0.0000 C   0  0  0  0  0  0  0  0  0  0  0  0
    2.1595    0.7860    0.0000 O   0  0  0  0  0  0  0  0  0  0  0  0
    4.4095   -0.5130    0.0000 N   0  0  0  0  0  0  0  0  0  0  0  0
    5.1595    0.7860    0.0000 C   0  0  0  0  0  0  0  0  0  0  0  0
    6.6595    0.7860    0.0000 N   0  0  0  0  0  0  0  0  0  0  0  0
    7.4095    2.0850    0.0000 N   0  0  0  0  0  0  0  0  0  0  0  0
    6.6595    3.3841    0.0000 N   0  0  0  0  0  0  0  0  0  0  0  0
    5.1595    3.3841    0.0000 N   0  0  0  0  0  0  0  0  0  0  0  0
    4.4095    2.0850    0.0000 N   0  0  0  0  0  0  0  0  0  0  0  0
    0.7500   -1.2990    0.0000 C   0  0  0  0  0  0  0  0  0  0  0  0
    1.5000    0.0000    0.0000 C   0  0  0  0  0  0  0  0  0  0  0  0
    0.7500    1.2990    0.0000 C   0  0  0  0  0  0  0  0  0  0  0  0
   -0.7500    1.2990    0.0000 C   0  0  0  0  0  0  0  0  0  0  0  0
   -1.5000    0.0000    0.0000 C   0  0  0  0  0  0  0  0  0  0  0  0
   -0.7500   -1.2990    0.0000 C   0  0  0  0  0  0  0  0  0  0  0  0
   -2.1595   -1.8121    0.0000 C   0  0  0  0  0  0  0  0  0  0  0  0
   -2.4200   -0.3349    0.0000 C   0  0  0  0  0  0  0  0  0  0  0  0
   -3.8296    0.1782    0.0000 C   0  0  0  0  0  0  0  0  0  0  0  0
   -4.9786   -0.7860    0.0000 C   0  0  0  0  0  0  0  0  0  0  0  0
   -4.7181   -2.2632    0.0000 C   0  0  0  0  0  0  0  0  0  0  0  0
   -3.3086   -2.7762    0.0000 C   0  0  0  0  0  0  0  0  0  0  0  0
   -4.0586   -4.0753    0.0000 C   0  0  0  0  0  0  0  0  0  0  0  0
   -5.2077   -3.1111    0.0000 C   0  0  0  0  0  0  0  0  0  0  0  0
   -6.6172   -3.6241    0.0000 C   0  0  0  0  0  0  0  0  0  0  0  0
   -6.8777   -5.1013    0.0000 C   0  0  0  0  0  0  0  0  0  0  0  0
   -5.7286   -6.0655    0.0000 C   0  0  0  0  0  0  0  0  0  0  0  0
   -4.3191   -5.5525    0.0000 C   0  0  0  0  0  0  0  0  0  0  0  0
   -4.0586   -7.0297    0.0000 C   0  0  0  0  0  0  0  0  0  0  0  0
   -5.5586   -7.0297    0.0000 C   0  0  0  0  0  0  0  0  0  0  0  0
   -6.3086   -8.3287    0.0000 C   0  0  0  0  0  0  0  0  0  0  0  0
   -5.5586   -9.6278    0.0000 C   0  0  0  0  0  0  0  0  0  0  0  0
   -4.0586   -9.6278    0.0000 C   0  0  0  0  0  0  0  0  0  0  0  0
   -3.3086   -8.3287    0.0000 C   0  0  0  0  0  0  0  0  0  0  0  0
   -2.1595   -9.2929    0.0000 C   0  0  0  0  0  0  0  0  0  0  0  0
   -3.3086  -10.2571    0.0000 C   0  0  0  0  0  0  0  0  0  0  0  0
   -3.0481  -11.7343    0.0000 C   0  0  0  0  0  0  0  0  0  0  0  0
   -1.6386  -12.2474    0.0000 C   0  0  0  0  0  0  0  0  0  0  0  0
   -0.4895  -11.2832    0.0000 C   0  0  0  0  0  0  0  0  0  0  0  0
   -0.7500   -9.8060    0.0000 C   0  0  0  0  0  0  0  0  0  0  0  0
    0.7500   -9.8060    0.0000 C   0  0  0  0  0  0  0  0  0  0  0  0
    0.4895  -11.2832    0.0000 C   0  0  0  0  0  0  0  0  0  0  0  0
    1.6386  -12.2474    0.0000 C   0  0  0  0  0  0  0  0  0  0  0  0
    3.0481  -11.7343    0.0000 C   0  0  0  0  0  0  0  0  0  0  0  0
    3.3086  -10.2571    0.0000 C   0  0  0  0  0  0  0  0  0  0  0  0
    2.1595   -9.2929    0.0000 C   0  0  0  0  0  0  0  0  0  0  0  0
    3.3086   -8.3287    0.0000 C   0  0  0  0  0  0  0  0  0  0  0  0
    4.0586   -9.6278    0.0000 C   0  0  0  0  0  0  0  0  0  0  0  0
    5.5586   -9.6278    0.0000 C   0  0  0  0  0  0  0  0  0  0  0  0
    6.3086   -8.3287    0.0000 C   0  0  0  0  0  0  0  0  0  0  0  0
    5.5586   -7.0297    0.0000 C   0  0  0  0  0  0  0  0  0  0  0  0
    4.0586   -7.0297    0.0000 C   0  0  0  0  0  0  0  0  0  0  0  0
  1  2  1  0
  2  3  1  0
  3  4  1  0
  4  5  1  0
  5  6  1  0
  6  7  2  0
  6  8  1  0
  8  9  1  0
  9 10  2  0
 10 11  1  0
 11 12  2  0
 12 13  1  0
 13 14  2  0
  5 15  1  0
 15 16  2  0
 16 17  1  0
 17 18  2  0
 18 19  1  0
 19 20  2  0
 20 21  1  0
 21 22  2  0
 22 23  1  0
 23 24  2  0
 24 25  1  0
 25 26  2  0
 26 27  1  0
 27 28  2  0
 28 29  1  0
 29 30  2  0
 30 31  1  0
 31 32  2  0
 32 33  1  0
 33 34  2  0
 34 35  1  0
 35 36  2  0
 36 37  1  0
 37 38  2  0
 38 39  1  0
 39 40  2  0
 40 41  1  0
 41 42  2  0
 42 43  1  0
 43 44  2  0
 44 45  1  0
 45 46  2  0
 46 47  1  0
 47 48  2  0
 48 49  1  0
 49 50  2  0
 50 51  1  0
 51 52  2  0
 52 53  1  0
 53 54  2  0
 54 55  1  0
 55 56  2  0
 56  2  1  0
 14  9  1  0
 20 15  1  0
 26 21  1  0
 32 27  1  0
 38 33  1  0
 44 39  1  0
 50 45  1  0
 56 51  1  0
M  END
>  <Title>  (616) 
idAAVTgen9

$$$$

     RDKit          2D

102102  0  0  0  0  0  0  0  0999 V2000
   25.6159   -0.0000    0.0000 C   0  0  0  0  0  0  0  0  0  0  0  0
   24.1159    0.0000    0.0000 C   0  0  0  0  0  0  0  0  0  0  0  0
   24.0692    1.4993    0.0000 C   0  0  0  0  0  0  0  0  0  0  0  0
   23.9294    2.9927    0.0000 C   0  0  0  0  0  0  0  0  0  0  0  0
   23.6971    4.4746    0.0000 C   0  0  0  0  0  0  0  0  0  0  0  0
   23.3731    5.9392    0.0000 C   0  0  0  0  0  0  0  0  0  0  0  0
   22.9586    7.3808    0.0000 C   0  0  0  0  0  0  0  0  0  0  0  0
   22.4553    8.7939    0.0000 C   0  0  0  0  0  0  0  0  0  0  0  0
   21.8652   10.1729    0.0000 C   0  0  0  0  0  0  0  0  0  0  0  0
   21.1904   11.5126    0.0000 C   0  0  0  0  0  0  0  0  0  0  0  0
   20.4337   12.8077    0.0000 C   0  0  0  0  0  0  0  0  0  0  0  0
   19.5979   14.0533    0.0000 C   0  0  0  0  0  0  0  0  0  0  0  0
   18.6863   15.2445    0.0000 C   0  0  0  0  0  0  0  0  0  0  0  0
   17.7025   16.3767    0.0000 C   0  0  0  0  0  0  0  0  0  0  0  0
   16.6501   17.4456    0.0000 C   0  0  0  0  0  0  0  0  0  0  0  0
   15.5333   18.4470    0.0000 C   0  0  0  0  0  0  0  0  0  0  0  0
   14.3564   19.3770    0.0000 C   0  0  0  0  0  0  0  0  0  0  0  0
   13.1240   20.2321    0.0000 C   0  0  0  0  0  0  0  0  0  0  0  0
   11.8407   21.0088    0.0000 C   0  0  0  0  0  0  0  0  0  0  0  0
   10.5117   21.7043    0.0000 C   0  0  0  0  0  0  0  0  0  0  0  0
    9.1420   22.3159    0.0000 C   0  0  0  0  0  0  0  0  0  0  0  0
    7.7370   22.8411    0.0000 C   0  0  0  0  0  0  0  0  0  0  0  0
    6.3020   23.2779    0.0000 C   0  0  0  0  0  0  0  0  0  0  0  0
    4.8426   23.6246    0.0000 C   0  0  0  0  0  0  0  0  0  0  0  0
    3.3645   23.8800    0.0000 C   0  0  0  0  0  0  0  0  0  0  0  0
    1.8734   24.0430    0.0000 C   0  0  0  0  0  0  0  0  0  0  0  0
    0.3750   24.1129    0.0000 C   0  0  0  0  0  0  0  0  0  0  0  0
   -1.1248   24.0896    0.0000 C   0  0  0  0  0  0  0  0  0  0  0  0
   -2.6202   23.9731    0.0000 C   0  0  0  0  0  0  0  0  0  0  0  0
   -4.1056   23.7638    0.0000 C   0  0  0  0  0  0  0  0  0  0  0  0
   -5.5750   23.4626    0.0000 C   0  0  0  0  0  0  0  0  0  0  0  0
   -7.0229   23.0706    0.0000 C   0  0  0  0  0  0  0  0  0  0  0  0
   -8.4436   22.5894    0.0000 C   0  0  0  0  0  0  0  0  0  0  0  0
   -9.8316   22.0208    0.0000 C   0  0  0  0  0  0  0  0  0  0  0  0
  -11.1816   21.3669    0.0000 C   0  0  0  0  0  0  0  0  0  0  0  0
  -12.4884   20.6304    0.0000 C   0  0  0  0  0  0  0  0  0  0  0  0
  -13.7468   19.8141    0.0000 C   0  0  0  0  0  0  0  0  0  0  0  0
  -14.9521   18.9212    0.0000 C   0  0  0  0  0  0  0  0  0  0  0  0
  -16.0995   17.9550    0.0000 C   0  0  0  0  0  0  0  0  0  0  0  0
  -17.1846   16.9194    0.0000 C   0  0  0  0  0  0  0  0  0  0  0  0
  -18.2032   15.8183    0.0000 C   0  0  0  0  0  0  0  0  0  0  0  0
  -19.1514   14.6560    0.0000 C   0  0  0  0  0  0  0  0  0  0  0  0
  -20.0255   13.4370    0.0000 C   0  0  0  0  0  0  0  0  0  0  0  0
  -20.8222   12.1660    0.0000 C   0  0  0  0  0  0  0  0  0  0  0  0
  -21.5382   10.8480    0.0000 C   0  0  0  0  0  0  0  0  0  0  0  0
  -22.1710    9.4880    0.0000 C   0  0  0  0  0  0  0  0  0  0  0  0
  -22.7180    8.0913    0.0000 C   0  0  0  0  0  0  0  0  0  0  0  0
  -23.1771    6.6633    0.0000 C   0  0  0  0  0  0  0  0  0  0  0  0
  -23.5465    5.2095    0.0000 C   0  0  0  0  0  0  0  0  0  0  0  0
  -23.8248    3.7355    0.0000 C   0  0  0  0  0  0  0  0  0  0  0  0
  -24.0109    2.2471    0.0000 C   0  0  0  0  0  0  0  0  0  0  0  0
  -24.1042    0.7500    0.0000 C   0  0  0  0  0  0  0  0  0  0  0  0
  -24.1042   -0.7500    0.0000 C   0  0  0  0  0  0  0  0  0  0  0  0
  -24.0109   -2.2471    0.0000 C   0  0  0  0  0  0  0  0  0  0  0  0
  -23.8248   -3.7355    0.0000 C   0  0  0  0  0  0  0  0  0  0  0  0
  -23.5465   -5.2095    0.0000 C   0  0  0  0  0  0  0  0  0  0  0  0
  -23.1771   -6.6633    0.0000 C   0  0  0  0  0  0  0  0  0  0  0  0
  -22.7180   -8.0913    0.0000 C   0  0  0  0  0  0  0  0  0  0  0  0
  -22.1710   -9.4880    0.0000 C   0  0  0  0  0  0  0  0  0  0  0  0
  -21.5382  -10.8480    0.0000 C   0  0  0  0  0  0  0  0  0  0  0  0
  -20.8222  -12.1660    0.0000 C   0  0  0  0  0  0  0  0  0  0  0  0
  -20.0255  -13.4370    0.0000 C   0  0  0  0  0  0  0  0  0  0  0  0
  -19.1514  -14.6560    0.0000 C   0  0  0  0  0  0  0  0  0  0  0  0
  -18.2032  -15.8183    0.0000 C   0  0  0  0  0  0  0  0  0  0  0  0
  -17.1846  -16.9194    0.0000 C   0  0  0  0  0  0  0  0  0  0  0  0
  -16.0995  -17.9550    0.0000 C   0  0  0  0  0  0  0  0  0  0  0  0
  -14.9521  -18.9212    0.0000 C   0  0  0  0  0  0  0  0  0  0  0  0
  -13.7468  -19.8141    0.0000 C   0  0  0  0  0  0  0  0  0  0  0  0
  -12.4884  -20.6304    0.0000 C   0  0  0  0  0  0  0  0  0  0  0  0
  -11.1816  -21.3669    0.0000 C   0  0  0  0  0  0  0  0  0  0  0  0
   -9.8316  -22.0208    0.0000 C   0  0  0  0  0  0  0  0  0  0  0  0
   -8.4436  -22.5894    0.0000 C   0  0  0  0  0  0  0  0  0  0  0  0
   -7.0229  -23.0706    0.0000 C   0  0  0  0  0  0  0  0  0  0  0  0
   -5.5750  -23.4626    0.0000 C   0  0  0  0  0  0  0  0  0  0  0  0
   -4.1056  -23.7638    0.0000 C   0  0  0  0  0  0  0  0  0  0  0  0
   -2.6202  -23.9731    0.0000 C   0  0  0  0  0  0  0  0  0  0  0  0
   -1.1248  -24.0896    0.0000 C   0  0  0  0  0  0  0  0  0  0  0  0
    0.3750  -24.1129    0.0000 C   0  0  0  0  0  0  0  0  0  0  0  0
    1.8734  -24.0430    0.0000 C   0  0  0  0  0  0  0  0  0  0  0  0
    3.3645  -23.8800    0.0000 C   0  0  0  0  0  0  0  0  0  0  0  0
    4.8426  -23.6246    0.0000 C   0  0  0  0  0  0  0  0  0  0  0  0
    6.3020  -23.2779    0.0000 C   0  0  0  0  0  0  0  0  0  0  0  0
    7.7370  -22.8411    0.0000 C   0  0  0  0  0  0  0  0  0  0  0  0
    9.1420  -22.3159    0.0000 C   0  0  0  0  0  0  0  0  0  0  0  0
   10.5117  -21.7043    0.0000 C   0  0  0  0  0  0  0  0  0  0  0  0
   11.8407  -21.0088    0.0000 C   0  0  0  0  0  0  0  0  0  0  0  0
   13.1240  -20.2321    0.0000 C   0  0  0  0  0  0  0  0  0  0  0  0
   14.3564  -19.3770    0.0000 C   0  0  0  0  0  0  0  0  0  0  0  0
   15.5333  -18.4470    0.0000 C   0  0  0  0  0  0  0  0  0  0  0  0
   16.6501  -17.4456    0.0000 C   0  0  0  0  0  0  0  0  0  0  0  0
   17.7025  -16.3767    0.0000 C   0  0  0  0  0  0  0  0  0  0  0  0
   18.6863  -15.2445    0.0000 C   0  0  0  0  0  0  0  0  0  0  0  0
   19.5979  -14.0533    0.0000 C   0  0  0  0  0  0  0  0  0  0  0  0
   20.4337  -12.8077    0.0000 C   0  0  0  0  0  0  0  0  0  0  0  0
   21.1904  -11.5126    0.0000 C   0  0  0  0  0  0  0  0  0  0  0  0
   21.8652  -10.1729    0.0000 C   0  0  0  0  0  0  0  0  0  0  0  0
   22.4553   -8.7939    0.0000 C   0  0  0  0  0  0  0  0  0  0  0  0
   22.9586   -7.3808    0.0000 C   0  0  0  0  0  0  0  0  0  0  0  0
   23.3731   -5.9392    0.0000 C   0  0  0  0  0  0  0  0  0  0  0  0
   23.6971   -4.4746    0.0000 C   0  0  0  0  0  0  0  0  0  0  0  0
   23.9294   -2.9927    0.0000 C   0  0  0  0  0  0  0  0  0  0  0  0
   24.0692   -1.4993    0.0000 C   0  0  0  0  0  0  0  0  0  0  0  0
  1  2  1  0
  2  3  1  0
  3  4  1  0
  4  5  1  0
  5  6  1  0
  6  7  1  0
  7  8  1  0
  8  9  1  0
  9 10  1  0
 10 11  1  0
 11 12  1  0
 12 13  1  0
 13 14  1  0
 14 15  1  0
 15 16  1  0
 16 17  1  0
 17 18  1  0
 18 19  1  0
 19 20  1  0
 20 21  1  0
 21 22  1  0
 22 23  1  0
 23 24  1  0
 24 25  1  0
 25 26  1  0
 26 27  1  0
 27 28  1  0
 28 29  1  0
 29 30  1  0
 30 31  1  0
 31 32  1  0
 32 33  1  0
 33 34  1  0
 34 35  1  0
 35 36  1  0
 36 37  1  0
 37 38  1  0
 38 39  1  0
 39 40  1  0
 40 41  1  0
 41 42  1  0
 42 43  1  0
 43 44  1  0
 44 45  1  0
 45 46  1  0
 46 47  1  0
 47 48  1  0
 48 49  1  0
 49 50  1  0
 50 51  1  0
 51 52  1  0
 52 53  1  0
 53 54  1  0
 54 55  1  0
 55 56  1  0
 56 57  1  0
 57 58  1  0
 58 59  1  0
 59 60  1  0
 60 61  1  0
 61 62  1  0
 62 63  1  0
 63 64  1  0
 64 65  1  0
 65 66  1  0
 66 67  1  0
 67 68  1  0
 68 69  1  0
 69 70  1  0
 70 71  1  0
 71 72  1  0
 72 73  1  0
 73 74  1  0
 74 75  1  0
 75 76  1  0
 76 77  1  0
 77 78  1  0
 78 79  1  0
 79 80  1  0
 80 81  1  0
 81 82  1  0
 82 83  1  0
 83 84  1  0
 84 85  1  0
 85 86  1  0
 86 87  1  0
 87 88  1  0
 88 89  1  0
 89 90  1  0
 90 91  1  0
 91 92  1  0
 92 93  1  0
 93 94  1  0
 94 95  1  0
 95 96  1  0
 96 97  1  0
 97 98  1  0
 98 99  1  0
 99100  1  0
100101  1  0
101102  1  0
102  2  1  0
M  END
>  <Title>  (617) 
idAAVUgen9

$$$$

     RDKit          2D

 20 22  0  0  0  0  0  0  0  0999 V2000
    3.0000    0.0000    0.0000 C   0  0  0  0  0  0  0  0  0  0  0  0
    1.5000    0.0000    0.0000 C   0  0  0  0  0  0  0  0  0  0  0  0
    0.7500   -1.2990    0.0000 C   0  0  0  0  0  0  0  0  0  0  0  0
   -0.7500   -1.2990    0.0000 C   0  0  0  0  0  0  0  0  0  0  0  0
   -1.5000    0.0000    0.0000 C   0  0  0  0  0  0  0  0  0  0  0  0
   -0.7500    1.2990    0.0000 C   0  0  0  0  0  0  0  0  0  0  0  0
    0.7500    1.2990    0.0000 C   0  0  0  0  0  0  0  0  0  0  0  0
    1.5000    2.5981    0.0000 C   0  0  0  0  0  0  0  0  0  0  0  0
    0.7500    3.8971    0.0000 O   0  0  0  0  0  0  0  0  0  0  0  0
    3.0000    2.5981    0.0000 N   0  0  0  0  0  0  0  0  0  0  0  0
    3.7500    3.8971    0.0000 C   0  0  0  0  0  0  0  0  0  0  0  0
    3.1399    5.2674    0.0000 N   0  0  0  0  0  0  0  0  0  0  0  0
    4.2546    6.2711    0.0000 N   0  0  0  0  0  0  0  0  0  0  0  0
    5.5537    5.5211    0.0000 N   0  0  0  0  0  0  0  0  0  0  0  0
    5.2418    4.0539    0.0000 N   0  0  0  0  0  0  0  0  0  0  0  0
    6.2455    2.9392    0.0000 C   0  0  0  0  0  0  0  0  0  0  0  0
    7.7373    3.0960    0.0000 C   0  0  0  0  0  0  0  0  0  0  0  0
    8.3474    1.7257    0.0000 C   0  0  0  0  0  0  0  0  0  0  0  0
    7.2326    0.7220    0.0000 C   0  0  0  0  0  0  0  0  0  0  0  0
    5.9336    1.4720    0.0000 C   0  0  0  0  0  0  0  0  0  0  0  0
  1  2  1  0
  2  3  2  0
  3  4  1  0
  4  5  1  0
  5  6  1  0
  6  7  1  0
  7  8  1  0
  8  9  2  0
  8 10  1  0
 10 11  1  0
 11 12  2  0
 12 13  1  0
 13 14  2  0
 14 15  1  0
 15 16  1  0
 16 17  2  0
 17 18  1  0
 18 19  2  0
 19 20  1  0
  7  2  1  0
 15 11  1  0
 20 16  1  0
M  END
>  <Title>  (618) 
idAAVVgen9

$$$$

     RDKit          2D

  9  9  0  0  0  0  0  0  0  0999 V2000
    2.7760   -2.5981    0.0000 O   0  0  0  0  0  0  0  0  0  0  0  0
    3.5260   -1.2990    0.0000 C   0  0  0  0  0  0  0  0  0  0  0  0
    5.0260   -1.2990    0.0000 O   0  0  0  0  0  0  0  0  0  0  0  0
    2.7760    0.0000    0.0000 O   0  0  0  0  0  0  0  0  0  0  0  0
    1.2760    0.0000    0.0000 C   0  0  0  0  0  0  0  0  0  0  0  0
    0.3943    1.2135    0.0000 C   0  0  0  0  0  0  0  0  0  0  0  0
   -1.0323    0.7500    0.0000 C   0  0  0  0  0  0  0  0  0  0  0  0
   -1.0323   -0.7500    0.0000 C   0  0  0  0  0  0  0  0  0  0  0  0
    0.3943   -1.2135    0.0000 C   0  0  0  0  0  0  0  0  0  0  0  0
  1  2  2  0
  2  3  1  0
  2  4  1  0
  4  5  1  0
  5  6  2  0
  6  7  1  0
  7  8  2  0
  8  9  1  0
  9  5  1  0
M  END
>  <Title>  (619) 
idAAVWgen9

$$$$

     RDKit          2D

  8  8  0  0  0  0  0  0  0  0999 V2000
    3.0000    0.0000    0.0000 C   0  0  0  0  0  0  0  0  0  0  0  0
    1.5000    0.0000    0.0000 C   0  0  0  0  0  0  0  0  0  0  0  0
    0.7500   -1.2990    0.0000 C   0  0  0  0  0  0  0  0  0  0  0  0
   -0.7500   -1.2990    0.0000 C   0  0  0  0  0  0  0  0  0  0  0  0
   -1.5000   -2.5981    0.0000 C   0  0  0  0  0  0  0  0  0  0  0  0
   -1.5000    0.0000    0.0000 N   0  0  0  0  0  0  0  0  0  0  0  0
   -0.7500    1.2990    0.0000 C   0  0  0  0  0  0  0  0  0  0  0  0
    0.7500    1.2990    0.0000 C   0  0  0  0  0  0  0  0  0  0  0  0
  1  2  1  0
  2  3  2  0
  3  4  1  0
  4  5  1  0
  4  6  1  0
  6  7  1  0
  7  8  1  0
  8  2  1  0
M  END
>  <Title>  (620) 
idAAVXgen9

$$$$

     RDKit          2D

  9  9  0  0  0  0  0  0  0  0999 V2000
    6.5260   -1.2990    0.0000 C   0  0  0  0  0  0  0  0  0  0  0  0
    5.7760   -0.0000    0.0000 C   0  0  0  0  0  0  0  0  0  0  0  0
    4.2760   -0.0000    0.0000 C   0  0  0  0  0  0  0  0  0  0  0  0
    2.7760    0.0000    0.0000 C   0  0  0  0  0  0  0  0  0  0  0  0
    1.2760    0.0000    0.0000 C   0  0  0  0  0  0  0  0  0  0  0  0
    0.3943    1.2135    0.0000 C   0  0  0  0  0  0  0  0  0  0  0  0
   -1.0323    0.7500    0.0000 C   0  0  0  0  0  0  0  0  0  0  0  0
   -1.0323   -0.7500    0.0000 C   0  0  0  0  0  0  0  0  0  0  0  0
    0.3943   -1.2135    0.0000 C   0  0  0  0  0  0  0  0  0  0  0  0
  1  2  2  0
  2  3  1  0
  3  4  3  0
  4  5  1  0
  5  6  2  0
  6  7  1  0
  7  8  2  0
  8  9  1  0
  9  5  1  0
M  END
>  <Title>  (621) 
idAAVYgen9

$$$$

     RDKit          2D

  6  6  0  0  0  0  0  0  0  0999 V2000
    2.7760    0.0000    0.0000 O   0  0  0  0  0  0  0  0  0  0  0  0
    1.2760    0.0000    0.0000 C   0  0  0  0  0  0  0  0  0  0  0  0
    0.3943    1.2135    0.0000 C   0  0  0  0  0  0  0  0  0  0  0  0
   -1.0323    0.7500    0.0000 C   0  0  0  0  0  0  0  0  0  0  0  0
   -1.0323   -0.7500    0.0000 C   0  0  0  0  0  0  0  0  0  0  0  0
    0.3943   -1.2135    0.0000 O   0  0  0  0  0  0  0  0  0  0  0  0
  1  2  2  0
  2  3  1  0
  3  4  2  0
  4  5  1  0
  5  6  1  0
  6  2  1  0
M  END
>  <Title>  (622) 
idAAVZgen9

$$$$

     RDKit          2D

110111  0  0  0  0  0  0  0  0999 V2000
   -2.1488   -1.0903    0.0000 C   0  0  0  0  0  0  0  0  0  0  0  0
   -2.4838    0.3718    0.0000 C   0  0  0  0  0  0  0  0  0  0  0  0
   -3.9552    0.0803    0.0000 C   0  0  0  0  0  0  0  0  0  0  0  0
   -5.4413   -0.1236    0.0000 C   0  0  0  0  0  0  0  0  0  0  0  0
   -6.9368   -0.2391    0.0000 C   0  0  0  0  0  0  0  0  0  0  0  0
   -8.4366   -0.2658    0.0000 C   0  0  0  0  0  0  0  0  0  0  0  0
   -9.9353   -0.2035    0.0000 C   0  0  0  0  0  0  0  0  0  0  0  0
  -11.4277   -0.0526    0.0000 C   0  0  0  0  0  0  0  0  0  0  0  0
  -12.9085    0.1864    0.0000 C   0  0  0  0  0  0  0  0  0  0  0  0
  -14.3726    0.5127    0.0000 C   0  0  0  0  0  0  0  0  0  0  0  0
  -15.8148    0.9253    0.0000 C   0  0  0  0  0  0  0  0  0  0  0  0
  -17.2300    1.4225    0.0000 C   0  0  0  0  0  0  0  0  0  0  0  0
  -18.6132    2.0027    0.0000 C   0  0  0  0  0  0  0  0  0  0  0  0
  -19.9597    2.6638    0.0000 C   0  0  0  0  0  0  0  0  0  0  0  0
  -21.2646    3.4035    0.0000 C   0  0  0  0  0  0  0  0  0  0  0  0
  -22.5234    4.2192    0.0000 C   0  0  0  0  0  0  0  0  0  0  0  0
  -23.7317    5.1080    0.0000 C   0  0  0  0  0  0  0  0  0  0  0  0
  -24.8852    6.0669    0.0000 C   0  0  0  0  0  0  0  0  0  0  0  0
  -25.9799    7.0924    0.0000 C   0  0  0  0  0  0  0  0  0  0  0  0
  -27.0119    8.1810    0.0000 C   0  0  0  0  0  0  0  0  0  0  0  0
  -27.9776    9.3288    0.0000 C   0  0  0  0  0  0  0  0  0  0  0  0
  -28.8736   10.5318    0.0000 C   0  0  0  0  0  0  0  0  0  0  0  0
  -29.6967   11.7857    0.0000 C   0  0  0  0  0  0  0  0  0  0  0  0
  -30.4441   13.0863    0.0000 C   0  0  0  0  0  0  0  0  0  0  0  0
  -31.1132   14.4288    0.0000 C   0  0  0  0  0  0  0  0  0  0  0  0
  -31.7016   15.8086    0.0000 C   0  0  0  0  0  0  0  0  0  0  0  0
  -32.2072   17.2208    0.0000 C   0  0  0  0  0  0  0  0  0  0  0  0
  -32.6282   18.6605    0.0000 C   0  0  0  0  0  0  0  0  0  0  0  0
  -32.9633   20.1226    0.0000 C   0  0  0  0  0  0  0  0  0  0  0  0
  -33.2111   21.6020    0.0000 C   0  0  0  0  0  0  0  0  0  0  0  0
  -33.3708   23.0934    0.0000 C   0  0  0  0  0  0  0  0  0  0  0  0
  -33.4419   24.5918    0.0000 C   0  0  0  0  0  0  0  0  0  0  0  0
  -33.4241   26.0917    0.0000 C   0  0  0  0  0  0  0  0  0  0  0  0
  -33.3175   27.5879    0.0000 C   0  0  0  0  0  0  0  0  0  0  0  0
  -33.1225   29.0751    0.0000 C   0  0  0  0  0  0  0  0  0  0  0  0
  -32.8397   30.5482    0.0000 C   0  0  0  0  0  0  0  0  0  0  0  0
  -32.4701   32.0020    0.0000 C   0  0  0  0  0  0  0  0  0  0  0  0
  -32.0150   33.4313    0.0000 C   0  0  0  0  0  0  0  0  0  0  0  0
  -31.4761   34.8311    0.0000 C   0  0  0  0  0  0  0  0  0  0  0  0
  -30.8552   36.1966    0.0000 C   0  0  0  0  0  0  0  0  0  0  0  0
  -30.1544   37.5229    0.0000 C   0  0  0  0  0  0  0  0  0  0  0  0
  -29.3764   38.8053    0.0000 C   0  0  0  0  0  0  0  0  0  0  0  0
  -28.5237   40.0394    0.0000 C   0  0  0  0  0  0  0  0  0  0  0  0
  -27.5995   41.2208    0.0000 C   0  0  0  0  0  0  0  0  0  0  0  0
  -26.6068   42.3454    0.0000 C   0  0  0  0  0  0  0  0  0  0  0  0
  -25.5493   43.4092    0.0000 C   0  0  0  0  0  0  0  0  0  0  0  0
  -24.4306   44.4084    0.0000 C   0  0  0  0  0  0  0  0  0  0  0  0
  -23.2547   45.3397    0.0000 C   0  0  0  0  0  0  0  0  0  0  0  0
  -22.0257   46.1997    0.0000 C   0  0  0  0  0  0  0  0  0  0  0  0
  -20.7479   46.9853    0.0000 C   0  0  0  0  0  0  0  0  0  0  0  0
  -19.4258   47.6939    0.0000 C   0  0  0  0  0  0  0  0  0  0  0  0
  -18.0641   48.3229    0.0000 C   0  0  0  0  0  0  0  0  0  0  0  0
  -16.6675   48.8701    0.0000 C   0  0  0  0  0  0  0  0  0  0  0  0
  -15.2409   49.3336    0.0000 C   0  0  0  0  0  0  0  0  0  0  0  0
  -13.7893   49.7118    0.0000 C   0  0  0  0  0  0  0  0  0  0  0  0
  -12.3179   50.0034    0.0000 C   0  0  0  0  0  0  0  0  0  0  0  0
  -10.8319   50.2072    0.0000 C   0  0  0  0  0  0  0  0  0  0  0  0
   -9.3363   50.3227    0.0000 C   0  0  0  0  0  0  0  0  0  0  0  0
   -7.8365   50.3494    0.0000 C   0  0  0  0  0  0  0  0  0  0  0  0
   -6.3378   50.2871    0.0000 C   0  0  0  0  0  0  0  0  0  0  0  0
   -4.8454   50.1363    0.0000 C   0  0  0  0  0  0  0  0  0  0  0  0
   -3.3646   49.8972    0.0000 C   0  0  0  0  0  0  0  0  0  0  0  0
   -1.9005   49.5709    0.0000 C   0  0  0  0  0  0  0  0  0  0  0  0
   -0.4584   49.1584    0.0000 C   0  0  0  0  0  0  0  0  0  0  0  0
    0.9568   48.6611    0.0000 C   0  0  0  0  0  0  0  0  0  0  0  0
    2.3401   48.0810    0.0000 C   0  0  0  0  0  0  0  0  0  0  0  0
    3.6865   47.4199    0.0000 C   0  0  0  0  0  0  0  0  0  0  0  0
    4.9915   46.6801    0.0000 C   0  0  0  0  0  0  0  0  0  0  0  0
    6.2503   45.8644    0.0000 C   0  0  0  0  0  0  0  0  0  0  0  0
    7.4585   44.9756    0.0000 C   0  0  0  0  0  0  0  0  0  0  0  0
    8.6120   44.0167    0.0000 C   0  0  0  0  0  0  0  0  0  0  0  0
    9.7067   42.9912    0.0000 C   0  0  0  0  0  0  0  0  0  0  0  0
   10.7387   41.9026    0.0000 C   0  0  0  0  0  0  0  0  0  0  0  0
   11.7044   40.7548    0.0000 C   0  0  0  0  0  0  0  0  0  0  0  0
   12.6004   39.5518    0.0000 C   0  0  0  0  0  0  0  0  0  0  0  0
   13.4236   38.2979    0.0000 C   0  0  0  0  0  0  0  0  0  0  0  0
   14.1710   36.9973    0.0000 C   0  0  0  0  0  0  0  0  0  0  0  0
   14.8401   35.6548    0.0000 C   0  0  0  0  0  0  0  0  0  0  0  0
   15.4284   34.2750    0.0000 C   0  0  0  0  0  0  0  0  0  0  0  0
   15.9340   32.8628    0.0000 C   0  0  0  0  0  0  0  0  0  0  0  0
   16.3551   31.4231    0.0000 C   0  0  0  0  0  0  0  0  0  0  0  0
   16.6901   29.9610    0.0000 C   0  0  0  0  0  0  0  0  0  0  0  0
   16.9379   28.4816    0.0000 C   0  0  0  0  0  0  0  0  0  0  0  0
   17.0977   26.9902    0.0000 C   0  0  0  0  0  0  0  0  0  0  0  0
   17.1688   25.4918    0.0000 C   0  0  0  0  0  0  0  0  0  0  0  0
   17.1510   23.9920    0.0000 C   0  0  0  0  0  0  0  0  0  0  0  0
   17.0444   22.4957    0.0000 C   0  0  0  0  0  0  0  0  0  0  0  0
   16.8493   21.0085    0.0000 C   0  0  0  0  0  0  0  0  0  0  0  0
   16.5665   19.5354    0.0000 C   0  0  0  0  0  0  0  0  0  0  0  0
   16.1969   18.0816    0.0000 C   0  0  0  0  0  0  0  0  0  0  0  0
   15.7419   16.6523    0.0000 C   0  0  0  0  0  0  0  0  0  0  0  0
   15.2029   15.2525    0.0000 C   0  0  0  0  0  0  0  0  0  0  0  0
   14.5820   13.8870    0.0000 C   0  0  0  0  0  0  0  0  0  0  0  0
   13.8813   12.5608    0.0000 C   0  0  0  0  0  0  0  0  0  0  0  0
   13.1032   11.2783    0.0000 C   0  0  0  0  0  0  0  0  0  0  0  0
   12.2506   10.0442    0.0000 C   0  0  0  0  0  0  0  0  0  0  0  0
   11.3263    8.8628    0.0000 C   0  0  0  0  0  0  0  0  0  0  0  0
   10.3337    7.7383    0.0000 C   0  0  0  0  0  0  0  0  0  0  0  0
    9.2762    6.6745    0.0000 C   0  0  0  0  0  0  0  0  0  0  0  0
    8.1575    5.6752    0.0000 C   0  0  0  0  0  0  0  0  0  0  0  0
    6.9816    4.7439    0.0000 C   0  0  0  0  0  0  0  0  0  0  0  0
    5.7526    3.8840    0.0000 C   0  0  0  0  0  0  0  0  0  0  0  0
    4.4748    3.0983    0.0000 C   0  0  0  0  0  0  0  0  0  0  0  0
    3.1527    2.3897    0.0000 C   0  0  0  0  0  0  0  0  0  0  0  0
    1.7909    1.7607    0.0000 C   0  0  0  0  0  0  0  0  0  0  0  0
    0.3943    1.2135    0.0000 C   0  0  0  0  0  0  0  0  0  0  0  0
    1.2760    0.0000    0.0000 C   0  0  0  0  0  0  0  0  0  0  0  0
    0.3943   -1.2135    0.0000 C   0  0  0  0  0  0  0  0  0  0  0  0
   -1.0323   -0.7500    0.0000 C   0  0  0  0  0  0  0  0  0  0  0  0
   -1.0323    0.7500    0.0000 C   0  0  0  0  0  0  0  0  0  0  0  0
  1  2  1  0
  2  3  1  0
  3  4  1  0
  4  5  1  0
  5  6  1  0
  6  7  1  0
  7  8  1  0
  8  9  1  0
  9 10  1  0
 10 11  1  0
 11 12  1  0
 12 13  1  0
 13 14  1  0
 14 15  1  0
 15 16  1  0
 16 17  1  0
 17 18  1  0
 18 19  1  0
 19 20  1  0
 20 21  1  0
 21 22  1  0
 22 23  1  0
 23 24  1  0
 24 25  1  0
 25 26  1  0
 26 27  1  0
 27 28  1  0
 28 29  1  0
 29 30  1  0
 30 31  1  0
 31 32  1  0
 32 33  1  0
 33 34  1  0
 34 35  1  0
 35 36  1  0
 36 37  1  0
 37 38  1  0
 38 39  1  0
 39 40  1  0
 40 41  1  0
 41 42  1  0
 42 43  1  0
 43 44  1  0
 44 45  1  0
 45 46  1  0
 46 47  1  0
 47 48  1  0
 48 49  1  0
 49 50  1  0
 50 51  1  0
 51 52  1  0
 52 53  1  0
 53 54  1  0
 54 55  1  0
 55 56  1  0
 56 57  1  0
 57 58  1  0
 58 59  1  0
 59 60  1  0
 60 61  1  0
 61 62  1  0
 62 63  1  0
 63 64  1  0
 64 65  1  0
 65 66  1  0
 66 67  1  0
 67 68  1  0
 68 69  1  0
 69 70  1  0
 70 71  1  0
 71 72  1  0
 72 73  1  0
 73 74  1  0
 74 75  1  0
 75 76  1  0
 76 77  1  0
 77 78  1  0
 78 79  1  0
 79 80  1  0
 80 81  1  0
 81 82  1  0
 82 83  1  0
 83 84  1  0
 84 85  1  0
 85 86  1  0
 86 87  1  0
 87 88  1  0
 88 89  1  0
 89 90  1  0
 90 91  1  0
 91 92  1  0
 92 93  1  0
 93 94  1  0
 94 95  1  0
 95 96  1  0
 96 97  1  0
 97 98  1  0
 98 99  1  0
 99100  1  0
100101  1  0
101102  1  0
102103  1  0
103104  1  0
104105  1  0
105106  2  0
106107  1  0
107108  2  0
108109  1  0
109110  2  0
110  2  1  0
110106  1  0
M  END
>  <Title>  (623) 
idAAWAgen9

$$$$

     RDKit          2D

  9  9  0  0  0  0  0  0  0  0999 V2000
    2.7760   -2.5981    0.0000 O   0  0  0  0  0  0  0  0  0  0  0  0
    3.5260   -1.2990    0.0000 C   0  0  0  0  0  0  0  0  0  0  0  0
    5.0260   -1.2990    0.0000 O   0  0  0  0  0  0  0  0  0  0  0  0
    2.7760    0.0000    0.0000 O   0  0  0  0  0  0  0  0  0  0  0  0
    1.2760    0.0000    0.0000 C   0  0  0  0  0  0  0  0  0  0  0  0
    0.3943    1.2135    0.0000 C   0  0  0  0  0  0  0  0  0  0  0  0
   -1.0323    0.7500    0.0000 C   0  0  0  0  0  0  0  0  0  0  0  0
   -1.0323   -0.7500    0.0000 C   0  0  0  0  0  0  0  0  0  0  0  0
    0.3943   -1.2135    0.0000 C   0  0  0  0  0  0  0  0  0  0  0  0
  1  2  2  0
  2  3  1  0
  2  4  1  0
  4  5  1  0
  5  6  1  0
  6  7  2  0
  7  8  1  0
  8  9  1  0
  9  5  1  0
M  END
>  <Title>  (624) 
idAAWBgen9

$$$$

     RDKit          2D

 17 18  0  0  0  0  0  0  0  0999 V2000
    5.2500   -1.2990    0.0000 C   0  0  0  0  0  0  0  0  0  0  0  0
    3.7500   -1.2990    0.0000 C   0  0  0  0  0  0  0  0  0  0  0  0
    3.0000   -2.5981    0.0000 O   0  0  0  0  0  0  0  0  0  0  0  0
    3.0000    0.0000    0.0000 N   0  0  0  0  0  0  0  0  0  0  0  0
    1.5000    0.0000    0.0000 C   0  0  0  0  0  0  0  0  0  0  0  0
    0.7500   -1.2990    0.0000 C   0  0  0  0  0  0  0  0  0  0  0  0
   -0.7500   -1.2990    0.0000 C   0  0  0  0  0  0  0  0  0  0  0  0
   -1.5000    0.0000    0.0000 N   0  0  0  0  0  0  0  0  0  0  0  0
   -3.0000    0.0000    0.0000 C   0  0  0  0  0  0  0  0  0  0  0  0
   -3.7500    1.2990    0.0000 C   0  0  0  0  0  0  0  0  0  0  0  0
   -5.2500    1.2990    0.0000 C   0  0  0  0  0  0  0  0  0  0  0  0
   -6.0000    0.0000    0.0000 C   0  0  0  0  0  0  0  0  0  0  0  0
   -5.2500   -1.2990    0.0000 C   0  0  0  0  0  0  0  0  0  0  0  0
   -3.7500   -1.2990    0.0000 C   0  0  0  0  0  0  0  0  0  0  0  0
   -0.7500    1.2990    0.0000 C   0  0  0  0  0  0  0  0  0  0  0  0
    0.7500    1.2990    0.0000 C   0  0  0  0  0  0  0  0  0  0  0  0
    1.5000    2.5981    0.0000 O   0  0  0  0  0  0  0  0  0  0  0  0
  1  2  1  0
  2  3  2  0
  2  4  1  0
  4  5  1  0
  5  6  1  0
  6  7  1  0
  7  8  1  0
  8  9  1  0
  9 10  2  0
 10 11  1  0
 11 12  2  0
 12 13  1  0
 13 14  2  0
  8 15  1  0
 15 16  2  0
 16 17  1  0
 16  5  1  0
 14  9  1  0
M  END
>  <Title>  (625) 
idAAWCgen9

$$$$

     RDKit          2D

 18 19  0  0  0  0  0  0  0  0999 V2000
   -0.8928  -10.2822    0.0000 C   0  0  0  0  0  0  0  0  0  0  0  0
    0.4775   -9.6721    0.0000 C   0  0  0  0  0  0  0  0  0  0  0  0
    1.8478   -9.0619    0.0000 C   0  0  0  0  0  0  0  0  0  0  0  0
    3.0613   -9.9436    0.0000 O   0  0  0  0  0  0  0  0  0  0  0  0
    2.0046   -7.5702    0.0000 N   0  0  0  0  0  0  0  0  0  0  0  0
    3.3037   -6.8202    0.0000 C   0  0  0  0  0  0  0  0  0  0  0  0
    2.9918   -5.3529    0.0000 C   0  0  0  0  0  0  0  0  0  0  0  0
    1.5000   -5.1962    0.0000 C   0  0  0  0  0  0  0  0  0  0  0  0
    0.7500   -3.8971    0.0000 C   0  0  0  0  0  0  0  0  0  0  0  0
   -0.7500   -3.8971    0.0000 O   0  0  0  0  0  0  0  0  0  0  0  0
    1.5000   -2.5981    0.0000 N   0  0  0  0  0  0  0  0  0  0  0  0
    0.7500   -1.2990    0.0000 C   0  0  0  0  0  0  0  0  0  0  0  0
    1.5000    0.0000    0.0000 N   0  0  0  0  0  0  0  0  0  0  0  0
    0.7500    1.2990    0.0000 N   0  0  0  0  0  0  0  0  0  0  0  0
   -0.7500    1.2990    0.0000 N   0  0  0  0  0  0  0  0  0  0  0  0
   -1.5000    0.0000    0.0000 N   0  0  0  0  0  0  0  0  0  0  0  0
   -0.7500   -1.2990    0.0000 N   0  0  0  0  0  0  0  0  0  0  0  0
    0.8899   -6.5665    0.0000 C   0  0  0  0  0  0  0  0  0  0  0  0
  1  2  3  0
  2  3  1  0
  3  4  2  0
  3  5  1  0
  5  6  1  0
  6  7  1  0
  7  8  1  0
  8  9  1  0
  9 10  2  0
  9 11  1  0
 11 12  1  0
 12 13  2  0
 13 14  1  0
 14 15  2  0
 15 16  1  0
 16 17  2  0
  8 18  1  0
 18  5  1  0
 17 12  1  0
M  END
>  <Title>  (626) 
idAAWDgen9

$$$$

     RDKit          2D

 23 24  0  0  0  0  0  0  0  0999 V2000
   16.7286   -0.0000    0.0000 C   0  0  0  0  0  0  0  0  0  0  0  0
   15.2286   -0.0000    0.0000 C   0  0  0  0  0  0  0  0  0  0  0  0
   13.7286   -0.0000    0.0000 C   0  0  0  0  0  0  0  0  0  0  0  0
   12.2286   -0.0000    0.0000 C   0  0  0  0  0  0  0  0  0  0  0  0
   10.7286   -0.0000    0.0000 C   0  0  0  0  0  0  0  0  0  0  0  0
    9.2286   -0.0000    0.0000 C   0  0  0  0  0  0  0  0  0  0  0  0
    7.7286   -0.0000    0.0000 C   0  0  0  0  0  0  0  0  0  0  0  0
    6.2286   -0.0000    0.0000 C   0  0  0  0  0  0  0  0  0  0  0  0
    4.7286   -0.0000    0.0000 C   0  0  0  0  0  0  0  0  0  0  0  0
    3.2286   -0.0000    0.0000 C   0  0  0  0  0  0  0  0  0  0  0  0
    1.7286    0.0000    0.0000 C   0  0  0  0  0  0  0  0  0  0  0  0
    1.0777    1.3515    0.0000 C   0  0  0  0  0  0  0  0  0  0  0  0
   -0.3846    1.6852    0.0000 O   0  0  0  0  0  0  0  0  0  0  0  0
   -1.5574    0.7500    0.0000 C   0  0  0  0  0  0  0  0  0  0  0  0
   -2.9088    1.4008    0.0000 C   0  0  0  0  0  0  0  0  0  0  0  0
   -1.5574   -0.7500    0.0000 C   0  0  0  0  0  0  0  0  0  0  0  0
   -0.3846   -1.6852    0.0000 C   0  0  0  0  0  0  0  0  0  0  0  0
   -0.7184   -3.1476    0.0000 C   0  0  0  0  0  0  0  0  0  0  0  0
    0.2685   -4.2772    0.0000 C   0  0  0  0  0  0  0  0  0  0  0  0
   -0.5009   -5.5649    0.0000 C   0  0  0  0  0  0  0  0  0  0  0  0
   -1.9633   -5.2311    0.0000 C   0  0  0  0  0  0  0  0  0  0  0  0
   -2.0977   -3.7372    0.0000 C   0  0  0  0  0  0  0  0  0  0  0  0
    1.0777   -1.3515    0.0000 N   0  0  0  0  0  0  0  0  0  0  0  0
  1  2  3  0
  2  3  1  0
  3  4  3  0
  4  5  1  0
  5  6  3  0
  6  7  1  0
  7  8  3  0
  8  9  1  0
  9 10  3  0
 10 11  1  0
 11 12  1  0
 12 13  1  0
 13 14  1  0
 14 15  2  0
 14 16  1  0
 16 17  1  0
 17 18  1  0
 18 19  2  0
 19 20  1  0
 20 21  2  0
 21 22  1  0
 17 23  1  0
 23 11  1  0
 22 18  1  0
M  END
>  <Title>  (627) 
idAAWEgen9

$$$$

     RDKit          2D

104104  0  0  0  0  0  0  0  0999 V2000
   26.0933    0.0000    0.0000 C   0  0  0  0  0  0  0  0  0  0  0  0
   24.5933    0.0000    0.0000 N   0  0  0  0  0  0  0  0  0  0  0  0
   24.5475    1.4993    0.0000 C   0  0  0  0  0  0  0  0  0  0  0  0
   24.4104    2.9930    0.0000 C   0  0  0  0  0  0  0  0  0  0  0  0
   24.1826    4.4756    0.0000 C   0  0  0  0  0  0  0  0  0  0  0  0
   23.8647    5.9416    0.0000 C   0  0  0  0  0  0  0  0  0  0  0  0
   23.4581    7.3854    0.0000 C   0  0  0  0  0  0  0  0  0  0  0  0
   22.9643    8.8018    0.0000 C   0  0  0  0  0  0  0  0  0  0  0  0
   22.3850   10.1854    0.0000 C   0  0  0  0  0  0  0  0  0  0  0  0
   21.7224   11.5311    0.0000 C   0  0  0  0  0  0  0  0  0  0  0  0
   20.9790   12.8339    0.0000 C   0  0  0  0  0  0  0  0  0  0  0  0
   20.1576   14.0890    0.0000 C   0  0  0  0  0  0  0  0  0  0  0  0
   19.2611   15.2917    0.0000 C   0  0  0  0  0  0  0  0  0  0  0  0
   18.2931   16.4375    0.0000 C   0  0  0  0  0  0  0  0  0  0  0  0
   17.2569   17.5222    0.0000 C   0  0  0  0  0  0  0  0  0  0  0  0
   16.1566   18.5416    0.0000 C   0  0  0  0  0  0  0  0  0  0  0  0
   14.9962   19.4921    0.0000 C   0  0  0  0  0  0  0  0  0  0  0  0
   13.7800   20.3701    0.0000 C   0  0  0  0  0  0  0  0  0  0  0  0
   12.5125   21.1723    0.0000 C   0  0  0  0  0  0  0  0  0  0  0  0
   11.1985   21.8957    0.0000 C   0  0  0  0  0  0  0  0  0  0  0  0
    9.8428   22.5377    0.0000 C   0  0  0  0  0  0  0  0  0  0  0  0
    8.4505   23.0958    0.0000 C   0  0  0  0  0  0  0  0  0  0  0  0
    7.0268   23.5680    0.0000 C   0  0  0  0  0  0  0  0  0  0  0  0
    5.5769   23.9526    0.0000 C   0  0  0  0  0  0  0  0  0  0  0  0
    4.1063   24.2480    0.0000 C   0  0  0  0  0  0  0  0  0  0  0  0
    2.6204   24.4532    0.0000 C   0  0  0  0  0  0  0  0  0  0  0  0
    1.1248   24.5675    0.0000 C   0  0  0  0  0  0  0  0  0  0  0  0
   -0.3750   24.5904    0.0000 C   0  0  0  0  0  0  0  0  0  0  0  0
   -1.8735   24.5218    0.0000 C   0  0  0  0  0  0  0  0  0  0  0  0
   -3.3649   24.3620    0.0000 C   0  0  0  0  0  0  0  0  0  0  0  0
   -4.8439   24.1115    0.0000 C   0  0  0  0  0  0  0  0  0  0  0  0
   -6.3048   23.7714    0.0000 C   0  0  0  0  0  0  0  0  0  0  0  0
   -7.7423   23.3428    0.0000 C   0  0  0  0  0  0  0  0  0  0  0  0
   -9.1509   22.8274    0.0000 C   0  0  0  0  0  0  0  0  0  0  0  0
  -10.5256   22.2270    0.0000 C   0  0  0  0  0  0  0  0  0  0  0  0
  -11.8610   21.5440    0.0000 C   0  0  0  0  0  0  0  0  0  0  0  0
  -13.1524   20.7808    0.0000 C   0  0  0  0  0  0  0  0  0  0  0  0
  -14.3948   19.9404    0.0000 C   0  0  0  0  0  0  0  0  0  0  0  0
  -15.5837   19.0257    0.0000 C   0  0  0  0  0  0  0  0  0  0  0  0
  -16.7146   18.0403    0.0000 C   0  0  0  0  0  0  0  0  0  0  0  0
  -17.7833   16.9877    0.0000 C   0  0  0  0  0  0  0  0  0  0  0  0
  -18.7858   15.8720    0.0000 C   0  0  0  0  0  0  0  0  0  0  0  0
  -19.7185   14.6972    0.0000 C   0  0  0  0  0  0  0  0  0  0  0  0
  -20.5778   13.4678    0.0000 C   0  0  0  0  0  0  0  0  0  0  0  0
  -21.3606   12.1882    0.0000 C   0  0  0  0  0  0  0  0  0  0  0  0
  -22.0639   10.8633    0.0000 C   0  0  0  0  0  0  0  0  0  0  0  0
  -22.6852    9.4980    0.0000 C   0  0  0  0  0  0  0  0  0  0  0  0
  -23.2220    8.0973    0.0000 C   0  0  0  0  0  0  0  0  0  0  0  0
  -23.6724    6.6666    0.0000 C   0  0  0  0  0  0  0  0  0  0  0  0
  -24.0348    5.2110    0.0000 C   0  0  0  0  0  0  0  0  0  0  0  0
  -24.3078    3.7361    0.0000 C   0  0  0  0  0  0  0  0  0  0  0  0
  -24.4904    2.2472    0.0000 C   0  0  0  0  0  0  0  0  0  0  0  0
  -24.5818    0.7500    0.0000 C   0  0  0  0  0  0  0  0  0  0  0  0
  -24.5818   -0.7500    0.0000 C   0  0  0  0  0  0  0  0  0  0  0  0
  -24.4904   -2.2472    0.0000 C   0  0  0  0  0  0  0  0  0  0  0  0
  -24.3078   -3.7361    0.0000 C   0  0  0  0  0  0  0  0  0  0  0  0
  -24.0348   -5.2110    0.0000 C   0  0  0  0  0  0  0  0  0  0  0  0
  -23.6724   -6.6666    0.0000 C   0  0  0  0  0  0  0  0  0  0  0  0
  -23.2220   -8.0973    0.0000 C   0  0  0  0  0  0  0  0  0  0  0  0
  -22.6852   -9.4980    0.0000 C   0  0  0  0  0  0  0  0  0  0  0  0
  -22.0639  -10.8633    0.0000 C   0  0  0  0  0  0  0  0  0  0  0  0
  -21.3606  -12.1882    0.0000 C   0  0  0  0  0  0  0  0  0  0  0  0
  -20.5778  -13.4678    0.0000 C   0  0  0  0  0  0  0  0  0  0  0  0
  -19.7185  -14.6972    0.0000 C   0  0  0  0  0  0  0  0  0  0  0  0
  -18.7858  -15.8720    0.0000 C   0  0  0  0  0  0  0  0  0  0  0  0
  -17.7833  -16.9877    0.0000 C   0  0  0  0  0  0  0  0  0  0  0  0
  -16.7146  -18.0403    0.0000 C   0  0  0  0  0  0  0  0  0  0  0  0
  -15.5837  -19.0257    0.0000 C   0  0  0  0  0  0  0  0  0  0  0  0
  -14.3948  -19.9404    0.0000 C   0  0  0  0  0  0  0  0  0  0  0  0
  -13.1524  -20.7808    0.0000 C   0  0  0  0  0  0  0  0  0  0  0  0
  -11.8610  -21.5440    0.0000 C   0  0  0  0  0  0  0  0  0  0  0  0
  -10.5256  -22.2270    0.0000 C   0  0  0  0  0  0  0  0  0  0  0  0
   -9.1509  -22.8274    0.0000 C   0  0  0  0  0  0  0  0  0  0  0  0
   -7.7423  -23.3428    0.0000 C   0  0  0  0  0  0  0  0  0  0  0  0
   -6.3048  -23.7714    0.0000 C   0  0  0  0  0  0  0  0  0  0  0  0
   -4.8439  -24.1115    0.0000 C   0  0  0  0  0  0  0  0  0  0  0  0
   -3.3649  -24.3620    0.0000 C   0  0  0  0  0  0  0  0  0  0  0  0
   -1.8735  -24.5218    0.0000 C   0  0  0  0  0  0  0  0  0  0  0  0
   -0.3750  -24.5904    0.0000 C   0  0  0  0  0  0  0  0  0  0  0  0
    1.1248  -24.5675    0.0000 C   0  0  0  0  0  0  0  0  0  0  0  0
    2.6204  -24.4532    0.0000 C   0  0  0  0  0  0  0  0  0  0  0  0
    4.1063  -24.2480    0.0000 C   0  0  0  0  0  0  0  0  0  0  0  0
    5.5769  -23.9526    0.0000 C   0  0  0  0  0  0  0  0  0  0  0  0
    7.0268  -23.5680    0.0000 C   0  0  0  0  0  0  0  0  0  0  0  0
    8.4505  -23.0958    0.0000 C   0  0  0  0  0  0  0  0  0  0  0  0
    9.8428  -22.5377    0.0000 C   0  0  0  0  0  0  0  0  0  0  0  0
   11.1985  -21.8957    0.0000 C   0  0  0  0  0  0  0  0  0  0  0  0
   12.5125  -21.1723    0.0000 C   0  0  0  0  0  0  0  0  0  0  0  0
   13.7800  -20.3701    0.0000 C   0  0  0  0  0  0  0  0  0  0  0  0
   14.9962  -19.4921    0.0000 C   0  0  0  0  0  0  0  0  0  0  0  0
   16.1566  -18.5416    0.0000 C   0  0  0  0  0  0  0  0  0  0  0  0
   17.2569  -17.5222    0.0000 C   0  0  0  0  0  0  0  0  0  0  0  0
   18.2931  -16.4375    0.0000 C   0  0  0  0  0  0  0  0  0  0  0  0
   19.2611  -15.2917    0.0000 C   0  0  0  0  0  0  0  0  0  0  0  0
   20.1576  -14.0890    0.0000 C   0  0  0  0  0  0  0  0  0  0  0  0
   20.9790  -12.8339    0.0000 C   0  0  0  0  0  0  0  0  0  0  0  0
   21.7224  -11.5311    0.0000 C   0  0  0  0  0  0  0  0  0  0  0  0
   22.3850  -10.1854    0.0000 C   0  0  0  0  0  0  0  0  0  0  0  0
   22.9643   -8.8018    0.0000 C   0  0  0  0  0  0  0  0  0  0  0  0
   23.4581   -7.3854    0.0000 C   0  0  0  0  0  0  0  0  0  0  0  0
   23.8647   -5.9416    0.0000 C   0  0  0  0  0  0  0  0  0  0  0  0
   24.1826   -4.4756    0.0000 C   0  0  0  0  0  0  0  0  0  0  0  0
   24.4104   -2.9930    0.0000 C   0  0  0  0  0  0  0  0  0  0  0  0
   24.5475   -1.4993    0.0000 C   0  0  0  0  0  0  0  0  0  0  0  0
  1  2  1  0
  2  3  1  0
  3  4  2  0
  4  5  1  0
  5  6  2  0
  6  7  1  0
  7  8  2  0
  8  9  1  0
  9 10  2  0
 10 11  1  0
 11 12  2  0
 12 13  1  0
 13 14  2  0
 14 15  1  0
 15 16  2  0
 16 17  1  0
 17 18  1  0
 18 19  1  0
 19 20  1  0
 20 21  1  0
 21 22  1  0
 22 23  1  0
 23 24  1  0
 24 25  1  0
 25 26  1  0
 26 27  1  0
 27 28  1  0
 28 29  1  0
 29 30  1  0
 30 31  1  0
 31 32  1  0
 32 33  1  0
 33 34  1  0
 34 35  1  0
 35 36  1  0
 36 37  1  0
 37 38  1  0
 38 39  1  0
 39 40  1  0
 40 41  1  0
 41 42  1  0
 42 43  1  0
 43 44  1  0
 44 45  1  0
 45 46  1  0
 46 47  1  0
 47 48  1  0
 48 49  1  0
 49 50  1  0
 50 51  1  0
 51 52  1  0
 52 53  1  0
 53 54  1  0
 54 55  1  0
 55 56  1  0
 56 57  1  0
 57 58  1  0
 58 59  1  0
 59 60  1  0
 60 61  1  0
 61 62  1  0
 62 63  1  0
 63 64  1  0
 64 65  1  0
 65 66  1  0
 66 67  1  0
 67 68  1  0
 68 69  1  0
 69 70  1  0
 70 71  1  0
 71 72  1  0
 72 73  1  0
 73 74  1  0
 74 75  1  0
 75 76  1  0
 76 77  1  0
 77 78  1  0
 78 79  1  0
 79 80  1  0
 80 81  1  0
 81 82  1  0
 82 83  1  0
 83 84  1  0
 84 85  1  0
 85 86  1  0
 86 87  1  0
 87 88  1  0
 88 89  1  0
 89 90  1  0
 90 91  1  0
 91 92  1  0
 92 93  1  0
 93 94  1  0
 94 95  1  0
 95 96  1  0
 96 97  1  0
 97 98  1  0
 98 99  1  0
 99100  1  0
100101  1  0
101102  1  0
102103  1  0
103104  1  0
104  2  1  0
M  END
>  <Title>  (628) 
idAAWFgen9

$$$$

     RDKit          2D

 17 17  0  0  0  0  0  0  0  0999 V2000
   16.2760   -0.0000    0.0000 C   0  0  0  0  0  0  0  0  0  0  0  0
   14.7760   -0.0000    0.0000 C   0  0  0  0  0  0  0  0  0  0  0  0
   13.2760   -0.0000    0.0000 C   0  0  0  0  0  0  0  0  0  0  0  0
   11.7760   -0.0000    0.0000 C   0  0  0  0  0  0  0  0  0  0  0  0
   10.2760   -0.0000    0.0000 C   0  0  0  0  0  0  0  0  0  0  0  0
    8.7760   -0.0000    0.0000 C   0  0  0  0  0  0  0  0  0  0  0  0
    7.2760   -0.0000    0.0000 C   0  0  0  0  0  0  0  0  0  0  0  0
    5.7760   -0.0000    0.0000 C   0  0  0  0  0  0  0  0  0  0  0  0
    4.2760   -0.0000    0.0000 C   0  0  0  0  0  0  0  0  0  0  0  0
    2.7760    0.0000    0.0000 C   0  0  0  0  0  0  0  0  0  0  0  0
    1.2760    0.0000    0.0000 C   0  0  0  0  0  0  0  0  0  0  0  0
    0.3943    1.2135    0.0000 C   0  0  0  0  0  0  0  0  0  0  0  0
   -1.0323    0.7500    0.0000 C   0  0  0  0  0  0  0  0  0  0  0  0
   -2.2458    1.6317    0.0000 C   0  0  0  0  0  0  0  0  0  0  0  0
   -1.0323   -0.7500    0.0000 C   0  0  0  0  0  0  0  0  0  0  0  0
    0.3943   -1.2135    0.0000 C   0  0  0  0  0  0  0  0  0  0  0  0
    0.8578   -2.6401    0.0000 O   0  0  0  0  0  0  0  0  0  0  0  0
  1  2  3  0
  2  3  1  0
  3  4  3  0
  4  5  1  0
  5  6  3  0
  6  7  1  0
  7  8  3  0
  8  9  1  0
  9 10  3  0
 10 11  1  0
 11 12  2  0
 12 13  1  0
 13 14  1  0
 13 15  1  0
 15 16  2  0
 16 17  1  0
 16 11  1  0
M  END
>  <Title>  (629) 
idAAWGgen9

$$$$

     RDKit          2D

 22 22  0  0  0  0  0  0  0  0999 V2000
    6.5321    0.0000    0.0000 C   0  0  0  0  0  0  0  0  0  0  0  0
    5.0321    0.0000    0.0000 C   0  0  0  0  0  0  0  0  0  0  0  0
    4.8086    1.4832    0.0000 C   0  0  0  0  0  0  0  0  0  0  0  0
    4.1577    2.8347    0.0000 C   0  0  0  0  0  0  0  0  0  0  0  0
    3.1375    3.9343    0.0000 C   0  0  0  0  0  0  0  0  0  0  0  0
    1.8384    4.6843    0.0000 C   0  0  0  0  0  0  0  0  0  0  0  0
    0.3761    5.0181    0.0000 C   0  0  0  0  0  0  0  0  0  0  0  0
   -1.1198    4.9060    0.0000 C   0  0  0  0  0  0  0  0  0  0  0  0
   -2.5161    4.3580    0.0000 C   0  0  0  0  0  0  0  0  0  0  0  0
   -3.6888    3.4227    0.0000 C   0  0  0  0  0  0  0  0  0  0  0  0
   -4.5338    2.1834    0.0000 C   0  0  0  0  0  0  0  0  0  0  0  0
   -4.9759    0.7500    0.0000 C   0  0  0  0  0  0  0  0  0  0  0  0
   -4.9759   -0.7500    0.0000 C   0  0  0  0  0  0  0  0  0  0  0  0
   -4.5338   -2.1834    0.0000 C   0  0  0  0  0  0  0  0  0  0  0  0
   -3.6888   -3.4227    0.0000 C   0  0  0  0  0  0  0  0  0  0  0  0
   -2.5161   -4.3580    0.0000 C   0  0  0  0  0  0  0  0  0  0  0  0
   -1.1198   -4.9060    0.0000 C   0  0  0  0  0  0  0  0  0  0  0  0
    0.3761   -5.0181    0.0000 C   0  0  0  0  0  0  0  0  0  0  0  0
    1.8384   -4.6843    0.0000 C   0  0  0  0  0  0  0  0  0  0  0  0
    3.1375   -3.9343    0.0000 C   0  0  0  0  0  0  0  0  0  0  0  0
    4.1577   -2.8347    0.0000 C   0  0  0  0  0  0  0  0  0  0  0  0
    4.8086   -1.4832    0.0000 C   0  0  0  0  0  0  0  0  0  0  0  0
  1  2  1  0
  2  3  1  0
  3  4  1  0
  4  5  1  0
  5  6  1  0
  6  7  1  0
  7  8  1  0
  8  9  1  0
  9 10  1  0
 10 11  1  0
 11 12  1  0
 12 13  1  0
 13 14  1  0
 14 15  1  0
 15 16  1  0
 16 17  1  0
 17 18  1  0
 18 19  1  0
 19 20  1  0
 20 21  1  0
 21 22  1  0
 22  2  1  0
M  END
>  <Title>  (630) 
idAAWHgen9

$$$$

     RDKit          2D

 22 22  0  0  0  0  0  0  0  0999 V2000
   25.5000    0.0000    0.0000 C   0  0  0  0  0  0  0  0  0  0  0  0
   24.0000    0.0000    0.0000 C   0  0  0  0  0  0  0  0  0  0  0  0
   22.5000    0.0000    0.0000 C   0  0  0  0  0  0  0  0  0  0  0  0
   21.0000    0.0000    0.0000 C   0  0  0  0  0  0  0  0  0  0  0  0
   19.5000    0.0000    0.0000 C   0  0  0  0  0  0  0  0  0  0  0  0
   18.0000    0.0000    0.0000 C   0  0  0  0  0  0  0  0  0  0  0  0
   16.5000    0.0000    0.0000 C   0  0  0  0  0  0  0  0  0  0  0  0
   15.0000    0.0000    0.0000 C   0  0  0  0  0  0  0  0  0  0  0  0
   13.5000    0.0000    0.0000 C   0  0  0  0  0  0  0  0  0  0  0  0
   12.0000    0.0000    0.0000 C   0  0  0  0  0  0  0  0  0  0  0  0
   10.5000    0.0000    0.0000 C   0  0  0  0  0  0  0  0  0  0  0  0
    9.0000    0.0000    0.0000 C   0  0  0  0  0  0  0  0  0  0  0  0
    7.5000    0.0000    0.0000 C   0  0  0  0  0  0  0  0  0  0  0  0
    6.0000    0.0000    0.0000 C   0  0  0  0  0  0  0  0  0  0  0  0
    4.5000    0.0000    0.0000 C   0  0  0  0  0  0  0  0  0  0  0  0
    3.0000    0.0000    0.0000 C   0  0  0  0  0  0  0  0  0  0  0  0
    1.5000    0.0000    0.0000 C   0  0  0  0  0  0  0  0  0  0  0  0
    0.7500   -1.2990    0.0000 C   0  0  0  0  0  0  0  0  0  0  0  0
   -0.7500   -1.2990    0.0000 C   0  0  0  0  0  0  0  0  0  0  0  0
   -1.5000    0.0000    0.0000 C   0  0  0  0  0  0  0  0  0  0  0  0
   -0.7500    1.2990    0.0000 C   0  0  0  0  0  0  0  0  0  0  0  0
    0.7500    1.2990    0.0000 C   0  0  0  0  0  0  0  0  0  0  0  0
  1  2  3  0
  2  3  1  0
  3  4  3  0
  4  5  1  0
  5  6  3  0
  6  7  1  0
  7  8  3  0
  8  9  1  0
  9 10  3  0
 10 11  1  0
 11 12  3  0
 12 13  1  0
 13 14  3  0
 14 15  1  0
 15 16  3  0
 16 17  1  0
 17 18  2  0
 18 19  1  0
 19 20  2  0
 20 21  1  0
 21 22  2  0
 22 17  1  0
M  END
>  <Title>  (631) 
idAAWIgen9

$$$$

     RDKit          2D

 67 67  0  0  0  0  0  0  0  0999 V2000
   17.2623    0.0000    0.0000 C   0  0  0  0  0  0  0  0  0  0  0  0
   15.7623    0.0000    0.0000 C   0  0  0  0  0  0  0  0  0  0  0  0
   15.6909   -1.4983    0.0000 C   0  0  0  0  0  0  0  0  0  0  0  0
   15.4774   -2.9830    0.0000 C   0  0  0  0  0  0  0  0  0  0  0  0
   15.1238   -4.4408    0.0000 C   0  0  0  0  0  0  0  0  0  0  0  0
   14.6332   -5.8583    0.0000 C   0  0  0  0  0  0  0  0  0  0  0  0
   14.0101   -7.2227    0.0000 C   0  0  0  0  0  0  0  0  0  0  0  0
   13.2601   -8.5217    0.0000 C   0  0  0  0  0  0  0  0  0  0  0  0
   12.3900   -9.7436    0.0000 C   0  0  0  0  0  0  0  0  0  0  0  0
   11.4077  -10.8772    0.0000 C   0  0  0  0  0  0  0  0  0  0  0  0
   10.3221  -11.9123    0.0000 C   0  0  0  0  0  0  0  0  0  0  0  0
    9.1430  -12.8396    0.0000 C   0  0  0  0  0  0  0  0  0  0  0  0
    7.8811  -13.6505    0.0000 C   0  0  0  0  0  0  0  0  0  0  0  0
    6.5479  -14.3379    0.0000 C   0  0  0  0  0  0  0  0  0  0  0  0
    5.1553  -14.8954    0.0000 C   0  0  0  0  0  0  0  0  0  0  0  0
    3.7161  -15.3180    0.0000 C   0  0  0  0  0  0  0  0  0  0  0  0
    2.2432  -15.6019    0.0000 C   0  0  0  0  0  0  0  0  0  0  0  0
    0.7500  -15.7444    0.0000 C   0  0  0  0  0  0  0  0  0  0  0  0
   -0.7500  -15.7444    0.0000 C   0  0  0  0  0  0  0  0  0  0  0  0
   -2.2432  -15.6019    0.0000 C   0  0  0  0  0  0  0  0  0  0  0  0
   -3.7161  -15.3180    0.0000 C   0  0  0  0  0  0  0  0  0  0  0  0
   -5.1553  -14.8954    0.0000 C   0  0  0  0  0  0  0  0  0  0  0  0
   -6.5479  -14.3379    0.0000 C   0  0  0  0  0  0  0  0  0  0  0  0
   -7.8811  -13.6505    0.0000 C   0  0  0  0  0  0  0  0  0  0  0  0
   -9.1430  -12.8396    0.0000 C   0  0  0  0  0  0  0  0  0  0  0  0
  -10.3221  -11.9123    0.0000 C   0  0  0  0  0  0  0  0  0  0  0  0
  -11.4077  -10.8772    0.0000 C   0  0  0  0  0  0  0  0  0  0  0  0
  -12.3900   -9.7436    0.0000 C   0  0  0  0  0  0  0  0  0  0  0  0
  -13.2601   -8.5217    0.0000 C   0  0  0  0  0  0  0  0  0  0  0  0
  -14.0101   -7.2227    0.0000 C   0  0  0  0  0  0  0  0  0  0  0  0
  -14.6332   -5.8583    0.0000 C   0  0  0  0  0  0  0  0  0  0  0  0
  -15.1238   -4.4408    0.0000 C   0  0  0  0  0  0  0  0  0  0  0  0
  -15.4774   -2.9830    0.0000 C   0  0  0  0  0  0  0  0  0  0  0  0
  -15.6909   -1.4983    0.0000 C   0  0  0  0  0  0  0  0  0  0  0  0
  -15.7623    0.0000    0.0000 C   0  0  0  0  0  0  0  0  0  0  0  0
  -15.6909    1.4983    0.0000 C   0  0  0  0  0  0  0  0  0  0  0  0
  -15.4774    2.9830    0.0000 C   0  0  0  0  0  0  0  0  0  0  0  0
  -15.1238    4.4408    0.0000 C   0  0  0  0  0  0  0  0  0  0  0  0
  -14.6332    5.8583    0.0000 C   0  0  0  0  0  0  0  0  0  0  0  0
  -14.0101    7.2227    0.0000 C   0  0  0  0  0  0  0  0  0  0  0  0
  -13.2601    8.5217    0.0000 C   0  0  0  0  0  0  0  0  0  0  0  0
  -12.3900    9.7436    0.0000 C   0  0  0  0  0  0  0  0  0  0  0  0
  -11.4077   10.8772    0.0000 C   0  0  0  0  0  0  0  0  0  0  0  0
  -10.3221   11.9123    0.0000 C   0  0  0  0  0  0  0  0  0  0  0  0
   -9.1430   12.8396    0.0000 C   0  0  0  0  0  0  0  0  0  0  0  0
   -7.8811   13.6505    0.0000 C   0  0  0  0  0  0  0  0  0  0  0  0
   -6.5479   14.3379    0.0000 C   0  0  0  0  0  0  0  0  0  0  0  0
   -5.1553   14.8954    0.0000 C   0  0  0  0  0  0  0  0  0  0  0  0
   -3.7161   15.3180    0.0000 C   0  0  0  0  0  0  0  0  0  0  0  0
   -2.2432   15.6019    0.0000 C   0  0  0  0  0  0  0  0  0  0  0  0
   -0.7500   15.7444    0.0000 C   0  0  0  0  0  0  0  0  0  0  0  0
    0.7500   15.7444    0.0000 C   0  0  0  0  0  0  0  0  0  0  0  0
    2.2432   15.6019    0.0000 C   0  0  0  0  0  0  0  0  0  0  0  0
    3.7161   15.3180    0.0000 C   0  0  0  0  0  0  0  0  0  0  0  0
    5.1553   14.8954    0.0000 C   0  0  0  0  0  0  0  0  0  0  0  0
    6.5479   14.3379    0.0000 C   0  0  0  0  0  0  0  0  0  0  0  0
    7.8811   13.6505    0.0000 C   0  0  0  0  0  0  0  0  0  0  0  0
    9.1430   12.8396    0.0000 C   0  0  0  0  0  0  0  0  0  0  0  0
   10.3221   11.9123    0.0000 C   0  0  0  0  0  0  0  0  0  0  0  0
   11.4077   10.8772    0.0000 C   0  0  0  0  0  0  0  0  0  0  0  0
   12.3900    9.7436    0.0000 C   0  0  0  0  0  0  0  0  0  0  0  0
   13.2601    8.5217    0.0000 C   0  0  0  0  0  0  0  0  0  0  0  0
   14.0101    7.2227    0.0000 C   0  0  0  0  0  0  0  0  0  0  0  0
   14.6332    5.8583    0.0000 C   0  0  0  0  0  0  0  0  0  0  0  0
   15.1238    4.4408    0.0000 C   0  0  0  0  0  0  0  0  0  0  0  0
   15.4774    2.9830    0.0000 C   0  0  0  0  0  0  0  0  0  0  0  0
   15.6909    1.4983    0.0000 C   0  0  0  0  0  0  0  0  0  0  0  0
  1  2  1  0
  2  3  1  0
  3  4  1  0
  4  5  1  0
  5  6  1  0
  6  7  1  0
  7  8  1  0
  8  9  1  0
  9 10  1  0
 10 11  1  0
 11 12  1  0
 12 13  1  0
 13 14  1  0
 14 15  1  0
 15 16  1  0
 16 17  1  0
 17 18  1  0
 18 19  1  0
 19 20  1  0
 20 21  1  0
 21 22  1  0
 22 23  1  0
 23 24  1  0
 24 25  1  0
 25 26  1  0
 26 27  1  0
 27 28  1  0
 28 29  1  0
 29 30  1  0
 30 31  1  0
 31 32  1  0
 32 33  1  0
 33 34  1  0
 34 35  1  0
 35 36  1  0
 36 37  1  0
 37 38  1  0
 38 39  1  0
 39 40  1  0
 40 41  1  0
 41 42  1  0
 42 43  1  0
 43 44  1  0
 44 45  1  0
 45 46  1  0
 46 47  1  0
 47 48  1  0
 48 49  1  0
 49 50  1  0
 50 51  1  0
 51 52  1  0
 52 53  1  0
 53 54  1  0
 54 55  1  0
 55 56  1  0
 56 57  1  0
 57 58  1  0
 58 59  1  0
 59 60  1  0
 60 61  1  0
 61 62  1  0
 62 63  1  0
 63 64  1  0
 64 65  1  0
 65 66  1  0
 66 67  1  0
 67  2  1  0
M  END
>  <Title>  (632) 
idAAWJgen9

$$$$

     RDKit          2D

 62 71  0  0  0  0  0  0  0  0999 V2000
    6.2168   -5.0497    0.0000 C   0  0  0  0  0  0  0  0  0  0  0  0
    4.7353   -5.2844    0.0000 C   0  0  0  0  0  0  0  0  0  0  0  0
    4.2718   -3.8578    0.0000 C   0  0  0  0  0  0  0  0  0  0  0  0
    3.3901   -2.6442    0.0000 C   0  0  0  0  0  0  0  0  0  0  0  0
    2.1766   -1.7626    0.0000 C   0  0  0  0  0  0  0  0  0  0  0  0
    2.8576   -0.4261    0.0000 C   0  0  0  0  0  0  0  0  0  0  0  0
    2.0406    0.8320    0.0000 O   0  0  0  0  0  0  0  0  0  0  0  0
    4.3555   -0.3475    0.0000 N   0  0  0  0  0  0  0  0  0  0  0  0
    5.0365    0.9890    0.0000 C   0  0  0  0  0  0  0  0  0  0  0  0
    6.5344    1.0675    0.0000 N   0  0  0  0  0  0  0  0  0  0  0  0
    7.2154    2.4040    0.0000 N   0  0  0  0  0  0  0  0  0  0  0  0
    6.3985    3.6620    0.0000 N   0  0  0  0  0  0  0  0  0  0  0  0
    4.9005    3.5835    0.0000 N   0  0  0  0  0  0  0  0  0  0  0  0
    4.2195    2.2470    0.0000 N   0  0  0  0  0  0  0  0  0  0  0  0
    0.7500   -1.2990    0.0000 C   0  0  0  0  0  0  0  0  0  0  0  0
    1.5000    0.0000    0.0000 C   0  0  0  0  0  0  0  0  0  0  0  0
    0.7500    1.2990    0.0000 C   0  0  0  0  0  0  0  0  0  0  0  0
   -0.7500    1.2990    0.0000 C   0  0  0  0  0  0  0  0  0  0  0  0
   -1.5000    0.0000    0.0000 C   0  0  0  0  0  0  0  0  0  0  0  0
   -0.7500   -1.2990    0.0000 C   0  0  0  0  0  0  0  0  0  0  0  0
   -2.1766   -1.7626    0.0000 C   0  0  0  0  0  0  0  0  0  0  0  0
   -2.3334   -0.2708    0.0000 C   0  0  0  0  0  0  0  0  0  0  0  0
   -3.7037    0.3393    0.0000 C   0  0  0  0  0  0  0  0  0  0  0  0
   -4.9172   -0.5424    0.0000 C   0  0  0  0  0  0  0  0  0  0  0  0
   -4.7604   -2.0341    0.0000 C   0  0  0  0  0  0  0  0  0  0  0  0
   -3.3901   -2.6442    0.0000 C   0  0  0  0  0  0  0  0  0  0  0  0
   -4.2718   -3.8578    0.0000 C   0  0  0  0  0  0  0  0  0  0  0  0
   -5.2755   -2.7430    0.0000 C   0  0  0  0  0  0  0  0  0  0  0  0
   -6.7427   -3.0549    0.0000 C   0  0  0  0  0  0  0  0  0  0  0  0
   -7.2062   -4.4815    0.0000 C   0  0  0  0  0  0  0  0  0  0  0  0
   -6.2025   -5.5962    0.0000 C   0  0  0  0  0  0  0  0  0  0  0  0
   -4.7353   -5.2844    0.0000 C   0  0  0  0  0  0  0  0  0  0  0  0
   -4.7353   -6.7844    0.0000 C   0  0  0  0  0  0  0  0  0  0  0  0
   -6.2025   -6.4725    0.0000 C   0  0  0  0  0  0  0  0  0  0  0  0
   -7.2062   -7.5872    0.0000 C   0  0  0  0  0  0  0  0  0  0  0  0
   -6.7427   -9.0138    0.0000 C   0  0  0  0  0  0  0  0  0  0  0  0
   -5.2755   -9.3257    0.0000 C   0  0  0  0  0  0  0  0  0  0  0  0
   -4.2718   -8.2109    0.0000 C   0  0  0  0  0  0  0  0  0  0  0  0
   -3.3901   -9.4245    0.0000 C   0  0  0  0  0  0  0  0  0  0  0  0
   -4.7604  -10.0346    0.0000 C   0  0  0  0  0  0  0  0  0  0  0  0
   -4.9172  -11.5263    0.0000 C   0  0  0  0  0  0  0  0  0  0  0  0
   -3.7037  -12.4080    0.0000 C   0  0  0  0  0  0  0  0  0  0  0  0
   -2.3334  -11.7979    0.0000 C   0  0  0  0  0  0  0  0  0  0  0  0
   -2.1766  -10.3061    0.0000 C   0  0  0  0  0  0  0  0  0  0  0  0
   -0.7500  -10.7697    0.0000 C   0  0  0  0  0  0  0  0  0  0  0  0
   -1.5000  -12.0687    0.0000 C   0  0  0  0  0  0  0  0  0  0  0  0
   -0.7500  -13.3677    0.0000 C   0  0  0  0  0  0  0  0  0  0  0  0
    0.7500  -13.3677    0.0000 C   0  0  0  0  0  0  0  0  0  0  0  0
    1.5000  -12.0687    0.0000 C   0  0  0  0  0  0  0  0  0  0  0  0
    0.7500  -10.7697    0.0000 C   0  0  0  0  0  0  0  0  0  0  0  0
    2.1766  -10.3061    0.0000 C   0  0  0  0  0  0  0  0  0  0  0  0
    2.3334  -11.7979    0.0000 C   0  0  0  0  0  0  0  0  0  0  0  0
    3.7037  -12.4080    0.0000 C   0  0  0  0  0  0  0  0  0  0  0  0
    4.9172  -11.5263    0.0000 C   0  0  0  0  0  0  0  0  0  0  0  0
    4.7604  -10.0346    0.0000 C   0  0  0  0  0  0  0  0  0  0  0  0
    3.3901   -9.4245    0.0000 C   0  0  0  0  0  0  0  0  0  0  0  0
    4.2718   -8.2109    0.0000 C   0  0  0  0  0  0  0  0  0  0  0  0
    5.2755   -9.3257    0.0000 C   0  0  0  0  0  0  0  0  0  0  0  0
    6.7427   -9.0138    0.0000 C   0  0  0  0  0  0  0  0  0  0  0  0
    7.2062   -7.5872    0.0000 C   0  0  0  0  0  0  0  0  0  0  0  0
    6.2025   -6.4725    0.0000 C   0  0  0  0  0  0  0  0  0  0  0  0
    4.7353   -6.7844    0.0000 C   0  0  0  0  0  0  0  0  0  0  0  0
  1  2  1  0
  2  3  2  0
  3  4  1  0
  4  5  1  0
  5  6  1  0
  6  7  2  0
  6  8  1  0
  8  9  1  0
  9 10  2  0
 10 11  1  0
 11 12  2  0
 12 13  1  0
 13 14  2  0
  5 15  1  0
 15 16  2  0
 16 17  1  0
 17 18  2  0
 18 19  1  0
 19 20  2  0
 20 21  1  0
 21 22  2  0
 22 23  1  0
 23 24  2  0
 24 25  1  0
 25 26  2  0
 26 27  1  0
 27 28  2  0
 28 29  1  0
 29 30  2  0
 30 31  1  0
 31 32  2  0
 32 33  1  0
 33 34  2  0
 34 35  1  0
 35 36  2  0
 36 37  1  0
 37 38  2  0
 38 39  1  0
 39 40  2  0
 40 41  1  0
 41 42  2  0
 42 43  1  0
 43 44  2  0
 44 45  1  0
 45 46  2  0
 46 47  1  0
 47 48  2  0
 48 49  1  0
 49 50  2  0
 50 51  1  0
 51 52  2  0
 52 53  1  0
 53 54  2  0
 54 55  1  0
 55 56  2  0
 56 57  1  0
 57 58  2  0
 58 59  1  0
 59 60  2  0
 60 61  1  0
 61 62  2  0
 62  2  1  0
 14  9  1  0
 20 15  1  0
 26 21  1  0
 32 27  1  0
 38 33  1  0
 44 39  1  0
 50 45  1  0
 56 51  1  0
 62 57  1  0
M  END
>  <Title>  (633) 
idAAWKgen9

$$$$

     RDKit          2D

 62 71  0  0  0  0  0  0  0  0999 V2000
    5.8191   -2.9544    0.0000 C   0  0  0  0  0  0  0  0  0  0  0  0
    6.5691   -4.2535    0.0000 C   0  0  0  0  0  0  0  0  0  0  0  0
    8.0691   -4.2535    0.0000 C   0  0  0  0  0  0  0  0  0  0  0  0
    8.8191   -5.5525    0.0000 C   0  0  0  0  0  0  0  0  0  0  0  0
    8.0691   -6.8515    0.0000 C   0  0  0  0  0  0  0  0  0  0  0  0
    6.5691   -6.8515    0.0000 C   0  0  0  0  0  0  0  0  0  0  0  0
    5.8191   -5.5525    0.0000 C   0  0  0  0  0  0  0  0  0  0  0  0
    4.3191   -5.5525    0.0000 C   0  0  0  0  0  0  0  0  0  0  0  0
    4.0586   -4.0753    0.0000 C   0  0  0  0  0  0  0  0  0  0  0  0
    3.3086   -2.7762    0.0000 C   0  0  0  0  0  0  0  0  0  0  0  0
    2.1595   -1.8121    0.0000 C   0  0  0  0  0  0  0  0  0  0  0  0
    2.9095   -0.5130    0.0000 C   0  0  0  0  0  0  0  0  0  0  0  0
    2.1595    0.7860    0.0000 O   0  0  0  0  0  0  0  0  0  0  0  0
    4.4095   -0.5130    0.0000 O   0  0  0  0  0  0  0  0  0  0  0  0
    5.1595    0.7860    0.0000 C   0  0  0  0  0  0  0  0  0  0  0  0
    6.6595    0.7860    0.0000 N   0  0  0  0  0  0  0  0  0  0  0  0
    7.4095    2.0850    0.0000 N   0  0  0  0  0  0  0  0  0  0  0  0
    6.6595    3.3841    0.0000 N   0  0  0  0  0  0  0  0  0  0  0  0
    5.1595    3.3841    0.0000 N   0  0  0  0  0  0  0  0  0  0  0  0
    4.4095    2.0850    0.0000 N   0  0  0  0  0  0  0  0  0  0  0  0
    0.7500   -1.2990    0.0000 C   0  0  0  0  0  0  0  0  0  0  0  0
    1.5000    0.0000    0.0000 C   0  0  0  0  0  0  0  0  0  0  0  0
    0.7500    1.2990    0.0000 C   0  0  0  0  0  0  0  0  0  0  0  0
   -0.7500    1.2990    0.0000 C   0  0  0  0  0  0  0  0  0  0  0  0
   -1.5000    0.0000    0.0000 C   0  0  0  0  0  0  0  0  0  0  0  0
   -0.7500   -1.2990    0.0000 C   0  0  0  0  0  0  0  0  0  0  0  0
   -2.1595   -1.8121    0.0000 C   0  0  0  0  0  0  0  0  0  0  0  0
   -2.4200   -0.3349    0.0000 C   0  0  0  0  0  0  0  0  0  0  0  0
   -3.8296    0.1782    0.0000 C   0  0  0  0  0  0  0  0  0  0  0  0
   -4.9786   -0.7860    0.0000 C   0  0  0  0  0  0  0  0  0  0  0  0
   -4.7181   -2.2632    0.0000 C   0  0  0  0  0  0  0  0  0  0  0  0
   -3.3086   -2.7762    0.0000 C   0  0  0  0  0  0  0  0  0  0  0  0
   -4.0586   -4.0753    0.0000 C   0  0  0  0  0  0  0  0  0  0  0  0
   -5.2077   -3.1111    0.0000 C   0  0  0  0  0  0  0  0  0  0  0  0
   -6.6172   -3.6241    0.0000 C   0  0  0  0  0  0  0  0  0  0  0  0
   -6.8777   -5.1013    0.0000 C   0  0  0  0  0  0  0  0  0  0  0  0
   -5.7286   -6.0655    0.0000 C   0  0  0  0  0  0  0  0  0  0  0  0
   -4.3191   -5.5525    0.0000 C   0  0  0  0  0  0  0  0  0  0  0  0
   -4.0586   -7.0297    0.0000 C   0  0  0  0  0  0  0  0  0  0  0  0
   -5.5586   -7.0297    0.0000 C   0  0  0  0  0  0  0  0  0  0  0  0
   -6.3086   -8.3287    0.0000 C   0  0  0  0  0  0  0  0  0  0  0  0
   -5.5586   -9.6278    0.0000 C   0  0  0  0  0  0  0  0  0  0  0  0
   -4.0586   -9.6278    0.0000 C   0  0  0  0  0  0  0  0  0  0  0  0
   -3.3086   -8.3287    0.0000 C   0  0  0  0  0  0  0  0  0  0  0  0
   -2.1595   -9.2929    0.0000 C   0  0  0  0  0  0  0  0  0  0  0  0
   -3.3086  -10.2571    0.0000 C   0  0  0  0  0  0  0  0  0  0  0  0
   -3.0481  -11.7343    0.0000 C   0  0  0  0  0  0  0  0  0  0  0  0
   -1.6386  -12.2474    0.0000 C   0  0  0  0  0  0  0  0  0  0  0  0
   -0.4895  -11.2832    0.0000 C   0  0  0  0  0  0  0  0  0  0  0  0
   -0.7500   -9.8060    0.0000 C   0  0  0  0  0  0  0  0  0  0  0  0
    0.7500   -9.8060    0.0000 C   0  0  0  0  0  0  0  0  0  0  0  0
    0.4895  -11.2832    0.0000 C   0  0  0  0  0  0  0  0  0  0  0  0
    1.6386  -12.2474    0.0000 C   0  0  0  0  0  0  0  0  0  0  0  0
    3.0481  -11.7343    0.0000 C   0  0  0  0  0  0  0  0  0  0  0  0
    3.3086  -10.2571    0.0000 C   0  0  0  0  0  0  0  0  0  0  0  0
    2.1595   -9.2929    0.0000 C   0  0  0  0  0  0  0  0  0  0  0  0
    3.3086   -8.3287    0.0000 C   0  0  0  0  0  0  0  0  0  0  0  0
    4.0586   -9.6278    0.0000 C   0  0  0  0  0  0  0  0  0  0  0  0
    5.5586   -9.6278    0.0000 C   0  0  0  0  0  0  0  0  0  0  0  0
    6.3086   -8.3287    0.0000 C   0  0  0  0  0  0  0  0  0  0  0  0
    5.5586   -7.0297    0.0000 C   0  0  0  0  0  0  0  0  0  0  0  0
    4.0586   -7.0297    0.0000 C   0  0  0  0  0  0  0  0  0  0  0  0
  1  2  1  0
  2  3  2  0
  3  4  1  0
  4  5  2  0
  5  6  1  0
  6  7  2  0
  7  8  1  0
  8  9  2  0
  9 10  1  0
 10 11  2  0
 11 12  1  0
 12 13  2  0
 12 14  1  0
 14 15  1  0
 15 16  2  0
 16 17  1  0
 17 18  2  0
 18 19  1  0
 19 20  2  0
 11 21  1  0
 21 22  2  0
 22 23  1  0
 23 24  2  0
 24 25  1  0
 25 26  2  0
 26 27  1  0
 27 28  2  0
 28 29  1  0
 29 30  2  0
 30 31  1  0
 31 32  2  0
 32 33  1  0
 33 34  2  0
 34 35  1  0
 35 36  2  0
 36 37  1  0
 37 38  2  0
 38 39  1  0
 39 40  2  0
 40 41  1  0
 41 42  2  0
 42 43  1  0
 43 44  2  0
 44 45  1  0
 45 46  2  0
 46 47  1  0
 47 48  2  0
 48 49  1  0
 49 50  2  0
 50 51  1  0
 51 52  2  0
 52 53  1  0
 53 54  2  0
 54 55  1  0
 55 56  2  0
 56 57  1  0
 57 58  2  0
 58 59  1  0
 59 60  2  0
 60 61  1  0
 61 62  2  0
  7  2  1  0
 62  8  1  0
 20 15  1  0
 26 21  1  0
 32 27  1  0
 38 33  1  0
 44 39  1  0
 50 45  1  0
 56 51  1  0
 62 57  1  0
M  END
>  <Title>  (634) 
idAAWLgen9

$$$$

     RDKit          2D

  6  6  0  0  0  0  0  0  0  0999 V2000
    1.5000    0.0000    0.0000 C   0  0  0  0  0  0  0  0  0  0  0  0
    0.7500   -1.2990    0.0000 C   0  0  0  0  0  0  0  0  0  0  0  0
   -0.7500   -1.2990    0.0000 C   0  0  0  0  0  0  0  0  0  0  0  0
   -1.5000    0.0000    0.0000 C   0  0  0  0  0  0  0  0  0  0  0  0
   -0.7500    1.2990    0.0000 C   0  0  0  0  0  0  0  0  0  0  0  0
    0.7500    1.2990    0.0000 C   0  0  0  0  0  0  0  0  0  0  0  0
  1  2  2  0
  2  3  1  0
  3  4  2  0
  4  5  1  0
  5  6  2  0
  6  1  1  0
M  END
>  <Title>  (635) 
idAAWMgen9

$$$$

     RDKit          2D

 32 36  0  0  0  0  0  0  0  0999 V2000
    3.3379   -7.3376    0.0000 N   0  0  0  0  0  0  0  0  0  0  0  0
    2.3737   -6.1885    0.0000 C   0  0  0  0  0  0  0  0  0  0  0  0
    1.4095   -5.0395    0.0000 C   0  0  0  0  0  0  0  0  0  0  0  0
    2.1595   -3.7404    0.0000 C   0  0  0  0  0  0  0  0  0  0  0  0
    1.8991   -2.2632    0.0000 C   0  0  0  0  0  0  0  0  0  0  0  0
    3.1981   -1.5132    0.0000 C   0  0  0  0  0  0  0  0  0  0  0  0
    3.1981   -0.0132    0.0000 O   0  0  0  0  0  0  0  0  0  0  0  0
    4.4971   -2.2632    0.0000 N   0  0  0  0  0  0  0  0  0  0  0  0
    5.7962   -1.5132    0.0000 C   0  0  0  0  0  0  0  0  0  0  0  0
    7.0952   -2.2632    0.0000 N   0  0  0  0  0  0  0  0  0  0  0  0
    8.3943   -1.5132    0.0000 N   0  0  0  0  0  0  0  0  0  0  0  0
    8.3943   -0.0132    0.0000 N   0  0  0  0  0  0  0  0  0  0  0  0
    7.0952    0.7368    0.0000 N   0  0  0  0  0  0  0  0  0  0  0  0
    5.7962   -0.0132    0.0000 N   0  0  0  0  0  0  0  0  0  0  0  0
    0.7500   -1.2990    0.0000 C   0  0  0  0  0  0  0  0  0  0  0  0
    1.5000    0.0000    0.0000 C   0  0  0  0  0  0  0  0  0  0  0  0
    0.7500    1.2990    0.0000 C   0  0  0  0  0  0  0  0  0  0  0  0
   -0.7500    1.2990    0.0000 C   0  0  0  0  0  0  0  0  0  0  0  0
   -1.5000    0.0000    0.0000 C   0  0  0  0  0  0  0  0  0  0  0  0
   -0.7500   -1.2990    0.0000 C   0  0  0  0  0  0  0  0  0  0  0  0
   -1.8991   -2.2632    0.0000 C   0  0  0  0  0  0  0  0  0  0  0  0
   -3.0481   -1.2990    0.0000 C   0  0  0  0  0  0  0  0  0  0  0  0
   -4.4577   -1.8121    0.0000 C   0  0  0  0  0  0  0  0  0  0  0  0
   -4.7181   -3.2893    0.0000 C   0  0  0  0  0  0  0  0  0  0  0  0
   -3.5691   -4.2535    0.0000 C   0  0  0  0  0  0  0  0  0  0  0  0
   -2.1595   -3.7404    0.0000 C   0  0  0  0  0  0  0  0  0  0  0  0
   -1.4095   -5.0395    0.0000 C   0  0  0  0  0  0  0  0  0  0  0  0
   -2.5586   -6.0037    0.0000 C   0  0  0  0  0  0  0  0  0  0  0  0
   -2.2981   -7.4809    0.0000 C   0  0  0  0  0  0  0  0  0  0  0  0
   -0.8886   -7.9939    0.0000 C   0  0  0  0  0  0  0  0  0  0  0  0
    0.2605   -7.0297    0.0000 C   0  0  0  0  0  0  0  0  0  0  0  0
   -0.0000   -5.5525    0.0000 C   0  0  0  0  0  0  0  0  0  0  0  0
  1  2  3  0
  2  3  1  0
  3  4  2  0
  4  5  1  0
  5  6  1  0
  6  7  2  0
  6  8  1  0
  8  9  1  0
  9 10  2  0
 10 11  1  0
 11 12  2  0
 12 13  1  0
 13 14  2  0
  5 15  1  0
 15 16  2  0
 16 17  1  0
 17 18  2  0
 18 19  1  0
 19 20  2  0
 20 21  1  0
 21 22  2  0
 22 23  1  0
 23 24  2  0
 24 25  1  0
 25 26  2  0
 26 27  1  0
 27 28  2  0
 28 29  1  0
 29 30  2  0
 30 31  1  0
 31 32  2  0
 32  3  1  0
 14  9  1  0
 20 15  1  0
 26 21  1  0
 32 27  1  0
M  END
>  <Title>  (636) 
idAAWNgen9

$$$$

     RDKit          2D

  8  8  0  0  0  0  0  0  0  0999 V2000
    3.0000    0.0000    0.0000 C   0  0  0  0  0  0  0  0  0  0  0  0
    1.5000    0.0000    0.0000 C   0  0  0  0  0  0  0  0  0  0  0  0
    0.7500   -1.2990    0.0000 C   0  0  0  0  0  0  0  0  0  0  0  0
   -0.7500   -1.2990    0.0000 C   0  0  0  0  0  0  0  0  0  0  0  0
   -1.5000    0.0000    0.0000 C   0  0  0  0  0  0  0  0  0  0  0  0
   -0.7500    1.2990    0.0000 C   0  0  0  0  0  0  0  0  0  0  0  0
    0.7500    1.2990    0.0000 C   0  0  0  0  0  0  0  0  0  0  0  0
    1.5000    2.5981    0.0000 N   0  0  0  0  0  0  0  0  0  0  0  0
  1  2  1  0
  2  3  2  0
  3  4  1  0
  4  5  1  0
  5  6  1  0
  6  7  1  0
  7  8  1  0
  7  2  1  0
M  END
>  <Title>  (637) 
idAAWOgen9

$$$$

     RDKit          2D

 22 24  0  0  0  0  0  0  0  0999 V2000
    3.2286   -0.0000    0.0000 C   0  0  0  0  0  0  0  0  0  0  0  0
    1.7286    0.0000    0.0000 C   0  0  0  0  0  0  0  0  0  0  0  0
    1.0777    1.3515    0.0000 C   0  0  0  0  0  0  0  0  0  0  0  0
   -0.3846    1.6852    0.0000 C   0  0  0  0  0  0  0  0  0  0  0  0
   -1.5574    0.7500    0.0000 C   0  0  0  0  0  0  0  0  0  0  0  0
   -1.5574   -0.7500    0.0000 C   0  0  0  0  0  0  0  0  0  0  0  0
   -2.9088   -1.4008    0.0000 C   0  0  0  0  0  0  0  0  0  0  0  0
   -3.0209   -2.8966    0.0000 O   0  0  0  0  0  0  0  0  0  0  0  0
   -4.1482   -0.5558    0.0000 N   0  0  0  0  0  0  0  0  0  0  0  0
   -5.4997   -1.2067    0.0000 C   0  0  0  0  0  0  0  0  0  0  0  0
   -5.7675   -2.6826    0.0000 N   0  0  0  0  0  0  0  0  0  0  0  0
   -7.2539   -2.8839    0.0000 N   0  0  0  0  0  0  0  0  0  0  0  0
   -7.9047   -1.5325    0.0000 N   0  0  0  0  0  0  0  0  0  0  0  0
   -6.8205   -0.4959    0.0000 N   0  0  0  0  0  0  0  0  0  0  0  0
   -7.0219    0.9906    0.0000 C   0  0  0  0  0  0  0  0  0  0  0  0
   -5.8353    1.9081    0.0000 C   0  0  0  0  0  0  0  0  0  0  0  0
   -6.0366    3.3946    0.0000 C   0  0  0  0  0  0  0  0  0  0  0  0
   -7.4246    3.9634    0.0000 C   0  0  0  0  0  0  0  0  0  0  0  0
   -8.6112    3.0458    0.0000 C   0  0  0  0  0  0  0  0  0  0  0  0
   -8.4099    1.5594    0.0000 C   0  0  0  0  0  0  0  0  0  0  0  0
   -0.3846   -1.6852    0.0000 C   0  0  0  0  0  0  0  0  0  0  0  0
    1.0777   -1.3515    0.0000 C   0  0  0  0  0  0  0  0  0  0  0  0
  1  2  1  0
  2  3  2  0
  3  4  1  0
  4  5  1  0
  5  6  1  0
  6  7  1  0
  7  8  2  0
  7  9  1  0
  9 10  1  0
 10 11  2  0
 11 12  1  0
 12 13  2  0
 13 14  1  0
 14 15  1  0
 15 16  2  0
 16 17  1  0
 17 18  2  0
 18 19  1  0
 19 20  2  0
  6 21  1  0
 21 22  1  0
 22  2  1  0
 14 10  1  0
 20 15  1  0
M  END
>  <Title>  (638) 
idAAWPgen9

$$$$

     RDKit          2D

 85 86  0  0  0  0  0  0  0  0999 V2000
    1.5364    3.7322    0.0000 C   0  0  0  0  0  0  0  0  0  0  0  0
    2.3460    4.0916    0.0000 C   0  0  0  0  0  0  0  0  0  0  0  0
    1.8004    5.4889    0.0000 C   0  0  0  0  0  0  0  0  0  0  0  0
    1.3841    6.9300    0.0000 C   0  0  0  0  0  0  0  0  0  0  0  0
    1.1006    8.4029    0.0000 C   0  0  0  0  0  0  0  0  0  0  0  0
    0.9522    9.8956    0.0000 C   0  0  0  0  0  0  0  0  0  0  0  0
    0.9401   11.3955    0.0000 C   0  0  0  0  0  0  0  0  0  0  0  0
    1.0645   12.8904    0.0000 C   0  0  0  0  0  0  0  0  0  0  0  0
    1.3243   14.3677    0.0000 C   0  0  0  0  0  0  0  0  0  0  0  0
    1.7174   15.8153    0.0000 C   0  0  0  0  0  0  0  0  0  0  0  0
    2.2405   17.2211    0.0000 C   0  0  0  0  0  0  0  0  0  0  0  0
    2.8892   18.5735    0.0000 C   0  0  0  0  0  0  0  0  0  0  0  0
    3.6583   19.8614    0.0000 C   0  0  0  0  0  0  0  0  0  0  0  0
    4.5413   21.0740    0.0000 C   0  0  0  0  0  0  0  0  0  0  0  0
    5.5308   22.2012    0.0000 C   0  0  0  0  0  0  0  0  0  0  0  0
    6.6188   23.2338    0.0000 C   0  0  0  0  0  0  0  0  0  0  0  0
    7.7962   24.1632    0.0000 C   0  0  0  0  0  0  0  0  0  0  0  0
    9.0532   24.9817    0.0000 C   0  0  0  0  0  0  0  0  0  0  0  0
   10.3795   25.6825    0.0000 C   0  0  0  0  0  0  0  0  0  0  0  0
   11.7640   26.2598    0.0000 C   0  0  0  0  0  0  0  0  0  0  0  0
   13.1952   26.7087    0.0000 C   0  0  0  0  0  0  0  0  0  0  0  0
   14.6613   27.0257    0.0000 C   0  0  0  0  0  0  0  0  0  0  0  0
   16.1502   27.2081    0.0000 C   0  0  0  0  0  0  0  0  0  0  0  0
   17.6495   27.2542    0.0000 C   0  0  0  0  0  0  0  0  0  0  0  0
   19.1467   27.1639    0.0000 C   0  0  0  0  0  0  0  0  0  0  0  0
   20.6296   26.9378    0.0000 C   0  0  0  0  0  0  0  0  0  0  0  0
   22.0858   26.5778    0.0000 C   0  0  0  0  0  0  0  0  0  0  0  0
   23.5031   26.0868    0.0000 C   0  0  0  0  0  0  0  0  0  0  0  0
   24.8700   25.4690    0.0000 C   0  0  0  0  0  0  0  0  0  0  0  0
   26.1750   24.7295    0.0000 C   0  0  0  0  0  0  0  0  0  0  0  0
   27.4074   23.8743    0.0000 C   0  0  0  0  0  0  0  0  0  0  0  0
   28.5569   22.9107    0.0000 C   0  0  0  0  0  0  0  0  0  0  0  0
   29.6140   21.8465    0.0000 C   0  0  0  0  0  0  0  0  0  0  0  0
   30.5699   20.6905    0.0000 C   0  0  0  0  0  0  0  0  0  0  0  0
   31.4168   19.4525    0.0000 C   0  0  0  0  0  0  0  0  0  0  0  0
   32.1476   18.1425    0.0000 C   0  0  0  0  0  0  0  0  0  0  0  0
   32.7562   16.7716    0.0000 C   0  0  0  0  0  0  0  0  0  0  0  0
   33.2377   15.3509    0.0000 C   0  0  0  0  0  0  0  0  0  0  0  0
   33.5880   13.8924    0.0000 C   0  0  0  0  0  0  0  0  0  0  0  0
   33.8041   12.4080    0.0000 C   0  0  0  0  0  0  0  0  0  0  0  0
   33.8844   10.9102    0.0000 C   0  0  0  0  0  0  0  0  0  0  0  0
   33.8282    9.4113    0.0000 C   0  0  0  0  0  0  0  0  0  0  0  0
   33.6359    7.9236    0.0000 C   0  0  0  0  0  0  0  0  0  0  0  0
   33.3091    6.4597    0.0000 C   0  0  0  0  0  0  0  0  0  0  0  0
   32.8506    5.0315    0.0000 C   0  0  0  0  0  0  0  0  0  0  0  0
   32.2640    3.6509    0.0000 C   0  0  0  0  0  0  0  0  0  0  0  0
   31.5544    2.3294    0.0000 C   0  0  0  0  0  0  0  0  0  0  0  0
   30.7275    1.0779    0.0000 C   0  0  0  0  0  0  0  0  0  0  0  0
   29.7903   -0.0933    0.0000 C   0  0  0  0  0  0  0  0  0  0  0  0
   28.7504   -1.1743    0.0000 C   0  0  0  0  0  0  0  0  0  0  0  0
   27.6166   -2.1563    0.0000 C   0  0  0  0  0  0  0  0  0  0  0  0
   26.3981   -3.0312    0.0000 C   0  0  0  0  0  0  0  0  0  0  0  0
   25.1051   -3.7916    0.0000 C   0  0  0  0  0  0  0  0  0  0  0  0
   23.7484   -4.4313    0.0000 C   0  0  0  0  0  0  0  0  0  0  0  0
   22.3390   -4.9449    0.0000 C   0  0  0  0  0  0  0  0  0  0  0  0
   20.8889   -5.3283    0.0000 C   0  0  0  0  0  0  0  0  0  0  0  0
   19.4098   -5.5782    0.0000 C   0  0  0  0  0  0  0  0  0  0  0  0
   17.9142   -5.6926    0.0000 C   0  0  0  0  0  0  0  0  0  0  0  0
   16.4144   -5.6705    0.0000 C   0  0  0  0  0  0  0  0  0  0  0  0
   14.9227   -5.5121    0.0000 C   0  0  0  0  0  0  0  0  0  0  0  0
   13.4517   -5.2188    0.0000 C   0  0  0  0  0  0  0  0  0  0  0  0
   12.0135   -4.7928    0.0000 C   0  0  0  0  0  0  0  0  0  0  0  0
   10.6199   -4.2379    0.0000 C   0  0  0  0  0  0  0  0  0  0  0  0
    9.2826   -3.5585    0.0000 C   0  0  0  0  0  0  0  0  0  0  0  0
    8.0125   -2.7603    0.0000 C   0  0  0  0  0  0  0  0  0  0  0  0
    6.8204   -1.8500    0.0000 C   0  0  0  0  0  0  0  0  0  0  0  0
    5.7159   -0.8350    0.0000 C   0  0  0  0  0  0  0  0  0  0  0  0
    4.7084    0.2762    0.0000 C   0  0  0  0  0  0  0  0  0  0  0  0
    3.8060    1.4745    0.0000 C   0  0  0  0  0  0  0  0  0  0  0  0
    3.3816   -0.0000    0.0000 C   0  0  0  0  0  0  0  0  0  0  0  0
    3.1533   -1.2216    0.0000 C   0  0  0  0  0  0  0  0  0  0  0  0
    2.4991   -2.2782    0.0000 C   0  0  0  0  0  0  0  0  0  0  0  0
    1.5073   -3.0271    0.0000 C   0  0  0  0  0  0  0  0  0  0  0  0
    0.3120   -3.3672    0.0000 C   0  0  0  0  0  0  0  0  0  0  0  0
   -0.9254   -3.2526    0.0000 C   0  0  0  0  0  0  0  0  0  0  0  0
   -2.0379   -2.6986    0.0000 C   0  0  0  0  0  0  0  0  0  0  0  0
   -2.8751   -1.7802    0.0000 C   0  0  0  0  0  0  0  0  0  0  0  0
   -3.3241   -0.6214    0.0000 C   0  0  0  0  0  0  0  0  0  0  0  0
   -3.3241    0.6214    0.0000 C   0  0  0  0  0  0  0  0  0  0  0  0
   -2.8751    1.7802    0.0000 C   0  0  0  0  0  0  0  0  0  0  0  0
   -2.0379    2.6986    0.0000 C   0  0  0  0  0  0  0  0  0  0  0  0
   -0.9254    3.2526    0.0000 C   0  0  0  0  0  0  0  0  0  0  0  0
    0.3120    3.3672    0.0000 C   0  0  0  0  0  0  0  0  0  0  0  0
    1.5073    3.0271    0.0000 C   0  0  0  0  0  0  0  0  0  0  0  0
    3.0164    2.7498    0.0000 C   0  0  0  0  0  0  0  0  0  0  0  0
  1  2  1  0
  2  3  2  0
  3  4  1  0
  4  5  1  0
  5  6  1  0
  6  7  1  0
  7  8  1  0
  8  9  1  0
  9 10  1  0
 10 11  1  0
 11 12  1  0
 12 13  1  0
 13 14  1  0
 14 15  1  0
 15 16  1  0
 16 17  1  0
 17 18  1  0
 18 19  1  0
 19 20  1  0
 20 21  1  0
 21 22  1  0
 22 23  1  0
 23 24  1  0
 24 25  1  0
 25 26  1  0
 26 27  1  0
 27 28  1  0
 28 29  1  0
 29 30  1  0
 30 31  1  0
 31 32  1  0
 32 33  1  0
 33 34  1  0
 34 35  1  0
 35 36  1  0
 36 37  1  0
 37 38  1  0
 38 39  1  0
 39 40  1  0
 40 41  1  0
 41 42  1  0
 42 43  1  0
 43 44  1  0
 44 45  1  0
 45 46  1  0
 46 47  1  0
 47 48  1  0
 48 49  1  0
 49 50  1  0
 50 51  1  0
 51 52  1  0
 52 53  1  0
 53 54  1  0
 54 55  1  0
 55 56  1  0
 56 57  1  0
 57 58  1  0
 58 59  1  0
 59 60  1  0
 60 61  2  0
 61 62  1  0
 62 63  2  0
 63 64  1  0
 64 65  2  0
 65 66  1  0
 66 67  2  0
 67 68  1  0
 68 69  2  0
 69 70  1  0
 70 71  1  0
 71 72  1  0
 72 73  1  0
 73 74  1  0
 74 75  1  0
 75 76  1  0
 76 77  1  0
 77 78  1  0
 78 79  2  0
 79 80  1  0
 80 81  2  0
 81 82  1  0
 82 83  2  0
 83 84  1  0
 84 85  2  0
 85  2  1  0
 85 69  1  0
M  END
>  <Title>  (639) 
idAAWQgen9

$$$$

     RDKit          2D

119119  0  0  0  0  0  0  0  0999 V2000
   29.4350    0.0000    0.0000 C   0  0  0  0  0  0  0  0  0  0  0  0
   27.9350    0.0000    0.0000 C   0  0  0  0  0  0  0  0  0  0  0  0
   27.8948    1.4995    0.0000 C   0  0  0  0  0  0  0  0  0  0  0  0
   27.7741    2.9946    0.0000 C   0  0  0  0  0  0  0  0  0  0  0  0
   27.5733    4.4811    0.0000 C   0  0  0  0  0  0  0  0  0  0  0  0
   27.2930    5.9547    0.0000 C   0  0  0  0  0  0  0  0  0  0  0  0
   26.9340    7.4111    0.0000 C   0  0  0  0  0  0  0  0  0  0  0  0
   26.4974    8.8461    0.0000 C   0  0  0  0  0  0  0  0  0  0  0  0
   25.9844   10.2557    0.0000 C   0  0  0  0  0  0  0  0  0  0  0  0
   25.3964   11.6356    0.0000 C   0  0  0  0  0  0  0  0  0  0  0  0
   24.7353   12.9821    0.0000 C   0  0  0  0  0  0  0  0  0  0  0  0
   24.0028   14.2911    0.0000 C   0  0  0  0  0  0  0  0  0  0  0  0
   23.2011   15.5588    0.0000 C   0  0  0  0  0  0  0  0  0  0  0  0
   22.3325   16.7818    0.0000 C   0  0  0  0  0  0  0  0  0  0  0  0
   21.3995   17.9563    0.0000 C   0  0  0  0  0  0  0  0  0  0  0  0
   20.4048   19.0791    0.0000 C   0  0  0  0  0  0  0  0  0  0  0  0
   19.3513   20.1468    0.0000 C   0  0  0  0  0  0  0  0  0  0  0  0
   18.2420   21.1565    0.0000 C   0  0  0  0  0  0  0  0  0  0  0  0
   17.0801   22.1052    0.0000 C   0  0  0  0  0  0  0  0  0  0  0  0
   15.8689   22.9901    0.0000 C   0  0  0  0  0  0  0  0  0  0  0  0
   14.6120   23.8087    0.0000 C   0  0  0  0  0  0  0  0  0  0  0  0
   13.3130   24.5587    0.0000 C   0  0  0  0  0  0  0  0  0  0  0  0
   11.9755   25.2379    0.0000 C   0  0  0  0  0  0  0  0  0  0  0  0
   10.6036   25.8444    0.0000 C   0  0  0  0  0  0  0  0  0  0  0  0
    9.2011   26.3763    0.0000 C   0  0  0  0  0  0  0  0  0  0  0  0
    7.7720   26.8321    0.0000 C   0  0  0  0  0  0  0  0  0  0  0  0
    6.3206   27.2106    0.0000 C   0  0  0  0  0  0  0  0  0  0  0  0
    4.8509   27.5107    0.0000 C   0  0  0  0  0  0  0  0  0  0  0  0
    3.3672   27.7314    0.0000 C   0  0  0  0  0  0  0  0  0  0  0  0
    1.8738   27.8721    0.0000 C   0  0  0  0  0  0  0  0  0  0  0  0
    0.3750   27.9325    0.0000 C   0  0  0  0  0  0  0  0  0  0  0  0
   -1.1248   27.9124    0.0000 C   0  0  0  0  0  0  0  0  0  0  0  0
   -2.6215   27.8118    0.0000 C   0  0  0  0  0  0  0  0  0  0  0  0
   -4.1105   27.6310    0.0000 C   0  0  0  0  0  0  0  0  0  0  0  0
   -5.5877   27.3705    0.0000 C   0  0  0  0  0  0  0  0  0  0  0  0
   -7.0488   27.0311    0.0000 C   0  0  0  0  0  0  0  0  0  0  0  0
   -8.4896   26.6138    0.0000 C   0  0  0  0  0  0  0  0  0  0  0  0
   -9.9059   26.1197    0.0000 C   0  0  0  0  0  0  0  0  0  0  0  0
  -11.2936   25.5504    0.0000 C   0  0  0  0  0  0  0  0  0  0  0  0
  -12.6488   24.9073    0.0000 C   0  0  0  0  0  0  0  0  0  0  0  0
  -13.9675   24.1925    0.0000 C   0  0  0  0  0  0  0  0  0  0  0  0
  -15.2460   23.4079    0.0000 C   0  0  0  0  0  0  0  0  0  0  0  0
  -16.4804   22.5558    0.0000 C   0  0  0  0  0  0  0  0  0  0  0  0
  -17.6674   21.6386    0.0000 C   0  0  0  0  0  0  0  0  0  0  0  0
  -18.8034   20.6591    0.0000 C   0  0  0  0  0  0  0  0  0  0  0  0
  -19.8852   19.6200    0.0000 C   0  0  0  0  0  0  0  0  0  0  0  0
  -20.9097   18.5244    0.0000 C   0  0  0  0  0  0  0  0  0  0  0  0
  -21.8739   17.3753    0.0000 C   0  0  0  0  0  0  0  0  0  0  0  0
  -22.7750   16.1761    0.0000 C   0  0  0  0  0  0  0  0  0  0  0  0
  -23.6104   14.9303    0.0000 C   0  0  0  0  0  0  0  0  0  0  0  0
  -24.3778   13.6415    0.0000 C   0  0  0  0  0  0  0  0  0  0  0  0
  -25.0749   12.3133    0.0000 C   0  0  0  0  0  0  0  0  0  0  0  0
  -25.6997   10.9496    0.0000 C   0  0  0  0  0  0  0  0  0  0  0  0
  -26.2504    9.5543    0.0000 C   0  0  0  0  0  0  0  0  0  0  0  0
  -26.7254    8.1315    0.0000 C   0  0  0  0  0  0  0  0  0  0  0  0
  -27.1233    6.6853    0.0000 C   0  0  0  0  0  0  0  0  0  0  0  0
  -27.4430    5.2198    0.0000 C   0  0  0  0  0  0  0  0  0  0  0  0
  -27.6837    3.7392    0.0000 C   0  0  0  0  0  0  0  0  0  0  0  0
  -27.8445    2.2478    0.0000 C   0  0  0  0  0  0  0  0  0  0  0  0
  -27.9250    0.7500    0.0000 C   0  0  0  0  0  0  0  0  0  0  0  0
  -27.9250   -0.7500    0.0000 C   0  0  0  0  0  0  0  0  0  0  0  0
  -27.8445   -2.2478    0.0000 C   0  0  0  0  0  0  0  0  0  0  0  0
  -27.6837   -3.7392    0.0000 C   0  0  0  0  0  0  0  0  0  0  0  0
  -27.4430   -5.2198    0.0000 C   0  0  0  0  0  0  0  0  0  0  0  0
  -27.1233   -6.6853    0.0000 C   0  0  0  0  0  0  0  0  0  0  0  0
  -26.7254   -8.1315    0.0000 C   0  0  0  0  0  0  0  0  0  0  0  0
  -26.2504   -9.5543    0.0000 C   0  0  0  0  0  0  0  0  0  0  0  0
  -25.6997  -10.9496    0.0000 C   0  0  0  0  0  0  0  0  0  0  0  0
  -25.0749  -12.3133    0.0000 C   0  0  0  0  0  0  0  0  0  0  0  0
  -24.3778  -13.6415    0.0000 C   0  0  0  0  0  0  0  0  0  0  0  0
  -23.6104  -14.9303    0.0000 C   0  0  0  0  0  0  0  0  0  0  0  0
  -22.7750  -16.1761    0.0000 C   0  0  0  0  0  0  0  0  0  0  0  0
  -21.8739  -17.3753    0.0000 C   0  0  0  0  0  0  0  0  0  0  0  0
  -20.9097  -18.5244    0.0000 C   0  0  0  0  0  0  0  0  0  0  0  0
  -19.8852  -19.6200    0.0000 C   0  0  0  0  0  0  0  0  0  0  0  0
  -18.8034  -20.6591    0.0000 C   0  0  0  0  0  0  0  0  0  0  0  0
  -17.6674  -21.6386    0.0000 C   0  0  0  0  0  0  0  0  0  0  0  0
  -16.4804  -22.5558    0.0000 C   0  0  0  0  0  0  0  0  0  0  0  0
  -15.2460  -23.4079    0.0000 C   0  0  0  0  0  0  0  0  0  0  0  0
  -13.9675  -24.1925    0.0000 C   0  0  0  0  0  0  0  0  0  0  0  0
  -12.6488  -24.9073    0.0000 C   0  0  0  0  0  0  0  0  0  0  0  0
  -11.2936  -25.5504    0.0000 C   0  0  0  0  0  0  0  0  0  0  0  0
   -9.9059  -26.1197    0.0000 C   0  0  0  0  0  0  0  0  0  0  0  0
   -8.4896  -26.6138    0.0000 C   0  0  0  0  0  0  0  0  0  0  0  0
   -7.0488  -27.0311    0.0000 C   0  0  0  0  0  0  0  0  0  0  0  0
   -5.5877  -27.3705    0.0000 C   0  0  0  0  0  0  0  0  0  0  0  0
   -4.1105  -27.6310    0.0000 C   0  0  0  0  0  0  0  0  0  0  0  0
   -2.6215  -27.8118    0.0000 C   0  0  0  0  0  0  0  0  0  0  0  0
   -1.1248  -27.9124    0.0000 C   0  0  0  0  0  0  0  0  0  0  0  0
    0.3750  -27.9325    0.0000 C   0  0  0  0  0  0  0  0  0  0  0  0
    1.8738  -27.8721    0.0000 C   0  0  0  0  0  0  0  0  0  0  0  0
    3.3672  -27.7314    0.0000 C   0  0  0  0  0  0  0  0  0  0  0  0
    4.8509  -27.5107    0.0000 C   0  0  0  0  0  0  0  0  0  0  0  0
    6.3206  -27.2106    0.0000 C   0  0  0  0  0  0  0  0  0  0  0  0
    7.7720  -26.8321    0.0000 C   0  0  0  0  0  0  0  0  0  0  0  0
    9.2011  -26.3763    0.0000 C   0  0  0  0  0  0  0  0  0  0  0  0
   10.6036  -25.8444    0.0000 C   0  0  0  0  0  0  0  0  0  0  0  0
   11.9755  -25.2379    0.0000 C   0  0  0  0  0  0  0  0  0  0  0  0
   13.3130  -24.5587    0.0000 C   0  0  0  0  0  0  0  0  0  0  0  0
   14.6120  -23.8087    0.0000 C   0  0  0  0  0  0  0  0  0  0  0  0
   15.8689  -22.9901    0.0000 C   0  0  0  0  0  0  0  0  0  0  0  0
   17.0801  -22.1052    0.0000 C   0  0  0  0  0  0  0  0  0  0  0  0
   18.2420  -21.1565    0.0000 C   0  0  0  0  0  0  0  0  0  0  0  0
   19.3513  -20.1468    0.0000 C   0  0  0  0  0  0  0  0  0  0  0  0
   20.4048  -19.0791    0.0000 C   0  0  0  0  0  0  0  0  0  0  0  0
   21.3995  -17.9563    0.0000 C   0  0  0  0  0  0  0  0  0  0  0  0
   22.3325  -16.7818    0.0000 C   0  0  0  0  0  0  0  0  0  0  0  0
   23.2011  -15.5588    0.0000 C   0  0  0  0  0  0  0  0  0  0  0  0
   24.0028  -14.2911    0.0000 C   0  0  0  0  0  0  0  0  0  0  0  0
   24.7353  -12.9821    0.0000 C   0  0  0  0  0  0  0  0  0  0  0  0
   25.3964  -11.6356    0.0000 C   0  0  0  0  0  0  0  0  0  0  0  0
   25.9844  -10.2557    0.0000 C   0  0  0  0  0  0  0  0  0  0  0  0
   26.4974   -8.8461    0.0000 C   0  0  0  0  0  0  0  0  0  0  0  0
   26.9340   -7.4111    0.0000 C   0  0  0  0  0  0  0  0  0  0  0  0
   27.2930   -5.9547    0.0000 C   0  0  0  0  0  0  0  0  0  0  0  0
   27.5733   -4.4811    0.0000 C   0  0  0  0  0  0  0  0  0  0  0  0
   27.7741   -2.9946    0.0000 C   0  0  0  0  0  0  0  0  0  0  0  0
   27.8948   -1.4995    0.0000 C   0  0  0  0  0  0  0  0  0  0  0  0
   29.3926   -1.5800    0.0000 C   0  0  0  0  0  0  0  0  0  0  0  0
  1  2  1  0
  2  3  2  0
  3  4  1  0
  4  5  2  0
  5  6  1  0
  6  7  2  0
  7  8  1  0
  8  9  2  0
  9 10  1  0
 10 11  2  0
 11 12  1  0
 12 13  2  0
 13 14  1  0
 14 15  2  0
 15 16  1  0
 16 17  1  0
 17 18  1  0
 18 19  1  0
 19 20  1  0
 20 21  1  0
 21 22  1  0
 22 23  1  0
 23 24  1  0
 24 25  1  0
 25 26  1  0
 26 27  1  0
 27 28  1  0
 28 29  1  0
 29 30  1  0
 30 31  1  0
 31 32  1  0
 32 33  1  0
 33 34  1  0
 34 35  1  0
 35 36  1  0
 36 37  1  0
 37 38  1  0
 38 39  1  0
 39 40  1  0
 40 41  1  0
 41 42  1  0
 42 43  1  0
 43 44  1  0
 44 45  1  0
 45 46  1  0
 46 47  1  0
 47 48  1  0
 48 49  1  0
 49 50  1  0
 50 51  1  0
 51 52  1  0
 52 53  1  0
 53 54  1  0
 54 55  1  0
 55 56  1  0
 56 57  1  0
 57 58  1  0
 58 59  1  0
 59 60  1  0
 60 61  1  0
 61 62  1  0
 62 63  1  0
 63 64  1  0
 64 65  1  0
 65 66  1  0
 66 67  1  0
 67 68  1  0
 68 69  1  0
 69 70  1  0
 70 71  1  0
 71 72  1  0
 72 73  1  0
 73 74  1  0
 74 75  1  0
 75 76  1  0
 76 77  1  0
 77 78  1  0
 78 79  1  0
 79 80  1  0
 80 81  1  0
 81 82  1  0
 82 83  1  0
 83 84  1  0
 84 85  1  0
 85 86  1  0
 86 87  1  0
 87 88  1  0
 88 89  1  0
 89 90  1  0
 90 91  1  0
 91 92  1  0
 92 93  1  0
 93 94  1  0
 94 95  1  0
 95 96  1  0
 96 97  1  0
 97 98  1  0
 98 99  1  0
 99100  1  0
100101  1  0
101102  1  0
102103  1  0
103104  1  0
104105  1  0
105106  1  0
106107  1  0
107108  1  0
108109  1  0
109110  1  0
110111  1  0
111112  1  0
112113  1  0
113114  1  0
114115  1  0
115116  1  0
116117  1  0
117118  1  0
118119  1  0
118  2  1  0
M  END
>  <Title>  (640) 
idAAWRgen9

$$$$

     RDKit          2D

103105  0  0  0  0  0  0  0  0999 V2000
   -5.5509   -0.4388    0.0000 C   0  0  0  0  0  0  0  0  0  0  0  0
   -5.2032   -1.8979    0.0000 C   0  0  0  0  0  0  0  0  0  0  0  0
   -6.6499   -2.2942    0.0000 C   0  0  0  0  0  0  0  0  0  0  0  0
   -8.0669   -2.7863    0.0000 C   0  0  0  0  0  0  0  0  0  0  0  0
   -9.4479   -3.3719    0.0000 C   0  0  0  0  0  0  0  0  0  0  0  0
  -10.7867   -4.0484    0.0000 C   0  0  0  0  0  0  0  0  0  0  0  0
  -12.0773   -4.8128    0.0000 C   0  0  0  0  0  0  0  0  0  0  0  0
  -13.3139   -5.6617    0.0000 C   0  0  0  0  0  0  0  0  0  0  0  0
  -14.4911   -6.5913    0.0000 C   0  0  0  0  0  0  0  0  0  0  0  0
  -15.6036   -7.5975    0.0000 C   0  0  0  0  0  0  0  0  0  0  0  0
  -16.6464   -8.6757    0.0000 C   0  0  0  0  0  0  0  0  0  0  0  0
  -17.6148   -9.8212    0.0000 C   0  0  0  0  0  0  0  0  0  0  0  0
  -18.5046  -11.0288    0.0000 C   0  0  0  0  0  0  0  0  0  0  0  0
  -19.3117  -12.2932    0.0000 C   0  0  0  0  0  0  0  0  0  0  0  0
  -20.0326  -13.6086    0.0000 C   0  0  0  0  0  0  0  0  0  0  0  0
  -20.6640  -14.9692    0.0000 C   0  0  0  0  0  0  0  0  0  0  0  0
  -21.2031  -16.3690    0.0000 C   0  0  0  0  0  0  0  0  0  0  0  0
  -21.6475  -17.8017    0.0000 C   0  0  0  0  0  0  0  0  0  0  0  0
  -21.9953  -19.2608    0.0000 C   0  0  0  0  0  0  0  0  0  0  0  0
  -22.2448  -20.7399    0.0000 C   0  0  0  0  0  0  0  0  0  0  0  0
  -22.3949  -22.2324    0.0000 C   0  0  0  0  0  0  0  0  0  0  0  0
  -22.4450  -23.7315    0.0000 C   0  0  0  0  0  0  0  0  0  0  0  0
  -22.3949  -25.2307    0.0000 C   0  0  0  0  0  0  0  0  0  0  0  0
  -22.2448  -26.7232    0.0000 C   0  0  0  0  0  0  0  0  0  0  0  0
  -21.9953  -28.2023    0.0000 C   0  0  0  0  0  0  0  0  0  0  0  0
  -21.6475  -29.6614    0.0000 C   0  0  0  0  0  0  0  0  0  0  0  0
  -21.2031  -31.0941    0.0000 C   0  0  0  0  0  0  0  0  0  0  0  0
  -20.6640  -32.4938    0.0000 C   0  0  0  0  0  0  0  0  0  0  0  0
  -20.0326  -33.8545    0.0000 C   0  0  0  0  0  0  0  0  0  0  0  0
  -19.3117  -35.1699    0.0000 C   0  0  0  0  0  0  0  0  0  0  0  0
  -18.5046  -36.4342    0.0000 C   0  0  0  0  0  0  0  0  0  0  0  0
  -17.6148  -37.6418    0.0000 C   0  0  0  0  0  0  0  0  0  0  0  0
  -16.6464  -38.7873    0.0000 C   0  0  0  0  0  0  0  0  0  0  0  0
  -15.6036  -39.8655    0.0000 C   0  0  0  0  0  0  0  0  0  0  0  0
  -14.4911  -40.8717    0.0000 C   0  0  0  0  0  0  0  0  0  0  0  0
  -13.3139  -41.8013    0.0000 C   0  0  0  0  0  0  0  0  0  0  0  0
  -12.0773  -42.6503    0.0000 C   0  0  0  0  0  0  0  0  0  0  0  0
  -10.7867  -43.4147    0.0000 C   0  0  0  0  0  0  0  0  0  0  0  0
   -9.4479  -44.0912    0.0000 C   0  0  0  0  0  0  0  0  0  0  0  0
   -8.0669  -44.6768    0.0000 C   0  0  0  0  0  0  0  0  0  0  0  0
   -6.6499  -45.1688    0.0000 C   0  0  0  0  0  0  0  0  0  0  0  0
   -5.2032  -45.5651    0.0000 C   0  0  0  0  0  0  0  0  0  0  0  0
   -3.7333  -45.8639    0.0000 C   0  0  0  0  0  0  0  0  0  0  0  0
   -2.2467  -46.0638    0.0000 C   0  0  0  0  0  0  0  0  0  0  0  0
   -0.7500  -46.1640    0.0000 C   0  0  0  0  0  0  0  0  0  0  0  0
    0.7500  -46.1640    0.0000 C   0  0  0  0  0  0  0  0  0  0  0  0
    2.2467  -46.0638    0.0000 C   0  0  0  0  0  0  0  0  0  0  0  0
    3.7333  -45.8639    0.0000 C   0  0  0  0  0  0  0  0  0  0  0  0
    5.2032  -45.5651    0.0000 C   0  0  0  0  0  0  0  0  0  0  0  0
    6.6499  -45.1688    0.0000 C   0  0  0  0  0  0  0  0  0  0  0  0
    8.0669  -44.6768    0.0000 C   0  0  0  0  0  0  0  0  0  0  0  0
    9.4479  -44.0912    0.0000 C   0  0  0  0  0  0  0  0  0  0  0  0
   10.7867  -43.4147    0.0000 C   0  0  0  0  0  0  0  0  0  0  0  0
   12.0773  -42.6503    0.0000 C   0  0  0  0  0  0  0  0  0  0  0  0
   13.3139  -41.8013    0.0000 C   0  0  0  0  0  0  0  0  0  0  0  0
   14.4911  -40.8717    0.0000 C   0  0  0  0  0  0  0  0  0  0  0  0
   15.6036  -39.8655    0.0000 C   0  0  0  0  0  0  0  0  0  0  0  0
   16.6464  -38.7873    0.0000 C   0  0  0  0  0  0  0  0  0  0  0  0
   17.6148  -37.6418    0.0000 C   0  0  0  0  0  0  0  0  0  0  0  0
   18.5046  -36.4342    0.0000 C   0  0  0  0  0  0  0  0  0  0  0  0
   19.3117  -35.1699    0.0000 C   0  0  0  0  0  0  0  0  0  0  0  0
   20.0326  -33.8545    0.0000 C   0  0  0  0  0  0  0  0  0  0  0  0
   20.6640  -32.4938    0.0000 C   0  0  0  0  0  0  0  0  0  0  0  0
   21.2031  -31.0941    0.0000 C   0  0  0  0  0  0  0  0  0  0  0  0
   21.6475  -29.6614    0.0000 C   0  0  0  0  0  0  0  0  0  0  0  0
   21.9953  -28.2023    0.0000 C   0  0  0  0  0  0  0  0  0  0  0  0
   22.2448  -26.7232    0.0000 C   0  0  0  0  0  0  0  0  0  0  0  0
   22.3949  -25.2307    0.0000 C   0  0  0  0  0  0  0  0  0  0  0  0
   22.4450  -23.7315    0.0000 C   0  0  0  0  0  0  0  0  0  0  0  0
   22.3949  -22.2324    0.0000 C   0  0  0  0  0  0  0  0  0  0  0  0
   22.2448  -20.7399    0.0000 C   0  0  0  0  0  0  0  0  0  0  0  0
   21.9953  -19.2608    0.0000 C   0  0  0  0  0  0  0  0  0  0  0  0
   21.6475  -17.8017    0.0000 C   0  0  0  0  0  0  0  0  0  0  0  0
   21.2031  -16.3690    0.0000 C   0  0  0  0  0  0  0  0  0  0  0  0
   20.6640  -14.9692    0.0000 C   0  0  0  0  0  0  0  0  0  0  0  0
   20.0326  -13.6086    0.0000 C   0  0  0  0  0  0  0  0  0  0  0  0
   19.3117  -12.2932    0.0000 C   0  0  0  0  0  0  0  0  0  0  0  0
   18.5046  -11.0288    0.0000 C   0  0  0  0  0  0  0  0  0  0  0  0
   17.6148   -9.8212    0.0000 C   0  0  0  0  0  0  0  0  0  0  0  0
   16.6464   -8.6757    0.0000 C   0  0  0  0  0  0  0  0  0  0  0  0
   15.6036   -7.5975    0.0000 C   0  0  0  0  0  0  0  0  0  0  0  0
   14.4911   -6.5913    0.0000 C   0  0  0  0  0  0  0  0  0  0  0  0
   13.3139   -5.6617    0.0000 C   0  0  0  0  0  0  0  0  0  0  0  0
   12.0773   -4.8128    0.0000 C   0  0  0  0  0  0  0  0  0  0  0  0
   10.7867   -4.0484    0.0000 C   0  0  0  0  0  0  0  0  0  0  0  0
    9.4479   -3.3719    0.0000 C   0  0  0  0  0  0  0  0  0  0  0  0
    8.0669   -2.7863    0.0000 C   0  0  0  0  0  0  0  0  0  0  0  0
    6.6499   -2.2942    0.0000 C   0  0  0  0  0  0  0  0  0  0  0  0
    5.2032   -1.8979    0.0000 C   0  0  0  0  0  0  0  0  0  0  0  0
    3.7333   -1.5992    0.0000 C   0  0  0  0  0  0  0  0  0  0  0  0
    2.2467   -1.3992    0.0000 C   0  0  0  0  0  0  0  0  0  0  0  0
    0.7500   -1.2990    0.0000 C   0  0  0  0  0  0  0  0  0  0  0  0
    1.5000    0.0000    0.0000 C   0  0  0  0  0  0  0  0  0  0  0  0
    0.7500    1.2990    0.0000 C   0  0  0  0  0  0  0  0  0  0  0  0
   -0.7500    1.2990    0.0000 C   0  0  0  0  0  0  0  0  0  0  0  0
   -1.5000    0.0000    0.0000 C   0  0  0  0  0  0  0  0  0  0  0  0
   -0.7500   -1.2990    0.0000 C   0  0  0  0  0  0  0  0  0  0  0  0
   -2.2467   -1.3992    0.0000 C   0  0  0  0  0  0  0  0  0  0  0  0
   -1.3302   -2.5867    0.0000 C   0  0  0  0  0  0  0  0  0  0  0  0
   -1.9004   -3.9741    0.0000 C   0  0  0  0  0  0  0  0  0  0  0  0
   -3.3870   -4.1741    0.0000 C   0  0  0  0  0  0  0  0  0  0  0  0
   -4.3034   -2.9866    0.0000 C   0  0  0  0  0  0  0  0  0  0  0  0
   -3.7333   -1.5992    0.0000 C   0  0  0  0  0  0  0  0  0  0  0  0
  1  2  1  0
  2  3  1  0
  3  4  1  0
  4  5  1  0
  5  6  1  0
  6  7  1  0
  7  8  1  0
  8  9  1  0
  9 10  1  0
 10 11  1  0
 11 12  1  0
 12 13  1  0
 13 14  1  0
 14 15  1  0
 15 16  1  0
 16 17  1  0
 17 18  1  0
 18 19  1  0
 19 20  1  0
 20 21  1  0
 21 22  1  0
 22 23  1  0
 23 24  1  0
 24 25  1  0
 25 26  1  0
 26 27  1  0
 27 28  1  0
 28 29  1  0
 29 30  1  0
 30 31  1  0
 31 32  1  0
 32 33  1  0
 33 34  1  0
 34 35  1  0
 35 36  1  0
 36 37  1  0
 37 38  1  0
 38 39  1  0
 39 40  1  0
 40 41  1  0
 41 42  1  0
 42 43  1  0
 43 44  1  0
 44 45  1  0
 45 46  1  0
 46 47  1  0
 47 48  1  0
 48 49  1  0
 49 50  1  0
 50 51  1  0
 51 52  1  0
 52 53  1  0
 53 54  1  0
 54 55  1  0
 55 56  1  0
 56 57  1  0
 57 58  1  0
 58 59  1  0
 59 60  1  0
 60 61  1  0
 61 62  1  0
 62 63  1  0
 63 64  1  0
 64 65  1  0
 65 66  1  0
 66 67  1  0
 67 68  1  0
 68 69  1  0
 69 70  1  0
 70 71  1  0
 71 72  1  0
 72 73  1  0
 73 74  1  0
 74 75  1  0
 75 76  1  0
 76 77  1  0
 77 78  1  0
 78 79  1  0
 79 80  1  0
 80 81  1  0
 81 82  1  0
 82 83  1  0
 83 84  1  0
 84 85  1  0
 85 86  1  0
 86 87  1  0
 87 88  1  0
 88 89  1  0
 89 90  1  0
 90 91  1  0
 91 92  1  0
 92 93  2  0
 93 94  1  0
 94 95  2  0
 95 96  1  0
 96 97  2  0
 97 98  1  0
 98 99  2  0
 99100  1  0
100101  2  0
101102  1  0
102103  2  0
103  2  1  0
 97 92  1  0
103 98  1  0
M  END
>  <Title>  (641) 
idAAWSgen9

$$$$

     RDKit          2D

128127  0  0  0  0  0  0  0  0999 V2000
    0.0000    0.0000    0.0000 C   0  0  0  0  0  0  0  0  0  0  0  0
    1.2990    0.7500    0.0000 C   0  0  0  0  0  0  0  0  0  0  0  0
    2.5981   -0.0000    0.0000 C   0  0  0  0  0  0  0  0  0  0  0  0
    3.8971    0.7500    0.0000 C   0  0  0  0  0  0  0  0  0  0  0  0
    5.1962   -0.0000    0.0000 C   0  0  0  0  0  0  0  0  0  0  0  0
    6.4952    0.7500    0.0000 C   0  0  0  0  0  0  0  0  0  0  0  0
    7.7942   -0.0000    0.0000 C   0  0  0  0  0  0  0  0  0  0  0  0
    9.0933    0.7500    0.0000 C   0  0  0  0  0  0  0  0  0  0  0  0
   10.3923   -0.0000    0.0000 C   0  0  0  0  0  0  0  0  0  0  0  0
   11.6913    0.7500    0.0000 C   0  0  0  0  0  0  0  0  0  0  0  0
   12.9904   -0.0000    0.0000 C   0  0  0  0  0  0  0  0  0  0  0  0
   14.2894    0.7500    0.0000 C   0  0  0  0  0  0  0  0  0  0  0  0
   15.5885   -0.0000    0.0000 C   0  0  0  0  0  0  0  0  0  0  0  0
   16.8875    0.7500    0.0000 C   0  0  0  0  0  0  0  0  0  0  0  0
   18.1865   -0.0000    0.0000 C   0  0  0  0  0  0  0  0  0  0  0  0
   19.4856    0.7500    0.0000 C   0  0  0  0  0  0  0  0  0  0  0  0
   20.7846   -0.0000    0.0000 C   0  0  0  0  0  0  0  0  0  0  0  0
   22.0836    0.7500    0.0000 C   0  0  0  0  0  0  0  0  0  0  0  0
   23.3827   -0.0000    0.0000 C   0  0  0  0  0  0  0  0  0  0  0  0
   24.6817    0.7500    0.0000 C   0  0  0  0  0  0  0  0  0  0  0  0
   25.9808   -0.0000    0.0000 C   0  0  0  0  0  0  0  0  0  0  0  0
   27.2798    0.7500    0.0000 C   0  0  0  0  0  0  0  0  0  0  0  0
   28.5788   -0.0000    0.0000 C   0  0  0  0  0  0  0  0  0  0  0  0
   29.8779    0.7500    0.0000 C   0  0  0  0  0  0  0  0  0  0  0  0
   31.1769   -0.0000    0.0000 C   0  0  0  0  0  0  0  0  0  0  0  0
   32.4760    0.7500    0.0000 C   0  0  0  0  0  0  0  0  0  0  0  0
   33.7750   -0.0000    0.0000 C   0  0  0  0  0  0  0  0  0  0  0  0
   35.0740    0.7500    0.0000 C   0  0  0  0  0  0  0  0  0  0  0  0
   36.3731   -0.0000    0.0000 C   0  0  0  0  0  0  0  0  0  0  0  0
   37.6721    0.7500    0.0000 C   0  0  0  0  0  0  0  0  0  0  0  0
   38.9711   -0.0000    0.0000 C   0  0  0  0  0  0  0  0  0  0  0  0
   40.2702    0.7500    0.0000 C   0  0  0  0  0  0  0  0  0  0  0  0
   41.5692   -0.0000    0.0000 C   0  0  0  0  0  0  0  0  0  0  0  0
   42.8683    0.7500    0.0000 C   0  0  0  0  0  0  0  0  0  0  0  0
   44.1673   -0.0000    0.0000 C   0  0  0  0  0  0  0  0  0  0  0  0
   45.4663    0.7500    0.0000 C   0  0  0  0  0  0  0  0  0  0  0  0
   46.7654   -0.0000    0.0000 C   0  0  0  0  0  0  0  0  0  0  0  0
   48.0644    0.7500    0.0000 C   0  0  0  0  0  0  0  0  0  0  0  0
   49.3634   -0.0000    0.0000 C   0  0  0  0  0  0  0  0  0  0  0  0
   50.6625    0.7500    0.0000 C   0  0  0  0  0  0  0  0  0  0  0  0
   51.9615   -0.0000    0.0000 C   0  0  0  0  0  0  0  0  0  0  0  0
   53.2606    0.7500    0.0000 C   0  0  0  0  0  0  0  0  0  0  0  0
   54.5596   -0.0000    0.0000 C   0  0  0  0  0  0  0  0  0  0  0  0
   55.8586    0.7500    0.0000 C   0  0  0  0  0  0  0  0  0  0  0  0
   57.1577   -0.0000    0.0000 C   0  0  0  0  0  0  0  0  0  0  0  0
   58.4567    0.7500    0.0000 C   0  0  0  0  0  0  0  0  0  0  0  0
   59.7558   -0.0000    0.0000 C   0  0  0  0  0  0  0  0  0  0  0  0
   61.0548    0.7500    0.0000 C   0  0  0  0  0  0  0  0  0  0  0  0
   62.3538   -0.0000    0.0000 C   0  0  0  0  0  0  0  0  0  0  0  0
   63.6529    0.7500    0.0000 C   0  0  0  0  0  0  0  0  0  0  0  0
   64.9519   -0.0000    0.0000 C   0  0  0  0  0  0  0  0  0  0  0  0
   66.2509    0.7500    0.0000 C   0  0  0  0  0  0  0  0  0  0  0  0
   67.5500   -0.0000    0.0000 C   0  0  0  0  0  0  0  0  0  0  0  0
   68.8490    0.7500    0.0000 C   0  0  0  0  0  0  0  0  0  0  0  0
   70.1481   -0.0000    0.0000 C   0  0  0  0  0  0  0  0  0  0  0  0
   71.4471    0.7500    0.0000 C   0  0  0  0  0  0  0  0  0  0  0  0
   72.7461   -0.0000    0.0000 C   0  0  0  0  0  0  0  0  0  0  0  0
   74.0452    0.7500    0.0000 C   0  0  0  0  0  0  0  0  0  0  0  0
   75.3442   -0.0000    0.0000 C   0  0  0  0  0  0  0  0  0  0  0  0
   76.6432    0.7500    0.0000 C   0  0  0  0  0  0  0  0  0  0  0  0
   77.9423   -0.0000    0.0000 C   0  0  0  0  0  0  0  0  0  0  0  0
   79.2413    0.7500    0.0000 C   0  0  0  0  0  0  0  0  0  0  0  0
   80.5404   -0.0000    0.0000 C   0  0  0  0  0  0  0  0  0  0  0  0
   81.8394    0.7500    0.0000 C   0  0  0  0  0  0  0  0  0  0  0  0
   83.1384   -0.0000    0.0000 C   0  0  0  0  0  0  0  0  0  0  0  0
   84.4375    0.7500    0.0000 C   0  0  0  0  0  0  0  0  0  0  0  0
   85.7365   -0.0000    0.0000 C   0  0  0  0  0  0  0  0  0  0  0  0
   87.0356    0.7500    0.0000 C   0  0  0  0  0  0  0  0  0  0  0  0
   88.3346   -0.0000    0.0000 C   0  0  0  0  0  0  0  0  0  0  0  0
   89.6336    0.7500    0.0000 C   0  0  0  0  0  0  0  0  0  0  0  0
   90.9327   -0.0000    0.0000 C   0  0  0  0  0  0  0  0  0  0  0  0
   92.2317    0.7500    0.0000 C   0  0  0  0  0  0  0  0  0  0  0  0
   93.5307   -0.0000    0.0000 C   0  0  0  0  0  0  0  0  0  0  0  0
   94.8298    0.7500    0.0000 C   0  0  0  0  0  0  0  0  0  0  0  0
   96.1288   -0.0000    0.0000 C   0  0  0  0  0  0  0  0  0  0  0  0
   97.4279    0.7500    0.0000 C   0  0  0  0  0  0  0  0  0  0  0  0
   98.7269   -0.0000    0.0000 C   0  0  0  0  0  0  0  0  0  0  0  0
  100.0259    0.7500    0.0000 C   0  0  0  0  0  0  0  0  0  0  0  0
  101.3250   -0.0000    0.0000 C   0  0  0  0  0  0  0  0  0  0  0  0
  102.6240    0.7500    0.0000 C   0  0  0  0  0  0  0  0  0  0  0  0
  103.9230   -0.0000    0.0000 C   0  0  0  0  0  0  0  0  0  0  0  0
  105.2221    0.7500    0.0000 C   0  0  0  0  0  0  0  0  0  0  0  0
  106.5211   -0.0000    0.0000 C   0  0  0  0  0  0  0  0  0  0  0  0
  107.8202    0.7500    0.0000 C   0  0  0  0  0  0  0  0  0  0  0  0
  109.1192   -0.0000    0.0000 C   0  0  0  0  0  0  0  0  0  0  0  0
  110.4182    0.7500    0.0000 C   0  0  0  0  0  0  0  0  0  0  0  0
  111.7173   -0.0000    0.0000 C   0  0  0  0  0  0  0  0  0  0  0  0
  113.0163    0.7500    0.0000 C   0  0  0  0  0  0  0  0  0  0  0  0
  114.3154   -0.0000    0.0000 C   0  0  0  0  0  0  0  0  0  0  0  0
  115.6144    0.7500    0.0000 C   0  0  0  0  0  0  0  0  0  0  0  0
  116.9134   -0.0000    0.0000 C   0  0  0  0  0  0  0  0  0  0  0  0
  118.2125    0.7500    0.0000 C   0  0  0  0  0  0  0  0  0  0  0  0
  119.5115   -0.0000    0.0000 C   0  0  0  0  0  0  0  0  0  0  0  0
  120.8105    0.7500    0.0000 C   0  0  0  0  0  0  0  0  0  0  0  0
  122.1096   -0.0000    0.0000 C   0  0  0  0  0  0  0  0  0  0  0  0
  123.4086    0.7500    0.0000 C   0  0  0  0  0  0  0  0  0  0  0  0
  124.7077   -0.0000    0.0000 C   0  0  0  0  0  0  0  0  0  0  0  0
  126.0067    0.7500    0.0000 C   0  0  0  0  0  0  0  0  0  0  0  0
  127.3057   -0.0000    0.0000 C   0  0  0  0  0  0  0  0  0  0  0  0
  128.6048    0.7500    0.0000 C   0  0  0  0  0  0  0  0  0  0  0  0
  129.9038   -0.0000    0.0000 C   0  0  0  0  0  0  0  0  0  0  0  0
  131.2028    0.7500    0.0000 C   0  0  0  0  0  0  0  0  0  0  0  0
  132.5019   -0.0000    0.0000 C   0  0  0  0  0  0  0  0  0  0  0  0
  133.8009    0.7500    0.0000 C   0  0  0  0  0  0  0  0  0  0  0  0
  135.1000   -0.0000    0.0000 C   0  0  0  0  0  0  0  0  0  0  0  0
  136.3990    0.7500    0.0000 C   0  0  0  0  0  0  0  0  0  0  0  0
  137.6980   -0.0000    0.0000 C   0  0  0  0  0  0  0  0  0  0  0  0
  138.9971    0.7500    0.0000 C   0  0  0  0  0  0  0  0  0  0  0  0
  140.2961   -0.0000    0.0000 C   0  0  0  0  0  0  0  0  0  0  0  0
  141.5952    0.7500    0.0000 C   0  0  0  0  0  0  0  0  0  0  0  0
  142.8942   -0.0000    0.0000 C   0  0  0  0  0  0  0  0  0  0  0  0
  144.1932    0.7500    0.0000 C   0  0  0  0  0  0  0  0  0  0  0  0
  145.4923   -0.0000    0.0000 C   0  0  0  0  0  0  0  0  0  0  0  0
  146.7913    0.7500    0.0000 C   0  0  0  0  0  0  0  0  0  0  0  0
  148.0903   -0.0000    0.0000 C   0  0  0  0  0  0  0  0  0  0  0  0
  149.3894    0.7500    0.0000 C   0  0  0  0  0  0  0  0  0  0  0  0
  150.6884   -0.0000    0.0000 C   0  0  0  0  0  0  0  0  0  0  0  0
  151.9875    0.7500    0.0000 C   0  0  0  0  0  0  0  0  0  0  0  0
  153.2865   -0.0000    0.0000 C   0  0  0  0  0  0  0  0  0  0  0  0
  154.5855    0.7500    0.0000 C   0  0  0  0  0  0  0  0  0  0  0  0
  155.8846   -0.0000    0.0000 C   0  0  0  0  0  0  0  0  0  0  0  0
  157.1836    0.7500    0.0000 C   0  0  0  0  0  0  0  0  0  0  0  0
  158.4826   -0.0000    0.0000 C   0  0  0  0  0  0  0  0  0  0  0  0
  159.7817    0.7500    0.0000 C   0  0  0  0  0  0  0  0  0  0  0  0
  161.0807   -0.0000    0.0000 C   0  0  0  0  0  0  0  0  0  0  0  0
  162.3798    0.7500    0.0000 C   0  0  0  0  0  0  0  0  0  0  0  0
  163.6788   -0.0000    0.0000 C   0  0  0  0  0  0  0  0  0  0  0  0
  164.9778    0.7500    0.0000 C   0  0  0  0  0  0  0  0  0  0  0  0
  1  2  1  0
  2  3  1  0
  3  4  1  0
  4  5  1  0
  5  6  1  0
  6  7  1  0
  7  8  1  0
  8  9  1  0
  9 10  1  0
 10 11  1  0
 11 12  1  0
 12 13  1  0
 13 14  1  0
 14 15  1  0
 15 16  1  0
 16 17  1  0
 17 18  1  0
 18 19  1  0
 19 20  1  0
 20 21  1  0
 21 22  1  0
 22 23  1  0
 23 24  1  0
 24 25  1  0
 25 26  1  0
 26 27  1  0
 27 28  1  0
 28 29  1  0
 29 30  1  0
 30 31  1  0
 31 32  1  0
 32 33  1  0
 33 34  1  0
 34 35  1  0
 35 36  1  0
 36 37  1  0
 37 38  1  0
 38 39  1  0
 39 40  1  0
 40 41  1  0
 41 42  1  0
 42 43  1  0
 43 44  1  0
 44 45  1  0
 45 46  1  0
 46 47  1  0
 47 48  1  0
 48 49  1  0
 49 50  1  0
 50 51  1  0
 51 52  1  0
 52 53  1  0
 53 54  1  0
 54 55  1  0
 55 56  1  0
 56 57  1  0
 57 58  1  0
 58 59  1  0
 59 60  1  0
 60 61  1  0
 61 62  1  0
 62 63  1  0
 63 64  1  0
 64 65  1  0
 65 66  1  0
 66 67  1  0
 67 68  1  0
 68 69  1  0
 69 70  1  0
 70 71  1  0
 71 72  1  0
 72 73  1  0
 73 74  1  0
 74 75  1  0
 75 76  1  0
 76 77  1  0
 77 78  1  0
 78 79  1  0
 79 80  1  0
 80 81  1  0
 81 82  1  0
 82 83  1  0
 83 84  1  0
 84 85  1  0
 85 86  1  0
 86 87  1  0
 87 88  1  0
 88 89  1  0
 89 90  1  0
 90 91  1  0
 91 92  1  0
 92 93  1  0
 93 94  1  0
 94 95  1  0
 95 96  1  0
 96 97  1  0
 97 98  1  0
 98 99  1  0
 99100  1  0
100101  1  0
101102  1  0
102103  1  0
103104  1  0
104105  1  0
105106  1  0
106107  1  0
107108  1  0
108109  1  0
109110  1  0
110111  1  0
111112  1  0
112113  1  0
113114  1  0
114115  1  0
115116  1  0
116117  1  0
117118  1  0
118119  1  0
119120  1  0
120121  1  0
121122  1  0
122123  1  0
123124  1  0
124125  1  0
125126  1  0
126127  1  0
127128  1  0
M  END
>  <Title>  (642) 
idAAWTgen9

$$$$

     RDKit          2D

 78 80  0  0  0  0  0  0  0  0999 V2000
   -2.4427    0.0552    0.0000 C   0  0  0  0  0  0  0  0  0  0  0  0
   -2.2441   -1.4316    0.0000 C   0  0  0  0  0  0  0  0  0  0  0  0
   -3.7207   -1.6957    0.0000 C   0  0  0  0  0  0  0  0  0  0  0  0
   -5.1681   -2.0893    0.0000 C   0  0  0  0  0  0  0  0  0  0  0  0
   -6.5751   -2.6092    0.0000 C   0  0  0  0  0  0  0  0  0  0  0  0
   -7.9307   -3.2515    0.0000 C   0  0  0  0  0  0  0  0  0  0  0  0
   -9.2242   -4.0111    0.0000 C   0  0  0  0  0  0  0  0  0  0  0  0
  -10.4454   -4.8820    0.0000 C   0  0  0  0  0  0  0  0  0  0  0  0
  -11.5850   -5.8574    0.0000 C   0  0  0  0  0  0  0  0  0  0  0  0
  -12.6338   -6.9297    0.0000 C   0  0  0  0  0  0  0  0  0  0  0  0
  -13.5838   -8.0906    0.0000 C   0  0  0  0  0  0  0  0  0  0  0  0
  -14.4275   -9.3308    0.0000 C   0  0  0  0  0  0  0  0  0  0  0  0
  -15.1582  -10.6408    0.0000 C   0  0  0  0  0  0  0  0  0  0  0  0
  -15.7704  -12.0102    0.0000 C   0  0  0  0  0  0  0  0  0  0  0  0
  -16.2591  -13.4283    0.0000 C   0  0  0  0  0  0  0  0  0  0  0  0
  -16.6205  -14.8841    0.0000 C   0  0  0  0  0  0  0  0  0  0  0  0
  -16.8519  -16.3662    0.0000 C   0  0  0  0  0  0  0  0  0  0  0  0
  -16.9514  -17.8629    0.0000 C   0  0  0  0  0  0  0  0  0  0  0  0
  -16.9182  -19.3625    0.0000 C   0  0  0  0  0  0  0  0  0  0  0  0
  -16.7526  -20.8533    0.0000 C   0  0  0  0  0  0  0  0  0  0  0  0
  -16.4559  -22.3237    0.0000 C   0  0  0  0  0  0  0  0  0  0  0  0
  -16.0304  -23.7621    0.0000 C   0  0  0  0  0  0  0  0  0  0  0  0
  -15.4795  -25.1573    0.0000 C   0  0  0  0  0  0  0  0  0  0  0  0
  -14.8074  -26.4983    0.0000 C   0  0  0  0  0  0  0  0  0  0  0  0
  -14.0194  -27.7746    0.0000 C   0  0  0  0  0  0  0  0  0  0  0  0
  -13.1217  -28.9763    0.0000 C   0  0  0  0  0  0  0  0  0  0  0  0
  -12.1213  -30.0940    0.0000 C   0  0  0  0  0  0  0  0  0  0  0  0
  -11.0260  -31.1189    0.0000 C   0  0  0  0  0  0  0  0  0  0  0  0
   -9.8444  -32.0429    0.0000 C   0  0  0  0  0  0  0  0  0  0  0  0
   -8.5858  -32.8590    0.0000 C   0  0  0  0  0  0  0  0  0  0  0  0
   -7.2600  -33.5606    0.0000 C   0  0  0  0  0  0  0  0  0  0  0  0
   -5.8774  -34.1423    0.0000 C   0  0  0  0  0  0  0  0  0  0  0  0
   -4.4488  -34.5995    0.0000 C   0  0  0  0  0  0  0  0  0  0  0  0
   -2.9853  -34.9286    0.0000 C   0  0  0  0  0  0  0  0  0  0  0  0
   -1.4985  -35.1272    0.0000 C   0  0  0  0  0  0  0  0  0  0  0  0
   -0.0000  -35.1935    0.0000 C   0  0  0  0  0  0  0  0  0  0  0  0
    1.4985  -35.1272    0.0000 C   0  0  0  0  0  0  0  0  0  0  0  0
    2.9853  -34.9286    0.0000 C   0  0  0  0  0  0  0  0  0  0  0  0
    4.4488  -34.5995    0.0000 C   0  0  0  0  0  0  0  0  0  0  0  0
    5.8774  -34.1423    0.0000 C   0  0  0  0  0  0  0  0  0  0  0  0
    7.2600  -33.5606    0.0000 C   0  0  0  0  0  0  0  0  0  0  0  0
    8.5858  -32.8590    0.0000 C   0  0  0  0  0  0  0  0  0  0  0  0
    9.8444  -32.0429    0.0000 C   0  0  0  0  0  0  0  0  0  0  0  0
   11.0260  -31.1189    0.0000 C   0  0  0  0  0  0  0  0  0  0  0  0
   12.1213  -30.0940    0.0000 C   0  0  0  0  0  0  0  0  0  0  0  0
   13.1217  -28.9763    0.0000 C   0  0  0  0  0  0  0  0  0  0  0  0
   14.0194  -27.7746    0.0000 C   0  0  0  0  0  0  0  0  0  0  0  0
   14.8074  -26.4983    0.0000 C   0  0  0  0  0  0  0  0  0  0  0  0
   15.4795  -25.1573    0.0000 C   0  0  0  0  0  0  0  0  0  0  0  0
   16.0304  -23.7621    0.0000 C   0  0  0  0  0  0  0  0  0  0  0  0
   16.4559  -22.3237    0.0000 C   0  0  0  0  0  0  0  0  0  0  0  0
   16.7526  -20.8533    0.0000 C   0  0  0  0  0  0  0  0  0  0  0  0
   16.9182  -19.3625    0.0000 C   0  0  0  0  0  0  0  0  0  0  0  0
   16.9514  -17.8629    0.0000 C   0  0  0  0  0  0  0  0  0  0  0  0
   16.8519  -16.3662    0.0000 C   0  0  0  0  0  0  0  0  0  0  0  0
   16.6205  -14.8841    0.0000 C   0  0  0  0  0  0  0  0  0  0  0  0
   16.2591  -13.4283    0.0000 C   0  0  0  0  0  0  0  0  0  0  0  0
   15.7704  -12.0102    0.0000 C   0  0  0  0  0  0  0  0  0  0  0  0
   15.1582  -10.6408    0.0000 C   0  0  0  0  0  0  0  0  0  0  0  0
   14.4275   -9.3308    0.0000 C   0  0  0  0  0  0  0  0  0  0  0  0
   13.5838   -8.0906    0.0000 C   0  0  0  0  0  0  0  0  0  0  0  0
   12.6338   -6.9297    0.0000 C   0  0  0  0  0  0  0  0  0  0  0  0
   11.5850   -5.8574    0.0000 C   0  0  0  0  0  0  0  0  0  0  0  0
   10.4454   -4.8820    0.0000 C   0  0  0  0  0  0  0  0  0  0  0  0
    9.2242   -4.0111    0.0000 C   0  0  0  0  0  0  0  0  0  0  0  0
    7.9307   -3.2515    0.0000 C   0  0  0  0  0  0  0  0  0  0  0  0
    6.5751   -2.6092    0.0000 C   0  0  0  0  0  0  0  0  0  0  0  0
    5.1681   -2.0893    0.0000 C   0  0  0  0  0  0  0  0  0  0  0  0
    3.7207   -1.6957    0.0000 C   0  0  0  0  0  0  0  0  0  0  0  0
    3.4566   -3.1723    0.0000 C   0  0  0  0  0  0  0  0  0  0  0  0
    1.9800   -2.9082    0.0000 C   0  0  0  0  0  0  0  0  0  0  0  0
    2.2441   -1.4316    0.0000 C   0  0  0  0  0  0  0  0  0  0  0  0
    0.7500   -1.2990    0.0000 C   0  0  0  0  0  0  0  0  0  0  0  0
    1.5000    0.0000    0.0000 C   0  0  0  0  0  0  0  0  0  0  0  0
    0.7500    1.2990    0.0000 C   0  0  0  0  0  0  0  0  0  0  0  0
   -0.7500    1.2990    0.0000 C   0  0  0  0  0  0  0  0  0  0  0  0
   -1.5000    0.0000    0.0000 C   0  0  0  0  0  0  0  0  0  0  0  0
   -0.7500   -1.2990    0.0000 C   0  0  0  0  0  0  0  0  0  0  0  0
  1  2  1  0
  2  3  1  0
  3  4  1  0
  4  5  1  0
  5  6  1  0
  6  7  1  0
  7  8  1  0
  8  9  1  0
  9 10  1  0
 10 11  1  0
 11 12  1  0
 12 13  1  0
 13 14  1  0
 14 15  1  0
 15 16  1  0
 16 17  1  0
 17 18  1  0
 18 19  1  0
 19 20  1  0
 20 21  1  0
 21 22  1  0
 22 23  1  0
 23 24  1  0
 24 25  1  0
 25 26  1  0
 26 27  1  0
 27 28  1  0
 28 29  1  0
 29 30  1  0
 30 31  1  0
 31 32  1  0
 32 33  1  0
 33 34  1  0
 34 35  1  0
 35 36  1  0
 36 37  1  0
 37 38  1  0
 38 39  1  0
 39 40  1  0
 40 41  1  0
 41 42  1  0
 42 43  1  0
 43 44  1  0
 44 45  1  0
 45 46  1  0
 46 47  1  0
 47 48  1  0
 48 49  1  0
 49 50  1  0
 50 51  1  0
 51 52  1  0
 52 53  1  0
 53 54  1  0
 54 55  1  0
 55 56  1  0
 56 57  1  0
 57 58  1  0
 58 59  1  0
 59 60  1  0
 60 61  1  0
 61 62  1  0
 62 63  1  0
 63 64  1  0
 64 65  1  0
 65 66  1  0
 66 67  1  0
 67 68  1  0
 68 69  1  0
 69 70  1  0
 70 71  1  0
 71 72  1  0
 72 73  1  0
 73 74  2  0
 74 75  1  0
 75 76  2  0
 76 77  1  0
 77 78  2  0
 78  2  1  0
 72 69  1  0
 78 73  1  0
M  END
>  <Title>  (643) 
idAAWUgen9

$$$$

     RDKit          2D

 19 20  0  0  0  0  0  0  0  0999 V2000
    3.2286   -0.0000    0.0000 C   0  0  0  0  0  0  0  0  0  0  0  0
    1.7286    0.0000    0.0000 C   0  0  0  0  0  0  0  0  0  0  0  0
    1.0777    1.3515    0.0000 C   0  0  0  0  0  0  0  0  0  0  0  0
   -0.3846    1.6852    0.0000 C   0  0  0  0  0  0  0  0  0  0  0  0
   -1.5574    0.7500    0.0000 C   0  0  0  0  0  0  0  0  0  0  0  0
   -1.5574   -0.7500    0.0000 C   0  0  0  0  0  0  0  0  0  0  0  0
   -2.9088   -1.4008    0.0000 C   0  0  0  0  0  0  0  0  0  0  0  0
   -4.2603   -2.0517    0.0000 N   0  0  0  0  0  0  0  0  0  0  0  0
   -0.3846   -1.6852    0.0000 C   0  0  0  0  0  0  0  0  0  0  0  0
    1.0777   -1.3515    0.0000 C   0  0  0  0  0  0  0  0  0  0  0  0
    2.0130   -2.5242    0.0000 C   0  0  0  0  0  0  0  0  0  0  0  0
    1.4650   -3.9205    0.0000 C   0  0  0  0  0  0  0  0  0  0  0  0
   -0.0183   -4.1441    0.0000 O   0  0  0  0  0  0  0  0  0  0  0  0
    2.4002   -5.0933    0.0000 N   0  0  0  0  0  0  0  0  0  0  0  0
    1.8522   -6.4896    0.0000 C   0  0  0  0  0  0  0  0  0  0  0  0
    2.6597   -7.7537    0.0000 C   0  0  0  0  0  0  0  0  0  0  0  0
    1.7070   -8.9123    0.0000 C   0  0  0  0  0  0  0  0  0  0  0  0
    0.3107   -8.3643    0.0000 C   0  0  0  0  0  0  0  0  0  0  0  0
    0.4004   -6.8669    0.0000 C   0  0  0  0  0  0  0  0  0  0  0  0
  1  2  1  0
  2  3  2  0
  3  4  1  0
  4  5  1  0
  5  6  1  0
  6  7  1  0
  7  8  3  0
  6  9  2  0
  9 10  1  0
 10 11  1  0
 11 12  1  0
 12 13  2  0
 12 14  1  0
 14 15  1  0
 15 16  2  0
 16 17  1  0
 17 18  2  0
 18 19  1  0
 10  2  1  0
 19 15  1  0
M  END
>  <Title>  (644) 
idAAWVgen9

$$$$

     RDKit          2D

 24 24  0  0  0  0  0  0  0  0999 V2000
   13.3191   -0.0000    0.0000 C   0  0  0  0  0  0  0  0  0  0  0  0
   11.8191   -0.0000    0.0000 C   0  0  0  0  0  0  0  0  0  0  0  0
   10.3191   -0.0000    0.0000 C   0  0  0  0  0  0  0  0  0  0  0  0
    8.8191   -0.0000    0.0000 C   0  0  0  0  0  0  0  0  0  0  0  0
    7.3191   -0.0000    0.0000 C   0  0  0  0  0  0  0  0  0  0  0  0
    5.8191    0.0000    0.0000 C   0  0  0  0  0  0  0  0  0  0  0  0
    4.3191    0.0000    0.0000 C   0  0  0  0  0  0  0  0  0  0  0  0
    4.0586   -1.4772    0.0000 C   0  0  0  0  0  0  0  0  0  0  0  0
    3.3086   -2.7762    0.0000 C   0  0  0  0  0  0  0  0  0  0  0  0
    2.1595   -3.7404    0.0000 C   0  0  0  0  0  0  0  0  0  0  0  0
    0.7500   -4.2535    0.0000 C   0  0  0  0  0  0  0  0  0  0  0  0
   -0.7500   -4.2535    0.0000 C   0  0  0  0  0  0  0  0  0  0  0  0
   -2.1595   -3.7404    0.0000 C   0  0  0  0  0  0  0  0  0  0  0  0
   -3.3086   -2.7762    0.0000 C   0  0  0  0  0  0  0  0  0  0  0  0
   -4.0586   -1.4772    0.0000 C   0  0  0  0  0  0  0  0  0  0  0  0
   -4.3191    0.0000    0.0000 C   0  0  0  0  0  0  0  0  0  0  0  0
   -4.0586    1.4772    0.0000 C   0  0  0  0  0  0  0  0  0  0  0  0
   -3.3086    2.7762    0.0000 C   0  0  0  0  0  0  0  0  0  0  0  0
   -2.1595    3.7404    0.0000 C   0  0  0  0  0  0  0  0  0  0  0  0
   -0.7500    4.2535    0.0000 C   0  0  0  0  0  0  0  0  0  0  0  0
    0.7500    4.2535    0.0000 C   0  0  0  0  0  0  0  0  0  0  0  0
    2.1595    3.7404    0.0000 C   0  0  0  0  0  0  0  0  0  0  0  0
    3.3086    2.7762    0.0000 C   0  0  0  0  0  0  0  0  0  0  0  0
    4.0586    1.4772    0.0000 C   0  0  0  0  0  0  0  0  0  0  0  0
  1  2  3  0
  2  3  1  0
  3  4  3  0
  4  5  1  0
  5  6  3  0
  6  7  1  0
  7  8  1  0
  8  9  1  0
  9 10  1  0
 10 11  1  0
 11 12  1  0
 12 13  1  0
 13 14  1  0
 14 15  1  0
 15 16  1  0
 16 17  1  0
 17 18  1  0
 18 19  1  0
 19 20  1  0
 20 21  1  0
 21 22  1  0
 22 23  1  0
 23 24  1  0
 24  7  1  0
M  END
>  <Title>  (645) 
idAAWWgen9

$$$$

     RDKit          2D

 98102  0  0  0  0  0  0  0  0999 V2000
  -13.9643   -5.3258    0.0000 C   0  0  0  0  0  0  0  0  0  0  0  0
  -12.9357   -6.4176    0.0000 C   0  0  0  0  0  0  0  0  0  0  0  0
  -13.9858   -7.4888    0.0000 C   0  0  0  0  0  0  0  0  0  0  0  0
  -14.9474   -8.6400    0.0000 C   0  0  0  0  0  0  0  0  0  0  0  0
  -15.8146   -9.8639    0.0000 C   0  0  0  0  0  0  0  0  0  0  0  0
  -16.5817  -11.1529    0.0000 C   0  0  0  0  0  0  0  0  0  0  0  0
  -17.2440  -12.4988    0.0000 C   0  0  0  0  0  0  0  0  0  0  0  0
  -17.7973  -13.8930    0.0000 C   0  0  0  0  0  0  0  0  0  0  0  0
  -18.2381  -15.3268    0.0000 C   0  0  0  0  0  0  0  0  0  0  0  0
  -18.5636  -16.7911    0.0000 C   0  0  0  0  0  0  0  0  0  0  0  0
  -18.7717  -18.2765    0.0000 C   0  0  0  0  0  0  0  0  0  0  0  0
  -18.8611  -19.7739    0.0000 C   0  0  0  0  0  0  0  0  0  0  0  0
  -18.8313  -21.2736    0.0000 C   0  0  0  0  0  0  0  0  0  0  0  0
  -18.6824  -22.7662    0.0000 C   0  0  0  0  0  0  0  0  0  0  0  0
  -18.4154  -24.2422    0.0000 C   0  0  0  0  0  0  0  0  0  0  0  0
  -18.0320  -25.6924    0.0000 C   0  0  0  0  0  0  0  0  0  0  0  0
  -17.5345  -27.1075    0.0000 C   0  0  0  0  0  0  0  0  0  0  0  0
  -16.9263  -28.4786    0.0000 C   0  0  0  0  0  0  0  0  0  0  0  0
  -16.2110  -29.7971    0.0000 C   0  0  0  0  0  0  0  0  0  0  0  0
  -15.3932  -31.0546    0.0000 C   0  0  0  0  0  0  0  0  0  0  0  0
  -14.4781  -32.2431    0.0000 C   0  0  0  0  0  0  0  0  0  0  0  0
  -13.4714  -33.3551    0.0000 C   0  0  0  0  0  0  0  0  0  0  0  0
  -12.3796  -34.3837    0.0000 C   0  0  0  0  0  0  0  0  0  0  0  0
  -11.2095  -35.3223    0.0000 C   0  0  0  0  0  0  0  0  0  0  0  0
   -9.9685  -36.1649    0.0000 C   0  0  0  0  0  0  0  0  0  0  0  0
   -8.6646  -36.9063    0.0000 C   0  0  0  0  0  0  0  0  0  0  0  0
   -7.3058  -37.5417    0.0000 C   0  0  0  0  0  0  0  0  0  0  0  0
   -5.9009  -38.0672    0.0000 C   0  0  0  0  0  0  0  0  0  0  0  0
   -4.4586  -38.4793    0.0000 C   0  0  0  0  0  0  0  0  0  0  0  0
   -2.9882  -38.7756    0.0000 C   0  0  0  0  0  0  0  0  0  0  0  0
   -1.4988  -38.9542    0.0000 C   0  0  0  0  0  0  0  0  0  0  0  0
   -0.0000  -39.0138    0.0000 C   0  0  0  0  0  0  0  0  0  0  0  0
    1.4988  -38.9542    0.0000 C   0  0  0  0  0  0  0  0  0  0  0  0
    2.9882  -38.7756    0.0000 C   0  0  0  0  0  0  0  0  0  0  0  0
    4.4586  -38.4793    0.0000 C   0  0  0  0  0  0  0  0  0  0  0  0
    5.9009  -38.0672    0.0000 C   0  0  0  0  0  0  0  0  0  0  0  0
    7.3058  -37.5417    0.0000 C   0  0  0  0  0  0  0  0  0  0  0  0
    8.6646  -36.9063    0.0000 C   0  0  0  0  0  0  0  0  0  0  0  0
    9.9685  -36.1649    0.0000 C   0  0  0  0  0  0  0  0  0  0  0  0
   11.2095  -35.3223    0.0000 C   0  0  0  0  0  0  0  0  0  0  0  0
   12.3796  -34.3837    0.0000 C   0  0  0  0  0  0  0  0  0  0  0  0
   13.4714  -33.3551    0.0000 C   0  0  0  0  0  0  0  0  0  0  0  0
   14.4781  -32.2431    0.0000 C   0  0  0  0  0  0  0  0  0  0  0  0
   15.3932  -31.0546    0.0000 C   0  0  0  0  0  0  0  0  0  0  0  0
   16.2110  -29.7971    0.0000 C   0  0  0  0  0  0  0  0  0  0  0  0
   16.9263  -28.4786    0.0000 C   0  0  0  0  0  0  0  0  0  0  0  0
   17.5345  -27.1075    0.0000 C   0  0  0  0  0  0  0  0  0  0  0  0
   18.0320  -25.6924    0.0000 C   0  0  0  0  0  0  0  0  0  0  0  0
   18.4154  -24.2422    0.0000 C   0  0  0  0  0  0  0  0  0  0  0  0
   18.6824  -22.7662    0.0000 C   0  0  0  0  0  0  0  0  0  0  0  0
   18.8313  -21.2736    0.0000 C   0  0  0  0  0  0  0  0  0  0  0  0
   18.8611  -19.7739    0.0000 C   0  0  0  0  0  0  0  0  0  0  0  0
   18.7717  -18.2765    0.0000 C   0  0  0  0  0  0  0  0  0  0  0  0
   18.5636  -16.7911    0.0000 C   0  0  0  0  0  0  0  0  0  0  0  0
   18.2381  -15.3268    0.0000 C   0  0  0  0  0  0  0  0  0  0  0  0
   17.7973  -13.8930    0.0000 C   0  0  0  0  0  0  0  0  0  0  0  0
   17.2440  -12.4988    0.0000 C   0  0  0  0  0  0  0  0  0  0  0  0
   16.5817  -11.1529    0.0000 C   0  0  0  0  0  0  0  0  0  0  0  0
   15.8146   -9.8639    0.0000 C   0  0  0  0  0  0  0  0  0  0  0  0
   14.9474   -8.6400    0.0000 C   0  0  0  0  0  0  0  0  0  0  0  0
   13.9858   -7.4888    0.0000 C   0  0  0  0  0  0  0  0  0  0  0  0
   12.9357   -6.4176    0.0000 C   0  0  0  0  0  0  0  0  0  0  0  0
   11.8039   -5.4333    0.0000 C   0  0  0  0  0  0  0  0  0  0  0  0
   10.5974   -4.5420    0.0000 C   0  0  0  0  0  0  0  0  0  0  0  0
    9.3239   -3.7494    0.0000 C   0  0  0  0  0  0  0  0  0  0  0  0
    7.9915   -3.0604    0.0000 C   0  0  0  0  0  0  0  0  0  0  0  0
    6.6086   -2.4795    0.0000 C   0  0  0  0  0  0  0  0  0  0  0  0
    5.1838   -2.0103    0.0000 C   0  0  0  0  0  0  0  0  0  0  0  0
    3.7263   -1.6558    0.0000 C   0  0  0  0  0  0  0  0  0  0  0  0
    2.2453   -1.4182    0.0000 C   0  0  0  0  0  0  0  0  0  0  0  0
    2.4238    0.0711    0.0000 C   0  0  0  0  0  0  0  0  0  0  0  0
    0.7500   -1.2990    0.0000 C   0  0  0  0  0  0  0  0  0  0  0  0
    1.5000    0.0000    0.0000 C   0  0  0  0  0  0  0  0  0  0  0  0
    0.7500    1.2990    0.0000 C   0  0  0  0  0  0  0  0  0  0  0  0
   -0.7500    1.2990    0.0000 C   0  0  0  0  0  0  0  0  0  0  0  0
   -1.5000    0.0000    0.0000 C   0  0  0  0  0  0  0  0  0  0  0  0
   -0.7500   -1.2990    0.0000 C   0  0  0  0  0  0  0  0  0  0  0  0
   -2.2453   -1.4182    0.0000 C   0  0  0  0  0  0  0  0  0  0  0  0
   -1.2990   -2.5821    0.0000 C   0  0  0  0  0  0  0  0  0  0  0  0
   -1.8337   -3.9835    0.0000 C   0  0  0  0  0  0  0  0  0  0  0  0
   -3.3148   -4.2211    0.0000 C   0  0  0  0  0  0  0  0  0  0  0  0
   -4.2611   -3.0572    0.0000 C   0  0  0  0  0  0  0  0  0  0  0  0
   -3.7263   -1.6558    0.0000 C   0  0  0  0  0  0  0  0  0  0  0  0
   -5.1838   -2.0103    0.0000 C   0  0  0  0  0  0  0  0  0  0  0  0
   -4.8778   -0.5419    0.0000 C   0  0  0  0  0  0  0  0  0  0  0  0
   -5.9965    0.4574    0.0000 C   0  0  0  0  0  0  0  0  0  0  0  0
   -7.4212   -0.0118    0.0000 C   0  0  0  0  0  0  0  0  0  0  0  0
   -7.7273   -1.4803    0.0000 C   0  0  0  0  0  0  0  0  0  0  0  0
   -6.6086   -2.4795    0.0000 C   0  0  0  0  0  0  0  0  0  0  0  0
   -7.9915   -3.0604    0.0000 C   0  0  0  0  0  0  0  0  0  0  0  0
   -6.7286   -3.8699    0.0000 C   0  0  0  0  0  0  0  0  0  0  0  0
   -6.7982   -5.3683    0.0000 C   0  0  0  0  0  0  0  0  0  0  0  0
   -8.1306   -6.0572    0.0000 C   0  0  0  0  0  0  0  0  0  0  0  0
   -9.3935   -5.2478    0.0000 C   0  0  0  0  0  0  0  0  0  0  0  0
   -9.3239   -3.7494    0.0000 C   0  0  0  0  0  0  0  0  0  0  0  0
  -10.5974   -4.5420    0.0000 N   0  0  0  0  0  0  0  0  0  0  0  0
  -11.8039   -5.4333    0.0000 C   0  0  0  0  0  0  0  0  0  0  0  0
  -12.7424   -4.2632    0.0000 O   0  0  0  0  0  0  0  0  0  0  0  0
  1  2  1  0
  2  3  1  0
  3  4  1  0
  4  5  1  0
  5  6  1  0
  6  7  1  0
  7  8  1  0
  8  9  1  0
  9 10  1  0
 10 11  1  0
 11 12  1  0
 12 13  1  0
 13 14  1  0
 14 15  1  0
 15 16  1  0
 16 17  1  0
 17 18  1  0
 18 19  1  0
 19 20  1  0
 20 21  1  0
 21 22  1  0
 22 23  1  0
 23 24  1  0
 24 25  1  0
 25 26  1  0
 26 27  1  0
 27 28  1  0
 28 29  1  0
 29 30  1  0
 30 31  1  0
 31 32  1  0
 32 33  1  0
 33 34  1  0
 34 35  1  0
 35 36  1  0
 36 37  1  0
 37 38  1  0
 38 39  1  0
 39 40  1  0
 40 41  1  0
 41 42  1  0
 42 43  1  0
 43 44  1  0
 44 45  1  0
 45 46  1  0
 46 47  1  0
 47 48  1  0
 48 49  1  0
 49 50  1  0
 50 51  1  0
 51 52  1  0
 52 53  1  0
 53 54  1  0
 54 55  1  0
 55 56  1  0
 56 57  1  0
 57 58  1  0
 58 59  1  0
 59 60  1  0
 60 61  1  0
 61 62  1  0
 62 63  1  0
 63 64  1  0
 64 65  1  0
 65 66  1  0
 66 67  1  0
 67 68  1  0
 68 69  1  0
 69 70  1  0
 70 71  1  0
 70 72  1  0
 72 73  2  0
 73 74  1  0
 74 75  2  0
 75 76  1  0
 76 77  2  0
 77 78  1  0
 78 79  2  0
 79 80  1  0
 80 81  2  0
 81 82  1  0
 82 83  2  0
 83 84  1  0
 84 85  2  0
 85 86  1  0
 86 87  2  0
 87 88  1  0
 88 89  2  0
 89 90  1  0
 90 91  2  0
 91 92  1  0
 92 93  2  0
 93 94  1  0
 94 95  2  0
 95 96  1  0
 96 97  1  0
 97 98  2  0
 97  2  1  0
 77 72  1  0
 83 78  1  0
 89 84  1  0
 95 90  1  0
M  END
>  <Title>  (646) 
idAAWXgen9

$$$$

     RDKit          2D

 37 42  0  0  0  0  0  0  0  0999 V2000
    1.2135   -7.3421    0.0000 C   0  0  0  0  0  0  0  0  0  0  0  0
    0.7500   -5.9156    0.0000 C   0  0  0  0  0  0  0  0  0  0  0  0
    1.9635   -5.0339    0.0000 C   0  0  0  0  0  0  0  0  0  0  0  0
    2.4271   -3.6073    0.0000 C   0  0  0  0  0  0  0  0  0  0  0  0
    1.9635   -2.1807    0.0000 C   0  0  0  0  0  0  0  0  0  0  0  0
    3.1771   -1.2990    0.0000 C   0  0  0  0  0  0  0  0  0  0  0  0
    3.0203    0.1927    0.0000 O   0  0  0  0  0  0  0  0  0  0  0  0
    4.5474   -1.9091    0.0000 N   0  0  0  0  0  0  0  0  0  0  0  0
    5.7609   -1.0275    0.0000 C   0  0  0  0  0  0  0  0  0  0  0  0
    5.7609    0.4725    0.0000 N   0  0  0  0  0  0  0  0  0  0  0  0
    7.1875    0.9361    0.0000 N   0  0  0  0  0  0  0  0  0  0  0  0
    8.0692   -0.2775    0.0000 N   0  0  0  0  0  0  0  0  0  0  0  0
    7.1875   -1.4910    0.0000 N   0  0  0  0  0  0  0  0  0  0  0  0
    7.6510   -2.9176    0.0000 C   0  0  0  0  0  0  0  0  0  0  0  0
    6.6473   -4.0323    0.0000 C   0  0  0  0  0  0  0  0  0  0  0  0
    7.1108   -5.4589    0.0000 C   0  0  0  0  0  0  0  0  0  0  0  0
    8.5781   -5.7707    0.0000 C   0  0  0  0  0  0  0  0  0  0  0  0
    9.5818   -4.6560    0.0000 C   0  0  0  0  0  0  0  0  0  0  0  0
    9.1182   -3.2294    0.0000 C   0  0  0  0  0  0  0  0  0  0  0  0
    0.7500   -1.2990    0.0000 C   0  0  0  0  0  0  0  0  0  0  0  0
    1.5000    0.0000    0.0000 C   0  0  0  0  0  0  0  0  0  0  0  0
    0.7500    1.2990    0.0000 C   0  0  0  0  0  0  0  0  0  0  0  0
   -0.7500    1.2990    0.0000 C   0  0  0  0  0  0  0  0  0  0  0  0
   -1.5000    0.0000    0.0000 C   0  0  0  0  0  0  0  0  0  0  0  0
   -0.7500   -1.2990    0.0000 C   0  0  0  0  0  0  0  0  0  0  0  0
   -1.9635   -2.1807    0.0000 C   0  0  0  0  0  0  0  0  0  0  0  0
   -2.9672   -1.0660    0.0000 C   0  0  0  0  0  0  0  0  0  0  0  0
   -4.4344   -1.3779    0.0000 C   0  0  0  0  0  0  0  0  0  0  0  0
   -4.8980   -2.8045    0.0000 C   0  0  0  0  0  0  0  0  0  0  0  0
   -3.8943   -3.9192    0.0000 C   0  0  0  0  0  0  0  0  0  0  0  0
   -2.4271   -3.6073    0.0000 C   0  0  0  0  0  0  0  0  0  0  0  0
   -1.9635   -5.0339    0.0000 C   0  0  0  0  0  0  0  0  0  0  0  0
   -3.3338   -5.6440    0.0000 C   0  0  0  0  0  0  0  0  0  0  0  0
   -3.4906   -7.1358    0.0000 C   0  0  0  0  0  0  0  0  0  0  0  0
   -2.2771   -8.0175    0.0000 C   0  0  0  0  0  0  0  0  0  0  0  0
   -0.9068   -7.4073    0.0000 C   0  0  0  0  0  0  0  0  0  0  0  0
   -0.7500   -5.9156    0.0000 C   0  0  0  0  0  0  0  0  0  0  0  0
  1  2  1  0
  2  3  1  0
  3  4  1  0
  4  5  1  0
  5  6  1  0
  6  7  2  0
  6  8  1  0
  8  9  1  0
  9 10  2  0
 10 11  1  0
 11 12  2  0
 12 13  1  0
 13 14  1  0
 14 15  2  0
 15 16  1  0
 16 17  2  0
 17 18  1  0
 18 19  2  0
  5 20  1  0
 20 21  2  0
 21 22  1  0
 22 23  2  0
 23 24  1  0
 24 25  2  0
 25 26  1  0
 26 27  2  0
 27 28  1  0
 28 29  2  0
 29 30  1  0
 30 31  2  0
 31 32  1  0
 32 33  2  0
 33 34  1  0
 34 35  2  0
 35 36  1  0
 36 37  2  0
 37  2  1  0
 13  9  1  0
 19 14  1  0
 25 20  1  0
 31 26  1  0
 37 32  1  0
M  END
>  <Title>  (647) 
idAAWYgen9

$$$$

     RDKit          2D

117117  0  0  0  0  0  0  0  0999 V2000
   29.1963    0.0000    0.0000 C   0  0  0  0  0  0  0  0  0  0  0  0
   27.6963    0.0000    0.0000 C   0  0  0  0  0  0  0  0  0  0  0  0
   27.6557   -1.4994    0.0000 C   0  0  0  0  0  0  0  0  0  0  0  0
   27.5340   -2.9945    0.0000 C   0  0  0  0  0  0  0  0  0  0  0  0
   27.3315   -4.4808    0.0000 C   0  0  0  0  0  0  0  0  0  0  0  0
   27.0488   -5.9539    0.0000 C   0  0  0  0  0  0  0  0  0  0  0  0
   26.6868   -7.4096    0.0000 C   0  0  0  0  0  0  0  0  0  0  0  0
   26.2465   -8.8435    0.0000 C   0  0  0  0  0  0  0  0  0  0  0  0
   25.7293  -10.2515    0.0000 C   0  0  0  0  0  0  0  0  0  0  0  0
   25.1365  -11.6294    0.0000 C   0  0  0  0  0  0  0  0  0  0  0  0
   24.4701  -12.9732    0.0000 C   0  0  0  0  0  0  0  0  0  0  0  0
   23.7318  -14.2790    0.0000 C   0  0  0  0  0  0  0  0  0  0  0  0
   22.9240  -15.5428    0.0000 C   0  0  0  0  0  0  0  0  0  0  0  0
   22.0489  -16.7611    0.0000 C   0  0  0  0  0  0  0  0  0  0  0  0
   21.1091  -17.9302    0.0000 C   0  0  0  0  0  0  0  0  0  0  0  0
   20.1074  -19.0468    0.0000 C   0  0  0  0  0  0  0  0  0  0  0  0
   19.0468  -20.1074    0.0000 C   0  0  0  0  0  0  0  0  0  0  0  0
   17.9302  -21.1091    0.0000 C   0  0  0  0  0  0  0  0  0  0  0  0
   16.7611  -22.0489    0.0000 C   0  0  0  0  0  0  0  0  0  0  0  0
   15.5428  -22.9240    0.0000 C   0  0  0  0  0  0  0  0  0  0  0  0
   14.2790  -23.7318    0.0000 C   0  0  0  0  0  0  0  0  0  0  0  0
   12.9732  -24.4701    0.0000 C   0  0  0  0  0  0  0  0  0  0  0  0
   11.6294  -25.1365    0.0000 C   0  0  0  0  0  0  0  0  0  0  0  0
   10.2515  -25.7293    0.0000 C   0  0  0  0  0  0  0  0  0  0  0  0
    8.8435  -26.2465    0.0000 C   0  0  0  0  0  0  0  0  0  0  0  0
    7.4096  -26.6868    0.0000 C   0  0  0  0  0  0  0  0  0  0  0  0
    5.9539  -27.0488    0.0000 C   0  0  0  0  0  0  0  0  0  0  0  0
    4.4808  -27.3315    0.0000 C   0  0  0  0  0  0  0  0  0  0  0  0
    2.9945  -27.5340    0.0000 C   0  0  0  0  0  0  0  0  0  0  0  0
    1.4994  -27.6557    0.0000 C   0  0  0  0  0  0  0  0  0  0  0  0
   -0.0000  -27.6963    0.0000 C   0  0  0  0  0  0  0  0  0  0  0  0
   -1.4994  -27.6557    0.0000 C   0  0  0  0  0  0  0  0  0  0  0  0
   -2.9945  -27.5340    0.0000 C   0  0  0  0  0  0  0  0  0  0  0  0
   -4.4808  -27.3315    0.0000 C   0  0  0  0  0  0  0  0  0  0  0  0
   -5.9539  -27.0488    0.0000 C   0  0  0  0  0  0  0  0  0  0  0  0
   -7.4096  -26.6868    0.0000 C   0  0  0  0  0  0  0  0  0  0  0  0
   -8.8435  -26.2465    0.0000 C   0  0  0  0  0  0  0  0  0  0  0  0
  -10.2515  -25.7293    0.0000 C   0  0  0  0  0  0  0  0  0  0  0  0
  -11.6294  -25.1365    0.0000 C   0  0  0  0  0  0  0  0  0  0  0  0
  -12.9732  -24.4701    0.0000 C   0  0  0  0  0  0  0  0  0  0  0  0
  -14.2790  -23.7318    0.0000 C   0  0  0  0  0  0  0  0  0  0  0  0
  -15.5428  -22.9240    0.0000 C   0  0  0  0  0  0  0  0  0  0  0  0
  -16.7611  -22.0489    0.0000 C   0  0  0  0  0  0  0  0  0  0  0  0
  -17.9302  -21.1091    0.0000 C   0  0  0  0  0  0  0  0  0  0  0  0
  -19.0468  -20.1074    0.0000 C   0  0  0  0  0  0  0  0  0  0  0  0
  -20.1074  -19.0468    0.0000 C   0  0  0  0  0  0  0  0  0  0  0  0
  -21.1091  -17.9302    0.0000 C   0  0  0  0  0  0  0  0  0  0  0  0
  -22.0489  -16.7611    0.0000 C   0  0  0  0  0  0  0  0  0  0  0  0
  -22.9240  -15.5428    0.0000 C   0  0  0  0  0  0  0  0  0  0  0  0
  -23.7318  -14.2790    0.0000 C   0  0  0  0  0  0  0  0  0  0  0  0
  -24.4701  -12.9732    0.0000 C   0  0  0  0  0  0  0  0  0  0  0  0
  -25.1365  -11.6294    0.0000 C   0  0  0  0  0  0  0  0  0  0  0  0
  -25.7293  -10.2515    0.0000 C   0  0  0  0  0  0  0  0  0  0  0  0
  -26.2465   -8.8435    0.0000 C   0  0  0  0  0  0  0  0  0  0  0  0
  -26.6868   -7.4096    0.0000 C   0  0  0  0  0  0  0  0  0  0  0  0
  -27.0488   -5.9539    0.0000 C   0  0  0  0  0  0  0  0  0  0  0  0
  -27.3315   -4.4808    0.0000 C   0  0  0  0  0  0  0  0  0  0  0  0
  -27.5340   -2.9945    0.0000 C   0  0  0  0  0  0  0  0  0  0  0  0
  -27.6557   -1.4994    0.0000 C   0  0  0  0  0  0  0  0  0  0  0  0
  -27.6963    0.0000    0.0000 C   0  0  0  0  0  0  0  0  0  0  0  0
  -27.6557    1.4994    0.0000 C   0  0  0  0  0  0  0  0  0  0  0  0
  -27.5340    2.9945    0.0000 C   0  0  0  0  0  0  0  0  0  0  0  0
  -27.3315    4.4808    0.0000 C   0  0  0  0  0  0  0  0  0  0  0  0
  -27.0488    5.9539    0.0000 C   0  0  0  0  0  0  0  0  0  0  0  0
  -26.6868    7.4096    0.0000 C   0  0  0  0  0  0  0  0  0  0  0  0
  -26.2465    8.8435    0.0000 C   0  0  0  0  0  0  0  0  0  0  0  0
  -25.7293   10.2515    0.0000 C   0  0  0  0  0  0  0  0  0  0  0  0
  -25.1365   11.6294    0.0000 C   0  0  0  0  0  0  0  0  0  0  0  0
  -24.4701   12.9732    0.0000 C   0  0  0  0  0  0  0  0  0  0  0  0
  -23.7318   14.2790    0.0000 C   0  0  0  0  0  0  0  0  0  0  0  0
  -22.9240   15.5428    0.0000 C   0  0  0  0  0  0  0  0  0  0  0  0
  -22.0489   16.7611    0.0000 C   0  0  0  0  0  0  0  0  0  0  0  0
  -21.1091   17.9302    0.0000 C   0  0  0  0  0  0  0  0  0  0  0  0
  -20.1074   19.0468    0.0000 C   0  0  0  0  0  0  0  0  0  0  0  0
  -19.0468   20.1074    0.0000 C   0  0  0  0  0  0  0  0  0  0  0  0
  -17.9302   21.1091    0.0000 C   0  0  0  0  0  0  0  0  0  0  0  0
  -16.7611   22.0489    0.0000 C   0  0  0  0  0  0  0  0  0  0  0  0
  -15.5428   22.9240    0.0000 C   0  0  0  0  0  0  0  0  0  0  0  0
  -14.2790   23.7318    0.0000 C   0  0  0  0  0  0  0  0  0  0  0  0
  -12.9732   24.4701    0.0000 C   0  0  0  0  0  0  0  0  0  0  0  0
  -11.6294   25.1365    0.0000 C   0  0  0  0  0  0  0  0  0  0  0  0
  -10.2515   25.7293    0.0000 C   0  0  0  0  0  0  0  0  0  0  0  0
   -8.8435   26.2465    0.0000 C   0  0  0  0  0  0  0  0  0  0  0  0
   -7.4096   26.6868    0.0000 C   0  0  0  0  0  0  0  0  0  0  0  0
   -5.9539   27.0488    0.0000 C   0  0  0  0  0  0  0  0  0  0  0  0
   -4.4808   27.3315    0.0000 C   0  0  0  0  0  0  0  0  0  0  0  0
   -2.9945   27.5340    0.0000 C   0  0  0  0  0  0  0  0  0  0  0  0
   -1.4994   27.6557    0.0000 C   0  0  0  0  0  0  0  0  0  0  0  0
    0.0000   27.6963    0.0000 C   0  0  0  0  0  0  0  0  0  0  0  0
    1.4994   27.6557    0.0000 C   0  0  0  0  0  0  0  0  0  0  0  0
    2.9945   27.5340    0.0000 C   0  0  0  0  0  0  0  0  0  0  0  0
    4.4808   27.3315    0.0000 C   0  0  0  0  0  0  0  0  0  0  0  0
    5.9539   27.0488    0.0000 C   0  0  0  0  0  0  0  0  0  0  0  0
    7.4096   26.6868    0.0000 C   0  0  0  0  0  0  0  0  0  0  0  0
    8.8435   26.2465    0.0000 C   0  0  0  0  0  0  0  0  0  0  0  0
   10.2515   25.7293    0.0000 C   0  0  0  0  0  0  0  0  0  0  0  0
   11.6294   25.1365    0.0000 C   0  0  0  0  0  0  0  0  0  0  0  0
   12.9732   24.4701    0.0000 C   0  0  0  0  0  0  0  0  0  0  0  0
   14.2790   23.7318    0.0000 C   0  0  0  0  0  0  0  0  0  0  0  0
   15.5428   22.9240    0.0000 C   0  0  0  0  0  0  0  0  0  0  0  0
   16.7611   22.0489    0.0000 C   0  0  0  0  0  0  0  0  0  0  0  0
   17.9302   21.1091    0.0000 C   0  0  0  0  0  0  0  0  0  0  0  0
   19.0468   20.1074    0.0000 C   0  0  0  0  0  0  0  0  0  0  0  0
   20.1074   19.0468    0.0000 C   0  0  0  0  0  0  0  0  0  0  0  0
   21.1091   17.9302    0.0000 C   0  0  0  0  0  0  0  0  0  0  0  0
   22.0489   16.7611    0.0000 C   0  0  0  0  0  0  0  0  0  0  0  0
   22.9240   15.5428    0.0000 C   0  0  0  0  0  0  0  0  0  0  0  0
   23.7318   14.2790    0.0000 C   0  0  0  0  0  0  0  0  0  0  0  0
   24.4701   12.9732    0.0000 C   0  0  0  0  0  0  0  0  0  0  0  0
   25.1365   11.6294    0.0000 C   0  0  0  0  0  0  0  0  0  0  0  0
   25.7293   10.2515    0.0000 C   0  0  0  0  0  0  0  0  0  0  0  0
   26.2465    8.8435    0.0000 C   0  0  0  0  0  0  0  0  0  0  0  0
   26.6868    7.4096    0.0000 C   0  0  0  0  0  0  0  0  0  0  0  0
   27.0488    5.9539    0.0000 C   0  0  0  0  0  0  0  0  0  0  0  0
   27.3315    4.4808    0.0000 C   0  0  0  0  0  0  0  0  0  0  0  0
   27.5340    2.9945    0.0000 C   0  0  0  0  0  0  0  0  0  0  0  0
   27.6557    1.4994    0.0000 C   0  0  0  0  0  0  0  0  0  0  0  0
  1  2  1  0
  2  3  1  0
  3  4  1  0
  4  5  1  0
  5  6  1  0
  6  7  1  0
  7  8  1  0
  8  9  1  0
  9 10  1  0
 10 11  1  0
 11 12  1  0
 12 13  1  0
 13 14  1  0
 14 15  1  0
 15 16  1  0
 16 17  1  0
 17 18  1  0
 18 19  1  0
 19 20  1  0
 20 21  1  0
 21 22  1  0
 22 23  1  0
 23 24  1  0
 24 25  1  0
 25 26  1  0
 26 27  1  0
 27 28  1  0
 28 29  1  0
 29 30  1  0
 30 31  1  0
 31 32  1  0
 32 33  1  0
 33 34  1  0
 34 35  1  0
 35 36  1  0
 36 37  1  0
 37 38  1  0
 38 39  1  0
 39 40  1  0
 40 41  1  0
 41 42  1  0
 42 43  1  0
 43 44  1  0
 44 45  1  0
 45 46  1  0
 46 47  1  0
 47 48  1  0
 48 49  1  0
 49 50  1  0
 50 51  1  0
 51 52  1  0
 52 53  1  0
 53 54  1  0
 54 55  1  0
 55 56  1  0
 56 57  1  0
 57 58  1  0
 58 59  1  0
 59 60  1  0
 60 61  1  0
 61 62  1  0
 62 63  1  0
 63 64  1  0
 64 65  1  0
 65 66  1  0
 66 67  1  0
 67 68  1  0
 68 69  1  0
 69 70  1  0
 70 71  1  0
 71 72  1  0
 72 73  1  0
 73 74  1  0
 74 75  1  0
 75 76  1  0
 76 77  1  0
 77 78  1  0
 78 79  1  0
 79 80  1  0
 80 81  1  0
 81 82  1  0
 82 83  1  0
 83 84  1  0
 84 85  1  0
 85 86  1  0
 86 87  1  0
 87 88  1  0
 88 89  1  0
 89 90  1  0
 90 91  1  0
 91 92  1  0
 92 93  1  0
 93 94  1  0
 94 95  1  0
 95 96  1  0
 96 97  1  0
 97 98  1  0
 98 99  1  0
 99100  1  0
100101  1  0
101102  1  0
102103  1  0
103104  1  0
104105  1  0
105106  1  0
106107  1  0
107108  1  0
108109  1  0
109110  1  0
110111  1  0
111112  1  0
112113  1  0
113114  1  0
114115  1  0
115116  1  0
116117  1  0
117  2  1  0
M  END
>  <Title>  (648) 
idAAWZgen9

$$$$

     RDKit          2D

  8  8  0  0  0  0  0  0  0  0999 V2000
    3.2286   -0.0000    0.0000 C   0  0  0  0  0  0  0  0  0  0  0  0
    1.7286    0.0000    0.0000 C   0  0  0  0  0  0  0  0  0  0  0  0
    1.0777    1.3515    0.0000 C   0  0  0  0  0  0  0  0  0  0  0  0
   -0.3846    1.6852    0.0000 C   0  0  0  0  0  0  0  0  0  0  0  0
   -1.5574    0.7500    0.0000 C   0  0  0  0  0  0  0  0  0  0  0  0
   -1.5574   -0.7500    0.0000 C   0  0  0  0  0  0  0  0  0  0  0  0
   -0.3846   -1.6852    0.0000 C   0  0  0  0  0  0  0  0  0  0  0  0
    1.0777   -1.3515    0.0000 C   0  0  0  0  0  0  0  0  0  0  0  0
  1  2  1  0
  2  3  2  0
  3  4  1  0
  4  5  1  0
  5  6  1  0
  6  7  1  0
  7  8  1  0
  8  2  1  0
M  END
>  <Title>  (649) 
idAAXAgen9

$$$$

     RDKit          2D

  9  9  0  0  0  0  0  0  0  0999 V2000
    7.2760   -0.0000    0.0000 N   0  0  0  0  0  0  0  0  0  0  0  0
    5.7760   -0.0000    0.0000 C   0  0  0  0  0  0  0  0  0  0  0  0
    4.2760   -0.0000    0.0000 C   0  0  0  0  0  0  0  0  0  0  0  0
    2.7760    0.0000    0.0000 C   0  0  0  0  0  0  0  0  0  0  0  0
    1.2760    0.0000    0.0000 C   0  0  0  0  0  0  0  0  0  0  0  0
    0.3943    1.2135    0.0000 C   0  0  0  0  0  0  0  0  0  0  0  0
   -1.0323    0.7500    0.0000 C   0  0  0  0  0  0  0  0  0  0  0  0
   -1.0323   -0.7500    0.0000 C   0  0  0  0  0  0  0  0  0  0  0  0
    0.3943   -1.2135    0.0000 C   0  0  0  0  0  0  0  0  0  0  0  0
  1  2  3  0
  2  3  1  0
  3  4  3  0
  4  5  1  0
  5  6  2  0
  6  7  1  0
  7  8  1  0
  8  9  2  0
  9  5  1  0
M  END
>  <Title>  (650) 
idAAXBgen9

$$$$

     RDKit          2D

 73 73  0  0  0  0  0  0  0  0999 V2000
   18.6942    0.0000    0.0000 C   0  0  0  0  0  0  0  0  0  0  0  0
   17.1942    0.0000    0.0000 C   0  0  0  0  0  0  0  0  0  0  0  0
   17.1288   -1.4986    0.0000 C   0  0  0  0  0  0  0  0  0  0  0  0
   16.9330   -2.9857    0.0000 C   0  0  0  0  0  0  0  0  0  0  0  0
   16.6083   -4.4502    0.0000 C   0  0  0  0  0  0  0  0  0  0  0  0
   16.1573   -5.8808    0.0000 C   0  0  0  0  0  0  0  0  0  0  0  0
   15.5832   -7.2666    0.0000 C   0  0  0  0  0  0  0  0  0  0  0  0
   14.8906   -8.5971    0.0000 C   0  0  0  0  0  0  0  0  0  0  0  0
   14.0847   -9.8622    0.0000 C   0  0  0  0  0  0  0  0  0  0  0  0
   13.1715  -11.0522    0.0000 C   0  0  0  0  0  0  0  0  0  0  0  0
   12.1581  -12.1581    0.0000 C   0  0  0  0  0  0  0  0  0  0  0  0
   11.0522  -13.1715    0.0000 C   0  0  0  0  0  0  0  0  0  0  0  0
    9.8622  -14.0847    0.0000 C   0  0  0  0  0  0  0  0  0  0  0  0
    8.5971  -14.8906    0.0000 C   0  0  0  0  0  0  0  0  0  0  0  0
    7.2666  -15.5832    0.0000 C   0  0  0  0  0  0  0  0  0  0  0  0
    5.8808  -16.1573    0.0000 C   0  0  0  0  0  0  0  0  0  0  0  0
    4.4502  -16.6083    0.0000 C   0  0  0  0  0  0  0  0  0  0  0  0
    2.9857  -16.9330    0.0000 C   0  0  0  0  0  0  0  0  0  0  0  0
    1.4986  -17.1288    0.0000 C   0  0  0  0  0  0  0  0  0  0  0  0
   -0.0000  -17.1942    0.0000 C   0  0  0  0  0  0  0  0  0  0  0  0
   -1.4986  -17.1288    0.0000 C   0  0  0  0  0  0  0  0  0  0  0  0
   -2.9857  -16.9330    0.0000 C   0  0  0  0  0  0  0  0  0  0  0  0
   -4.4502  -16.6083    0.0000 C   0  0  0  0  0  0  0  0  0  0  0  0
   -5.8808  -16.1573    0.0000 C   0  0  0  0  0  0  0  0  0  0  0  0
   -7.2666  -15.5832    0.0000 C   0  0  0  0  0  0  0  0  0  0  0  0
   -8.5971  -14.8906    0.0000 C   0  0  0  0  0  0  0  0  0  0  0  0
   -9.8622  -14.0847    0.0000 C   0  0  0  0  0  0  0  0  0  0  0  0
  -11.0522  -13.1715    0.0000 C   0  0  0  0  0  0  0  0  0  0  0  0
  -12.1581  -12.1581    0.0000 C   0  0  0  0  0  0  0  0  0  0  0  0
  -13.1715  -11.0522    0.0000 C   0  0  0  0  0  0  0  0  0  0  0  0
  -14.0847   -9.8622    0.0000 C   0  0  0  0  0  0  0  0  0  0  0  0
  -14.8906   -8.5971    0.0000 C   0  0  0  0  0  0  0  0  0  0  0  0
  -15.5832   -7.2666    0.0000 C   0  0  0  0  0  0  0  0  0  0  0  0
  -16.1573   -5.8808    0.0000 C   0  0  0  0  0  0  0  0  0  0  0  0
  -16.6083   -4.4502    0.0000 C   0  0  0  0  0  0  0  0  0  0  0  0
  -16.9330   -2.9857    0.0000 C   0  0  0  0  0  0  0  0  0  0  0  0
  -17.1288   -1.4986    0.0000 C   0  0  0  0  0  0  0  0  0  0  0  0
  -17.1942    0.0000    0.0000 C   0  0  0  0  0  0  0  0  0  0  0  0
  -17.1288    1.4986    0.0000 C   0  0  0  0  0  0  0  0  0  0  0  0
  -16.9330    2.9857    0.0000 C   0  0  0  0  0  0  0  0  0  0  0  0
  -16.6083    4.4502    0.0000 C   0  0  0  0  0  0  0  0  0  0  0  0
  -16.1573    5.8808    0.0000 C   0  0  0  0  0  0  0  0  0  0  0  0
  -15.5832    7.2666    0.0000 C   0  0  0  0  0  0  0  0  0  0  0  0
  -14.8906    8.5971    0.0000 C   0  0  0  0  0  0  0  0  0  0  0  0
  -14.0847    9.8622    0.0000 C   0  0  0  0  0  0  0  0  0  0  0  0
  -13.1715   11.0522    0.0000 C   0  0  0  0  0  0  0  0  0  0  0  0
  -12.1581   12.1581    0.0000 C   0  0  0  0  0  0  0  0  0  0  0  0
  -11.0522   13.1715    0.0000 C   0  0  0  0  0  0  0  0  0  0  0  0
   -9.8622   14.0847    0.0000 C   0  0  0  0  0  0  0  0  0  0  0  0
   -8.5971   14.8906    0.0000 C   0  0  0  0  0  0  0  0  0  0  0  0
   -7.2666   15.5832    0.0000 C   0  0  0  0  0  0  0  0  0  0  0  0
   -5.8808   16.1573    0.0000 C   0  0  0  0  0  0  0  0  0  0  0  0
   -4.4502   16.6083    0.0000 C   0  0  0  0  0  0  0  0  0  0  0  0
   -2.9857   16.9330    0.0000 C   0  0  0  0  0  0  0  0  0  0  0  0
   -1.4986   17.1288    0.0000 C   0  0  0  0  0  0  0  0  0  0  0  0
    0.0000   17.1942    0.0000 C   0  0  0  0  0  0  0  0  0  0  0  0
    1.4986   17.1288    0.0000 C   0  0  0  0  0  0  0  0  0  0  0  0
    2.9857   16.9330    0.0000 C   0  0  0  0  0  0  0  0  0  0  0  0
    4.4502   16.6083    0.0000 C   0  0  0  0  0  0  0  0  0  0  0  0
    5.8808   16.1573    0.0000 C   0  0  0  0  0  0  0  0  0  0  0  0
    7.2666   15.5832    0.0000 C   0  0  0  0  0  0  0  0  0  0  0  0
    8.5971   14.8906    0.0000 C   0  0  0  0  0  0  0  0  0  0  0  0
    9.8622   14.0847    0.0000 C   0  0  0  0  0  0  0  0  0  0  0  0
   11.0522   13.1715    0.0000 C   0  0  0  0  0  0  0  0  0  0  0  0
   12.1581   12.1581    0.0000 C   0  0  0  0  0  0  0  0  0  0  0  0
   13.1715   11.0522    0.0000 C   0  0  0  0  0  0  0  0  0  0  0  0
   14.0847    9.8622    0.0000 C   0  0  0  0  0  0  0  0  0  0  0  0
   14.8906    8.5971    0.0000 C   0  0  0  0  0  0  0  0  0  0  0  0
   15.5832    7.2666    0.0000 C   0  0  0  0  0  0  0  0  0  0  0  0
   16.1573    5.8808    0.0000 C   0  0  0  0  0  0  0  0  0  0  0  0
   16.6083    4.4502    0.0000 C   0  0  0  0  0  0  0  0  0  0  0  0
   16.9330    2.9857    0.0000 C   0  0  0  0  0  0  0  0  0  0  0  0
   17.1288    1.4986    0.0000 C   0  0  0  0  0  0  0  0  0  0  0  0
  1  2  1  0
  2  3  1  0
  3  4  1  0
  4  5  2  0
  5  6  1  0
  6  7  2  0
  7  8  1  0
  8  9  2  0
  9 10  1  0
 10 11  2  0
 11 12  1  0
 12 13  2  0
 13 14  1  0
 14 15  2  0
 15 16  1  0
 16 17  2  0
 17 18  1  0
 18 19  2  0
 19 20  1  0
 20 21  2  0
 21 22  1  0
 22 23  1  0
 23 24  1  0
 24 25  1  0
 25 26  1  0
 26 27  1  0
 27 28  1  0
 28 29  1  0
 29 30  1  0
 30 31  1  0
 31 32  1  0
 32 33  1  0
 33 34  1  0
 34 35  1  0
 35 36  1  0
 36 37  1  0
 37 38  1  0
 38 39  1  0
 39 40  1  0
 40 41  1  0
 41 42  1  0
 42 43  1  0
 43 44  1  0
 44 45  1  0
 45 46  1  0
 46 47  1  0
 47 48  1  0
 48 49  1  0
 49 50  1  0
 50 51  1  0
 51 52  1  0
 52 53  1  0
 53 54  1  0
 54 55  1  0
 55 56  1  0
 56 57  1  0
 57 58  1  0
 58 59  1  0
 59 60  1  0
 60 61  1  0
 61 62  1  0
 62 63  1  0
 63 64  1  0
 64 65  1  0
 65 66  1  0
 66 67  1  0
 67 68  1  0
 68 69  1  0
 69 70  1  0
 70 71  1  0
 71 72  1  0
 72 73  1  0
 73  2  1  0
M  END
>  <Title>  (651) 
idAAXCgen9

$$$$

     RDKit          2D

  7  7  0  0  0  0  0  0  0  0999 V2000
    3.0000    0.0000    0.0000 O   0  0  0  0  0  0  0  0  0  0  0  0
    1.5000    0.0000    0.0000 C   0  0  0  0  0  0  0  0  0  0  0  0
    0.7500   -1.2990    0.0000 C   0  0  0  0  0  0  0  0  0  0  0  0
   -0.7500   -1.2990    0.0000 C   0  0  0  0  0  0  0  0  0  0  0  0
   -1.5000    0.0000    0.0000 C   0  0  0  0  0  0  0  0  0  0  0  0
   -0.7500    1.2990    0.0000 C   0  0  0  0  0  0  0  0  0  0  0  0
    0.7500    1.2990    0.0000 C   0  0  0  0  0  0  0  0  0  0  0  0
  1  2  1  0
  2  3  2  0
  3  4  1  0
  4  5  1  0
  5  6  1  0
  6  7  1  0
  7  2  1  0
M  END
>  <Title>  (652) 
idAAXDgen9

$$$$

     RDKit          2D

 17 17  0  0  0  0  0  0  0  0999 V2000
   19.2760   -0.0000    0.0000 C   0  0  0  0  0  0  0  0  0  0  0  0
   17.7760   -0.0000    0.0000 C   0  0  0  0  0  0  0  0  0  0  0  0
   16.2760   -0.0000    0.0000 C   0  0  0  0  0  0  0  0  0  0  0  0
   14.7760   -0.0000    0.0000 C   0  0  0  0  0  0  0  0  0  0  0  0
   13.2760   -0.0000    0.0000 C   0  0  0  0  0  0  0  0  0  0  0  0
   11.7760   -0.0000    0.0000 C   0  0  0  0  0  0  0  0  0  0  0  0
   10.2760   -0.0000    0.0000 C   0  0  0  0  0  0  0  0  0  0  0  0
    8.7760   -0.0000    0.0000 C   0  0  0  0  0  0  0  0  0  0  0  0
    7.2760   -0.0000    0.0000 C   0  0  0  0  0  0  0  0  0  0  0  0
    5.7760   -0.0000    0.0000 C   0  0  0  0  0  0  0  0  0  0  0  0
    4.2760   -0.0000    0.0000 C   0  0  0  0  0  0  0  0  0  0  0  0
    2.7760    0.0000    0.0000 C   0  0  0  0  0  0  0  0  0  0  0  0
    1.2760    0.0000    0.0000 C   0  0  0  0  0  0  0  0  0  0  0  0
    0.3943    1.2135    0.0000 C   0  0  0  0  0  0  0  0  0  0  0  0
   -1.0323    0.7500    0.0000 C   0  0  0  0  0  0  0  0  0  0  0  0
   -1.0323   -0.7500    0.0000 C   0  0  0  0  0  0  0  0  0  0  0  0
    0.3943   -1.2135    0.0000 C   0  0  0  0  0  0  0  0  0  0  0  0
  1  2  3  0
  2  3  1  0
  3  4  3  0
  4  5  1  0
  5  6  3  0
  6  7  1  0
  7  8  3  0
  8  9  1  0
  9 10  3  0
 10 11  1  0
 11 12  3  0
 12 13  1  0
 13 14  2  0
 14 15  1  0
 15 16  1  0
 16 17  2  0
 17 13  1  0
M  END
>  <Title>  (653) 
idAAXEgen9

$$$$

     RDKit          2D

 69 79  0  0  0  0  0  0  0  0999 V2000
    5.6953   -2.8553    0.0000 C   0  0  0  0  0  0  0  0  0  0  0  0
    4.4334   -3.6662    0.0000 C   0  0  0  0  0  0  0  0  0  0  0  0
    3.4511   -2.5326    0.0000 C   0  0  0  0  0  0  0  0  0  0  0  0
    2.1892   -1.7216    0.0000 C   0  0  0  0  0  0  0  0  0  0  0  0
    2.8124   -0.3572    0.0000 C   0  0  0  0  0  0  0  0  0  0  0  0
    1.9423    0.8647    0.0000 O   0  0  0  0  0  0  0  0  0  0  0  0
    4.3056   -0.2146    0.0000 N   0  0  0  0  0  0  0  0  0  0  0  0
    4.9287    1.1498    0.0000 C   0  0  0  0  0  0  0  0  0  0  0  0
    6.4219    1.2924    0.0000 N   0  0  0  0  0  0  0  0  0  0  0  0
    7.0450    2.6569    0.0000 N   0  0  0  0  0  0  0  0  0  0  0  0
    6.1749    3.8787    0.0000 N   0  0  0  0  0  0  0  0  0  0  0  0
    4.6817    3.7362    0.0000 N   0  0  0  0  0  0  0  0  0  0  0  0
    4.0586    2.3717    0.0000 N   0  0  0  0  0  0  0  0  0  0  0  0
    0.7500   -1.2990    0.0000 C   0  0  0  0  0  0  0  0  0  0  0  0
    1.5000    0.0000    0.0000 C   0  0  0  0  0  0  0  0  0  0  0  0
    0.7500    1.2990    0.0000 C   0  0  0  0  0  0  0  0  0  0  0  0
   -0.7500    1.2990    0.0000 C   0  0  0  0  0  0  0  0  0  0  0  0
   -1.5000    0.0000    0.0000 C   0  0  0  0  0  0  0  0  0  0  0  0
   -0.7500   -1.2990    0.0000 C   0  0  0  0  0  0  0  0  0  0  0  0
   -2.1892   -1.7216    0.0000 C   0  0  0  0  0  0  0  0  0  0  0  0
   -2.2606   -0.2233    0.0000 C   0  0  0  0  0  0  0  0  0  0  0  0
   -3.5939    0.4640    0.0000 C   0  0  0  0  0  0  0  0  0  0  0  0
   -4.8557   -0.3470    0.0000 C   0  0  0  0  0  0  0  0  0  0  0  0
   -4.7844   -1.8453    0.0000 C   0  0  0  0  0  0  0  0  0  0  0  0
   -3.4511   -2.5326    0.0000 C   0  0  0  0  0  0  0  0  0  0  0  0
   -4.4334   -3.6662    0.0000 C   0  0  0  0  0  0  0  0  0  0  0  0
   -5.3035   -2.4444    0.0000 C   0  0  0  0  0  0  0  0  0  0  0  0
   -6.7967   -2.5869    0.0000 C   0  0  0  0  0  0  0  0  0  0  0  0
   -7.4198   -3.9514    0.0000 C   0  0  0  0  0  0  0  0  0  0  0  0
   -6.5497   -5.1733    0.0000 C   0  0  0  0  0  0  0  0  0  0  0  0
   -5.0565   -5.0307    0.0000 C   0  0  0  0  0  0  0  0  0  0  0  0
   -5.2700   -6.5154    0.0000 C   0  0  0  0  0  0  0  0  0  0  0  0
   -6.6626   -5.9579    0.0000 C   0  0  0  0  0  0  0  0  0  0  0  0
   -7.8416   -6.8851    0.0000 C   0  0  0  0  0  0  0  0  0  0  0  0
   -7.6282   -8.3699    0.0000 C   0  0  0  0  0  0  0  0  0  0  0  0
   -6.2356   -8.9274    0.0000 C   0  0  0  0  0  0  0  0  0  0  0  0
   -5.0565   -8.0001    0.0000 C   0  0  0  0  0  0  0  0  0  0  0  0
   -4.4334   -9.3646    0.0000 C   0  0  0  0  0  0  0  0  0  0  0  0
   -5.9063   -9.6485    0.0000 C   0  0  0  0  0  0  0  0  0  0  0  0
   -6.3969  -11.0660    0.0000 C   0  0  0  0  0  0  0  0  0  0  0  0
   -5.4146  -12.1996    0.0000 C   0  0  0  0  0  0  0  0  0  0  0  0
   -3.9417  -11.9157    0.0000 C   0  0  0  0  0  0  0  0  0  0  0  0
   -3.4511  -10.4982    0.0000 C   0  0  0  0  0  0  0  0  0  0  0  0
   -2.1892  -11.3092    0.0000 C   0  0  0  0  0  0  0  0  0  0  0  0
   -3.2748  -12.3443    0.0000 C   0  0  0  0  0  0  0  0  0  0  0  0
   -2.9212  -13.8020    0.0000 C   0  0  0  0  0  0  0  0  0  0  0  0
   -1.4820  -14.2246    0.0000 C   0  0  0  0  0  0  0  0  0  0  0  0
   -0.3964  -13.1895    0.0000 C   0  0  0  0  0  0  0  0  0  0  0  0
   -0.7500  -11.7318    0.0000 C   0  0  0  0  0  0  0  0  0  0  0  0
    0.7500  -11.7318    0.0000 C   0  0  0  0  0  0  0  0  0  0  0  0
    0.3964  -13.1895    0.0000 C   0  0  0  0  0  0  0  0  0  0  0  0
    1.4820  -14.2246    0.0000 C   0  0  0  0  0  0  0  0  0  0  0  0
    2.9212  -13.8020    0.0000 C   0  0  0  0  0  0  0  0  0  0  0  0
    3.2748  -12.3443    0.0000 C   0  0  0  0  0  0  0  0  0  0  0  0
    2.1892  -11.3092    0.0000 C   0  0  0  0  0  0  0  0  0  0  0  0
    3.4511  -10.4982    0.0000 C   0  0  0  0  0  0  0  0  0  0  0  0
    3.9417  -11.9157    0.0000 C   0  0  0  0  0  0  0  0  0  0  0  0
    5.4146  -12.1996    0.0000 C   0  0  0  0  0  0  0  0  0  0  0  0
    6.3969  -11.0660    0.0000 C   0  0  0  0  0  0  0  0  0  0  0  0
    5.9063   -9.6485    0.0000 C   0  0  0  0  0  0  0  0  0  0  0  0
    4.4334   -9.3646    0.0000 C   0  0  0  0  0  0  0  0  0  0  0  0
    5.0565   -8.0001    0.0000 C   0  0  0  0  0  0  0  0  0  0  0  0
    6.5189   -8.3339    0.0000 C   0  0  0  0  0  0  0  0  0  0  0  0
    7.6917   -7.3987    0.0000 C   0  0  0  0  0  0  0  0  0  0  0  0
    7.6917   -5.8987    0.0000 C   0  0  0  0  0  0  0  0  0  0  0  0
    6.5189   -4.9634    0.0000 C   0  0  0  0  0  0  0  0  0  0  0  0
    5.0565   -5.0307    0.0000 C   0  0  0  0  0  0  0  0  0  0  0  0
    5.2700   -6.5154    0.0000 C   0  0  0  0  0  0  0  0  0  0  0  0
    6.7700   -6.5154    0.0000 O   0  0  0  0  0  0  0  0  0  0  0  0
  1  2  1  0
  2  3  2  0
  3  4  1  0
  4  5  1  0
  5  6  2  0
  5  7  1  0
  7  8  1  0
  8  9  2  0
  9 10  1  0
 10 11  2  0
 11 12  1  0
 12 13  2  0
  4 14  1  0
 14 15  2  0
 15 16  1  0
 16 17  2  0
 17 18  1  0
 18 19  2  0
 19 20  1  0
 20 21  2  0
 21 22  1  0
 22 23  2  0
 23 24  1  0
 24 25  2  0
 25 26  1  0
 26 27  2  0
 27 28  1  0
 28 29  2  0
 29 30  1  0
 30 31  2  0
 31 32  1  0
 32 33  2  0
 33 34  1  0
 34 35  2  0
 35 36  1  0
 36 37  2  0
 37 38  1  0
 38 39  2  0
 39 40  1  0
 40 41  2  0
 41 42  1  0
 42 43  2  0
 43 44  1  0
 44 45  2  0
 45 46  1  0
 46 47  2  0
 47 48  1  0
 48 49  2  0
 49 50  1  0
 50 51  2  0
 51 52  1  0
 52 53  2  0
 53 54  1  0
 54 55  2  0
 55 56  1  0
 56 57  2  0
 57 58  1  0
 58 59  2  0
 59 60  1  0
 60 61  2  0
 61 62  1  0
 62 63  2  0
 63 64  1  0
 64 65  2  0
 65 66  1  0
 66 67  2  0
 67 68  1  0
 68 69  2  0
 67  2  1  0
 13  8  1  0
 19 14  1  0
 25 20  1  0
 31 26  1  0
 37 32  1  0
 43 38  1  0
 49 44  1  0
 55 50  1  0
 61 56  1  0
 68 62  1  0
M  END
>  <Title>  (654) 
idAAXFgen9

$$$$

     RDKit          2D

 92 95  0  0  0  0  0  0  0  0999 V2000
   -2.5473   -0.0406    0.0000 C   0  0  0  0  0  0  0  0  0  0  0  0
   -2.2354   -1.5078    0.0000 C   0  0  0  0  0  0  0  0  0  0  0  0
   -3.6773   -1.9213    0.0000 C   0  0  0  0  0  0  0  0  0  0  0  0
   -5.0476   -2.5314    0.0000 C   0  0  0  0  0  0  0  0  0  0  0  0
   -6.3197   -3.3262    0.0000 C   0  0  0  0  0  0  0  0  0  0  0  0
   -7.4688   -4.2904    0.0000 C   0  0  0  0  0  0  0  0  0  0  0  0
   -8.4724   -5.4051    0.0000 C   0  0  0  0  0  0  0  0  0  0  0  0
   -9.3112   -6.6487    0.0000 C   0  0  0  0  0  0  0  0  0  0  0  0
   -9.9688   -7.9969    0.0000 C   0  0  0  0  0  0  0  0  0  0  0  0
  -10.4323   -9.4235    0.0000 C   0  0  0  0  0  0  0  0  0  0  0  0
  -10.6928  -10.9007    0.0000 C   0  0  0  0  0  0  0  0  0  0  0  0
  -10.7451  -12.3998    0.0000 C   0  0  0  0  0  0  0  0  0  0  0  0
  -10.5883  -13.8915    0.0000 C   0  0  0  0  0  0  0  0  0  0  0  0
  -10.2255  -15.3470    0.0000 C   0  0  0  0  0  0  0  0  0  0  0  0
   -9.6636  -16.7378    0.0000 C   0  0  0  0  0  0  0  0  0  0  0  0
   -8.9136  -18.0368    0.0000 C   0  0  0  0  0  0  0  0  0  0  0  0
   -7.9901  -19.2188    0.0000 C   0  0  0  0  0  0  0  0  0  0  0  0
   -6.9111  -20.2608    0.0000 C   0  0  0  0  0  0  0  0  0  0  0  0
   -5.6975  -21.1425    0.0000 C   0  0  0  0  0  0  0  0  0  0  0  0
   -4.3731  -21.8467    0.0000 C   0  0  0  0  0  0  0  0  0  0  0  0
   -2.9636  -22.3597    0.0000 C   0  0  0  0  0  0  0  0  0  0  0  0
   -1.4963  -22.6716    0.0000 C   0  0  0  0  0  0  0  0  0  0  0  0
    0.0000  -22.7762    0.0000 C   0  0  0  0  0  0  0  0  0  0  0  0
    1.4963  -22.6716    0.0000 C   0  0  0  0  0  0  0  0  0  0  0  0
    2.9636  -22.3597    0.0000 C   0  0  0  0  0  0  0  0  0  0  0  0
    4.3731  -21.8467    0.0000 C   0  0  0  0  0  0  0  0  0  0  0  0
    5.6975  -21.1425    0.0000 C   0  0  0  0  0  0  0  0  0  0  0  0
    6.9111  -20.2608    0.0000 C   0  0  0  0  0  0  0  0  0  0  0  0
    7.9901  -19.2188    0.0000 C   0  0  0  0  0  0  0  0  0  0  0  0
    8.9136  -18.0368    0.0000 C   0  0  0  0  0  0  0  0  0  0  0  0
    9.6636  -16.7378    0.0000 C   0  0  0  0  0  0  0  0  0  0  0  0
   10.2255  -15.3470    0.0000 C   0  0  0  0  0  0  0  0  0  0  0  0
   10.5883  -13.8915    0.0000 C   0  0  0  0  0  0  0  0  0  0  0  0
   10.7451  -12.3998    0.0000 C   0  0  0  0  0  0  0  0  0  0  0  0
   10.6928  -10.9007    0.0000 C   0  0  0  0  0  0  0  0  0  0  0  0
   10.4323   -9.4235    0.0000 C   0  0  0  0  0  0  0  0  0  0  0  0
    9.9688   -7.9969    0.0000 C   0  0  0  0  0  0  0  0  0  0  0  0
    9.3112   -6.6487    0.0000 C   0  0  0  0  0  0  0  0  0  0  0  0
    8.4724   -5.4051    0.0000 C   0  0  0  0  0  0  0  0  0  0  0  0
    7.4688   -4.2904    0.0000 C   0  0  0  0  0  0  0  0  0  0  0  0
    6.3197   -3.3262    0.0000 C   0  0  0  0  0  0  0  0  0  0  0  0
    5.0476   -2.5314    0.0000 C   0  0  0  0  0  0  0  0  0  0  0  0
    3.6773   -1.9213    0.0000 C   0  0  0  0  0  0  0  0  0  0  0  0
    4.6024   -1.2745    0.0000 C   0  0  0  0  0  0  0  0  0  0  0  0
    5.4480   -1.1972    0.0000 C   0  0  0  0  0  0  0  0  0  0  0  0
    6.2660    0.3580    0.0000 C   0  0  0  0  0  0  0  0  0  0  0  0
    7.0045    0.5813    0.0000 C   0  0  0  0  0  0  0  0  0  0  0  0
    7.3375    2.1978    0.0000 C   0  0  0  0  0  0  0  0  0  0  0  0
    7.8866    2.5016    0.0000 C   0  0  0  0  0  0  0  0  0  0  0  0
    7.5786    3.9754    0.0000 C   0  0  0  0  0  0  0  0  0  0  0  0
    7.9197    4.2977    0.0000 C   0  0  0  0  0  0  0  0  0  0  0  0
    6.9902    5.2480    0.0000 C   0  0  0  0  0  0  0  0  0  0  0  0
    7.2491    5.7114    0.0000 C   0  0  0  0  0  0  0  0  0  0  0  0
    6.1738    5.7693    0.0000 C   0  0  0  0  0  0  0  0  0  0  0  0
    6.1854    6.4903    0.0000 C   0  0  0  0  0  0  0  0  0  0  0  0
    5.9042    6.4067    0.0000 C   0  0  0  0  0  0  0  0  0  0  0  0
    5.6187    6.7598    0.0000 C   0  0  0  0  0  0  0  0  0  0  0  0
    5.5898    6.5033    0.0000 C   0  0  0  0  0  0  0  0  0  0  0  0
    5.3092    6.6551    0.0000 C   0  0  0  0  0  0  0  0  0  0  0  0
    5.4253    6.5950    0.0000 C   0  0  0  0  0  0  0  0  0  0  0  0
    5.2276    6.6190    0.0000 C   0  0  0  0  0  0  0  0  0  0  0  0
    5.2934    6.5669    0.0000 C   0  0  0  0  0  0  0  0  0  0  0  0
    5.0774    6.7043    0.0000 C   0  0  0  0  0  0  0  0  0  0  0  0
    5.1561    6.7875    0.0000 C   0  0  0  0  0  0  0  0  0  0  0  0
    4.8650    6.8010    0.0000 C   0  0  0  0  0  0  0  0  0  0  0  0
    4.7741    6.6909    0.0000 C   0  0  0  0  0  0  0  0  0  0  0  0
    3.3087    6.7292    0.0000 C   0  0  0  0  0  0  0  0  0  0  0  0
    3.2757    6.4824    0.0000 C   0  0  0  0  0  0  0  0  0  0  0  0
    1.9352    6.0110    0.0000 C   0  0  0  0  0  0  0  0  0  0  0  0
    2.0515    5.5615    0.0000 C   0  0  0  0  0  0  0  0  0  0  0  0
    1.0095    4.4736    0.0000 C   0  0  0  0  0  0  0  0  0  0  0  0
    1.3142    3.9250    0.0000 C   0  0  0  0  0  0  0  0  0  0  0  0
    0.7399    2.3776    0.0000 C   0  0  0  0  0  0  0  0  0  0  0  0
    1.2479    1.7969    0.0000 C   0  0  0  0  0  0  0  0  0  0  0  0
    1.1174    0.0446    0.0000 C   0  0  0  0  0  0  0  0  0  0  0  0
    1.7936   -0.4691    0.0000 C   0  0  0  0  0  0  0  0  0  0  0  0
    0.1084   -2.1235    0.0000 C   0  0  0  0  0  0  0  0  0  0  0  0
   -1.3912   -2.0861    0.0000 O   0  0  0  0  0  0  0  0  0  0  0  0
    0.8257   -3.4408    0.0000 N   0  0  0  0  0  0  0  0  0  0  0  0
    0.0436   -4.7207    0.0000 C   0  0  0  0  0  0  0  0  0  0  0  0
   -1.4560   -4.6833    0.0000 N   0  0  0  0  0  0  0  0  0  0  0  0
   -2.2381   -5.9633    0.0000 N   0  0  0  0  0  0  0  0  0  0  0  0
   -1.5207   -7.2806    0.0000 N   0  0  0  0  0  0  0  0  0  0  0  0
   -0.0212   -7.3180    0.0000 N   0  0  0  0  0  0  0  0  0  0  0  0
    0.7610   -6.0381    0.0000 N   0  0  0  0  0  0  0  0  0  0  0  0
    2.2354   -1.5078    0.0000 C   0  0  0  0  0  0  0  0  0  0  0  0
    0.7500   -1.2990    0.0000 C   0  0  0  0  0  0  0  0  0  0  0  0
    1.5000    0.0000    0.0000 C   0  0  0  0  0  0  0  0  0  0  0  0
    0.7500    1.2990    0.0000 C   0  0  0  0  0  0  0  0  0  0  0  0
   -0.7500    1.2990    0.0000 C   0  0  0  0  0  0  0  0  0  0  0  0
   -1.5000    0.0000    0.0000 C   0  0  0  0  0  0  0  0  0  0  0  0
   -0.7500   -1.2990    0.0000 C   0  0  0  0  0  0  0  0  0  0  0  0
  1  2  1  0
  2  3  1  0
  3  4  1  0
  4  5  1  0
  5  6  1  0
  6  7  1  0
  7  8  1  0
  8  9  1  0
  9 10  1  0
 10 11  1  0
 11 12  1  0
 12 13  1  0
 13 14  1  0
 14 15  1  0
 15 16  1  0
 16 17  1  0
 17 18  1  0
 18 19  1  0
 19 20  1  0
 20 21  1  0
 21 22  1  0
 22 23  1  0
 23 24  1  0
 24 25  1  0
 25 26  1  0
 26 27  1  0
 27 28  1  0
 28 29  1  0
 29 30  1  0
 30 31  1  0
 31 32  1  0
 32 33  1  0
 33 34  1  0
 34 35  1  0
 35 36  1  0
 36 37  1  0
 37 38  1  0
 38 39  1  0
 39 40  1  0
 40 41  1  0
 41 42  1  0
 42 43  1  0
 43 44  1  0
 44 45  1  0
 45 46  1  0
 46 47  1  0
 47 48  1  0
 48 49  1  0
 49 50  2  0
 50 51  1  0
 51 52  2  0
 52 53  1  0
 53 54  2  0
 54 55  1  0
 55 56  2  0
 56 57  1  0
 57 58  2  0
 58 59  1  0
 59 60  2  0
 60 61  1  0
 61 62  2  0
 62 63  1  0
 63 64  2  0
 64 65  1  0
 65 66  2  0
 66 67  1  0
 67 68  2  0
 68 69  1  0
 69 70  2  0
 70 71  1  0
 71 72  2  0
 72 73  1  0
 73 74  2  0
 74 75  1  0
 75 76  2  0
 76 77  1  0
 77 78  2  0
 77 79  1  0
 79 80  1  0
 80 81  2  0
 81 82  1  0
 82 83  2  0
 83 84  1  0
 84 85  2  0
 76 86  1  0
 86 87  1  0
 87 88  2  0
 88 89  1  0
 89 90  2  0
 90 91  1  0
 91 92  2  0
 92  2  1  0
 86 43  1  0
 92 87  1  0
 85 80  1  0
M  END
>  <Title>  (655) 
idAAXGgen9

$$$$

     RDKit          2D

 55 63  0  0  0  0  0  0  0  0999 V2000
    5.3686   -3.7837    0.0000 C   0  0  0  0  0  0  0  0  0  0  0  0
    3.9258   -4.1942    0.0000 C   0  0  0  0  0  0  0  0  0  0  0  0
    3.2572   -2.8514    0.0000 C   0  0  0  0  0  0  0  0  0  0  0  0
    2.1487   -1.8409    0.0000 C   0  0  0  0  0  0  0  0  0  0  0  0
    2.9384   -0.5656    0.0000 C   0  0  0  0  0  0  0  0  0  0  0  0
    2.2287    0.7559    0.0000 O   0  0  0  0  0  0  0  0  0  0  0  0
    4.4376   -0.6118    0.0000 N   0  0  0  0  0  0  0  0  0  0  0  0
    5.2273    0.6636    0.0000 C   0  0  0  0  0  0  0  0  0  0  0  0
    6.7266    0.6174    0.0000 N   0  0  0  0  0  0  0  0  0  0  0  0
    7.5162    1.8927    0.0000 N   0  0  0  0  0  0  0  0  0  0  0  0
    6.8066    3.2142    0.0000 N   0  0  0  0  0  0  0  0  0  0  0  0
    5.3073    3.2604    0.0000 N   0  0  0  0  0  0  0  0  0  0  0  0
    4.5177    1.9851    0.0000 N   0  0  0  0  0  0  0  0  0  0  0  0
    0.7500   -1.2990    0.0000 C   0  0  0  0  0  0  0  0  0  0  0  0
    1.5000    0.0000    0.0000 C   0  0  0  0  0  0  0  0  0  0  0  0
    0.7500    1.2990    0.0000 C   0  0  0  0  0  0  0  0  0  0  0  0
   -0.7500    1.2990    0.0000 C   0  0  0  0  0  0  0  0  0  0  0  0
   -1.5000    0.0000    0.0000 C   0  0  0  0  0  0  0  0  0  0  0  0
   -0.7500   -1.2990    0.0000 C   0  0  0  0  0  0  0  0  0  0  0  0
   -2.1487   -1.8409    0.0000 C   0  0  0  0  0  0  0  0  0  0  0  0
   -2.4696   -0.3756    0.0000 C   0  0  0  0  0  0  0  0  0  0  0  0
   -3.8990    0.0791    0.0000 C   0  0  0  0  0  0  0  0  0  0  0  0
   -5.0075   -0.9314    0.0000 C   0  0  0  0  0  0  0  0  0  0  0  0
   -4.6866   -2.3967    0.0000 C   0  0  0  0  0  0  0  0  0  0  0  0
   -3.2572   -2.8514    0.0000 C   0  0  0  0  0  0  0  0  0  0  0  0
   -3.9258   -4.1942    0.0000 C   0  0  0  0  0  0  0  0  0  0  0  0
   -5.1501   -3.3275    0.0000 C   0  0  0  0  0  0  0  0  0  0  0  0
   -6.5128   -3.9545    0.0000 C   0  0  0  0  0  0  0  0  0  0  0  0
   -6.6512   -5.4481    0.0000 C   0  0  0  0  0  0  0  0  0  0  0  0
   -5.4269   -6.3147    0.0000 C   0  0  0  0  0  0  0  0  0  0  0  0
   -4.0642   -5.6878    0.0000 C   0  0  0  0  0  0  0  0  0  0  0  0
   -3.6537   -7.1305    0.0000 C   0  0  0  0  0  0  0  0  0  0  0  0
   -5.1424   -7.3149    0.0000 C   0  0  0  0  0  0  0  0  0  0  0  0
   -5.7270   -8.6962    0.0000 C   0  0  0  0  0  0  0  0  0  0  0  0
   -4.8231   -9.8932    0.0000 C   0  0  0  0  0  0  0  0  0  0  0  0
   -3.3345   -9.7089    0.0000 C   0  0  0  0  0  0  0  0  0  0  0  0
   -2.7498   -8.3276    0.0000 C   0  0  0  0  0  0  0  0  0  0  0  0
   -1.4745   -9.1172    0.0000 C   0  0  0  0  0  0  0  0  0  0  0  0
   -2.4504  -10.2563    0.0000 C   0  0  0  0  0  0  0  0  0  0  0  0
   -1.9519  -11.6710    0.0000 C   0  0  0  0  0  0  0  0  0  0  0  0
   -0.4774  -11.9467    0.0000 C   0  0  0  0  0  0  0  0  0  0  0  0
    0.4985  -10.8076    0.0000 C   0  0  0  0  0  0  0  0  0  0  0  0
   -0.0000   -9.3928    0.0000 C   0  0  0  0  0  0  0  0  0  0  0  0
    1.4745   -9.1172    0.0000 C   0  0  0  0  0  0  0  0  0  0  0  0
    1.5207  -10.6165    0.0000 C   0  0  0  0  0  0  0  0  0  0  0  0
    2.8422  -11.3261    0.0000 C   0  0  0  0  0  0  0  0  0  0  0  0
    4.1175  -10.5365    0.0000 C   0  0  0  0  0  0  0  0  0  0  0  0
    4.0713   -9.0372    0.0000 C   0  0  0  0  0  0  0  0  0  0  0  0
    2.7498   -8.3276    0.0000 C   0  0  0  0  0  0  0  0  0  0  0  0
    3.6537   -7.1305    0.0000 C   0  0  0  0  0  0  0  0  0  0  0  0
    4.6979   -8.2074    0.0000 C   0  0  0  0  0  0  0  0  0  0  0  0
    6.1526   -7.8415    0.0000 C   0  0  0  0  0  0  0  0  0  0  0  0
    6.5631   -6.3988    0.0000 C   0  0  0  0  0  0  0  0  0  0  0  0
    5.5189   -5.3219    0.0000 C   0  0  0  0  0  0  0  0  0  0  0  0
    4.0642   -5.6878    0.0000 C   0  0  0  0  0  0  0  0  0  0  0  0
  1  2  1  0
  2  3  2  0
  3  4  1  0
  4  5  1  0
  5  6  2  0
  5  7  1  0
  7  8  1  0
  8  9  2  0
  9 10  1  0
 10 11  2  0
 11 12  1  0
 12 13  2  0
  4 14  1  0
 14 15  2  0
 15 16  1  0
 16 17  2  0
 17 18  1  0
 18 19  2  0
 19 20  1  0
 20 21  2  0
 21 22  1  0
 22 23  2  0
 23 24  1  0
 24 25  2  0
 25 26  1  0
 26 27  2  0
 27 28  1  0
 28 29  2  0
 29 30  1  0
 30 31  2  0
 31 32  1  0
 32 33  2  0
 33 34  1  0
 34 35  2  0
 35 36  1  0
 36 37  2  0
 37 38  1  0
 38 39  2  0
 39 40  1  0
 40 41  2  0
 41 42  1  0
 42 43  2  0
 43 44  1  0
 44 45  2  0
 45 46  1  0
 46 47  2  0
 47 48  1  0
 48 49  2  0
 49 50  1  0
 50 51  2  0
 51 52  1  0
 52 53  2  0
 53 54  1  0
 54 55  2  0
 55  2  1  0
 13  8  1  0
 19 14  1  0
 25 20  1  0
 31 26  1  0
 37 32  1  0
 43 38  1  0
 49 44  1  0
 55 50  1  0
M  END
>  <Title>  (656) 
idAAXHgen9

$$$$

     RDKit          2D

 56 64  0  0  0  0  0  0  0  0999 V2000
    5.8191   -5.5525    0.0000 C   0  0  0  0  0  0  0  0  0  0  0  0
    4.3191   -5.5525    0.0000 C   0  0  0  0  0  0  0  0  0  0  0  0
    4.0586   -4.0753    0.0000 C   0  0  0  0  0  0  0  0  0  0  0  0
    3.3086   -2.7762    0.0000 C   0  0  0  0  0  0  0  0  0  0  0  0
    2.1595   -1.8121    0.0000 C   0  0  0  0  0  0  0  0  0  0  0  0
    2.9095   -0.5130    0.0000 C   0  0  0  0  0  0  0  0  0  0  0  0
    2.1595    0.7860    0.0000 O   0  0  0  0  0  0  0  0  0  0  0  0
    4.4095   -0.5130    0.0000 N   0  0  0  0  0  0  0  0  0  0  0  0
    5.1595    0.7860    0.0000 C   0  0  0  0  0  0  0  0  0  0  0  0
    6.6595    0.7860    0.0000 N   0  0  0  0  0  0  0  0  0  0  0  0
    7.4095    2.0850    0.0000 N   0  0  0  0  0  0  0  0  0  0  0  0
    6.6595    3.3841    0.0000 N   0  0  0  0  0  0  0  0  0  0  0  0
    5.1595    3.3841    0.0000 N   0  0  0  0  0  0  0  0  0  0  0  0
    4.4095    2.0850    0.0000 N   0  0  0  0  0  0  0  0  0  0  0  0
    0.7500   -1.2990    0.0000 C   0  0  0  0  0  0  0  0  0  0  0  0
    1.5000    0.0000    0.0000 C   0  0  0  0  0  0  0  0  0  0  0  0
    0.7500    1.2990    0.0000 C   0  0  0  0  0  0  0  0  0  0  0  0
   -0.7500    1.2990    0.0000 C   0  0  0  0  0  0  0  0  0  0  0  0
   -1.5000    0.0000    0.0000 C   0  0  0  0  0  0  0  0  0  0  0  0
   -0.7500   -1.2990    0.0000 C   0  0  0  0  0  0  0  0  0  0  0  0
   -2.1595   -1.8121    0.0000 C   0  0  0  0  0  0  0  0  0  0  0  0
   -2.4200   -0.3349    0.0000 C   0  0  0  0  0  0  0  0  0  0  0  0
   -3.8296    0.1782    0.0000 C   0  0  0  0  0  0  0  0  0  0  0  0
   -4.9786   -0.7860    0.0000 C   0  0  0  0  0  0  0  0  0  0  0  0
   -4.7181   -2.2632    0.0000 C   0  0  0  0  0  0  0  0  0  0  0  0
   -3.3086   -2.7762    0.0000 C   0  0  0  0  0  0  0  0  0  0  0  0
   -4.0586   -4.0753    0.0000 C   0  0  0  0  0  0  0  0  0  0  0  0
   -5.2077   -3.1111    0.0000 C   0  0  0  0  0  0  0  0  0  0  0  0
   -6.6172   -3.6241    0.0000 C   0  0  0  0  0  0  0  0  0  0  0  0
   -6.8777   -5.1013    0.0000 C   0  0  0  0  0  0  0  0  0  0  0  0
   -5.7286   -6.0655    0.0000 C   0  0  0  0  0  0  0  0  0  0  0  0
   -4.3191   -5.5525    0.0000 C   0  0  0  0  0  0  0  0  0  0  0  0
   -4.0586   -7.0297    0.0000 C   0  0  0  0  0  0  0  0  0  0  0  0
   -5.5586   -7.0297    0.0000 C   0  0  0  0  0  0  0  0  0  0  0  0
   -6.3086   -8.3287    0.0000 C   0  0  0  0  0  0  0  0  0  0  0  0
   -5.5586   -9.6278    0.0000 C   0  0  0  0  0  0  0  0  0  0  0  0
   -4.0586   -9.6278    0.0000 C   0  0  0  0  0  0  0  0  0  0  0  0
   -3.3086   -8.3287    0.0000 C   0  0  0  0  0  0  0  0  0  0  0  0
   -2.1595   -9.2929    0.0000 C   0  0  0  0  0  0  0  0  0  0  0  0
   -3.3086  -10.2571    0.0000 C   0  0  0  0  0  0  0  0  0  0  0  0
   -3.0481  -11.7343    0.0000 C   0  0  0  0  0  0  0  0  0  0  0  0
   -1.6386  -12.2474    0.0000 C   0  0  0  0  0  0  0  0  0  0  0  0
   -0.4895  -11.2832    0.0000 C   0  0  0  0  0  0  0  0  0  0  0  0
   -0.7500   -9.8060    0.0000 C   0  0  0  0  0  0  0  0  0  0  0  0
    0.7500   -9.8060    0.0000 C   0  0  0  0  0  0  0  0  0  0  0  0
    0.4895  -11.2832    0.0000 C   0  0  0  0  0  0  0  0  0  0  0  0
    1.6386  -12.2474    0.0000 C   0  0  0  0  0  0  0  0  0  0  0  0
    3.0481  -11.7343    0.0000 C   0  0  0  0  0  0  0  0  0  0  0  0
    3.3086  -10.2571    0.0000 C   0  0  0  0  0  0  0  0  0  0  0  0
    2.1595   -9.2929    0.0000 C   0  0  0  0  0  0  0  0  0  0  0  0
    3.3086   -8.3287    0.0000 C   0  0  0  0  0  0  0  0  0  0  0  0
    4.0586   -9.6278    0.0000 C   0  0  0  0  0  0  0  0  0  0  0  0
    5.5586   -9.6278    0.0000 C   0  0  0  0  0  0  0  0  0  0  0  0
    6.3086   -8.3287    0.0000 C   0  0  0  0  0  0  0  0  0  0  0  0
    5.5586   -7.0297    0.0000 C   0  0  0  0  0  0  0  0  0  0  0  0
    4.0586   -7.0297    0.0000 C   0  0  0  0  0  0  0  0  0  0  0  0
  1  2  1  0
  2  3  1  0
  3  4  2  0
  4  5  1  0
  5  6  1  0
  6  7  2  0
  6  8  1  0
  8  9  1  0
  9 10  2  0
 10 11  1  0
 11 12  2  0
 12 13  1  0
 13 14  2  0
  5 15  1  0
 15 16  2  0
 16 17  1  0
 17 18  2  0
 18 19  1  0
 19 20  2  0
 20 21  1  0
 21 22  2  0
 22 23  1  0
 23 24  2  0
 24 25  1  0
 25 26  2  0
 26 27  1  0
 27 28  2  0
 28 29  1  0
 29 30  2  0
 30 31  1  0
 31 32  2  0
 32 33  1  0
 33 34  2  0
 34 35  1  0
 35 36  2  0
 36 37  1  0
 37 38  2  0
 38 39  1  0
 39 40  2  0
 40 41  1  0
 41 42  2  0
 42 43  1  0
 43 44  2  0
 44 45  1  0
 45 46  2  0
 46 47  1  0
 47 48  2  0
 48 49  1  0
 49 50  2  0
 50 51  1  0
 51 52  2  0
 52 53  1  0
 53 54  2  0
 54 55  1  0
 55 56  2  0
 56  2  1  0
 14  9  1  0
 20 15  1  0
 26 21  1  0
 32 27  1  0
 38 33  1  0
 44 39  1  0
 50 45  1  0
 56 51  1  0
M  END
>  <Title>  (657) 
idAAXIgen9

$$$$

     RDKit          2D

  9  9  0  0  0  0  0  0  0  0999 V2000
    3.7500   -1.2990    0.0000 C   0  0  0  0  0  0  0  0  0  0  0  0
    3.0000    0.0000    0.0000 C   0  0  0  0  0  0  0  0  0  0  0  0
    3.7500    1.2990    0.0000 O   0  0  0  0  0  0  0  0  0  0  0  0
    1.5000    0.0000    0.0000 C   0  0  0  0  0  0  0  0  0  0  0  0
    0.7500   -1.2990    0.0000 C   0  0  0  0  0  0  0  0  0  0  0  0
   -0.7500   -1.2990    0.0000 C   0  0  0  0  0  0  0  0  0  0  0  0
   -1.5000    0.0000    0.0000 C   0  0  0  0  0  0  0  0  0  0  0  0
   -0.7500    1.2990    0.0000 C   0  0  0  0  0  0  0  0  0  0  0  0
    0.7500    1.2990    0.0000 C   0  0  0  0  0  0  0  0  0  0  0  0
  1  2  1  0
  2  3  2  0
  2  4  1  0
  4  5  2  0
  5  6  1  0
  6  7  2  0
  7  8  1  0
  8  9  2  0
  9  4  1  0
M  END
>  <Title>  (658) 
idAAXJgen9

$$$$

     RDKit          2D

121121  0  0  0  0  0  0  0  0999 V2000
   29.9125    0.0000    0.0000 C   0  0  0  0  0  0  0  0  0  0  0  0
   28.4125    0.0000    0.0000 C   0  0  0  0  0  0  0  0  0  0  0  0
   28.3729    1.4995    0.0000 C   0  0  0  0  0  0  0  0  0  0  0  0
   28.2542    2.9948    0.0000 C   0  0  0  0  0  0  0  0  0  0  0  0
   28.0568    4.4817    0.0000 C   0  0  0  0  0  0  0  0  0  0  0  0
   27.7811    5.9562    0.0000 C   0  0  0  0  0  0  0  0  0  0  0  0
   27.4281    7.4140    0.0000 C   0  0  0  0  0  0  0  0  0  0  0  0
   26.9986    8.8512    0.0000 C   0  0  0  0  0  0  0  0  0  0  0  0
   26.4938   10.2638    0.0000 C   0  0  0  0  0  0  0  0  0  0  0  0
   25.9152   11.6477    0.0000 C   0  0  0  0  0  0  0  0  0  0  0  0
   25.2644   12.9991    0.0000 C   0  0  0  0  0  0  0  0  0  0  0  0
   24.5432   14.3144    0.0000 C   0  0  0  0  0  0  0  0  0  0  0  0
   23.7535   15.5897    0.0000 C   0  0  0  0  0  0  0  0  0  0  0  0
   22.8977   16.8216    0.0000 C   0  0  0  0  0  0  0  0  0  0  0  0
   21.9780   18.0065    0.0000 C   0  0  0  0  0  0  0  0  0  0  0  0
   20.9971   19.1413    0.0000 C   0  0  0  0  0  0  0  0  0  0  0  0
   19.9576   20.2228    0.0000 C   0  0  0  0  0  0  0  0  0  0  0  0
   18.8625   21.2479    0.0000 C   0  0  0  0  0  0  0  0  0  0  0  0
   17.7149   22.2138    0.0000 C   0  0  0  0  0  0  0  0  0  0  0  0
   16.5179   23.1177    0.0000 C   0  0  0  0  0  0  0  0  0  0  0  0
   15.2748   23.9572    0.0000 C   0  0  0  0  0  0  0  0  0  0  0  0
   13.9892   24.7300    0.0000 C   0  0  0  0  0  0  0  0  0  0  0  0
   12.6645   25.4338    0.0000 C   0  0  0  0  0  0  0  0  0  0  0  0
   11.3046   26.0667    0.0000 C   0  0  0  0  0  0  0  0  0  0  0  0
    9.9132   26.6270    0.0000 C   0  0  0  0  0  0  0  0  0  0  0  0
    8.4941   27.1131    0.0000 C   0  0  0  0  0  0  0  0  0  0  0  0
    7.0514   27.5236    0.0000 C   0  0  0  0  0  0  0  0  0  0  0  0
    5.5890   27.8573    0.0000 C   0  0  0  0  0  0  0  0  0  0  0  0
    4.1110   28.1135    0.0000 C   0  0  0  0  0  0  0  0  0  0  0  0
    2.6216   28.2913    0.0000 C   0  0  0  0  0  0  0  0  0  0  0  0
    1.1248   28.3902    0.0000 C   0  0  0  0  0  0  0  0  0  0  0  0
   -0.3750   28.4100    0.0000 C   0  0  0  0  0  0  0  0  0  0  0  0
   -1.8739   28.3506    0.0000 C   0  0  0  0  0  0  0  0  0  0  0  0
   -3.3675   28.2122    0.0000 C   0  0  0  0  0  0  0  0  0  0  0  0
   -4.8517   27.9952    0.0000 C   0  0  0  0  0  0  0  0  0  0  0  0
   -6.3224   27.7001    0.0000 C   0  0  0  0  0  0  0  0  0  0  0  0
   -7.7754   27.3278    0.0000 C   0  0  0  0  0  0  0  0  0  0  0  0
   -9.2068   26.8794    0.0000 C   0  0  0  0  0  0  0  0  0  0  0  0
  -10.6126   26.3560    0.0000 C   0  0  0  0  0  0  0  0  0  0  0  0
  -11.9887   25.7592    0.0000 C   0  0  0  0  0  0  0  0  0  0  0  0
  -13.3315   25.0906    0.0000 C   0  0  0  0  0  0  0  0  0  0  0  0
  -14.6371   24.3521    0.0000 C   0  0  0  0  0  0  0  0  0  0  0  0
  -15.9019   23.5457    0.0000 C   0  0  0  0  0  0  0  0  0  0  0  0
  -17.1223   22.6736    0.0000 C   0  0  0  0  0  0  0  0  0  0  0  0
  -18.2951   21.7384    0.0000 C   0  0  0  0  0  0  0  0  0  0  0  0
  -19.4168   20.7426    0.0000 C   0  0  0  0  0  0  0  0  0  0  0  0
  -20.4845   19.6889    0.0000 C   0  0  0  0  0  0  0  0  0  0  0  0
  -21.4950   18.5804    0.0000 C   0  0  0  0  0  0  0  0  0  0  0  0
  -22.4456   17.4201    0.0000 C   0  0  0  0  0  0  0  0  0  0  0  0
  -23.3337   16.2113    0.0000 C   0  0  0  0  0  0  0  0  0  0  0  0
  -24.1568   14.9572    0.0000 C   0  0  0  0  0  0  0  0  0  0  0  0
  -24.9125   13.6615    0.0000 C   0  0  0  0  0  0  0  0  0  0  0  0
  -25.5987   12.3277    0.0000 C   0  0  0  0  0  0  0  0  0  0  0  0
  -26.2137   10.9595    0.0000 C   0  0  0  0  0  0  0  0  0  0  0  0
  -26.7555    9.5608    0.0000 C   0  0  0  0  0  0  0  0  0  0  0  0
  -27.2228    8.1355    0.0000 C   0  0  0  0  0  0  0  0  0  0  0  0
  -27.6142    6.6874    0.0000 C   0  0  0  0  0  0  0  0  0  0  0  0
  -27.9287    5.2208    0.0000 C   0  0  0  0  0  0  0  0  0  0  0  0
  -28.1653    3.7396    0.0000 C   0  0  0  0  0  0  0  0  0  0  0  0
  -28.3234    2.2479    0.0000 C   0  0  0  0  0  0  0  0  0  0  0  0
  -28.4026    0.7500    0.0000 C   0  0  0  0  0  0  0  0  0  0  0  0
  -28.4026   -0.7500    0.0000 C   0  0  0  0  0  0  0  0  0  0  0  0
  -28.3234   -2.2479    0.0000 C   0  0  0  0  0  0  0  0  0  0  0  0
  -28.1653   -3.7396    0.0000 C   0  0  0  0  0  0  0  0  0  0  0  0
  -27.9287   -5.2208    0.0000 C   0  0  0  0  0  0  0  0  0  0  0  0
  -27.6142   -6.6874    0.0000 C   0  0  0  0  0  0  0  0  0  0  0  0
  -27.2228   -8.1355    0.0000 C   0  0  0  0  0  0  0  0  0  0  0  0
  -26.7555   -9.5608    0.0000 C   0  0  0  0  0  0  0  0  0  0  0  0
  -26.2137  -10.9595    0.0000 C   0  0  0  0  0  0  0  0  0  0  0  0
  -25.5987  -12.3277    0.0000 C   0  0  0  0  0  0  0  0  0  0  0  0
  -24.9125  -13.6615    0.0000 C   0  0  0  0  0  0  0  0  0  0  0  0
  -24.1568  -14.9572    0.0000 C   0  0  0  0  0  0  0  0  0  0  0  0
  -23.3337  -16.2113    0.0000 C   0  0  0  0  0  0  0  0  0  0  0  0
  -22.4456  -17.4201    0.0000 C   0  0  0  0  0  0  0  0  0  0  0  0
  -21.4950  -18.5804    0.0000 C   0  0  0  0  0  0  0  0  0  0  0  0
  -20.4845  -19.6889    0.0000 C   0  0  0  0  0  0  0  0  0  0  0  0
  -19.4168  -20.7426    0.0000 C   0  0  0  0  0  0  0  0  0  0  0  0
  -18.2951  -21.7384    0.0000 C   0  0  0  0  0  0  0  0  0  0  0  0
  -17.1223  -22.6736    0.0000 C   0  0  0  0  0  0  0  0  0  0  0  0
  -15.9019  -23.5457    0.0000 C   0  0  0  0  0  0  0  0  0  0  0  0
  -14.6371  -24.3521    0.0000 C   0  0  0  0  0  0  0  0  0  0  0  0
  -13.3315  -25.0906    0.0000 C   0  0  0  0  0  0  0  0  0  0  0  0
  -11.9887  -25.7592    0.0000 C   0  0  0  0  0  0  0  0  0  0  0  0
  -10.6126  -26.3560    0.0000 C   0  0  0  0  0  0  0  0  0  0  0  0
   -9.2068  -26.8794    0.0000 C   0  0  0  0  0  0  0  0  0  0  0  0
   -7.7754  -27.3278    0.0000 C   0  0  0  0  0  0  0  0  0  0  0  0
   -6.3224  -27.7001    0.0000 C   0  0  0  0  0  0  0  0  0  0  0  0
   -4.8517  -27.9952    0.0000 C   0  0  0  0  0  0  0  0  0  0  0  0
   -3.3675  -28.2122    0.0000 C   0  0  0  0  0  0  0  0  0  0  0  0
   -1.8739  -28.3506    0.0000 C   0  0  0  0  0  0  0  0  0  0  0  0
   -0.3750  -28.4100    0.0000 C   0  0  0  0  0  0  0  0  0  0  0  0
    1.1248  -28.3902    0.0000 C   0  0  0  0  0  0  0  0  0  0  0  0
    2.6216  -28.2913    0.0000 C   0  0  0  0  0  0  0  0  0  0  0  0
    4.1110  -28.1135    0.0000 C   0  0  0  0  0  0  0  0  0  0  0  0
    5.5890  -27.8573    0.0000 C   0  0  0  0  0  0  0  0  0  0  0  0
    7.0514  -27.5236    0.0000 C   0  0  0  0  0  0  0  0  0  0  0  0
    8.4941  -27.1131    0.0000 C   0  0  0  0  0  0  0  0  0  0  0  0
    9.9132  -26.6270    0.0000 C   0  0  0  0  0  0  0  0  0  0  0  0
   11.3046  -26.0667    0.0000 C   0  0  0  0  0  0  0  0  0  0  0  0
   12.6645  -25.4338    0.0000 C   0  0  0  0  0  0  0  0  0  0  0  0
   13.9892  -24.7300    0.0000 C   0  0  0  0  0  0  0  0  0  0  0  0
   15.2748  -23.9572    0.0000 C   0  0  0  0  0  0  0  0  0  0  0  0
   16.5179  -23.1177    0.0000 C   0  0  0  0  0  0  0  0  0  0  0  0
   17.7149  -22.2138    0.0000 C   0  0  0  0  0  0  0  0  0  0  0  0
   18.8625  -21.2479    0.0000 C   0  0  0  0  0  0  0  0  0  0  0  0
   19.9576  -20.2228    0.0000 C   0  0  0  0  0  0  0  0  0  0  0  0
   20.9971  -19.1413    0.0000 C   0  0  0  0  0  0  0  0  0  0  0  0
   21.9780  -18.0065    0.0000 C   0  0  0  0  0  0  0  0  0  0  0  0
   22.8977  -16.8216    0.0000 C   0  0  0  0  0  0  0  0  0  0  0  0
   23.7535  -15.5897    0.0000 C   0  0  0  0  0  0  0  0  0  0  0  0
   24.5432  -14.3144    0.0000 C   0  0  0  0  0  0  0  0  0  0  0  0
   25.2644  -12.9991    0.0000 C   0  0  0  0  0  0  0  0  0  0  0  0
   25.9152  -11.6477    0.0000 C   0  0  0  0  0  0  0  0  0  0  0  0
   26.4938  -10.2638    0.0000 C   0  0  0  0  0  0  0  0  0  0  0  0
   26.9986   -8.8512    0.0000 C   0  0  0  0  0  0  0  0  0  0  0  0
   27.4281   -7.4140    0.0000 C   0  0  0  0  0  0  0  0  0  0  0  0
   27.7811   -5.9562    0.0000 C   0  0  0  0  0  0  0  0  0  0  0  0
   28.0568   -4.4817    0.0000 C   0  0  0  0  0  0  0  0  0  0  0  0
   28.2542   -2.9948    0.0000 C   0  0  0  0  0  0  0  0  0  0  0  0
   29.7458   -3.1529    0.0000 C   0  0  0  0  0  0  0  0  0  0  0  0
   28.3729   -1.4995    0.0000 N   0  0  0  0  0  0  0  0  0  0  0  0
  1  2  1  0
  2  3  2  0
  3  4  1  0
  4  5  1  0
  5  6  1  0
  6  7  1  0
  7  8  1  0
  8  9  1  0
  9 10  1  0
 10 11  1  0
 11 12  1  0
 12 13  1  0
 13 14  1  0
 14 15  1  0
 15 16  1  0
 16 17  1  0
 17 18  1  0
 18 19  1  0
 19 20  1  0
 20 21  1  0
 21 22  1  0
 22 23  1  0
 23 24  1  0
 24 25  1  0
 25 26  1  0
 26 27  1  0
 27 28  1  0
 28 29  1  0
 29 30  1  0
 30 31  1  0
 31 32  1  0
 32 33  1  0
 33 34  1  0
 34 35  1  0
 35 36  1  0
 36 37  1  0
 37 38  1  0
 38 39  1  0
 39 40  1  0
 40 41  1  0
 41 42  1  0
 42 43  1  0
 43 44  1  0
 44 45  1  0
 45 46  1  0
 46 47  1  0
 47 48  1  0
 48 49  1  0
 49 50  1  0
 50 51  1  0
 51 52  1  0
 52 53  1  0
 53 54  1  0
 54 55  1  0
 55 56  1  0
 56 57  1  0
 57 58  1  0
 58 59  1  0
 59 60  1  0
 60 61  1  0
 61 62  1  0
 62 63  1  0
 63 64  1  0
 64 65  1  0
 65 66  1  0
 66 67  1  0
 67 68  1  0
 68 69  1  0
 69 70  1  0
 70 71  1  0
 71 72  1  0
 72 73  1  0
 73 74  1  0
 74 75  1  0
 75 76  1  0
 76 77  1  0
 77 78  1  0
 78 79  1  0
 79 80  1  0
 80 81  1  0
 81 82  1  0
 82 83  1  0
 83 84  1  0
 84 85  1  0
 85 86  1  0
 86 87  1  0
 87 88  1  0
 88 89  1  0
 89 90  1  0
 90 91  1  0
 91 92  1  0
 92 93  1  0
 93 94  1  0
 94 95  1  0
 95 96  1  0
 96 97  1  0
 97 98  1  0
 98 99  1  0
 99100  1  0
100101  1  0
101102  1  0
102103  1  0
103104  1  0
104105  1  0
105106  1  0
106107  1  0
107108  1  0
108109  1  0
109110  1  0
110111  1  0
111112  1  0
112113  1  0
113114  1  0
114115  1  0
115116  1  0
116117  1  0
117118  1  0
118119  1  0
119120  1  0
119121  1  0
121  2  1  0
M  END
>  <Title>  (659) 
idAAXKgen9

$$$$

     RDKit          2D

 15 16  0  0  0  0  0  0  0  0999 V2000
    1.8478   -9.0619    0.0000 C   0  0  0  0  0  0  0  0  0  0  0  0
    2.0046   -7.5702    0.0000 C   0  0  0  0  0  0  0  0  0  0  0  0
    3.3037   -6.8202    0.0000 C   0  0  0  0  0  0  0  0  0  0  0  0
    2.9918   -5.3529    0.0000 C   0  0  0  0  0  0  0  0  0  0  0  0
    1.5000   -5.1962    0.0000 C   0  0  0  0  0  0  0  0  0  0  0  0
    0.7500   -3.8971    0.0000 C   0  0  0  0  0  0  0  0  0  0  0  0
   -0.7500   -3.8971    0.0000 O   0  0  0  0  0  0  0  0  0  0  0  0
    1.5000   -2.5981    0.0000 O   0  0  0  0  0  0  0  0  0  0  0  0
    0.7500   -1.2990    0.0000 C   0  0  0  0  0  0  0  0  0  0  0  0
    1.5000    0.0000    0.0000 N   0  0  0  0  0  0  0  0  0  0  0  0
    0.7500    1.2990    0.0000 N   0  0  0  0  0  0  0  0  0  0  0  0
   -0.7500    1.2990    0.0000 N   0  0  0  0  0  0  0  0  0  0  0  0
   -1.5000    0.0000    0.0000 N   0  0  0  0  0  0  0  0  0  0  0  0
   -0.7500   -1.2990    0.0000 N   0  0  0  0  0  0  0  0  0  0  0  0
    0.8899   -6.5665    0.0000 C   0  0  0  0  0  0  0  0  0  0  0  0
  1  2  1  0
  2  3  1  0
  3  4  2  0
  4  5  1  0
  5  6  1  0
  6  7  2  0
  6  8  1  0
  8  9  1  0
  9 10  2  0
 10 11  1  0
 11 12  2  0
 12 13  1  0
 13 14  2  0
  5 15  1  0
 15  2  1  0
 14  9  1  0
M  END
>  <Title>  (660) 
idAAXLgen9

$$$$

     RDKit          2D

 32 36  0  0  0  0  0  0  0  0999 V2000
    1.2135   -7.3421    0.0000 C   0  0  0  0  0  0  0  0  0  0  0  0
    0.7500   -5.9156    0.0000 C   0  0  0  0  0  0  0  0  0  0  0  0
    1.9635   -5.0339    0.0000 C   0  0  0  0  0  0  0  0  0  0  0  0
    2.4271   -3.6073    0.0000 C   0  0  0  0  0  0  0  0  0  0  0  0
    1.9635   -2.1807    0.0000 C   0  0  0  0  0  0  0  0  0  0  0  0
    3.1771   -1.2990    0.0000 C   0  0  0  0  0  0  0  0  0  0  0  0
    3.0203    0.1927    0.0000 O   0  0  0  0  0  0  0  0  0  0  0  0
    4.5474   -1.9091    0.0000 N   0  0  0  0  0  0  0  0  0  0  0  0
    5.7609   -1.0275    0.0000 C   0  0  0  0  0  0  0  0  0  0  0  0
    7.1312   -1.6376    0.0000 N   0  0  0  0  0  0  0  0  0  0  0  0
    8.3447   -0.7559    0.0000 N   0  0  0  0  0  0  0  0  0  0  0  0
    8.1879    0.7359    0.0000 N   0  0  0  0  0  0  0  0  0  0  0  0
    6.8176    1.3460    0.0000 N   0  0  0  0  0  0  0  0  0  0  0  0
    5.6041    0.4643    0.0000 N   0  0  0  0  0  0  0  0  0  0  0  0
    0.7500   -1.2990    0.0000 C   0  0  0  0  0  0  0  0  0  0  0  0
    1.5000    0.0000    0.0000 C   0  0  0  0  0  0  0  0  0  0  0  0
    0.7500    1.2990    0.0000 C   0  0  0  0  0  0  0  0  0  0  0  0
   -0.7500    1.2990    0.0000 C   0  0  0  0  0  0  0  0  0  0  0  0
   -1.5000    0.0000    0.0000 C   0  0  0  0  0  0  0  0  0  0  0  0
   -0.7500   -1.2990    0.0000 C   0  0  0  0  0  0  0  0  0  0  0  0
   -1.9635   -2.1807    0.0000 C   0  0  0  0  0  0  0  0  0  0  0  0
   -2.9672   -1.0660    0.0000 C   0  0  0  0  0  0  0  0  0  0  0  0
   -4.4344   -1.3779    0.0000 C   0  0  0  0  0  0  0  0  0  0  0  0
   -4.8980   -2.8045    0.0000 C   0  0  0  0  0  0  0  0  0  0  0  0
   -3.8943   -3.9192    0.0000 C   0  0  0  0  0  0  0  0  0  0  0  0
   -2.4271   -3.6073    0.0000 C   0  0  0  0  0  0  0  0  0  0  0  0
   -1.9635   -5.0339    0.0000 C   0  0  0  0  0  0  0  0  0  0  0  0
   -3.3338   -5.6440    0.0000 C   0  0  0  0  0  0  0  0  0  0  0  0
   -3.4906   -7.1358    0.0000 C   0  0  0  0  0  0  0  0  0  0  0  0
   -2.2771   -8.0175    0.0000 C   0  0  0  0  0  0  0  0  0  0  0  0
   -0.9068   -7.4073    0.0000 C   0  0  0  0  0  0  0  0  0  0  0  0
   -0.7500   -5.9156    0.0000 C   0  0  0  0  0  0  0  0  0  0  0  0
  1  2  1  0
  2  3  2  0
  3  4  1  0
  4  5  2  0
  5  6  1  0
  6  7  2  0
  6  8  1  0
  8  9  1  0
  9 10  2  0
 10 11  1  0
 11 12  2  0
 12 13  1  0
 13 14  2  0
  5 15  1  0
 15 16  2  0
 16 17  1  0
 17 18  2  0
 18 19  1  0
 19 20  2  0
 20 21  1  0
 21 22  2  0
 22 23  1  0
 23 24  2  0
 24 25  1  0
 25 26  2  0
 26 27  1  0
 27 28  2  0
 28 29  1  0
 29 30  2  0
 30 31  1  0
 31 32  2  0
 32  2  1  0
 14  9  1  0
 20 15  1  0
 26 21  1  0
 32 27  1  0
M  END
>  <Title>  (661) 
idAAXMgen9

$$$$

     RDKit          2D

 10  9  0  0  0  0  0  0  0  0999 V2000
    0.0000    0.0000    0.0000 C   0  0  0  0  0  0  0  0  0  0  0  0
   -0.0000   -1.5000    0.0000 C   0  0  0  0  0  0  0  0  0  0  0  0
   -0.0000   -3.0000    0.0000 C   0  0  0  0  0  0  0  0  0  0  0  0
   -0.0000   -4.5000    0.0000 C   0  0  0  0  0  0  0  0  0  0  0  0
   -0.0000   -6.0000    0.0000 C   0  0  0  0  0  0  0  0  0  0  0  0
   -0.0000   -7.5000    0.0000 C   0  0  0  0  0  0  0  0  0  0  0  0
   -0.0000   -9.0000    0.0000 C   0  0  0  0  0  0  0  0  0  0  0  0
    1.2990   -9.7500    0.0000 C   0  0  0  0  0  0  0  0  0  0  0  0
    1.2990  -11.2500    0.0000 C   0  0  0  0  0  0  0  0  0  0  0  0
    2.5981  -12.0000    0.0000 C   0  0  0  0  0  0  0  0  0  0  0  0
  1  2  3  0
  2  3  1  0
  3  4  3  0
  4  5  1  0
  5  6  3  0
  6  7  1  0
  7  8  1  0
  8  9  2  3
  9 10  1  0
M  END
>  <Title>  (662) 
idAAXNgen9

$$$$

     RDKit          2D

114114  0  0  0  0  0  0  0  0999 V2000
   28.2415    0.0000    0.0000 C   0  0  0  0  0  0  0  0  0  0  0  0
   26.7415    0.0000    0.0000 C   0  0  0  0  0  0  0  0  0  0  0  0
   26.6995   -1.4994    0.0000 C   0  0  0  0  0  0  0  0  0  0  0  0
   26.5734   -2.9941    0.0000 C   0  0  0  0  0  0  0  0  0  0  0  0
   26.3637   -4.4794    0.0000 C   0  0  0  0  0  0  0  0  0  0  0  0
   26.0711   -5.9506    0.0000 C   0  0  0  0  0  0  0  0  0  0  0  0
   25.6964   -7.4030    0.0000 C   0  0  0  0  0  0  0  0  0  0  0  0
   25.2409   -8.8322    0.0000 C   0  0  0  0  0  0  0  0  0  0  0  0
   24.7060  -10.2335    0.0000 C   0  0  0  0  0  0  0  0  0  0  0  0
   24.0933  -11.6027    0.0000 C   0  0  0  0  0  0  0  0  0  0  0  0
   23.4048  -12.9354    0.0000 C   0  0  0  0  0  0  0  0  0  0  0  0
   22.6427  -14.2274    0.0000 C   0  0  0  0  0  0  0  0  0  0  0  0
   21.8094  -15.4746    0.0000 C   0  0  0  0  0  0  0  0  0  0  0  0
   20.9074  -16.6731    0.0000 C   0  0  0  0  0  0  0  0  0  0  0  0
   19.9396  -17.8191    0.0000 C   0  0  0  0  0  0  0  0  0  0  0  0
   18.9091  -18.9091    0.0000 C   0  0  0  0  0  0  0  0  0  0  0  0
   17.8191  -19.9396    0.0000 C   0  0  0  0  0  0  0  0  0  0  0  0
   16.6731  -20.9074    0.0000 C   0  0  0  0  0  0  0  0  0  0  0  0
   15.4746  -21.8094    0.0000 C   0  0  0  0  0  0  0  0  0  0  0  0
   14.2274  -22.6427    0.0000 C   0  0  0  0  0  0  0  0  0  0  0  0
   12.9354  -23.4048    0.0000 C   0  0  0  0  0  0  0  0  0  0  0  0
   11.6027  -24.0933    0.0000 C   0  0  0  0  0  0  0  0  0  0  0  0
   10.2335  -24.7060    0.0000 C   0  0  0  0  0  0  0  0  0  0  0  0
    8.8322  -25.2409    0.0000 C   0  0  0  0  0  0  0  0  0  0  0  0
    7.4030  -25.6964    0.0000 C   0  0  0  0  0  0  0  0  0  0  0  0
    5.9506  -26.0711    0.0000 C   0  0  0  0  0  0  0  0  0  0  0  0
    4.4794  -26.3637    0.0000 C   0  0  0  0  0  0  0  0  0  0  0  0
    2.9941  -26.5734    0.0000 C   0  0  0  0  0  0  0  0  0  0  0  0
    1.4994  -26.6995    0.0000 C   0  0  0  0  0  0  0  0  0  0  0  0
   -0.0000  -26.7415    0.0000 C   0  0  0  0  0  0  0  0  0  0  0  0
   -1.4994  -26.6995    0.0000 C   0  0  0  0  0  0  0  0  0  0  0  0
   -2.9941  -26.5734    0.0000 C   0  0  0  0  0  0  0  0  0  0  0  0
   -4.4794  -26.3637    0.0000 C   0  0  0  0  0  0  0  0  0  0  0  0
   -5.9506  -26.0711    0.0000 C   0  0  0  0  0  0  0  0  0  0  0  0
   -7.4030  -25.6964    0.0000 C   0  0  0  0  0  0  0  0  0  0  0  0
   -8.8322  -25.2409    0.0000 C   0  0  0  0  0  0  0  0  0  0  0  0
  -10.2335  -24.7060    0.0000 C   0  0  0  0  0  0  0  0  0  0  0  0
  -11.6027  -24.0933    0.0000 C   0  0  0  0  0  0  0  0  0  0  0  0
  -12.9354  -23.4048    0.0000 C   0  0  0  0  0  0  0  0  0  0  0  0
  -14.2274  -22.6427    0.0000 C   0  0  0  0  0  0  0  0  0  0  0  0
  -15.4746  -21.8094    0.0000 C   0  0  0  0  0  0  0  0  0  0  0  0
  -16.6731  -20.9074    0.0000 C   0  0  0  0  0  0  0  0  0  0  0  0
  -17.8191  -19.9396    0.0000 C   0  0  0  0  0  0  0  0  0  0  0  0
  -18.9091  -18.9091    0.0000 C   0  0  0  0  0  0  0  0  0  0  0  0
  -19.9396  -17.8191    0.0000 C   0  0  0  0  0  0  0  0  0  0  0  0
  -20.9074  -16.6731    0.0000 C   0  0  0  0  0  0  0  0  0  0  0  0
  -21.8094  -15.4746    0.0000 C   0  0  0  0  0  0  0  0  0  0  0  0
  -22.6427  -14.2274    0.0000 C   0  0  0  0  0  0  0  0  0  0  0  0
  -23.4048  -12.9354    0.0000 C   0  0  0  0  0  0  0  0  0  0  0  0
  -24.0933  -11.6027    0.0000 C   0  0  0  0  0  0  0  0  0  0  0  0
  -24.7060  -10.2335    0.0000 C   0  0  0  0  0  0  0  0  0  0  0  0
  -25.2409   -8.8322    0.0000 C   0  0  0  0  0  0  0  0  0  0  0  0
  -25.6964   -7.4030    0.0000 C   0  0  0  0  0  0  0  0  0  0  0  0
  -26.0711   -5.9506    0.0000 C   0  0  0  0  0  0  0  0  0  0  0  0
  -26.3637   -4.4794    0.0000 C   0  0  0  0  0  0  0  0  0  0  0  0
  -26.5734   -2.9941    0.0000 C   0  0  0  0  0  0  0  0  0  0  0  0
  -26.6995   -1.4994    0.0000 C   0  0  0  0  0  0  0  0  0  0  0  0
  -26.7415    0.0000    0.0000 C   0  0  0  0  0  0  0  0  0  0  0  0
  -26.6995    1.4994    0.0000 C   0  0  0  0  0  0  0  0  0  0  0  0
  -26.5734    2.9941    0.0000 C   0  0  0  0  0  0  0  0  0  0  0  0
  -26.3637    4.4794    0.0000 C   0  0  0  0  0  0  0  0  0  0  0  0
  -26.0711    5.9506    0.0000 C   0  0  0  0  0  0  0  0  0  0  0  0
  -25.6964    7.4030    0.0000 C   0  0  0  0  0  0  0  0  0  0  0  0
  -25.2409    8.8322    0.0000 C   0  0  0  0  0  0  0  0  0  0  0  0
  -24.7060   10.2335    0.0000 C   0  0  0  0  0  0  0  0  0  0  0  0
  -24.0933   11.6027    0.0000 C   0  0  0  0  0  0  0  0  0  0  0  0
  -23.4048   12.9354    0.0000 C   0  0  0  0  0  0  0  0  0  0  0  0
  -22.6427   14.2274    0.0000 C   0  0  0  0  0  0  0  0  0  0  0  0
  -21.8094   15.4746    0.0000 C   0  0  0  0  0  0  0  0  0  0  0  0
  -20.9074   16.6731    0.0000 C   0  0  0  0  0  0  0  0  0  0  0  0
  -19.9396   17.8191    0.0000 C   0  0  0  0  0  0  0  0  0  0  0  0
  -18.9091   18.9091    0.0000 C   0  0  0  0  0  0  0  0  0  0  0  0
  -17.8191   19.9396    0.0000 C   0  0  0  0  0  0  0  0  0  0  0  0
  -16.6731   20.9074    0.0000 C   0  0  0  0  0  0  0  0  0  0  0  0
  -15.4746   21.8094    0.0000 C   0  0  0  0  0  0  0  0  0  0  0  0
  -14.2274   22.6427    0.0000 C   0  0  0  0  0  0  0  0  0  0  0  0
  -12.9354   23.4048    0.0000 C   0  0  0  0  0  0  0  0  0  0  0  0
  -11.6027   24.0933    0.0000 C   0  0  0  0  0  0  0  0  0  0  0  0
  -10.2335   24.7060    0.0000 C   0  0  0  0  0  0  0  0  0  0  0  0
   -8.8322   25.2409    0.0000 C   0  0  0  0  0  0  0  0  0  0  0  0
   -7.4030   25.6964    0.0000 C   0  0  0  0  0  0  0  0  0  0  0  0
   -5.9506   26.0711    0.0000 C   0  0  0  0  0  0  0  0  0  0  0  0
   -4.4794   26.3637    0.0000 C   0  0  0  0  0  0  0  0  0  0  0  0
   -2.9941   26.5734    0.0000 C   0  0  0  0  0  0  0  0  0  0  0  0
   -1.4994   26.6995    0.0000 C   0  0  0  0  0  0  0  0  0  0  0  0
    0.0000   26.7415    0.0000 C   0  0  0  0  0  0  0  0  0  0  0  0
    1.4994   26.6995    0.0000 C   0  0  0  0  0  0  0  0  0  0  0  0
    2.9941   26.5734    0.0000 C   0  0  0  0  0  0  0  0  0  0  0  0
    4.4794   26.3637    0.0000 C   0  0  0  0  0  0  0  0  0  0  0  0
    5.9506   26.0711    0.0000 C   0  0  0  0  0  0  0  0  0  0  0  0
    7.4030   25.6964    0.0000 C   0  0  0  0  0  0  0  0  0  0  0  0
    8.8322   25.2409    0.0000 C   0  0  0  0  0  0  0  0  0  0  0  0
   10.2335   24.7060    0.0000 C   0  0  0  0  0  0  0  0  0  0  0  0
   11.6027   24.0933    0.0000 C   0  0  0  0  0  0  0  0  0  0  0  0
   12.9354   23.4048    0.0000 C   0  0  0  0  0  0  0  0  0  0  0  0
   14.2274   22.6427    0.0000 C   0  0  0  0  0  0  0  0  0  0  0  0
   15.4746   21.8094    0.0000 C   0  0  0  0  0  0  0  0  0  0  0  0
   16.6731   20.9074    0.0000 C   0  0  0  0  0  0  0  0  0  0  0  0
   17.8191   19.9396    0.0000 C   0  0  0  0  0  0  0  0  0  0  0  0
   18.9091   18.9091    0.0000 C   0  0  0  0  0  0  0  0  0  0  0  0
   19.9396   17.8191    0.0000 C   0  0  0  0  0  0  0  0  0  0  0  0
   20.9074   16.6731    0.0000 C   0  0  0  0  0  0  0  0  0  0  0  0
   21.8094   15.4746    0.0000 C   0  0  0  0  0  0  0  0  0  0  0  0
   22.6427   14.2274    0.0000 C   0  0  0  0  0  0  0  0  0  0  0  0
   23.4048   12.9354    0.0000 C   0  0  0  0  0  0  0  0  0  0  0  0
   24.0933   11.6027    0.0000 C   0  0  0  0  0  0  0  0  0  0  0  0
   24.7060   10.2335    0.0000 C   0  0  0  0  0  0  0  0  0  0  0  0
   25.2409    8.8322    0.0000 C   0  0  0  0  0  0  0  0  0  0  0  0
   25.6964    7.4030    0.0000 C   0  0  0  0  0  0  0  0  0  0  0  0
   26.0711    5.9506    0.0000 C   0  0  0  0  0  0  0  0  0  0  0  0
   26.3637    4.4794    0.0000 C   0  0  0  0  0  0  0  0  0  0  0  0
   26.5734    2.9941    0.0000 C   0  0  0  0  0  0  0  0  0  0  0  0
   28.0640    3.1620    0.0000 C   0  0  0  0  0  0  0  0  0  0  0  0
   26.6995    1.4994    0.0000 C   0  0  0  0  0  0  0  0  0  0  0  0
  1  2  1  0
  2  3  1  0
  3  4  1  0
  4  5  1  0
  5  6  1  0
  6  7  1  0
  7  8  1  0
  8  9  1  0
  9 10  1  0
 10 11  1  0
 11 12  1  0
 12 13  1  0
 13 14  1  0
 14 15  1  0
 15 16  1  0
 16 17  1  0
 17 18  1  0
 18 19  1  0
 19 20  1  0
 20 21  1  0
 21 22  1  0
 22 23  1  0
 23 24  1  0
 24 25  1  0
 25 26  1  0
 26 27  1  0
 27 28  1  0
 28 29  1  0
 29 30  1  0
 30 31  1  0
 31 32  1  0
 32 33  1  0
 33 34  1  0
 34 35  1  0
 35 36  1  0
 36 37  1  0
 37 38  1  0
 38 39  1  0
 39 40  1  0
 40 41  1  0
 41 42  1  0
 42 43  1  0
 43 44  1  0
 44 45  1  0
 45 46  1  0
 46 47  1  0
 47 48  1  0
 48 49  1  0
 49 50  1  0
 50 51  1  0
 51 52  1  0
 52 53  1  0
 53 54  1  0
 54 55  1  0
 55 56  1  0
 56 57  1  0
 57 58  1  0
 58 59  1  0
 59 60  1  0
 60 61  1  0
 61 62  1  0
 62 63  1  0
 63 64  1  0
 64 65  1  0
 65 66  1  0
 66 67  1  0
 67 68  1  0
 68 69  1  0
 69 70  1  0
 70 71  1  0
 71 72  1  0
 72 73  1  0
 73 74  1  0
 74 75  1  0
 75 76  1  0
 76 77  1  0
 77 78  1  0
 78 79  1  0
 79 80  1  0
 80 81  1  0
 81 82  1  0
 82 83  1  0
 83 84  1  0
 84 85  1  0
 85 86  1  0
 86 87  1  0
 87 88  1  0
 88 89  1  0
 89 90  1  0
 90 91  1  0
 91 92  1  0
 92 93  1  0
 93 94  1  0
 94 95  1  0
 95 96  1  0
 96 97  1  0
 97 98  1  0
 98 99  1  0
 99100  1  0
100101  1  0
101102  1  0
102103  1  0
103104  1  0
104105  1  0
105106  1  0
106107  1  0
107108  1  0
108109  1  0
109110  1  0
110111  1  0
111112  1  0
112113  1  0
112114  1  0
114  2  1  0
M  END
>  <Title>  (663) 
idAAXOgen9

$$$$

     RDKit          2D

 82 82  0  0  0  0  0  0  0  0999 V2000
   20.8422    0.0000    0.0000 C   0  0  0  0  0  0  0  0  0  0  0  0
   19.3422    0.0000    0.0000 C   0  0  0  0  0  0  0  0  0  0  0  0
   19.2840    1.4989    0.0000 C   0  0  0  0  0  0  0  0  0  0  0  0
   19.1099    2.9887    0.0000 C   0  0  0  0  0  0  0  0  0  0  0  0
   18.8208    4.4606    0.0000 C   0  0  0  0  0  0  0  0  0  0  0  0
   18.4185    5.9057    0.0000 C   0  0  0  0  0  0  0  0  0  0  0  0
   17.9055    7.3152    0.0000 C   0  0  0  0  0  0  0  0  0  0  0  0
   17.2848    8.6808    0.0000 C   0  0  0  0  0  0  0  0  0  0  0  0
   16.5601    9.9941    0.0000 C   0  0  0  0  0  0  0  0  0  0  0  0
   15.7359   11.2473    0.0000 C   0  0  0  0  0  0  0  0  0  0  0  0
   14.8170   12.4329    0.0000 C   0  0  0  0  0  0  0  0  0  0  0  0
   13.8090   13.5437    0.0000 C   0  0  0  0  0  0  0  0  0  0  0  0
   12.7179   14.5731    0.0000 C   0  0  0  0  0  0  0  0  0  0  0  0
   11.5503   15.5148    0.0000 C   0  0  0  0  0  0  0  0  0  0  0  0
   10.3133   16.3632    0.0000 C   0  0  0  0  0  0  0  0  0  0  0  0
    9.0143   17.1132    0.0000 C   0  0  0  0  0  0  0  0  0  0  0  0
    7.6610   17.7603    0.0000 C   0  0  0  0  0  0  0  0  0  0  0  0
    6.2617   18.3006    0.0000 C   0  0  0  0  0  0  0  0  0  0  0  0
    4.8247   18.7308    0.0000 C   0  0  0  0  0  0  0  0  0  0  0  0
    3.3587   19.0483    0.0000 C   0  0  0  0  0  0  0  0  0  0  0  0
    1.8725   19.2513    0.0000 C   0  0  0  0  0  0  0  0  0  0  0  0
    0.3751   19.3385    0.0000 C   0  0  0  0  0  0  0  0  0  0  0  0
   -1.1246   19.3095    0.0000 C   0  0  0  0  0  0  0  0  0  0  0  0
   -2.6176   19.1642    0.0000 C   0  0  0  0  0  0  0  0  0  0  0  0
   -4.0948   18.9038    0.0000 C   0  0  0  0  0  0  0  0  0  0  0  0
   -5.5474   18.5296    0.0000 C   0  0  0  0  0  0  0  0  0  0  0  0
   -6.9666   18.0440    0.0000 C   0  0  0  0  0  0  0  0  0  0  0  0
   -8.3439   17.4499    0.0000 C   0  0  0  0  0  0  0  0  0  0  0  0
   -9.6711   16.7508    0.0000 C   0  0  0  0  0  0  0  0  0  0  0  0
  -10.9401   15.9510    0.0000 C   0  0  0  0  0  0  0  0  0  0  0  0
  -12.1433   15.0553    0.0000 C   0  0  0  0  0  0  0  0  0  0  0  0
  -13.2734   14.0690    0.0000 C   0  0  0  0  0  0  0  0  0  0  0  0
  -14.3237   12.9981    0.0000 C   0  0  0  0  0  0  0  0  0  0  0  0
  -15.2879   11.8490    0.0000 C   0  0  0  0  0  0  0  0  0  0  0  0
  -16.1602   10.6287    0.0000 C   0  0  0  0  0  0  0  0  0  0  0  0
  -16.9352    9.3444    0.0000 C   0  0  0  0  0  0  0  0  0  0  0  0
  -17.6084    8.0040    0.0000 C   0  0  0  0  0  0  0  0  0  0  0  0
  -18.1757    6.6154    0.0000 C   0  0  0  0  0  0  0  0  0  0  0  0
  -18.6337    5.1870    0.0000 C   0  0  0  0  0  0  0  0  0  0  0  0
  -18.9796    3.7275    0.0000 C   0  0  0  0  0  0  0  0  0  0  0  0
  -19.2114    2.2455    0.0000 C   0  0  0  0  0  0  0  0  0  0  0  0
  -19.3276    0.7500    0.0000 C   0  0  0  0  0  0  0  0  0  0  0  0
  -19.3276   -0.7500    0.0000 C   0  0  0  0  0  0  0  0  0  0  0  0
  -19.2114   -2.2455    0.0000 C   0  0  0  0  0  0  0  0  0  0  0  0
  -18.9796   -3.7275    0.0000 C   0  0  0  0  0  0  0  0  0  0  0  0
  -18.6337   -5.1870    0.0000 C   0  0  0  0  0  0  0  0  0  0  0  0
  -18.1757   -6.6154    0.0000 C   0  0  0  0  0  0  0  0  0  0  0  0
  -17.6084   -8.0040    0.0000 C   0  0  0  0  0  0  0  0  0  0  0  0
  -16.9352   -9.3444    0.0000 C   0  0  0  0  0  0  0  0  0  0  0  0
  -16.1602  -10.6287    0.0000 C   0  0  0  0  0  0  0  0  0  0  0  0
  -15.2879  -11.8490    0.0000 C   0  0  0  0  0  0  0  0  0  0  0  0
  -14.3237  -12.9981    0.0000 C   0  0  0  0  0  0  0  0  0  0  0  0
  -13.2734  -14.0690    0.0000 C   0  0  0  0  0  0  0  0  0  0  0  0
  -12.1433  -15.0553    0.0000 C   0  0  0  0  0  0  0  0  0  0  0  0
  -10.9401  -15.9510    0.0000 C   0  0  0  0  0  0  0  0  0  0  0  0
   -9.6711  -16.7508    0.0000 C   0  0  0  0  0  0  0  0  0  0  0  0
   -8.3439  -17.4499    0.0000 C   0  0  0  0  0  0  0  0  0  0  0  0
   -6.9666  -18.0440    0.0000 C   0  0  0  0  0  0  0  0  0  0  0  0
   -5.5474  -18.5296    0.0000 C   0  0  0  0  0  0  0  0  0  0  0  0
   -4.0948  -18.9038    0.0000 C   0  0  0  0  0  0  0  0  0  0  0  0
   -2.6176  -19.1642    0.0000 C   0  0  0  0  0  0  0  0  0  0  0  0
   -1.1246  -19.3095    0.0000 C   0  0  0  0  0  0  0  0  0  0  0  0
    0.3751  -19.3385    0.0000 C   0  0  0  0  0  0  0  0  0  0  0  0
    1.8725  -19.2513    0.0000 C   0  0  0  0  0  0  0  0  0  0  0  0
    3.3587  -19.0483    0.0000 C   0  0  0  0  0  0  0  0  0  0  0  0
    4.8247  -18.7308    0.0000 C   0  0  0  0  0  0  0  0  0  0  0  0
    6.2617  -18.3006    0.0000 C   0  0  0  0  0  0  0  0  0  0  0  0
    7.6610  -17.7603    0.0000 C   0  0  0  0  0  0  0  0  0  0  0  0
    9.0143  -17.1132    0.0000 C   0  0  0  0  0  0  0  0  0  0  0  0
   10.3133  -16.3632    0.0000 C   0  0  0  0  0  0  0  0  0  0  0  0
   11.5503  -15.5148    0.0000 C   0  0  0  0  0  0  0  0  0  0  0  0
   12.7179  -14.5731    0.0000 C   0  0  0  0  0  0  0  0  0  0  0  0
   13.8090  -13.5437    0.0000 C   0  0  0  0  0  0  0  0  0  0  0  0
   14.8170  -12.4329    0.0000 C   0  0  0  0  0  0  0  0  0  0  0  0
   15.7359  -11.2473    0.0000 C   0  0  0  0  0  0  0  0  0  0  0  0
   16.5601   -9.9941    0.0000 C   0  0  0  0  0  0  0  0  0  0  0  0
   17.2848   -8.6808    0.0000 C   0  0  0  0  0  0  0  0  0  0  0  0
   17.9055   -7.3152    0.0000 C   0  0  0  0  0  0  0  0  0  0  0  0
   18.4185   -5.9057    0.0000 C   0  0  0  0  0  0  0  0  0  0  0  0
   18.8208   -4.4606    0.0000 C   0  0  0  0  0  0  0  0  0  0  0  0
   19.1099   -2.9887    0.0000 C   0  0  0  0  0  0  0  0  0  0  0  0
   19.2840   -1.4989    0.0000 C   0  0  0  0  0  0  0  0  0  0  0  0
  1  2  1  0
  2  3  1  0
  3  4  1  0
  4  5  1  0
  5  6  1  0
  6  7  1  0
  7  8  1  0
  8  9  1  0
  9 10  1  0
 10 11  1  0
 11 12  1  0
 12 13  1  0
 13 14  1  0
 14 15  1  0
 15 16  1  0
 16 17  1  0
 17 18  1  0
 18 19  1  0
 19 20  1  0
 20 21  1  0
 21 22  1  0
 22 23  1  0
 23 24  1  0
 24 25  1  0
 25 26  1  0
 26 27  1  0
 27 28  1  0
 28 29  1  0
 29 30  1  0
 30 31  1  0
 31 32  1  0
 32 33  1  0
 33 34  1  0
 34 35  1  0
 35 36  1  0
 36 37  1  0
 37 38  1  0
 38 39  1  0
 39 40  1  0
 40 41  1  0
 41 42  1  0
 42 43  1  0
 43 44  1  0
 44 45  1  0
 45 46  1  0
 46 47  1  0
 47 48  1  0
 48 49  1  0
 49 50  1  0
 50 51  1  0
 51 52  1  0
 52 53  1  0
 53 54  1  0
 54 55  1  0
 55 56  1  0
 56 57  1  0
 57 58  1  0
 58 59  1  0
 59 60  1  0
 60 61  1  0
 61 62  1  0
 62 63  1  0
 63 64  1  0
 64 65  1  0
 65 66  1  0
 66 67  1  0
 67 68  1  0
 68 69  1  0
 69 70  1  0
 70 71  1  0
 71 72  1  0
 72 73  1  0
 73 74  1  0
 74 75  1  0
 75 76  1  0
 76 77  1  0
 77 78  1  0
 78 79  1  0
 79 80  1  0
 80 81  1  0
 81 82  1  0
 82  2  1  0
M  END
>  <Title>  (664) 
idAAXPgen9

$$$$

     RDKit          2D

 11 11  0  0  0  0  0  0  0  0999 V2000
    8.0260   -1.2990    0.0000 C   0  0  0  0  0  0  0  0  0  0  0  0
    6.5260   -1.2990    0.0000 C   0  0  0  0  0  0  0  0  0  0  0  0
    5.0260   -1.2990    0.0000 C   0  0  0  0  0  0  0  0  0  0  0  0
    3.5260   -1.2990    0.0000 C   0  0  0  0  0  0  0  0  0  0  0  0
    2.7760   -2.5981    0.0000 O   0  0  0  0  0  0  0  0  0  0  0  0
    2.7760    0.0000    0.0000 N   0  0  0  0  0  0  0  0  0  0  0  0
    1.2760    0.0000    0.0000 C   0  0  0  0  0  0  0  0  0  0  0  0
    0.3943    1.2135    0.0000 C   0  0  0  0  0  0  0  0  0  0  0  0
   -1.0323    0.7500    0.0000 C   0  0  0  0  0  0  0  0  0  0  0  0
   -1.0323   -0.7500    0.0000 C   0  0  0  0  0  0  0  0  0  0  0  0
    0.3943   -1.2135    0.0000 C   0  0  0  0  0  0  0  0  0  0  0  0
  1  2  1  0
  2  3  3  0
  3  4  1  0
  4  5  2  0
  4  6  1  0
  6  7  1  0
  7  8  2  0
  8  9  1  0
  9 10  2  0
 10 11  1  0
 11  7  1  0
M  END
>  <Title>  (665) 
idAAXQgen9

$$$$

     RDKit          2D

  9  9  0  0  0  0  0  0  0  0999 V2000
    4.7286   -0.0000    0.0000 C   0  0  0  0  0  0  0  0  0  0  0  0
    3.2286   -0.0000    0.0000 C   0  0  0  0  0  0  0  0  0  0  0  0
    1.7286    0.0000    0.0000 C   0  0  0  0  0  0  0  0  0  0  0  0
    1.0777    1.3515    0.0000 C   0  0  0  0  0  0  0  0  0  0  0  0
   -0.3846    1.6852    0.0000 C   0  0  0  0  0  0  0  0  0  0  0  0
   -1.5574    0.7500    0.0000 C   0  0  0  0  0  0  0  0  0  0  0  0
   -1.5574   -0.7500    0.0000 C   0  0  0  0  0  0  0  0  0  0  0  0
   -0.3846   -1.6852    0.0000 C   0  0  0  0  0  0  0  0  0  0  0  0
    1.0777   -1.3515    0.0000 C   0  0  0  0  0  0  0  0  0  0  0  0
  1  2  3  0
  2  3  1  0
  3  4  2  0
  4  5  1  0
  5  6  1  0
  6  7  1  0
  7  8  1  0
  8  9  1  0
  9  3  1  0
M  END
>  <Title>  (666) 
idAAXRgen9

$$$$

     RDKit          2D

 96 96  0  0  0  0  0  0  0  0999 V2000
   24.1837    0.0000    0.0000 C   0  0  0  0  0  0  0  0  0  0  0  0
   22.6837    0.0000    0.0000 C   0  0  0  0  0  0  0  0  0  0  0  0
   22.6341    1.4992    0.0000 C   0  0  0  0  0  0  0  0  0  0  0  0
   22.4856    2.9918    0.0000 C   0  0  0  0  0  0  0  0  0  0  0  0
   22.2387    4.4713    0.0000 C   0  0  0  0  0  0  0  0  0  0  0  0
   21.8945    5.9313    0.0000 C   0  0  0  0  0  0  0  0  0  0  0  0
   21.4546    7.3654    0.0000 C   0  0  0  0  0  0  0  0  0  0  0  0
   20.9210    8.7672    0.0000 C   0  0  0  0  0  0  0  0  0  0  0  0
   20.2958   10.1307    0.0000 C   0  0  0  0  0  0  0  0  0  0  0  0
   19.5819   11.4500    0.0000 C   0  0  0  0  0  0  0  0  0  0  0  0
   18.7823   12.7191    0.0000 C   0  0  0  0  0  0  0  0  0  0  0  0
   17.9006   13.9326    0.0000 C   0  0  0  0  0  0  0  0  0  0  0  0
   16.9407   15.0852    0.0000 C   0  0  0  0  0  0  0  0  0  0  0  0
   15.9067   16.1719    0.0000 C   0  0  0  0  0  0  0  0  0  0  0  0
   14.8031   17.1878    0.0000 C   0  0  0  0  0  0  0  0  0  0  0  0
   13.6348   18.1286    0.0000 C   0  0  0  0  0  0  0  0  0  0  0  0
   12.4068   18.9900    0.0000 C   0  0  0  0  0  0  0  0  0  0  0  0
   11.1246   19.7685    0.0000 C   0  0  0  0  0  0  0  0  0  0  0  0
    9.7938   20.4605    0.0000 C   0  0  0  0  0  0  0  0  0  0  0  0
    8.4201   21.0631    0.0000 C   0  0  0  0  0  0  0  0  0  0  0  0
    7.0097   21.5735    0.0000 C   0  0  0  0  0  0  0  0  0  0  0  0
    5.5685   21.9896    0.0000 C   0  0  0  0  0  0  0  0  0  0  0  0
    4.1030   22.3095    0.0000 C   0  0  0  0  0  0  0  0  0  0  0  0
    2.6196   22.5319    0.0000 C   0  0  0  0  0  0  0  0  0  0  0  0
    1.1247   22.6558    0.0000 C   0  0  0  0  0  0  0  0  0  0  0  0
   -0.3751   22.6806    0.0000 C   0  0  0  0  0  0  0  0  0  0  0  0
   -1.8732   22.6062    0.0000 C   0  0  0  0  0  0  0  0  0  0  0  0
   -3.3632   22.4330    0.0000 C   0  0  0  0  0  0  0  0  0  0  0  0
   -4.8384   22.1617    0.0000 C   0  0  0  0  0  0  0  0  0  0  0  0
   -6.2925   21.7935    0.0000 C   0  0  0  0  0  0  0  0  0  0  0  0
   -7.7191   21.3299    0.0000 C   0  0  0  0  0  0  0  0  0  0  0  0
   -9.1119   20.7731    0.0000 C   0  0  0  0  0  0  0  0  0  0  0  0
  -10.4649   20.1255    0.0000 C   0  0  0  0  0  0  0  0  0  0  0  0
  -11.7722   19.3899    0.0000 C   0  0  0  0  0  0  0  0  0  0  0  0
  -13.0279   18.5695    0.0000 C   0  0  0  0  0  0  0  0  0  0  0  0
  -14.2267   17.6678    0.0000 C   0  0  0  0  0  0  0  0  0  0  0  0
  -15.3633   16.6890    0.0000 C   0  0  0  0  0  0  0  0  0  0  0  0
  -16.4327   15.6371    0.0000 C   0  0  0  0  0  0  0  0  0  0  0  0
  -17.4302   14.5169    0.0000 C   0  0  0  0  0  0  0  0  0  0  0  0
  -18.3515   13.3332    0.0000 C   0  0  0  0  0  0  0  0  0  0  0  0
  -19.1926   12.0911    0.0000 C   0  0  0  0  0  0  0  0  0  0  0  0
  -19.9497   10.7963    0.0000 C   0  0  0  0  0  0  0  0  0  0  0  0
  -20.6196    9.4542    0.0000 C   0  0  0  0  0  0  0  0  0  0  0  0
  -21.1994    8.0707    0.0000 C   0  0  0  0  0  0  0  0  0  0  0  0
  -21.6864    6.6520    0.0000 C   0  0  0  0  0  0  0  0  0  0  0  0
  -22.0787    5.2042    0.0000 C   0  0  0  0  0  0  0  0  0  0  0  0
  -22.3743    3.7336    0.0000 C   0  0  0  0  0  0  0  0  0  0  0  0
  -22.5722    2.2467    0.0000 C   0  0  0  0  0  0  0  0  0  0  0  0
  -22.6713    0.7500    0.0000 C   0  0  0  0  0  0  0  0  0  0  0  0
  -22.6713   -0.7500    0.0000 C   0  0  0  0  0  0  0  0  0  0  0  0
  -22.5722   -2.2467    0.0000 C   0  0  0  0  0  0  0  0  0  0  0  0
  -22.3743   -3.7336    0.0000 C   0  0  0  0  0  0  0  0  0  0  0  0
  -22.0787   -5.2042    0.0000 C   0  0  0  0  0  0  0  0  0  0  0  0
  -21.6864   -6.6520    0.0000 C   0  0  0  0  0  0  0  0  0  0  0  0
  -21.1994   -8.0707    0.0000 C   0  0  0  0  0  0  0  0  0  0  0  0
  -20.6196   -9.4542    0.0000 C   0  0  0  0  0  0  0  0  0  0  0  0
  -19.9497  -10.7963    0.0000 C   0  0  0  0  0  0  0  0  0  0  0  0
  -19.1926  -12.0911    0.0000 C   0  0  0  0  0  0  0  0  0  0  0  0
  -18.3515  -13.3332    0.0000 C   0  0  0  0  0  0  0  0  0  0  0  0
  -17.4302  -14.5169    0.0000 C   0  0  0  0  0  0  0  0  0  0  0  0
  -16.4327  -15.6371    0.0000 C   0  0  0  0  0  0  0  0  0  0  0  0
  -15.3633  -16.6890    0.0000 C   0  0  0  0  0  0  0  0  0  0  0  0
  -14.2267  -17.6678    0.0000 C   0  0  0  0  0  0  0  0  0  0  0  0
  -13.0279  -18.5695    0.0000 C   0  0  0  0  0  0  0  0  0  0  0  0
  -11.7722  -19.3899    0.0000 C   0  0  0  0  0  0  0  0  0  0  0  0
  -10.4649  -20.1255    0.0000 C   0  0  0  0  0  0  0  0  0  0  0  0
   -9.1119  -20.7731    0.0000 C   0  0  0  0  0  0  0  0  0  0  0  0
   -7.7191  -21.3299    0.0000 C   0  0  0  0  0  0  0  0  0  0  0  0
   -6.2925  -21.7935    0.0000 C   0  0  0  0  0  0  0  0  0  0  0  0
   -4.8384  -22.1617    0.0000 C   0  0  0  0  0  0  0  0  0  0  0  0
   -3.3632  -22.4330    0.0000 C   0  0  0  0  0  0  0  0  0  0  0  0
   -1.8732  -22.6062    0.0000 C   0  0  0  0  0  0  0  0  0  0  0  0
   -0.3751  -22.6806    0.0000 C   0  0  0  0  0  0  0  0  0  0  0  0
    1.1247  -22.6558    0.0000 C   0  0  0  0  0  0  0  0  0  0  0  0
    2.6196  -22.5319    0.0000 C   0  0  0  0  0  0  0  0  0  0  0  0
    4.1030  -22.3095    0.0000 C   0  0  0  0  0  0  0  0  0  0  0  0
    5.5685  -21.9896    0.0000 C   0  0  0  0  0  0  0  0  0  0  0  0
    7.0097  -21.5735    0.0000 C   0  0  0  0  0  0  0  0  0  0  0  0
    8.4201  -21.0631    0.0000 C   0  0  0  0  0  0  0  0  0  0  0  0
    9.7938  -20.4605    0.0000 C   0  0  0  0  0  0  0  0  0  0  0  0
   11.1246  -19.7685    0.0000 C   0  0  0  0  0  0  0  0  0  0  0  0
   12.4068  -18.9900    0.0000 C   0  0  0  0  0  0  0  0  0  0  0  0
   13.6348  -18.1286    0.0000 C   0  0  0  0  0  0  0  0  0  0  0  0
   14.8031  -17.1878    0.0000 C   0  0  0  0  0  0  0  0  0  0  0  0
   15.9067  -16.1719    0.0000 C   0  0  0  0  0  0  0  0  0  0  0  0
   16.9407  -15.0852    0.0000 C   0  0  0  0  0  0  0  0  0  0  0  0
   17.9006  -13.9326    0.0000 C   0  0  0  0  0  0  0  0  0  0  0  0
   18.7823  -12.7191    0.0000 C   0  0  0  0  0  0  0  0  0  0  0  0
   19.5819  -11.4500    0.0000 C   0  0  0  0  0  0  0  0  0  0  0  0
   20.2958  -10.1307    0.0000 C   0  0  0  0  0  0  0  0  0  0  0  0
   20.9210   -8.7672    0.0000 C   0  0  0  0  0  0  0  0  0  0  0  0
   21.4546   -7.3654    0.0000 C   0  0  0  0  0  0  0  0  0  0  0  0
   21.8945   -5.9313    0.0000 C   0  0  0  0  0  0  0  0  0  0  0  0
   22.2387   -4.4713    0.0000 C   0  0  0  0  0  0  0  0  0  0  0  0
   22.4856   -2.9918    0.0000 C   0  0  0  0  0  0  0  0  0  0  0  0
   22.6341   -1.4992    0.0000 C   0  0  0  0  0  0  0  0  0  0  0  0
  1  2  1  0
  2  3  1  0
  3  4  1  0
  4  5  1  0
  5  6  1  0
  6  7  1  0
  7  8  1  0
  8  9  1  0
  9 10  1  0
 10 11  1  0
 11 12  1  0
 12 13  1  0
 13 14  1  0
 14 15  1  0
 15 16  1  0
 16 17  1  0
 17 18  1  0
 18 19  1  0
 19 20  1  0
 20 21  1  0
 21 22  1  0
 22 23  1  0
 23 24  1  0
 24 25  1  0
 25 26  1  0
 26 27  1  0
 27 28  1  0
 28 29  1  0
 29 30  1  0
 30 31  1  0
 31 32  1  0
 32 33  1  0
 33 34  1  0
 34 35  1  0
 35 36  1  0
 36 37  1  0
 37 38  1  0
 38 39  1  0
 39 40  1  0
 40 41  1  0
 41 42  1  0
 42 43  1  0
 43 44  1  0
 44 45  1  0
 45 46  1  0
 46 47  1  0
 47 48  1  0
 48 49  1  0
 49 50  1  0
 50 51  1  0
 51 52  1  0
 52 53  1  0
 53 54  1  0
 54 55  1  0
 55 56  1  0
 56 57  1  0
 57 58  1  0
 58 59  1  0
 59 60  1  0
 60 61  1  0
 61 62  1  0
 62 63  1  0
 63 64  1  0
 64 65  1  0
 65 66  1  0
 66 67  1  0
 67 68  1  0
 68 69  1  0
 69 70  1  0
 70 71  1  0
 71 72  1  0
 72 73  1  0
 73 74  1  0
 74 75  1  0
 75 76  1  0
 76 77  1  0
 77 78  1  0
 78 79  1  0
 79 80  1  0
 80 81  1  0
 81 82  1  0
 82 83  1  0
 83 84  1  0
 84 85  1  0
 85 86  1  0
 86 87  1  0
 87 88  1  0
 88 89  1  0
 89 90  1  0
 90 91  1  0
 91 92  1  0
 92 93  1  0
 93 94  1  0
 94 95  1  0
 95 96  1  0
 96  2  1  0
M  END
>  <Title>  (667) 
idAAXSgen9

$$$$

     RDKit          2D

 49 56  0  0  0  0  0  0  0  0999 V2000
    2.1535   -8.4451    0.0000 C   0  0  0  0  0  0  0  0  0  0  0  0
    1.4564   -7.1169    0.0000 C   0  0  0  0  0  0  0  0  0  0  0  0
    2.5792   -6.1222    0.0000 C   0  0  0  0  0  0  0  0  0  0  0  0
    3.1111   -4.7197    0.0000 C   0  0  0  0  0  0  0  0  0  0  0  0
    4.6001   -4.9005    0.0000 C   0  0  0  0  0  0  0  0  0  0  0  0
    5.5013   -3.7013    0.0000 O   0  0  0  0  0  0  0  0  0  0  0  0
    5.1881   -6.2804    0.0000 N   0  0  0  0  0  0  0  0  0  0  0  0
    6.6772   -6.4612    0.0000 C   0  0  0  0  0  0  0  0  0  0  0  0
    7.2651   -7.8412    0.0000 N   0  0  0  0  0  0  0  0  0  0  0  0
    8.7542   -8.0220    0.0000 N   0  0  0  0  0  0  0  0  0  0  0  0
    9.6553   -6.8229    0.0000 N   0  0  0  0  0  0  0  0  0  0  0  0
    9.0673   -5.4429    0.0000 N   0  0  0  0  0  0  0  0  0  0  0  0
    7.5783   -5.2621    0.0000 N   0  0  0  0  0  0  0  0  0  0  0  0
    2.9303   -3.2306    0.0000 C   0  0  0  0  0  0  0  0  0  0  0  0
    4.4254   -3.1099    0.0000 C   0  0  0  0  0  0  0  0  0  0  0  0
    5.0685   -1.7547    0.0000 C   0  0  0  0  0  0  0  0  0  0  0  0
    4.2164   -0.5202    0.0000 C   0  0  0  0  0  0  0  0  0  0  0  0
    4.8594    0.8349    0.0000 C   0  0  0  0  0  0  0  0  0  0  0  0
    6.3545    0.9556    0.0000 C   0  0  0  0  0  0  0  0  0  0  0  0
    6.9976    2.3108    0.0000 C   0  0  0  0  0  0  0  0  0  0  0  0
    6.1455    3.5453    0.0000 C   0  0  0  0  0  0  0  0  0  0  0  0
    4.6503    3.4246    0.0000 C   0  0  0  0  0  0  0  0  0  0  0  0
    4.0073    2.0694    0.0000 C   0  0  0  0  0  0  0  0  0  0  0  0
    2.7212   -0.6409    0.0000 C   0  0  0  0  0  0  0  0  0  0  0  0
    2.0782   -1.9961    0.0000 C   0  0  0  0  0  0  0  0  0  0  0  0
    0.7500   -1.2990    0.0000 C   0  0  0  0  0  0  0  0  0  0  0  0
    1.5000    0.0000    0.0000 C   0  0  0  0  0  0  0  0  0  0  0  0
    0.7500    1.2990    0.0000 C   0  0  0  0  0  0  0  0  0  0  0  0
   -0.7500    1.2990    0.0000 C   0  0  0  0  0  0  0  0  0  0  0  0
   -1.5000    0.0000    0.0000 C   0  0  0  0  0  0  0  0  0  0  0  0
   -0.7500   -1.2990    0.0000 C   0  0  0  0  0  0  0  0  0  0  0  0
   -2.0782   -1.9961    0.0000 C   0  0  0  0  0  0  0  0  0  0  0  0
   -2.7212   -0.6409    0.0000 C   0  0  0  0  0  0  0  0  0  0  0  0
   -4.2164   -0.5202    0.0000 C   0  0  0  0  0  0  0  0  0  0  0  0
   -5.0685   -1.7547    0.0000 C   0  0  0  0  0  0  0  0  0  0  0  0
   -4.4254   -3.1099    0.0000 C   0  0  0  0  0  0  0  0  0  0  0  0
   -2.9303   -3.2306    0.0000 C   0  0  0  0  0  0  0  0  0  0  0  0
   -3.1111   -4.7197    0.0000 C   0  0  0  0  0  0  0  0  0  0  0  0
   -4.5917   -4.4790    0.0000 C   0  0  0  0  0  0  0  0  0  0  0  0
   -5.5403   -5.6410    0.0000 C   0  0  0  0  0  0  0  0  0  0  0  0
   -5.0084   -7.0435    0.0000 C   0  0  0  0  0  0  0  0  0  0  0  0
   -3.5278   -7.2841    0.0000 C   0  0  0  0  0  0  0  0  0  0  0  0
   -2.5792   -6.1222    0.0000 C   0  0  0  0  0  0  0  0  0  0  0  0
   -1.4564   -7.1169    0.0000 C   0  0  0  0  0  0  0  0  0  0  0  0
   -2.4955   -8.1987    0.0000 C   0  0  0  0  0  0  0  0  0  0  0  0
   -2.0782   -9.6395    0.0000 C   0  0  0  0  0  0  0  0  0  0  0  0
   -0.6218   -9.9984    0.0000 C   0  0  0  0  0  0  0  0  0  0  0  0
    0.4173   -8.9166    0.0000 C   0  0  0  0  0  0  0  0  0  0  0  0
   -0.0000   -7.4758    0.0000 C   0  0  0  0  0  0  0  0  0  0  0  0
  1  2  1  0
  2  3  2  0
  3  4  1  0
  4  5  1  0
  5  6  2  0
  5  7  1  0
  7  8  1  0
  8  9  2  0
  9 10  1  0
 10 11  2  0
 11 12  1  0
 12 13  2  0
  4 14  1  0
 14 15  2  0
 15 16  1  0
 16 17  2  0
 17 18  1  0
 18 19  2  0
 19 20  1  0
 20 21  2  0
 21 22  1  0
 22 23  2  0
 17 24  1  0
 24 25  2  0
 25 26  1  0
 26 27  2  0
 27 28  1  0
 28 29  2  0
 29 30  1  0
 30 31  2  0
 31 32  1  0
 32 33  2  0
 33 34  1  0
 34 35  2  0
 35 36  1  0
 36 37  2  0
 37 38  1  0
 38 39  2  0
 39 40  1  0
 40 41  2  0
 41 42  1  0
 42 43  2  0
 43 44  1  0
 44 45  2  0
 45 46  1  0
 46 47  2  0
 47 48  1  0
 48 49  2  0
 49  2  1  0
 13  8  1  0
 25 14  1  0
 31 26  1  0
 37 32  1  0
 43 38  1  0
 49 44  1  0
 23 18  1  0
M  END
>  <Title>  (668) 
idAAXTgen9

$$$$

     RDKit          2D

  8  8  0  0  0  0  0  0  0  0999 V2000
    3.0000    0.0000    0.0000 C   0  0  0  0  0  0  0  0  0  0  0  0
    1.5000    0.0000    0.0000 C   0  0  0  0  0  0  0  0  0  0  0  0
    0.7500   -1.2990    0.0000 C   0  0  0  0  0  0  0  0  0  0  0  0
   -0.7500   -1.2990    0.0000 C   0  0  0  0  0  0  0  0  0  0  0  0
   -1.5000    0.0000    0.0000 C   0  0  0  0  0  0  0  0  0  0  0  0
   -3.0000    0.0000    0.0000 O   0  0  0  0  0  0  0  0  0  0  0  0
   -0.7500    1.2990    0.0000 C   0  0  0  0  0  0  0  0  0  0  0  0
    0.7500    1.2990    0.0000 C   0  0  0  0  0  0  0  0  0  0  0  0
  1  2  1  0
  2  3  1  0
  3  4  1  0
  4  5  1  0
  5  6  1  0
  5  7  1  0
  7  8  1  0
  8  2  1  0
M  END
>  <Title>  (669) 
idAAXUgen9

$$$$

     RDKit          2D

 21 21  0  0  0  0  0  0  0  0999 V2000
   19.5000    0.0000    0.0000 C   0  0  0  0  0  0  0  0  0  0  0  0
   18.0000    0.0000    0.0000 C   0  0  0  0  0  0  0  0  0  0  0  0
   16.5000    0.0000    0.0000 C   0  0  0  0  0  0  0  0  0  0  0  0
   15.0000    0.0000    0.0000 C   0  0  0  0  0  0  0  0  0  0  0  0
   13.5000    0.0000    0.0000 C   0  0  0  0  0  0  0  0  0  0  0  0
   12.0000    0.0000    0.0000 C   0  0  0  0  0  0  0  0  0  0  0  0
   10.5000    0.0000    0.0000 C   0  0  0  0  0  0  0  0  0  0  0  0
    9.0000    0.0000    0.0000 C   0  0  0  0  0  0  0  0  0  0  0  0
    7.5000    0.0000    0.0000 C   0  0  0  0  0  0  0  0  0  0  0  0
    6.0000    0.0000    0.0000 C   0  0  0  0  0  0  0  0  0  0  0  0
    4.5000    0.0000    0.0000 C   0  0  0  0  0  0  0  0  0  0  0  0
    3.0000    0.0000    0.0000 C   0  0  0  0  0  0  0  0  0  0  0  0
    1.5000    0.0000    0.0000 C   0  0  0  0  0  0  0  0  0  0  0  0
    0.7500   -1.2990    0.0000 C   0  0  0  0  0  0  0  0  0  0  0  0
   -0.7500   -1.2990    0.0000 C   0  0  0  0  0  0  0  0  0  0  0  0
   -1.5000    0.0000    0.0000 C   0  0  0  0  0  0  0  0  0  0  0  0
   -3.0000    0.0000    0.0000 C   0  0  0  0  0  0  0  0  0  0  0  0
   -4.5000    0.0000    0.0000 N   0  0  0  0  0  0  0  0  0  0  0  0
   -0.7500    1.2990    0.0000 C   0  0  0  0  0  0  0  0  0  0  0  0
    0.7500    1.2990    0.0000 C   0  0  0  0  0  0  0  0  0  0  0  0
    1.5000    2.5981    0.0000 O   0  0  0  0  0  0  0  0  0  0  0  0
  1  2  3  0
  2  3  1  0
  3  4  3  0
  4  5  1  0
  5  6  3  0
  6  7  1  0
  7  8  3  0
  8  9  1  0
  9 10  3  0
 10 11  1  0
 11 12  3  0
 12 13  1  0
 13 14  2  0
 14 15  1  0
 15 16  2  0
 16 17  1  0
 17 18  3  0
 16 19  1  0
 19 20  2  0
 20 21  1  0
 20 13  1  0
M  END
>  <Title>  (670) 
idAAXVgen9

$$$$

     RDKit          2D

  8  8  0  0  0  0  0  0  0  0999 V2000
    2.5607   -2.5981    0.0000 O   0  0  0  0  0  0  0  0  0  0  0  0
    3.3107   -1.2990    0.0000 C   0  0  0  0  0  0  0  0  0  0  0  0
    4.8107   -1.2990    0.0000 O   0  0  0  0  0  0  0  0  0  0  0  0
    2.5607    0.0000    0.0000 O   0  0  0  0  0  0  0  0  0  0  0  0
    1.0607    0.0000    0.0000 C   0  0  0  0  0  0  0  0  0  0  0  0
   -0.0000   -1.0607    0.0000 C   0  0  0  0  0  0  0  0  0  0  0  0
   -1.0607    0.0000    0.0000 C   0  0  0  0  0  0  0  0  0  0  0  0
    0.0000    1.0607    0.0000 C   0  0  0  0  0  0  0  0  0  0  0  0
  1  2  2  0
  2  3  1  0
  2  4  1  0
  4  5  1  0
  5  6  1  0
  6  7  2  0
  7  8  1  0
  8  5  1  0
M  END
>  <Title>  (671) 
idAAXWgen9

$$$$

     RDKit          2D

 20 20  0  0  0  0  0  0  0  0999 V2000
   22.5000    0.0000    0.0000 C   0  0  0  0  0  0  0  0  0  0  0  0
   21.0000    0.0000    0.0000 C   0  0  0  0  0  0  0  0  0  0  0  0
   19.5000    0.0000    0.0000 C   0  0  0  0  0  0  0  0  0  0  0  0
   18.0000    0.0000    0.0000 C   0  0  0  0  0  0  0  0  0  0  0  0
   16.5000    0.0000    0.0000 C   0  0  0  0  0  0  0  0  0  0  0  0
   15.0000    0.0000    0.0000 C   0  0  0  0  0  0  0  0  0  0  0  0
   13.5000    0.0000    0.0000 C   0  0  0  0  0  0  0  0  0  0  0  0
   12.0000    0.0000    0.0000 C   0  0  0  0  0  0  0  0  0  0  0  0
   10.5000    0.0000    0.0000 C   0  0  0  0  0  0  0  0  0  0  0  0
    9.0000    0.0000    0.0000 C   0  0  0  0  0  0  0  0  0  0  0  0
    7.5000    0.0000    0.0000 C   0  0  0  0  0  0  0  0  0  0  0  0
    6.0000    0.0000    0.0000 C   0  0  0  0  0  0  0  0  0  0  0  0
    4.5000    0.0000    0.0000 C   0  0  0  0  0  0  0  0  0  0  0  0
    3.0000    0.0000    0.0000 C   0  0  0  0  0  0  0  0  0  0  0  0
    1.5000    0.0000    0.0000 C   0  0  0  0  0  0  0  0  0  0  0  0
    0.7500   -1.2990    0.0000 C   0  0  0  0  0  0  0  0  0  0  0  0
   -0.7500   -1.2990    0.0000 C   0  0  0  0  0  0  0  0  0  0  0  0
   -1.5000    0.0000    0.0000 C   0  0  0  0  0  0  0  0  0  0  0  0
   -0.7500    1.2990    0.0000 C   0  0  0  0  0  0  0  0  0  0  0  0
    0.7500    1.2990    0.0000 C   0  0  0  0  0  0  0  0  0  0  0  0
  1  2  3  0
  2  3  1  0
  3  4  3  0
  4  5  1  0
  5  6  3  0
  6  7  1  0
  7  8  3  0
  8  9  1  0
  9 10  3  0
 10 11  1  0
 11 12  3  0
 12 13  1  0
 13 14  3  0
 14 15  1  0
 15 16  2  0
 16 17  1  0
 17 18  2  0
 18 19  1  0
 19 20  2  0
 20 15  1  0
M  END
>  <Title>  (672) 
idAAXXgen9

$$$$

     RDKit          2D

118118  0  0  0  0  0  0  0  0999 V2000
   29.4350    0.0000    0.0000 C   0  0  0  0  0  0  0  0  0  0  0  0
   27.9350    0.0000    0.0000 C   0  0  0  0  0  0  0  0  0  0  0  0
   27.8948    1.4995    0.0000 C   0  0  0  0  0  0  0  0  0  0  0  0
   27.7741    2.9946    0.0000 C   0  0  0  0  0  0  0  0  0  0  0  0
   27.5733    4.4811    0.0000 C   0  0  0  0  0  0  0  0  0  0  0  0
   27.2930    5.9547    0.0000 C   0  0  0  0  0  0  0  0  0  0  0  0
   26.9340    7.4111    0.0000 C   0  0  0  0  0  0  0  0  0  0  0  0
   26.4974    8.8461    0.0000 C   0  0  0  0  0  0  0  0  0  0  0  0
   25.9844   10.2557    0.0000 C   0  0  0  0  0  0  0  0  0  0  0  0
   25.3964   11.6356    0.0000 C   0  0  0  0  0  0  0  0  0  0  0  0
   24.7353   12.9821    0.0000 C   0  0  0  0  0  0  0  0  0  0  0  0
   24.0028   14.2911    0.0000 C   0  0  0  0  0  0  0  0  0  0  0  0
   23.2011   15.5588    0.0000 C   0  0  0  0  0  0  0  0  0  0  0  0
   22.3325   16.7818    0.0000 C   0  0  0  0  0  0  0  0  0  0  0  0
   21.3995   17.9563    0.0000 C   0  0  0  0  0  0  0  0  0  0  0  0
   20.4048   19.0791    0.0000 C   0  0  0  0  0  0  0  0  0  0  0  0
   19.3513   20.1468    0.0000 C   0  0  0  0  0  0  0  0  0  0  0  0
   18.2420   21.1565    0.0000 C   0  0  0  0  0  0  0  0  0  0  0  0
   17.0801   22.1052    0.0000 C   0  0  0  0  0  0  0  0  0  0  0  0
   15.8689   22.9901    0.0000 C   0  0  0  0  0  0  0  0  0  0  0  0
   14.6120   23.8087    0.0000 C   0  0  0  0  0  0  0  0  0  0  0  0
   13.3130   24.5587    0.0000 C   0  0  0  0  0  0  0  0  0  0  0  0
   11.9755   25.2379    0.0000 C   0  0  0  0  0  0  0  0  0  0  0  0
   10.6036   25.8444    0.0000 C   0  0  0  0  0  0  0  0  0  0  0  0
    9.2011   26.3763    0.0000 C   0  0  0  0  0  0  0  0  0  0  0  0
    7.7720   26.8321    0.0000 C   0  0  0  0  0  0  0  0  0  0  0  0
    6.3206   27.2106    0.0000 C   0  0  0  0  0  0  0  0  0  0  0  0
    4.8509   27.5107    0.0000 C   0  0  0  0  0  0  0  0  0  0  0  0
    3.3672   27.7314    0.0000 C   0  0  0  0  0  0  0  0  0  0  0  0
    1.8738   27.8721    0.0000 C   0  0  0  0  0  0  0  0  0  0  0  0
    0.3750   27.9325    0.0000 C   0  0  0  0  0  0  0  0  0  0  0  0
   -1.1248   27.9124    0.0000 C   0  0  0  0  0  0  0  0  0  0  0  0
   -2.6215   27.8118    0.0000 C   0  0  0  0  0  0  0  0  0  0  0  0
   -4.1105   27.6310    0.0000 C   0  0  0  0  0  0  0  0  0  0  0  0
   -5.5877   27.3705    0.0000 C   0  0  0  0  0  0  0  0  0  0  0  0
   -7.0488   27.0311    0.0000 C   0  0  0  0  0  0  0  0  0  0  0  0
   -8.4896   26.6138    0.0000 C   0  0  0  0  0  0  0  0  0  0  0  0
   -9.9059   26.1197    0.0000 C   0  0  0  0  0  0  0  0  0  0  0  0
  -11.2936   25.5504    0.0000 C   0  0  0  0  0  0  0  0  0  0  0  0
  -12.6488   24.9073    0.0000 C   0  0  0  0  0  0  0  0  0  0  0  0
  -13.9675   24.1925    0.0000 C   0  0  0  0  0  0  0  0  0  0  0  0
  -15.2460   23.4079    0.0000 C   0  0  0  0  0  0  0  0  0  0  0  0
  -16.4804   22.5558    0.0000 C   0  0  0  0  0  0  0  0  0  0  0  0
  -17.6674   21.6386    0.0000 C   0  0  0  0  0  0  0  0  0  0  0  0
  -18.8034   20.6591    0.0000 C   0  0  0  0  0  0  0  0  0  0  0  0
  -19.8852   19.6200    0.0000 C   0  0  0  0  0  0  0  0  0  0  0  0
  -20.9097   18.5244    0.0000 C   0  0  0  0  0  0  0  0  0  0  0  0
  -21.8739   17.3753    0.0000 C   0  0  0  0  0  0  0  0  0  0  0  0
  -22.7750   16.1761    0.0000 C   0  0  0  0  0  0  0  0  0  0  0  0
  -23.6104   14.9303    0.0000 C   0  0  0  0  0  0  0  0  0  0  0  0
  -24.3778   13.6415    0.0000 C   0  0  0  0  0  0  0  0  0  0  0  0
  -25.0749   12.3133    0.0000 C   0  0  0  0  0  0  0  0  0  0  0  0
  -25.6997   10.9496    0.0000 C   0  0  0  0  0  0  0  0  0  0  0  0
  -26.2504    9.5543    0.0000 C   0  0  0  0  0  0  0  0  0  0  0  0
  -26.7254    8.1315    0.0000 C   0  0  0  0  0  0  0  0  0  0  0  0
  -27.1233    6.6853    0.0000 C   0  0  0  0  0  0  0  0  0  0  0  0
  -27.4430    5.2198    0.0000 C   0  0  0  0  0  0  0  0  0  0  0  0
  -27.6837    3.7392    0.0000 C   0  0  0  0  0  0  0  0  0  0  0  0
  -27.8445    2.2478    0.0000 C   0  0  0  0  0  0  0  0  0  0  0  0
  -27.9250    0.7500    0.0000 C   0  0  0  0  0  0  0  0  0  0  0  0
  -27.9250   -0.7500    0.0000 C   0  0  0  0  0  0  0  0  0  0  0  0
  -27.8445   -2.2478    0.0000 C   0  0  0  0  0  0  0  0  0  0  0  0
  -27.6837   -3.7392    0.0000 C   0  0  0  0  0  0  0  0  0  0  0  0
  -27.4430   -5.2198    0.0000 C   0  0  0  0  0  0  0  0  0  0  0  0
  -27.1233   -6.6853    0.0000 C   0  0  0  0  0  0  0  0  0  0  0  0
  -26.7254   -8.1315    0.0000 C   0  0  0  0  0  0  0  0  0  0  0  0
  -26.2504   -9.5543    0.0000 C   0  0  0  0  0  0  0  0  0  0  0  0
  -25.6997  -10.9496    0.0000 C   0  0  0  0  0  0  0  0  0  0  0  0
  -25.0749  -12.3133    0.0000 C   0  0  0  0  0  0  0  0  0  0  0  0
  -24.3778  -13.6415    0.0000 C   0  0  0  0  0  0  0  0  0  0  0  0
  -23.6104  -14.9303    0.0000 C   0  0  0  0  0  0  0  0  0  0  0  0
  -22.7750  -16.1761    0.0000 C   0  0  0  0  0  0  0  0  0  0  0  0
  -21.8739  -17.3753    0.0000 C   0  0  0  0  0  0  0  0  0  0  0  0
  -20.9097  -18.5244    0.0000 C   0  0  0  0  0  0  0  0  0  0  0  0
  -19.8852  -19.6200    0.0000 C   0  0  0  0  0  0  0  0  0  0  0  0
  -18.8034  -20.6591    0.0000 C   0  0  0  0  0  0  0  0  0  0  0  0
  -17.6674  -21.6386    0.0000 C   0  0  0  0  0  0  0  0  0  0  0  0
  -16.4804  -22.5558    0.0000 C   0  0  0  0  0  0  0  0  0  0  0  0
  -15.2460  -23.4079    0.0000 C   0  0  0  0  0  0  0  0  0  0  0  0
  -13.9675  -24.1925    0.0000 C   0  0  0  0  0  0  0  0  0  0  0  0
  -12.6488  -24.9073    0.0000 C   0  0  0  0  0  0  0  0  0  0  0  0
  -11.2936  -25.5504    0.0000 C   0  0  0  0  0  0  0  0  0  0  0  0
   -9.9059  -26.1197    0.0000 C   0  0  0  0  0  0  0  0  0  0  0  0
   -8.4896  -26.6138    0.0000 C   0  0  0  0  0  0  0  0  0  0  0  0
   -7.0488  -27.0311    0.0000 C   0  0  0  0  0  0  0  0  0  0  0  0
   -5.5877  -27.3705    0.0000 C   0  0  0  0  0  0  0  0  0  0  0  0
   -4.1105  -27.6310    0.0000 C   0  0  0  0  0  0  0  0  0  0  0  0
   -2.6215  -27.8118    0.0000 C   0  0  0  0  0  0  0  0  0  0  0  0
   -1.1248  -27.9124    0.0000 C   0  0  0  0  0  0  0  0  0  0  0  0
    0.3750  -27.9325    0.0000 C   0  0  0  0  0  0  0  0  0  0  0  0
    1.8738  -27.8721    0.0000 C   0  0  0  0  0  0  0  0  0  0  0  0
    3.3672  -27.7314    0.0000 C   0  0  0  0  0  0  0  0  0  0  0  0
    4.8509  -27.5107    0.0000 C   0  0  0  0  0  0  0  0  0  0  0  0
    6.3206  -27.2106    0.0000 C   0  0  0  0  0  0  0  0  0  0  0  0
    7.7720  -26.8321    0.0000 C   0  0  0  0  0  0  0  0  0  0  0  0
    9.2011  -26.3763    0.0000 C   0  0  0  0  0  0  0  0  0  0  0  0
   10.6036  -25.8444    0.0000 C   0  0  0  0  0  0  0  0  0  0  0  0
   11.9755  -25.2379    0.0000 C   0  0  0  0  0  0  0  0  0  0  0  0
   13.3130  -24.5587    0.0000 C   0  0  0  0  0  0  0  0  0  0  0  0
   14.6120  -23.8087    0.0000 C   0  0  0  0  0  0  0  0  0  0  0  0
   15.8689  -22.9901    0.0000 C   0  0  0  0  0  0  0  0  0  0  0  0
   17.0801  -22.1052    0.0000 C   0  0  0  0  0  0  0  0  0  0  0  0
   18.2420  -21.1565    0.0000 C   0  0  0  0  0  0  0  0  0  0  0  0
   19.3513  -20.1468    0.0000 C   0  0  0  0  0  0  0  0  0  0  0  0
   20.4048  -19.0791    0.0000 C   0  0  0  0  0  0  0  0  0  0  0  0
   21.3995  -17.9563    0.0000 C   0  0  0  0  0  0  0  0  0  0  0  0
   22.3325  -16.7818    0.0000 C   0  0  0  0  0  0  0  0  0  0  0  0
   23.2011  -15.5588    0.0000 C   0  0  0  0  0  0  0  0  0  0  0  0
   24.0028  -14.2911    0.0000 C   0  0  0  0  0  0  0  0  0  0  0  0
   24.7353  -12.9821    0.0000 C   0  0  0  0  0  0  0  0  0  0  0  0
   25.3964  -11.6356    0.0000 C   0  0  0  0  0  0  0  0  0  0  0  0
   25.9844  -10.2557    0.0000 C   0  0  0  0  0  0  0  0  0  0  0  0
   26.4974   -8.8461    0.0000 C   0  0  0  0  0  0  0  0  0  0  0  0
   26.9340   -7.4111    0.0000 C   0  0  0  0  0  0  0  0  0  0  0  0
   27.2930   -5.9547    0.0000 C   0  0  0  0  0  0  0  0  0  0  0  0
   27.5733   -4.4811    0.0000 C   0  0  0  0  0  0  0  0  0  0  0  0
   27.7741   -2.9946    0.0000 C   0  0  0  0  0  0  0  0  0  0  0  0
   27.8948   -1.4995    0.0000 C   0  0  0  0  0  0  0  0  0  0  0  0
  1  2  1  0
  2  3  1  0
  3  4  1  0
  4  5  1  0
  5  6  1  0
  6  7  1  0
  7  8  1  0
  8  9  1  0
  9 10  1  0
 10 11  1  0
 11 12  1  0
 12 13  1  0
 13 14  1  0
 14 15  1  0
 15 16  1  0
 16 17  1  0
 17 18  1  0
 18 19  1  0
 19 20  1  0
 20 21  1  0
 21 22  1  0
 22 23  1  0
 23 24  1  0
 24 25  1  0
 25 26  1  0
 26 27  1  0
 27 28  1  0
 28 29  1  0
 29 30  1  0
 30 31  1  0
 31 32  1  0
 32 33  1  0
 33 34  1  0
 34 35  1  0
 35 36  1  0
 36 37  1  0
 37 38  1  0
 38 39  1  0
 39 40  1  0
 40 41  1  0
 41 42  1  0
 42 43  1  0
 43 44  1  0
 44 45  1  0
 45 46  1  0
 46 47  1  0
 47 48  1  0
 48 49  1  0
 49 50  1  0
 50 51  1  0
 51 52  1  0
 52 53  1  0
 53 54  1  0
 54 55  1  0
 55 56  1  0
 56 57  1  0
 57 58  1  0
 58 59  1  0
 59 60  1  0
 60 61  1  0
 61 62  1  0
 62 63  1  0
 63 64  1  0
 64 65  1  0
 65 66  1  0
 66 67  1  0
 67 68  1  0
 68 69  1  0
 69 70  1  0
 70 71  1  0
 71 72  1  0
 72 73  1  0
 73 74  1  0
 74 75  1  0
 75 76  1  0
 76 77  1  0
 77 78  1  0
 78 79  1  0
 79 80  1  0
 80 81  1  0
 81 82  1  0
 82 83  1  0
 83 84  1  0
 84 85  1  0
 85 86  1  0
 86 87  1  0
 87 88  1  0
 88 89  1  0
 89 90  1  0
 90 91  1  0
 91 92  1  0
 92 93  1  0
 93 94  1  0
 94 95  1  0
 95 96  1  0
 96 97  1  0
 97 98  1  0
 98 99  1  0
 99100  1  0
100101  1  0
101102  1  0
102103  1  0
103104  1  0
104105  1  0
105106  1  0
106107  1  0
107108  1  0
108109  1  0
109110  1  0
110111  1  0
111112  1  0
112113  1  0
113114  1  0
114115  1  0
115116  1  0
116117  1  0
117118  1  0
118  2  1  0
M  END
>  <Title>  (673) 
idAAXYgen9

$$$$

     RDKit          2D

 15 15  0  0  0  0  0  0  0  0999 V2000
   13.5000    0.0000    0.0000 C   0  0  0  0  0  0  0  0  0  0  0  0
   12.0000    0.0000    0.0000 C   0  0  0  0  0  0  0  0  0  0  0  0
   10.5000    0.0000    0.0000 C   0  0  0  0  0  0  0  0  0  0  0  0
    9.0000    0.0000    0.0000 C   0  0  0  0  0  0  0  0  0  0  0  0
    7.5000    0.0000    0.0000 C   0  0  0  0  0  0  0  0  0  0  0  0
    6.0000    0.0000    0.0000 C   0  0  0  0  0  0  0  0  0  0  0  0
    4.5000    0.0000    0.0000 C   0  0  0  0  0  0  0  0  0  0  0  0
    3.0000    0.0000    0.0000 C   0  0  0  0  0  0  0  0  0  0  0  0
    1.5000    0.0000    0.0000 C   0  0  0  0  0  0  0  0  0  0  0  0
    0.7500   -1.2990    0.0000 C   0  0  0  0  0  0  0  0  0  0  0  0
   -0.7500   -1.2990    0.0000 C   0  0  0  0  0  0  0  0  0  0  0  0
   -1.5000    0.0000    0.0000 C   0  0  0  0  0  0  0  0  0  0  0  0
   -0.7500    1.2990    0.0000 C   0  0  0  0  0  0  0  0  0  0  0  0
    0.7500    1.2990    0.0000 C   0  0  0  0  0  0  0  0  0  0  0  0
    1.5000    2.5981    0.0000 O   0  0  0  0  0  0  0  0  0  0  0  0
  1  2  3  0
  2  3  1  0
  3  4  3  0
  4  5  1  0
  5  6  3  0
  6  7  1  0
  7  8  3  0
  8  9  1  0
  9 10  2  0
 10 11  1  0
 11 12  2  0
 12 13  1  0
 13 14  2  0
 14 15  1  0
 14  9  1  0
M  END
>  <Title>  (674) 
idAAXZgen9

$$$$

     RDKit          2D

 17 18  0  0  0  0  0  0  0  0999 V2000
   -3.7943   -9.3394    0.0000 N   0  0  0  0  0  0  0  0  0  0  0  0
   -2.4240   -8.7293    0.0000 C   0  0  0  0  0  0  0  0  0  0  0  0
   -1.0537   -8.1192    0.0000 C   0  0  0  0  0  0  0  0  0  0  0  0
    0.2454   -8.8692    0.0000 C   0  0  0  0  0  0  0  0  0  0  0  0
    1.3601   -7.8655    0.0000 C   0  0  0  0  0  0  0  0  0  0  0  0
    0.7500   -6.4952    0.0000 C   0  0  0  0  0  0  0  0  0  0  0  0
    1.5000   -5.1962    0.0000 C   0  0  0  0  0  0  0  0  0  0  0  0
    3.0000   -5.1962    0.0000 O   0  0  0  0  0  0  0  0  0  0  0  0
    0.7500   -3.8971    0.0000 O   0  0  0  0  0  0  0  0  0  0  0  0
    1.5000   -2.5981    0.0000 C   0  0  0  0  0  0  0  0  0  0  0  0
    0.7500   -1.2990    0.0000 C   0  0  0  0  0  0  0  0  0  0  0  0
    1.5000    0.0000    0.0000 C   0  0  0  0  0  0  0  0  0  0  0  0
    0.7500    1.2990    0.0000 C   0  0  0  0  0  0  0  0  0  0  0  0
   -0.7500    1.2990    0.0000 C   0  0  0  0  0  0  0  0  0  0  0  0
   -1.5000    0.0000    0.0000 C   0  0  0  0  0  0  0  0  0  0  0  0
   -0.7500   -1.2990    0.0000 C   0  0  0  0  0  0  0  0  0  0  0  0
   -0.7418   -6.6520    0.0000 C   0  0  0  0  0  0  0  0  0  0  0  0
  1  2  3  0
  2  3  1  0
  3  4  2  0
  4  5  1  0
  5  6  2  0
  6  7  1  0
  7  8  2  0
  7  9  1  0
  9 10  1  0
 10 11  1  0
 11 12  2  0
 12 13  1  0
 13 14  2  0
 14 15  1  0
 15 16  2  0
  6 17  1  0
 17  3  1  0
 16 11  1  0
M  END
>  <Title>  (675) 
idAAYAgen9

$$$$

     RDKit          2D

 21 22  0  0  0  0  0  0  0  0999 V2000
    3.2286   -0.0000    0.0000 C   0  0  0  0  0  0  0  0  0  0  0  0
    1.7286    0.0000    0.0000 C   0  0  0  0  0  0  0  0  0  0  0  0
    1.0777    1.3515    0.0000 C   0  0  0  0  0  0  0  0  0  0  0  0
   -0.3846    1.6852    0.0000 C   0  0  0  0  0  0  0  0  0  0  0  0
   -1.5574    0.7500    0.0000 C   0  0  0  0  0  0  0  0  0  0  0  0
   -1.5574   -0.7500    0.0000 C   0  0  0  0  0  0  0  0  0  0  0  0
   -0.3846   -1.6852    0.0000 C   0  0  0  0  0  0  0  0  0  0  0  0
    1.0777   -1.3515    0.0000 C   0  0  0  0  0  0  0  0  0  0  0  0
    2.0130   -2.5242    0.0000 C   0  0  0  0  0  0  0  0  0  0  0  0
    1.4650   -3.9205    0.0000 C   0  0  0  0  0  0  0  0  0  0  0  0
    2.4002   -5.0933    0.0000 C   0  0  0  0  0  0  0  0  0  0  0  0
    3.8835   -4.8697    0.0000 O   0  0  0  0  0  0  0  0  0  0  0  0
    1.8522   -6.4896    0.0000 N   0  0  0  0  0  0  0  0  0  0  0  0
    2.6597   -7.7537    0.0000 C   0  0  0  0  0  0  0  0  0  0  0  0
    1.7070   -8.9123    0.0000 C   0  0  0  0  0  0  0  0  0  0  0  0
    0.3107   -8.3643    0.0000 C   0  0  0  0  0  0  0  0  0  0  0  0
   -0.9533   -9.1718    0.0000 C   0  0  0  0  0  0  0  0  0  0  0  0
   -0.8860  -10.6703    0.0000 O   0  0  0  0  0  0  0  0  0  0  0  0
   -2.2847   -8.4808    0.0000 O   0  0  0  0  0  0  0  0  0  0  0  0
    0.4004   -6.8669    0.0000 C   0  0  0  0  0  0  0  0  0  0  0  0
   -0.7582   -5.9143    0.0000 O   0  0  0  0  0  0  0  0  0  0  0  0
  1  2  1  0
  2  3  2  0
  3  4  1  0
  4  5  1  0
  5  6  1  0
  6  7  1  0
  7  8  2  0
  8  9  1  0
  9 10  1  0
 10 11  1  0
 11 12  2  0
 11 13  1  0
 13 14  1  0
 14 15  1  0
 15 16  1  0
 16 17  1  0
 17 18  2  0
 17 19  1  0
 16 20  1  0
 20 21  2  0
  8  2  1  0
 20 13  1  0
M  END
>  <Title>  (676) 
idAAYBgen9

$$$$

     RDKit          2D

 22 24  0  0  0  0  0  0  0  0999 V2000
    3.0000    0.0000    0.0000 C   0  0  0  0  0  0  0  0  0  0  0  0
    1.5000    0.0000    0.0000 C   0  0  0  0  0  0  0  0  0  0  0  0
    0.7500   -1.2990    0.0000 C   0  0  0  0  0  0  0  0  0  0  0  0
   -0.7500   -1.2990    0.0000 C   0  0  0  0  0  0  0  0  0  0  0  0
   -1.5000    0.0000    0.0000 C   0  0  0  0  0  0  0  0  0  0  0  0
   -3.0000    0.0000    0.0000 C   0  0  0  0  0  0  0  0  0  0  0  0
   -3.7500   -1.2990    0.0000 O   0  0  0  0  0  0  0  0  0  0  0  0
   -3.7500    1.2990    0.0000 N   0  0  0  0  0  0  0  0  0  0  0  0
   -5.2500    1.2990    0.0000 C   0  0  0  0  0  0  0  0  0  0  0  0
   -6.1317    0.0855    0.0000 N   0  0  0  0  0  0  0  0  0  0  0  0
   -7.5583    0.5490    0.0000 N   0  0  0  0  0  0  0  0  0  0  0  0
   -7.5583    2.0490    0.0000 N   0  0  0  0  0  0  0  0  0  0  0  0
   -6.1317    2.5126    0.0000 N   0  0  0  0  0  0  0  0  0  0  0  0
   -5.6682    3.9391    0.0000 C   0  0  0  0  0  0  0  0  0  0  0  0
   -4.2009    4.2510    0.0000 C   0  0  0  0  0  0  0  0  0  0  0  0
   -3.7374    5.6776    0.0000 C   0  0  0  0  0  0  0  0  0  0  0  0
   -4.7411    6.7923    0.0000 C   0  0  0  0  0  0  0  0  0  0  0  0
   -6.2083    6.4805    0.0000 C   0  0  0  0  0  0  0  0  0  0  0  0
   -6.6718    5.0539    0.0000 C   0  0  0  0  0  0  0  0  0  0  0  0
   -0.7500    1.2990    0.0000 C   0  0  0  0  0  0  0  0  0  0  0  0
   -1.5000    2.5981    0.0000 O   0  0  0  0  0  0  0  0  0  0  0  0
    0.7500    1.2990    0.0000 N   0  0  0  0  0  0  0  0  0  0  0  0
  1  2  1  0
  2  3  1  0
  3  4  1  0
  4  5  1  0
  5  6  1  0
  6  7  2  0
  6  8  1  0
  8  9  1  0
  9 10  2  0
 10 11  1  0
 11 12  2  0
 12 13  1  0
 13 14  1  0
 14 15  2  0
 15 16  1  0
 16 17  2  0
 17 18  1  0
 18 19  2  0
  5 20  1  0
 20 21  2  0
 20 22  1  0
 22  2  1  0
 13  9  1  0
 19 14  1  0
M  END
>  <Title>  (677) 
idAAYCgen9

$$$$

     RDKit          2D

 20 22  0  0  0  0  0  0  0  0999 V2000
   -3.0000   -2.5981    0.0000 C   0  0  0  0  0  0  0  0  0  0  0  0
   -1.5000   -2.5981    0.0000 C   0  0  0  0  0  0  0  0  0  0  0  0
   -0.7500   -3.8971    0.0000 C   0  0  0  0  0  0  0  0  0  0  0  0
    0.7500   -3.8971    0.0000 C   0  0  0  0  0  0  0  0  0  0  0  0
    1.5000   -2.5981    0.0000 C   0  0  0  0  0  0  0  0  0  0  0  0
    3.0000   -2.5981    0.0000 C   0  0  0  0  0  0  0  0  0  0  0  0
    3.7500   -1.2990    0.0000 O   0  0  0  0  0  0  0  0  0  0  0  0
    3.7500   -3.8971    0.0000 O   0  0  0  0  0  0  0  0  0  0  0  0
    5.2500   -3.8971    0.0000 C   0  0  0  0  0  0  0  0  0  0  0  0
    6.0000   -5.1962    0.0000 N   0  0  0  0  0  0  0  0  0  0  0  0
    7.5000   -5.1962    0.0000 N   0  0  0  0  0  0  0  0  0  0  0  0
    8.2500   -3.8971    0.0000 N   0  0  0  0  0  0  0  0  0  0  0  0
    7.5000   -2.5981    0.0000 N   0  0  0  0  0  0  0  0  0  0  0  0
    6.0000   -2.5981    0.0000 N   0  0  0  0  0  0  0  0  0  0  0  0
    0.7500   -1.2990    0.0000 C   0  0  0  0  0  0  0  0  0  0  0  0
    1.5000    0.0000    0.0000 C   0  0  0  0  0  0  0  0  0  0  0  0
    0.7500    1.2990    0.0000 C   0  0  0  0  0  0  0  0  0  0  0  0
   -0.7500    1.2990    0.0000 C   0  0  0  0  0  0  0  0  0  0  0  0
   -1.5000    0.0000    0.0000 C   0  0  0  0  0  0  0  0  0  0  0  0
   -0.7500   -1.2990    0.0000 C   0  0  0  0  0  0  0  0  0  0  0  0
  1  2  1  0
  2  3  1  0
  3  4  1  0
  4  5  1  0
  5  6  1  0
  6  7  2  0
  6  8  1  0
  8  9  1  0
  9 10  2  0
 10 11  1  0
 11 12  2  0
 12 13  1  0
 13 14  2  0
  5 15  1  0
 15 16  2  0
 16 17  1  0
 17 18  2  0
 18 19  1  0
 19 20  2  0
 20  2  1  0
 14  9  1  0
 20 15  1  0
M  END
>  <Title>  (678) 
idAAYDgen9

$$$$

     RDKit          2D

 13 13  0  0  0  0  0  0  0  0999 V2000
   13.2760   -0.0000    0.0000 C   0  0  0  0  0  0  0  0  0  0  0  0
   11.7760   -0.0000    0.0000 C   0  0  0  0  0  0  0  0  0  0  0  0
   10.2760   -0.0000    0.0000 C   0  0  0  0  0  0  0  0  0  0  0  0
    8.7760   -0.0000    0.0000 C   0  0  0  0  0  0  0  0  0  0  0  0
    7.2760   -0.0000    0.0000 C   0  0  0  0  0  0  0  0  0  0  0  0
    5.7760   -0.0000    0.0000 C   0  0  0  0  0  0  0  0  0  0  0  0
    4.2760   -0.0000    0.0000 C   0  0  0  0  0  0  0  0  0  0  0  0
    2.7760    0.0000    0.0000 C   0  0  0  0  0  0  0  0  0  0  0  0
    1.2760    0.0000    0.0000 C   0  0  0  0  0  0  0  0  0  0  0  0
    0.3943    1.2135    0.0000 C   0  0  0  0  0  0  0  0  0  0  0  0
   -1.0323    0.7500    0.0000 C   0  0  0  0  0  0  0  0  0  0  0  0
   -1.0323   -0.7500    0.0000 C   0  0  0  0  0  0  0  0  0  0  0  0
    0.3943   -1.2135    0.0000 C   0  0  0  0  0  0  0  0  0  0  0  0
  1  2  3  0
  2  3  1  0
  3  4  3  0
  4  5  1  0
  5  6  3  0
  6  7  1  0
  7  8  3  0
  8  9  1  0
  9 10  2  0
 10 11  1  0
 11 12  1  0
 12 13  2  0
 13  9  1  0
M  END
>  <Title>  (679) 
idAAYEgen9

$$$$

     RDKit          2D

 59 59  0  0  0  0  0  0  0  0999 V2000
   14.6374   -2.5981    0.0000 O   0  0  0  0  0  0  0  0  0  0  0  0
   15.3874   -1.2990    0.0000 C   0  0  0  0  0  0  0  0  0  0  0  0
   16.8874   -1.2990    0.0000 O   0  0  0  0  0  0  0  0  0  0  0  0
   14.6374    0.0000    0.0000 O   0  0  0  0  0  0  0  0  0  0  0  0
   13.1374    0.0000    0.0000 C   0  0  0  0  0  0  0  0  0  0  0  0
   13.0518    1.4976    0.0000 C   0  0  0  0  0  0  0  0  0  0  0  0
   12.7960    2.9756    0.0000 C   0  0  0  0  0  0  0  0  0  0  0  0
   12.3734    4.4148    0.0000 C   0  0  0  0  0  0  0  0  0  0  0  0
   11.7895    5.7965    0.0000 C   0  0  0  0  0  0  0  0  0  0  0  0
   11.0519    7.1026    0.0000 C   0  0  0  0  0  0  0  0  0  0  0  0
   10.1702    8.3162    0.0000 C   0  0  0  0  0  0  0  0  0  0  0  0
    9.1560    9.4213    0.0000 C   0  0  0  0  0  0  0  0  0  0  0  0
    8.0223   10.4036    0.0000 C   0  0  0  0  0  0  0  0  0  0  0  0
    6.7841   11.2502    0.0000 C   0  0  0  0  0  0  0  0  0  0  0  0
    5.4575   11.9502    0.0000 C   0  0  0  0  0  0  0  0  0  0  0  0
    4.0597   12.4944    0.0000 C   0  0  0  0  0  0  0  0  0  0  0  0
    2.6090   12.8758    0.0000 C   0  0  0  0  0  0  0  0  0  0  0  0
    1.1242   13.0892    0.0000 C   0  0  0  0  0  0  0  0  0  0  0  0
   -0.3752   13.1321    0.0000 C   0  0  0  0  0  0  0  0  0  0  0  0
   -1.8697   13.0037    0.0000 C   0  0  0  0  0  0  0  0  0  0  0  0
   -3.3398   12.7058    0.0000 C   0  0  0  0  0  0  0  0  0  0  0  0
   -4.7664   12.2423    0.0000 C   0  0  0  0  0  0  0  0  0  0  0  0
   -6.1308   11.6192    0.0000 C   0  0  0  0  0  0  0  0  0  0  0  0
   -7.4153   10.8446    0.0000 C   0  0  0  0  0  0  0  0  0  0  0  0
   -8.6032    9.9286    0.0000 C   0  0  0  0  0  0  0  0  0  0  0  0
   -9.6789    8.8832    0.0000 C   0  0  0  0  0  0  0  0  0  0  0  0
  -10.6284    7.7220    0.0000 C   0  0  0  0  0  0  0  0  0  0  0  0
  -11.4394    6.4601    0.0000 C   0  0  0  0  0  0  0  0  0  0  0  0
  -12.1012    5.1140    0.0000 C   0  0  0  0  0  0  0  0  0  0  0  0
  -12.6053    3.7012    0.0000 C   0  0  0  0  0  0  0  0  0  0  0  0
  -12.9450    2.2402    0.0000 C   0  0  0  0  0  0  0  0  0  0  0  0
  -13.1160    0.7500    0.0000 C   0  0  0  0  0  0  0  0  0  0  0  0
  -13.1160   -0.7500    0.0000 C   0  0  0  0  0  0  0  0  0  0  0  0
  -12.9450   -2.2402    0.0000 C   0  0  0  0  0  0  0  0  0  0  0  0
  -12.6053   -3.7012    0.0000 C   0  0  0  0  0  0  0  0  0  0  0  0
  -12.1012   -5.1140    0.0000 C   0  0  0  0  0  0  0  0  0  0  0  0
  -11.4394   -6.4601    0.0000 C   0  0  0  0  0  0  0  0  0  0  0  0
  -10.6284   -7.7220    0.0000 C   0  0  0  0  0  0  0  0  0  0  0  0
   -9.6789   -8.8832    0.0000 C   0  0  0  0  0  0  0  0  0  0  0  0
   -8.6032   -9.9286    0.0000 C   0  0  0  0  0  0  0  0  0  0  0  0
   -7.4153  -10.8446    0.0000 C   0  0  0  0  0  0  0  0  0  0  0  0
   -6.1308  -11.6192    0.0000 C   0  0  0  0  0  0  0  0  0  0  0  0
   -4.7664  -12.2423    0.0000 C   0  0  0  0  0  0  0  0  0  0  0  0
   -3.3398  -12.7058    0.0000 C   0  0  0  0  0  0  0  0  0  0  0  0
   -1.8697  -13.0037    0.0000 C   0  0  0  0  0  0  0  0  0  0  0  0
   -0.3752  -13.1321    0.0000 C   0  0  0  0  0  0  0  0  0  0  0  0
    1.1242  -13.0892    0.0000 C   0  0  0  0  0  0  0  0  0  0  0  0
    2.6090  -12.8758    0.0000 C   0  0  0  0  0  0  0  0  0  0  0  0
    4.0597  -12.4944    0.0000 C   0  0  0  0  0  0  0  0  0  0  0  0
    5.4575  -11.9502    0.0000 C   0  0  0  0  0  0  0  0  0  0  0  0
    6.7841  -11.2502    0.0000 C   0  0  0  0  0  0  0  0  0  0  0  0
    8.0223  -10.4036    0.0000 C   0  0  0  0  0  0  0  0  0  0  0  0
    9.1560   -9.4213    0.0000 C   0  0  0  0  0  0  0  0  0  0  0  0
   10.1702   -8.3162    0.0000 C   0  0  0  0  0  0  0  0  0  0  0  0
   11.0519   -7.1026    0.0000 C   0  0  0  0  0  0  0  0  0  0  0  0
   11.7895   -5.7965    0.0000 C   0  0  0  0  0  0  0  0  0  0  0  0
   12.3734   -4.4148    0.0000 C   0  0  0  0  0  0  0  0  0  0  0  0
   12.7960   -2.9756    0.0000 C   0  0  0  0  0  0  0  0  0  0  0  0
   13.0518   -1.4976    0.0000 C   0  0  0  0  0  0  0  0  0  0  0  0
  1  2  2  0
  2  3  1  0
  2  4  1  0
  4  5  1  0
  5  6  1  0
  6  7  2  0
  7  8  1  0
  8  9  1  0
  9 10  1  0
 10 11  1  0
 11 12  1  0
 12 13  1  0
 13 14  1  0
 14 15  1  0
 15 16  1  0
 16 17  1  0
 17 18  1  0
 18 19  1  0
 19 20  1  0
 20 21  1  0
 21 22  1  0
 22 23  1  0
 23 24  1  0
 24 25  1  0
 25 26  1  0
 26 27  1  0
 27 28  1  0
 28 29  1  0
 29 30  1  0
 30 31  1  0
 31 32  1  0
 32 33  1  0
 33 34  1  0
 34 35  1  0
 35 36  1  0
 36 37  1  0
 37 38  1  0
 38 39  1  0
 39 40  1  0
 40 41  1  0
 41 42  1  0
 42 43  1  0
 43 44  1  0
 44 45  1  0
 45 46  1  0
 46 47  1  0
 47 48  1  0
 48 49  1  0
 49 50  1  0
 50 51  1  0
 51 52  1  0
 52 53  1  0
 53 54  1  0
 54 55  1  0
 55 56  1  0
 56 57  1  0
 57 58  1  0
 58 59  1  0
 59  5  1  0
M  END
>  <Title>  (680) 
idAAYFgen9

$$$$

     RDKit          2D

  5  4  0  0  0  0  0  0  0  0999 V2000
    0.0000    0.0000    0.0000 C   0  0  0  0  0  0  0  0  0  0  0  0
   -0.0000   -1.5000    0.0000 C   0  0  0  0  0  0  0  0  0  0  0  0
   -0.0000   -3.0000    0.0000 C   0  0  0  0  0  0  0  0  0  0  0  0
   -0.0000   -4.5000    0.0000 C   0  0  0  0  0  0  0  0  0  0  0  0
   -0.0000   -6.0000    0.0000 C   0  0  0  0  0  0  0  0  0  0  0  0
  1  2  3  0
  2  3  1  0
  3  4  3  0
  4  5  1  0
M  END
>  <Title>  (681) 
idAAYGgen9

$$$$

     RDKit          2D

  8  8  0  0  0  0  0  0  0  0999 V2000
    3.0000    0.0000    0.0000 C   0  0  0  0  0  0  0  0  0  0  0  0
    1.5000    0.0000    0.0000 C   0  0  0  0  0  0  0  0  0  0  0  0
    0.7500   -1.2990    0.0000 C   0  0  0  0  0  0  0  0  0  0  0  0
   -0.7500   -1.2990    0.0000 C   0  0  0  0  0  0  0  0  0  0  0  0
   -1.5000    0.0000    0.0000 C   0  0  0  0  0  0  0  0  0  0  0  0
   -3.0000    0.0000    0.0000 O   0  0  0  0  0  0  0  0  0  0  0  0
   -0.7500    1.2990    0.0000 C   0  0  0  0  0  0  0  0  0  0  0  0
    0.7500    1.2990    0.0000 C   0  0  0  0  0  0  0  0  0  0  0  0
  1  2  1  0
  2  3  1  0
  3  4  2  0
  4  5  1  0
  5  6  1  0
  5  7  1  0
  7  8  1  0
  8  2  1  0
M  END
>  <Title>  (682) 
idAAYHgen9

$$$$

     RDKit          2D

 79 79  0  0  0  0  0  0  0  0999 V2000
   20.1262    0.0000    0.0000 C   0  0  0  0  0  0  0  0  0  0  0  0
   18.6262    0.0000    0.0000 C   0  0  0  0  0  0  0  0  0  0  0  0
   18.5658   -1.4988    0.0000 C   0  0  0  0  0  0  0  0  0  0  0  0
   18.3850   -2.9878    0.0000 C   0  0  0  0  0  0  0  0  0  0  0  0
   18.0849   -4.4575    0.0000 C   0  0  0  0  0  0  0  0  0  0  0  0
   17.6676   -5.8983    0.0000 C   0  0  0  0  0  0  0  0  0  0  0  0
   17.1357   -7.3008    0.0000 C   0  0  0  0  0  0  0  0  0  0  0  0
   16.4926   -8.6560    0.0000 C   0  0  0  0  0  0  0  0  0  0  0  0
   15.7426   -9.9550    0.0000 C   0  0  0  0  0  0  0  0  0  0  0  0
   14.8906  -11.1895    0.0000 C   0  0  0  0  0  0  0  0  0  0  0  0
   13.9419  -12.3514    0.0000 C   0  0  0  0  0  0  0  0  0  0  0  0
   12.9028  -13.4332    0.0000 C   0  0  0  0  0  0  0  0  0  0  0  0
   11.7800  -14.4279    0.0000 C   0  0  0  0  0  0  0  0  0  0  0  0
   10.5809  -15.3290    0.0000 C   0  0  0  0  0  0  0  0  0  0  0  0
    9.3131  -16.1307    0.0000 C   0  0  0  0  0  0  0  0  0  0  0  0
    7.9849  -16.8278    0.0000 C   0  0  0  0  0  0  0  0  0  0  0  0
    6.6049  -17.4158    0.0000 C   0  0  0  0  0  0  0  0  0  0  0  0
    5.1821  -17.8908    0.0000 C   0  0  0  0  0  0  0  0  0  0  0  0
    3.7257  -18.2497    0.0000 C   0  0  0  0  0  0  0  0  0  0  0  0
    2.2451  -18.4904    0.0000 C   0  0  0  0  0  0  0  0  0  0  0  0
    0.7500  -18.6111    0.0000 C   0  0  0  0  0  0  0  0  0  0  0  0
   -0.7500  -18.6111    0.0000 C   0  0  0  0  0  0  0  0  0  0  0  0
   -2.2451  -18.4904    0.0000 C   0  0  0  0  0  0  0  0  0  0  0  0
   -3.7257  -18.2497    0.0000 C   0  0  0  0  0  0  0  0  0  0  0  0
   -5.1821  -17.8908    0.0000 C   0  0  0  0  0  0  0  0  0  0  0  0
   -6.6049  -17.4158    0.0000 C   0  0  0  0  0  0  0  0  0  0  0  0
   -7.9849  -16.8278    0.0000 C   0  0  0  0  0  0  0  0  0  0  0  0
   -9.3131  -16.1307    0.0000 C   0  0  0  0  0  0  0  0  0  0  0  0
  -10.5809  -15.3290    0.0000 C   0  0  0  0  0  0  0  0  0  0  0  0
  -11.7800  -14.4279    0.0000 C   0  0  0  0  0  0  0  0  0  0  0  0
  -12.9028  -13.4332    0.0000 C   0  0  0  0  0  0  0  0  0  0  0  0
  -13.9419  -12.3514    0.0000 C   0  0  0  0  0  0  0  0  0  0  0  0
  -14.8906  -11.1895    0.0000 C   0  0  0  0  0  0  0  0  0  0  0  0
  -15.7426   -9.9550    0.0000 C   0  0  0  0  0  0  0  0  0  0  0  0
  -16.4926   -8.6560    0.0000 C   0  0  0  0  0  0  0  0  0  0  0  0
  -17.1357   -7.3008    0.0000 C   0  0  0  0  0  0  0  0  0  0  0  0
  -17.6676   -5.8983    0.0000 C   0  0  0  0  0  0  0  0  0  0  0  0
  -18.0849   -4.4575    0.0000 C   0  0  0  0  0  0  0  0  0  0  0  0
  -18.3850   -2.9878    0.0000 C   0  0  0  0  0  0  0  0  0  0  0  0
  -18.5658   -1.4988    0.0000 C   0  0  0  0  0  0  0  0  0  0  0  0
  -18.6262    0.0000    0.0000 C   0  0  0  0  0  0  0  0  0  0  0  0
  -18.5658    1.4988    0.0000 C   0  0  0  0  0  0  0  0  0  0  0  0
  -18.3850    2.9878    0.0000 C   0  0  0  0  0  0  0  0  0  0  0  0
  -18.0849    4.4575    0.0000 C   0  0  0  0  0  0  0  0  0  0  0  0
  -17.6676    5.8983    0.0000 C   0  0  0  0  0  0  0  0  0  0  0  0
  -17.1357    7.3008    0.0000 C   0  0  0  0  0  0  0  0  0  0  0  0
  -16.4926    8.6560    0.0000 C   0  0  0  0  0  0  0  0  0  0  0  0
  -15.7426    9.9550    0.0000 C   0  0  0  0  0  0  0  0  0  0  0  0
  -14.8906   11.1895    0.0000 C   0  0  0  0  0  0  0  0  0  0  0  0
  -13.9419   12.3514    0.0000 C   0  0  0  0  0  0  0  0  0  0  0  0
  -12.9028   13.4332    0.0000 C   0  0  0  0  0  0  0  0  0  0  0  0
  -11.7800   14.4279    0.0000 C   0  0  0  0  0  0  0  0  0  0  0  0
  -10.5809   15.3290    0.0000 C   0  0  0  0  0  0  0  0  0  0  0  0
   -9.3131   16.1307    0.0000 C   0  0  0  0  0  0  0  0  0  0  0  0
   -7.9849   16.8278    0.0000 C   0  0  0  0  0  0  0  0  0  0  0  0
   -6.6049   17.4158    0.0000 C   0  0  0  0  0  0  0  0  0  0  0  0
   -5.1821   17.8908    0.0000 C   0  0  0  0  0  0  0  0  0  0  0  0
   -3.7257   18.2497    0.0000 C   0  0  0  0  0  0  0  0  0  0  0  0
   -2.2451   18.4904    0.0000 C   0  0  0  0  0  0  0  0  0  0  0  0
   -0.7500   18.6111    0.0000 C   0  0  0  0  0  0  0  0  0  0  0  0
    0.7500   18.6111    0.0000 C   0  0  0  0  0  0  0  0  0  0  0  0
    2.2451   18.4904    0.0000 C   0  0  0  0  0  0  0  0  0  0  0  0
    3.7257   18.2497    0.0000 C   0  0  0  0  0  0  0  0  0  0  0  0
    5.1821   17.8908    0.0000 C   0  0  0  0  0  0  0  0  0  0  0  0
    6.6049   17.4158    0.0000 C   0  0  0  0  0  0  0  0  0  0  0  0
    7.9849   16.8278    0.0000 C   0  0  0  0  0  0  0  0  0  0  0  0
    9.3131   16.1307    0.0000 C   0  0  0  0  0  0  0  0  0  0  0  0
   10.5809   15.3290    0.0000 C   0  0  0  0  0  0  0  0  0  0  0  0
   11.7800   14.4279    0.0000 C   0  0  0  0  0  0  0  0  0  0  0  0
   12.9028   13.4332    0.0000 C   0  0  0  0  0  0  0  0  0  0  0  0
   13.9419   12.3514    0.0000 C   0  0  0  0  0  0  0  0  0  0  0  0
   14.8906   11.1895    0.0000 C   0  0  0  0  0  0  0  0  0  0  0  0
   15.7426    9.9550    0.0000 C   0  0  0  0  0  0  0  0  0  0  0  0
   16.4926    8.6560    0.0000 C   0  0  0  0  0  0  0  0  0  0  0  0
   17.1357    7.3008    0.0000 C   0  0  0  0  0  0  0  0  0  0  0  0
   17.6676    5.8983    0.0000 C   0  0  0  0  0  0  0  0  0  0  0  0
   18.0849    4.4575    0.0000 C   0  0  0  0  0  0  0  0  0  0  0  0
   18.3850    2.9878    0.0000 C   0  0  0  0  0  0  0  0  0  0  0  0
   18.5658    1.4988    0.0000 C   0  0  0  0  0  0  0  0  0  0  0  0
  1  2  1  0
  2  3  1  0
  3  4  1  0
  4  5  1  0
  5  6  1  0
  6  7  1  0
  7  8  1  0
  8  9  1  0
  9 10  1  0
 10 11  1  0
 11 12  1  0
 12 13  1  0
 13 14  1  0
 14 15  1  0
 15 16  1  0
 16 17  1  0
 17 18  1  0
 18 19  1  0
 19 20  1  0
 20 21  1  0
 21 22  1  0
 22 23  1  0
 23 24  1  0
 24 25  1  0
 25 26  1  0
 26 27  1  0
 27 28  1  0
 28 29  1  0
 29 30  1  0
 30 31  1  0
 31 32  1  0
 32 33  1  0
 33 34  1  0
 34 35  1  0
 35 36  1  0
 36 37  1  0
 37 38  1  0
 38 39  1  0
 39 40  1  0
 40 41  1  0
 41 42  1  0
 42 43  1  0
 43 44  1  0
 44 45  1  0
 45 46  1  0
 46 47  1  0
 47 48  1  0
 48 49  1  0
 49 50  1  0
 50 51  1  0
 51 52  1  0
 52 53  1  0
 53 54  1  0
 54 55  1  0
 55 56  1  0
 56 57  1  0
 57 58  1  0
 58 59  1  0
 59 60  1  0
 60 61  1  0
 61 62  1  0
 62 63  1  0
 63 64  1  0
 64 65  1  0
 65 66  1  0
 66 67  1  0
 67 68  1  0
 68 69  1  0
 69 70  1  0
 70 71  1  0
 71 72  1  0
 72 73  1  0
 73 74  1  0
 74 75  1  0
 75 76  1  0
 76 77  1  0
 77 78  1  0
 78 79  1  0
 79  2  1  0
M  END
>  <Title>  (683) 
idAAYIgen9

$$$$

     RDKit          2D

  7  6  0  0  0  0  0  0  0  0999 V2000
    0.0000    0.0000    0.0000 C   0  0  0  0  0  0  0  0  0  0  0  0
    1.2990    0.7500    0.0000 C   0  0  0  0  0  0  0  0  0  0  0  0
    2.5981   -0.0000    0.0000 C   0  0  0  0  0  0  0  0  0  0  0  0
    3.8971    0.7500    0.0000 C   0  0  0  0  0  0  0  0  0  0  0  0
    5.1962   -0.0000    0.0000 C   0  0  0  0  0  0  0  0  0  0  0  0
    6.4952    0.7500    0.0000 N   0  0  0  0  0  0  0  0  0  0  0  0
    7.7942   -0.0000    0.0000 C   0  0  0  0  0  0  0  0  0  0  0  0
  1  2  1  0
  2  3  1  0
  3  4  1  0
  4  5  1  0
  5  6  2  3
  6  7  1  0
M  END
>  <Title>  (684) 
idAAYJgen9

$$$$

     RDKit          2D

 24 26  0  0  0  0  0  0  0  0999 V2000
    9.1925  -10.3115    0.0000 C   0  0  0  0  0  0  0  0  0  0  0  0
    8.0435   -9.3473    0.0000 C   0  0  0  0  0  0  0  0  0  0  0  0
    6.8944   -8.3832    0.0000 C   0  0  0  0  0  0  0  0  0  0  0  0
    5.7453   -7.4190    0.0000 C   0  0  0  0  0  0  0  0  0  0  0  0
    4.5963   -6.4548    0.0000 C   0  0  0  0  0  0  0  0  0  0  0  0
    3.4472   -5.4906    0.0000 C   0  0  0  0  0  0  0  0  0  0  0  0
    2.2981   -4.5264    0.0000 C   0  0  0  0  0  0  0  0  0  0  0  0
    1.1491   -3.5623    0.0000 C   0  0  0  0  0  0  0  0  0  0  0  0
   -0.0000   -2.5981    0.0000 C   0  0  0  0  0  0  0  0  0  0  0  0
   -1.1491   -3.5623    0.0000 C   0  0  0  0  0  0  0  0  0  0  0  0
   -2.5586   -3.0492    0.0000 O   0  0  0  0  0  0  0  0  0  0  0  0
   -0.8886   -5.0395    0.0000 N   0  0  0  0  0  0  0  0  0  0  0  0
   -2.0377   -6.0037    0.0000 C   0  0  0  0  0  0  0  0  0  0  0  0
   -3.4472   -5.4906    0.0000 N   0  0  0  0  0  0  0  0  0  0  0  0
   -4.5963   -6.4548    0.0000 N   0  0  0  0  0  0  0  0  0  0  0  0
   -4.3358   -7.9320    0.0000 N   0  0  0  0  0  0  0  0  0  0  0  0
   -2.9263   -8.4450    0.0000 N   0  0  0  0  0  0  0  0  0  0  0  0
   -1.7772   -7.4809    0.0000 N   0  0  0  0  0  0  0  0  0  0  0  0
    0.7500   -1.2990    0.0000 C   0  0  0  0  0  0  0  0  0  0  0  0
    1.5000    0.0000    0.0000 C   0  0  0  0  0  0  0  0  0  0  0  0
    0.7500    1.2990    0.0000 C   0  0  0  0  0  0  0  0  0  0  0  0
   -0.7500    1.2990    0.0000 C   0  0  0  0  0  0  0  0  0  0  0  0
   -1.5000    0.0000    0.0000 C   0  0  0  0  0  0  0  0  0  0  0  0
   -0.7500   -1.2990    0.0000 C   0  0  0  0  0  0  0  0  0  0  0  0
  1  2  3  0
  2  3  1  0
  3  4  3  0
  4  5  1  0
  5  6  3  0
  6  7  1  0
  7  8  3  0
  8  9  1  0
  9 10  1  0
 10 11  2  0
 10 12  1  0
 12 13  1  0
 13 14  2  0
 14 15  1  0
 15 16  2  0
 16 17  1  0
 17 18  2  0
  9 19  1  0
 19 20  2  0
 20 21  1  0
 21 22  2  0
 22 23  1  0
 23 24  2  0
 24  9  1  0
 18 13  1  0
 24 19  1  0
M  END
>  <Title>  (685) 
idAAYKgen9

$$$$

     RDKit          2D

 44 50  0  0  0  0  0  0  0  0999 V2000
    4.3881   -6.6982    0.0000 C   0  0  0  0  0  0  0  0  0  0  0  0
    3.0367   -6.0474    0.0000 C   0  0  0  0  0  0  0  0  0  0  0  0
    3.3705   -4.5850    0.0000 C   0  0  0  0  0  0  0  0  0  0  0  0
    3.0367   -3.1226    0.0000 C   0  0  0  0  0  0  0  0  0  0  0  0
    2.1015   -1.9499    0.0000 C   0  0  0  0  0  0  0  0  0  0  0  0
    3.0367   -0.7771    0.0000 C   0  0  0  0  0  0  0  0  0  0  0  0
    2.4887    0.6192    0.0000 O   0  0  0  0  0  0  0  0  0  0  0  0
    4.5199   -1.0007    0.0000 N   0  0  0  0  0  0  0  0  0  0  0  0
    5.4552    0.1721    0.0000 C   0  0  0  0  0  0  0  0  0  0  0  0
    6.9384   -0.0515    0.0000 N   0  0  0  0  0  0  0  0  0  0  0  0
    7.8736    1.1213    0.0000 N   0  0  0  0  0  0  0  0  0  0  0  0
    7.3256    2.5176    0.0000 N   0  0  0  0  0  0  0  0  0  0  0  0
    5.8424    2.7411    0.0000 N   0  0  0  0  0  0  0  0  0  0  0  0
    4.9072    1.5684    0.0000 N   0  0  0  0  0  0  0  0  0  0  0  0
    0.7500   -1.2990    0.0000 C   0  0  0  0  0  0  0  0  0  0  0  0
    1.5000    0.0000    0.0000 C   0  0  0  0  0  0  0  0  0  0  0  0
    0.7500    1.2990    0.0000 C   0  0  0  0  0  0  0  0  0  0  0  0
   -0.7500    1.2990    0.0000 C   0  0  0  0  0  0  0  0  0  0  0  0
   -1.5000    0.0000    0.0000 C   0  0  0  0  0  0  0  0  0  0  0  0
   -0.7500   -1.2990    0.0000 C   0  0  0  0  0  0  0  0  0  0  0  0
   -2.1015   -1.9499    0.0000 C   0  0  0  0  0  0  0  0  0  0  0  0
   -2.6495   -0.5536    0.0000 C   0  0  0  0  0  0  0  0  0  0  0  0
   -4.1327   -0.3300    0.0000 C   0  0  0  0  0  0  0  0  0  0  0  0
   -5.0679   -1.5027    0.0000 C   0  0  0  0  0  0  0  0  0  0  0  0
   -4.5199   -2.8990    0.0000 C   0  0  0  0  0  0  0  0  0  0  0  0
   -3.0367   -3.1226    0.0000 C   0  0  0  0  0  0  0  0  0  0  0  0
   -3.3705   -4.5850    0.0000 C   0  0  0  0  0  0  0  0  0  0  0  0
   -4.8038   -4.1429    0.0000 C   0  0  0  0  0  0  0  0  0  0  0  0
   -5.9034   -5.1631    0.0000 C   0  0  0  0  0  0  0  0  0  0  0  0
   -5.5696   -6.6255    0.0000 C   0  0  0  0  0  0  0  0  0  0  0  0
   -4.1363   -7.0677    0.0000 C   0  0  0  0  0  0  0  0  0  0  0  0
   -3.0367   -6.0474    0.0000 C   0  0  0  0  0  0  0  0  0  0  0  0
   -2.1015   -7.2201    0.0000 C   0  0  0  0  0  0  0  0  0  0  0  0
   -3.3408   -8.0651    0.0000 C   0  0  0  0  0  0  0  0  0  0  0  0
   -3.2287   -9.5609    0.0000 C   0  0  0  0  0  0  0  0  0  0  0  0
   -1.8773  -10.2118    0.0000 C   0  0  0  0  0  0  0  0  0  0  0  0
   -0.6379   -9.3668    0.0000 C   0  0  0  0  0  0  0  0  0  0  0  0
   -0.7500   -7.8710    0.0000 C   0  0  0  0  0  0  0  0  0  0  0  0
    0.7500   -7.8710    0.0000 C   0  0  0  0  0  0  0  0  0  0  0  0
    0.6379   -9.3668    0.0000 C   0  0  0  0  0  0  0  0  0  0  0  0
    1.8773  -10.2118    0.0000 C   0  0  0  0  0  0  0  0  0  0  0  0
    3.2287   -9.5609    0.0000 C   0  0  0  0  0  0  0  0  0  0  0  0
    3.3408   -8.0651    0.0000 C   0  0  0  0  0  0  0  0  0  0  0  0
    2.1015   -7.2201    0.0000 C   0  0  0  0  0  0  0  0  0  0  0  0
  1  2  1  0
  2  3  1  0
  3  4  1  0
  4  5  1  0
  5  6  1  0
  6  7  2  0
  6  8  1  0
  8  9  1  0
  9 10  2  0
 10 11  1  0
 11 12  2  0
 12 13  1  0
 13 14  2  0
  5 15  1  0
 15 16  2  0
 16 17  1  0
 17 18  2  0
 18 19  1  0
 19 20  2  0
 20 21  1  0
 21 22  2  0
 22 23  1  0
 23 24  2  0
 24 25  1  0
 25 26  2  0
 26 27  1  0
 27 28  2  0
 28 29  1  0
 29 30  2  0
 30 31  1  0
 31 32  2  0
 32 33  1  0
 33 34  2  0
 34 35  1  0
 35 36  2  0
 36 37  1  0
 37 38  2  0
 38 39  1  0
 39 40  2  0
 40 41  1  0
 41 42  2  0
 42 43  1  0
 43 44  2  0
 44  2  1  0
 14  9  1  0
 20 15  1  0
 26 21  1  0
 32 27  1  0
 38 33  1  0
 44 39  1  0
M  END
>  <Title>  (686) 
idAAYLgen9

$$$$

     RDKit          2D

 38 43  0  0  0  0  0  0  0  0999 V2000
    3.1097   -7.2078    0.0000 C   0  0  0  0  0  0  0  0  0  0  0  0
    2.0490   -6.1471    0.0000 C   0  0  0  0  0  0  0  0  0  0  0  0
    2.7990   -4.8481    0.0000 C   0  0  0  0  0  0  0  0  0  0  0  0
    2.7990   -3.3481    0.0000 C   0  0  0  0  0  0  0  0  0  0  0  0
    2.0490   -2.0490    0.0000 C   0  0  0  0  0  0  0  0  0  0  0  0
    3.1097   -0.9884    0.0000 C   0  0  0  0  0  0  0  0  0  0  0  0
    2.7215    0.4605    0.0000 O   0  0  0  0  0  0  0  0  0  0  0  0
    4.5586   -1.3766    0.0000 N   0  0  0  0  0  0  0  0  0  0  0  0
    5.6192   -0.3159    0.0000 C   0  0  0  0  0  0  0  0  0  0  0  0
    7.0681   -0.7042    0.0000 N   0  0  0  0  0  0  0  0  0  0  0  0
    8.1288    0.3565    0.0000 N   0  0  0  0  0  0  0  0  0  0  0  0
    7.7406    1.8054    0.0000 N   0  0  0  0  0  0  0  0  0  0  0  0
    6.2917    2.1936    0.0000 N   0  0  0  0  0  0  0  0  0  0  0  0
    5.2310    1.1329    0.0000 N   0  0  0  0  0  0  0  0  0  0  0  0
    0.7500   -1.2990    0.0000 C   0  0  0  0  0  0  0  0  0  0  0  0
    1.5000    0.0000    0.0000 C   0  0  0  0  0  0  0  0  0  0  0  0
    0.7500    1.2990    0.0000 C   0  0  0  0  0  0  0  0  0  0  0  0
   -0.7500    1.2990    0.0000 C   0  0  0  0  0  0  0  0  0  0  0  0
   -1.5000    0.0000    0.0000 C   0  0  0  0  0  0  0  0  0  0  0  0
   -0.7500   -1.2990    0.0000 C   0  0  0  0  0  0  0  0  0  0  0  0
   -2.0490   -2.0490    0.0000 C   0  0  0  0  0  0  0  0  0  0  0  0
   -2.7990   -0.7500    0.0000 C   0  0  0  0  0  0  0  0  0  0  0  0
   -4.2990   -0.7500    0.0000 C   0  0  0  0  0  0  0  0  0  0  0  0
   -5.0490   -2.0490    0.0000 C   0  0  0  0  0  0  0  0  0  0  0  0
   -4.2990   -3.3481    0.0000 C   0  0  0  0  0  0  0  0  0  0  0  0
   -2.7990   -3.3481    0.0000 C   0  0  0  0  0  0  0  0  0  0  0  0
   -2.7990   -4.8481    0.0000 C   0  0  0  0  0  0  0  0  0  0  0  0
   -4.2990   -4.8481    0.0000 C   0  0  0  0  0  0  0  0  0  0  0  0
   -5.0490   -6.1471    0.0000 C   0  0  0  0  0  0  0  0  0  0  0  0
   -4.2990   -7.4462    0.0000 C   0  0  0  0  0  0  0  0  0  0  0  0
   -2.7990   -7.4462    0.0000 C   0  0  0  0  0  0  0  0  0  0  0  0
   -2.0490   -6.1471    0.0000 C   0  0  0  0  0  0  0  0  0  0  0  0
   -0.7500   -6.8971    0.0000 C   0  0  0  0  0  0  0  0  0  0  0  0
   -1.5000   -8.1962    0.0000 C   0  0  0  0  0  0  0  0  0  0  0  0
   -0.7500   -9.4952    0.0000 C   0  0  0  0  0  0  0  0  0  0  0  0
    0.7500   -9.4952    0.0000 C   0  0  0  0  0  0  0  0  0  0  0  0
    1.5000   -8.1962    0.0000 C   0  0  0  0  0  0  0  0  0  0  0  0
    0.7500   -6.8971    0.0000 C   0  0  0  0  0  0  0  0  0  0  0  0
  1  2  1  0
  2  3  1  0
  3  4  1  0
  4  5  1  0
  5  6  1  0
  6  7  2  0
  6  8  1  0
  8  9  1  0
  9 10  2  0
 10 11  1  0
 11 12  2  0
 12 13  1  0
 13 14  2  0
  5 15  1  0
 15 16  2  0
 16 17  1  0
 17 18  2  0
 18 19  1  0
 19 20  2  0
 20 21  1  0
 21 22  2  0
 22 23  1  0
 23 24  2  0
 24 25  1  0
 25 26  2  0
 26 27  1  0
 27 28  2  0
 28 29  1  0
 29 30  2  0
 30 31  1  0
 31 32  2  0
 32 33  1  0
 33 34  2  0
 34 35  1  0
 35 36  2  0
 36 37  1  0
 37 38  2  0
 38  2  1  0
 14  9  1  0
 20 15  1  0
 26 21  1  0
 32 27  1  0
 38 33  1  0
M  END
>  <Title>  (687) 
idAAYMgen9

$$$$

     RDKit          2D

109110  0  0  0  0  0  0  0  0999 V2000
    2.8531    3.9607    0.0000 C   0  0  0  0  0  0  0  0  0  0  0  0
    3.6039    4.2287    0.0000 C   0  0  0  0  0  0  0  0  0  0  0  0
    3.1497    5.6583    0.0000 C   0  0  0  0  0  0  0  0  0  0  0  0
    2.7975    7.1164    0.0000 C   0  0  0  0  0  0  0  0  0  0  0  0
    2.5490    8.5956    0.0000 C   0  0  0  0  0  0  0  0  0  0  0  0
    2.4056   10.0888    0.0000 C   0  0  0  0  0  0  0  0  0  0  0  0
    2.3677   11.5883    0.0000 C   0  0  0  0  0  0  0  0  0  0  0  0
    2.4358   13.0867    0.0000 C   0  0  0  0  0  0  0  0  0  0  0  0
    2.6094   14.5767    0.0000 C   0  0  0  0  0  0  0  0  0  0  0  0
    2.8876   16.0506    0.0000 C   0  0  0  0  0  0  0  0  0  0  0  0
    3.2691   17.5013    0.0000 C   0  0  0  0  0  0  0  0  0  0  0  0
    3.7521   18.9214    0.0000 C   0  0  0  0  0  0  0  0  0  0  0  0
    4.3339   20.3040    0.0000 C   0  0  0  0  0  0  0  0  0  0  0  0
    5.0119   21.6420    0.0000 C   0  0  0  0  0  0  0  0  0  0  0  0
    5.7825   22.9289    0.0000 C   0  0  0  0  0  0  0  0  0  0  0  0
    6.6420   24.1583    0.0000 C   0  0  0  0  0  0  0  0  0  0  0  0
    7.5861   25.3239    0.0000 C   0  0  0  0  0  0  0  0  0  0  0  0
    8.6101   26.4200    0.0000 C   0  0  0  0  0  0  0  0  0  0  0  0
    9.7088   27.4412    0.0000 C   0  0  0  0  0  0  0  0  0  0  0  0
   10.8768   28.3824    0.0000 C   0  0  0  0  0  0  0  0  0  0  0  0
   12.1083   29.2388    0.0000 C   0  0  0  0  0  0  0  0  0  0  0  0
   13.3971   30.0062    0.0000 C   0  0  0  0  0  0  0  0  0  0  0  0
   14.7369   30.6807    0.0000 C   0  0  0  0  0  0  0  0  0  0  0  0
   16.1209   31.2591    0.0000 C   0  0  0  0  0  0  0  0  0  0  0  0
   17.5422   31.7384    0.0000 C   0  0  0  0  0  0  0  0  0  0  0  0
   18.9939   32.1163    0.0000 C   0  0  0  0  0  0  0  0  0  0  0  0
   20.4685   32.3908    0.0000 C   0  0  0  0  0  0  0  0  0  0  0  0
   21.9589   32.5607    0.0000 C   0  0  0  0  0  0  0  0  0  0  0  0
   23.4575   32.6249    0.0000 C   0  0  0  0  0  0  0  0  0  0  0  0
   24.9569   32.5833    0.0000 C   0  0  0  0  0  0  0  0  0  0  0  0
   26.4497   32.4361    0.0000 C   0  0  0  0  0  0  0  0  0  0  0  0
   27.9283   32.1839    0.0000 C   0  0  0  0  0  0  0  0  0  0  0  0
   29.3855   31.8280    0.0000 C   0  0  0  0  0  0  0  0  0  0  0  0
   30.8140   31.3703    0.0000 C   0  0  0  0  0  0  0  0  0  0  0  0
   32.2065   30.8129    0.0000 C   0  0  0  0  0  0  0  0  0  0  0  0
   33.5564   30.1586    0.0000 C   0  0  0  0  0  0  0  0  0  0  0  0
   34.8567   29.4108    0.0000 C   0  0  0  0  0  0  0  0  0  0  0  0
   36.1010   28.5732    0.0000 C   0  0  0  0  0  0  0  0  0  0  0  0
   37.2831   27.6498    0.0000 C   0  0  0  0  0  0  0  0  0  0  0  0
   38.3971   26.6453    0.0000 C   0  0  0  0  0  0  0  0  0  0  0  0
   39.4375   25.5648    0.0000 C   0  0  0  0  0  0  0  0  0  0  0  0
   40.3991   24.4136    0.0000 C   0  0  0  0  0  0  0  0  0  0  0  0
   41.2771   23.1974    0.0000 C   0  0  0  0  0  0  0  0  0  0  0  0
   42.0672   21.9223    0.0000 C   0  0  0  0  0  0  0  0  0  0  0  0
   42.7653   20.5947    0.0000 C   0  0  0  0  0  0  0  0  0  0  0  0
   43.3680   19.2211    0.0000 C   0  0  0  0  0  0  0  0  0  0  0  0
   43.8723   17.8084    0.0000 C   0  0  0  0  0  0  0  0  0  0  0  0
   44.2758   16.3637    0.0000 C   0  0  0  0  0  0  0  0  0  0  0  0
   44.5763   14.8941    0.0000 C   0  0  0  0  0  0  0  0  0  0  0  0
   44.7724   13.4070    0.0000 C   0  0  0  0  0  0  0  0  0  0  0  0
   44.8631   11.9097    0.0000 C   0  0  0  0  0  0  0  0  0  0  0  0
   44.8480   10.4098    0.0000 C   0  0  0  0  0  0  0  0  0  0  0  0
   44.7271    8.9147    0.0000 C   0  0  0  0  0  0  0  0  0  0  0  0
   44.5010    7.4318    0.0000 C   0  0  0  0  0  0  0  0  0  0  0  0
   44.1709    5.9686    0.0000 C   0  0  0  0  0  0  0  0  0  0  0  0
   43.7384    4.5323    0.0000 C   0  0  0  0  0  0  0  0  0  0  0  0
   43.2057    3.1301    0.0000 C   0  0  0  0  0  0  0  0  0  0  0  0
   42.5754    1.7689    0.0000 C   0  0  0  0  0  0  0  0  0  0  0  0
   41.8507    0.4556    0.0000 C   0  0  0  0  0  0  0  0  0  0  0  0
   41.0351   -0.8033    0.0000 C   0  0  0  0  0  0  0  0  0  0  0  0
   40.1327   -2.0015    0.0000 C   0  0  0  0  0  0  0  0  0  0  0  0
   39.1481   -3.1331    0.0000 C   0  0  0  0  0  0  0  0  0  0  0  0
   38.0861   -4.1924    0.0000 C   0  0  0  0  0  0  0  0  0  0  0  0
   36.9520   -5.1742    0.0000 C   0  0  0  0  0  0  0  0  0  0  0  0
   35.7515   -6.0735    0.0000 C   0  0  0  0  0  0  0  0  0  0  0  0
   34.4906   -6.8859    0.0000 C   0  0  0  0  0  0  0  0  0  0  0  0
   33.1755   -7.6074    0.0000 C   0  0  0  0  0  0  0  0  0  0  0  0
   31.8127   -8.2342    0.0000 C   0  0  0  0  0  0  0  0  0  0  0  0
   30.4092   -8.7634    0.0000 C   0  0  0  0  0  0  0  0  0  0  0  0
   28.9718   -9.1923    0.0000 C   0  0  0  0  0  0  0  0  0  0  0  0
   27.5077   -9.5187    0.0000 C   0  0  0  0  0  0  0  0  0  0  0  0
   26.0243   -9.7410    0.0000 C   0  0  0  0  0  0  0  0  0  0  0  0
   24.5289   -9.8581    0.0000 C   0  0  0  0  0  0  0  0  0  0  0  0
   23.0289   -9.8695    0.0000 C   0  0  0  0  0  0  0  0  0  0  0  0
   21.5319   -9.7750    0.0000 C   0  0  0  0  0  0  0  0  0  0  0  0
   20.0453   -9.5751    0.0000 C   0  0  0  0  0  0  0  0  0  0  0  0
   18.5764   -9.2709    0.0000 C   0  0  0  0  0  0  0  0  0  0  0  0
   17.1327   -8.8638    0.0000 C   0  0  0  0  0  0  0  0  0  0  0  0
   15.7213   -8.3560    0.0000 C   0  0  0  0  0  0  0  0  0  0  0  0
   14.3493   -7.7498    0.0000 C   0  0  0  0  0  0  0  0  0  0  0  0
   13.0234   -7.0483    0.0000 C   0  0  0  0  0  0  0  0  0  0  0  0
   11.7503   -6.2551    0.0000 C   0  0  0  0  0  0  0  0  0  0  0  0
   10.5363   -5.3740    0.0000 C   0  0  0  0  0  0  0  0  0  0  0  0
    9.3875   -4.4095    0.0000 C   0  0  0  0  0  0  0  0  0  0  0  0
    8.3096   -3.3664    0.0000 C   0  0  0  0  0  0  0  0  0  0  0  0
    7.3080   -2.2498    0.0000 C   0  0  0  0  0  0  0  0  0  0  0  0
    6.3876   -1.0653    0.0000 C   0  0  0  0  0  0  0  0  0  0  0  0
    5.5531    0.1811    0.0000 C   0  0  0  0  0  0  0  0  0  0  0  0
    4.8086    1.4832    0.0000 C   0  0  0  0  0  0  0  0  0  0  0  0
    4.3321    0.0000    0.0000 C   0  0  0  0  0  0  0  0  0  0  0  0
    4.1397   -1.2769    0.0000 C   0  0  0  0  0  0  0  0  0  0  0  0
    3.5794   -2.4404    0.0000 C   0  0  0  0  0  0  0  0  0  0  0  0
    2.7010   -3.3870    0.0000 C   0  0  0  0  0  0  0  0  0  0  0  0
    1.5827   -4.0327    0.0000 C   0  0  0  0  0  0  0  0  0  0  0  0
    0.3237   -4.3200    0.0000 C   0  0  0  0  0  0  0  0  0  0  0  0
   -0.9640   -4.2235    0.0000 C   0  0  0  0  0  0  0  0  0  0  0  0
   -2.1661   -3.7517    0.0000 C   0  0  0  0  0  0  0  0  0  0  0  0
   -3.1757   -2.9466    0.0000 C   0  0  0  0  0  0  0  0  0  0  0  0
   -3.9031   -1.8796    0.0000 C   0  0  0  0  0  0  0  0  0  0  0  0
   -4.2837   -0.6457    0.0000 C   0  0  0  0  0  0  0  0  0  0  0  0
   -4.2837    0.6457    0.0000 C   0  0  0  0  0  0  0  0  0  0  0  0
   -3.9031    1.8796    0.0000 C   0  0  0  0  0  0  0  0  0  0  0  0
   -3.1757    2.9466    0.0000 C   0  0  0  0  0  0  0  0  0  0  0  0
   -2.1661    3.7517    0.0000 C   0  0  0  0  0  0  0  0  0  0  0  0
   -0.9640    4.2235    0.0000 C   0  0  0  0  0  0  0  0  0  0  0  0
    0.3237    4.3200    0.0000 C   0  0  0  0  0  0  0  0  0  0  0  0
    1.5827    4.0327    0.0000 C   0  0  0  0  0  0  0  0  0  0  0  0
    2.7010    3.3870    0.0000 C   0  0  0  0  0  0  0  0  0  0  0  0
    4.1577    2.8347    0.0000 C   0  0  0  0  0  0  0  0  0  0  0  0
  1  2  1  0
  2  3  1  0
  3  4  2  0
  4  5  1  0
  5  6  1  0
  6  7  1  0
  7  8  1  0
  8  9  1  0
  9 10  1  0
 10 11  1  0
 11 12  1  0
 12 13  1  0
 13 14  1  0
 14 15  1  0
 15 16  1  0
 16 17  1  0
 17 18  1  0
 18 19  1  0
 19 20  1  0
 20 21  1  0
 21 22  1  0
 22 23  1  0
 23 24  1  0
 24 25  1  0
 25 26  1  0
 26 27  1  0
 27 28  1  0
 28 29  1  0
 29 30  1  0
 30 31  1  0
 31 32  1  0
 32 33  1  0
 33 34  1  0
 34 35  1  0
 35 36  1  0
 36 37  1  0
 37 38  1  0
 38 39  1  0
 39 40  1  0
 40 41  1  0
 41 42  1  0
 42 43  1  0
 43 44  1  0
 44 45  1  0
 45 46  1  0
 46 47  1  0
 47 48  1  0
 48 49  1  0
 49 50  1  0
 50 51  1  0
 51 52  1  0
 52 53  1  0
 53 54  1  0
 54 55  1  0
 55 56  1  0
 56 57  1  0
 57 58  1  0
 58 59  1  0
 59 60  1  0
 60 61  1  0
 61 62  1  0
 62 63  1  0
 63 64  1  0
 64 65  1  0
 65 66  1  0
 66 67  1  0
 67 68  1  0
 68 69  1  0
 69 70  1  0
 70 71  1  0
 71 72  1  0
 72 73  1  0
 73 74  1  0
 74 75  1  0
 75 76  1  0
 76 77  1  0
 77 78  1  0
 78 79  1  0
 79 80  1  0
 80 81  1  0
 81 82  1  0
 82 83  1  0
 83 84  1  0
 84 85  1  0
 85 86  1  0
 86 87  1  0
 87 88  1  0
 88 89  1  0
 89 90  1  0
 90 91  1  0
 91 92  1  0
 92 93  1  0
 93 94  1  0
 94 95  1  0
 95 96  1  0
 96 97  1  0
 97 98  1  0
 98 99  1  0
 99100  1  0
100101  1  0
101102  1  0
102103  1  0
103104  1  0
104105  2  0
105106  1  0
106107  2  0
107108  1  0
108109  2  0
109  2  1  0
109 89  1  0
M  END
>  <Title>  (688) 
idAAYNgen9

$$$$

     RDKit          2D

 25 27  0  0  0  0  0  0  0  0999 V2000
    3.2286   -0.0000    0.0000 C   0  0  0  0  0  0  0  0  0  0  0  0
    1.7286    0.0000    0.0000 C   0  0  0  0  0  0  0  0  0  0  0  0
    1.0777    1.3515    0.0000 C   0  0  0  0  0  0  0  0  0  0  0  0
   -0.3846    1.6852    0.0000 C   0  0  0  0  0  0  0  0  0  0  0  0
   -1.5574    0.7500    0.0000 C   0  0  0  0  0  0  0  0  0  0  0  0
   -2.9088    1.4008    0.0000 N   0  0  0  0  0  0  0  0  0  0  0  0
   -3.0209    2.8966    0.0000 N   0  0  0  0  0  0  0  0  0  0  0  0
   -4.3724    3.5475    0.0000 N   0  0  0  0  0  0  0  0  0  0  0  0
   -4.4845    5.0433    0.0000 N   0  0  0  0  0  0  0  0  0  0  0  0
   -5.8359    5.6941    0.0000 C   0  0  0  0  0  0  0  0  0  0  0  0
   -5.9480    7.1899    0.0000 C   0  0  0  0  0  0  0  0  0  0  0  0
   -7.2995    7.8407    0.0000 C   0  0  0  0  0  0  0  0  0  0  0  0
   -8.5388    6.9957    0.0000 C   0  0  0  0  0  0  0  0  0  0  0  0
   -8.4268    5.4999    0.0000 C   0  0  0  0  0  0  0  0  0  0  0  0
   -7.0753    4.8491    0.0000 C   0  0  0  0  0  0  0  0  0  0  0  0
   -3.2451    5.8882    0.0000 C   0  0  0  0  0  0  0  0  0  0  0  0
   -1.8937    5.2374    0.0000 C   0  0  0  0  0  0  0  0  0  0  0  0
   -0.6543    6.0824    0.0000 C   0  0  0  0  0  0  0  0  0  0  0  0
   -0.7664    7.5782    0.0000 C   0  0  0  0  0  0  0  0  0  0  0  0
   -2.1179    8.2290    0.0000 C   0  0  0  0  0  0  0  0  0  0  0  0
   -3.3572    7.3840    0.0000 C   0  0  0  0  0  0  0  0  0  0  0  0
   -1.5574   -0.7500    0.0000 N   0  0  0  0  0  0  0  0  0  0  0  0
   -0.3846   -1.6852    0.0000 C   0  0  0  0  0  0  0  0  0  0  0  0
   -0.7184   -3.1476    0.0000 O   0  0  0  0  0  0  0  0  0  0  0  0
    1.0777   -1.3515    0.0000 C   0  0  0  0  0  0  0  0  0  0  0  0
  1  2  1  0
  2  3  1  0
  3  4  1  0
  4  5  1  0
  5  6  2  3
  6  7  1  0
  7  8  2  3
  8  9  1  0
  9 10  1  0
 10 11  2  0
 11 12  1  0
 12 13  2  0
 13 14  1  0
 14 15  2  0
  9 16  1  0
 16 17  2  0
 17 18  1  0
 18 19  2  0
 19 20  1  0
 20 21  2  0
  5 22  1  0
 22 23  1  0
 23 24  2  0
 23 25  1  0
 25  2  1  0
 15 10  1  0
 21 16  1  0
M  END
>  <Title>  (689) 
idAAYOgen9

$$$$

     RDKit          2D

114116  0  0  0  0  0  0  0  0999 V2000
   -5.5243   -0.3684    0.0000 C   0  0  0  0  0  0  0  0  0  0  0  0
   -5.2125   -1.8357    0.0000 C   0  0  0  0  0  0  0  0  0  0  0  0
   -6.6697   -2.1913    0.0000 C   0  0  0  0  0  0  0  0  0  0  0  0
   -8.1031   -2.6334    0.0000 C   0  0  0  0  0  0  0  0  0  0  0  0
   -9.5074   -3.1605    0.0000 C   0  0  0  0  0  0  0  0  0  0  0  0
  -10.8777   -3.7706    0.0000 C   0  0  0  0  0  0  0  0  0  0  0  0
  -12.2091   -4.4616    0.0000 C   0  0  0  0  0  0  0  0  0  0  0  0
  -13.4968   -5.2309    0.0000 C   0  0  0  0  0  0  0  0  0  0  0  0
  -14.7362   -6.0759    0.0000 C   0  0  0  0  0  0  0  0  0  0  0  0
  -15.9228   -6.9935    0.0000 C   0  0  0  0  0  0  0  0  0  0  0  0
  -17.0524   -7.9804    0.0000 C   0  0  0  0  0  0  0  0  0  0  0  0
  -18.1209   -9.0331    0.0000 C   0  0  0  0  0  0  0  0  0  0  0  0
  -19.1246  -10.1478    0.0000 C   0  0  0  0  0  0  0  0  0  0  0  0
  -20.0599  -11.3205    0.0000 C   0  0  0  0  0  0  0  0  0  0  0  0
  -20.9233  -12.5471    0.0000 C   0  0  0  0  0  0  0  0  0  0  0  0
  -21.7118  -13.8231    0.0000 C   0  0  0  0  0  0  0  0  0  0  0  0
  -22.4226  -15.1440    0.0000 C   0  0  0  0  0  0  0  0  0  0  0  0
  -23.0532  -16.5051    0.0000 C   0  0  0  0  0  0  0  0  0  0  0  0
  -23.6012  -17.9014    0.0000 C   0  0  0  0  0  0  0  0  0  0  0  0
  -24.0647  -19.3280    0.0000 C   0  0  0  0  0  0  0  0  0  0  0  0
  -24.4421  -20.7797    0.0000 C   0  0  0  0  0  0  0  0  0  0  0  0
  -24.7320  -22.2514    0.0000 C   0  0  0  0  0  0  0  0  0  0  0  0
  -24.9333  -23.7379    0.0000 C   0  0  0  0  0  0  0  0  0  0  0  0
  -25.0454  -25.2337    0.0000 C   0  0  0  0  0  0  0  0  0  0  0  0
  -25.0678  -26.7335    0.0000 C   0  0  0  0  0  0  0  0  0  0  0  0
  -25.0005  -28.2320    0.0000 C   0  0  0  0  0  0  0  0  0  0  0  0
  -24.8437  -29.7238    0.0000 C   0  0  0  0  0  0  0  0  0  0  0  0
  -24.5980  -31.2035    0.0000 C   0  0  0  0  0  0  0  0  0  0  0  0
  -24.2642  -32.6659    0.0000 C   0  0  0  0  0  0  0  0  0  0  0  0
  -23.8436  -34.1057    0.0000 C   0  0  0  0  0  0  0  0  0  0  0  0
  -23.3376  -35.5178    0.0000 C   0  0  0  0  0  0  0  0  0  0  0  0
  -22.7481  -36.8971    0.0000 C   0  0  0  0  0  0  0  0  0  0  0  0
  -22.0771  -38.2387    0.0000 C   0  0  0  0  0  0  0  0  0  0  0  0
  -21.3271  -39.5377    0.0000 C   0  0  0  0  0  0  0  0  0  0  0  0
  -20.5008  -40.7896    0.0000 C   0  0  0  0  0  0  0  0  0  0  0  0
  -19.6010  -41.9898    0.0000 C   0  0  0  0  0  0  0  0  0  0  0  0
  -18.6311  -43.1340    0.0000 C   0  0  0  0  0  0  0  0  0  0  0  0
  -17.5945  -44.2182    0.0000 C   0  0  0  0  0  0  0  0  0  0  0  0
  -16.4949  -45.2384    0.0000 C   0  0  0  0  0  0  0  0  0  0  0  0
  -15.3363  -46.1911    0.0000 C   0  0  0  0  0  0  0  0  0  0  0  0
  -14.1228  -47.0728    0.0000 C   0  0  0  0  0  0  0  0  0  0  0  0
  -12.8587  -47.8803    0.0000 C   0  0  0  0  0  0  0  0  0  0  0  0
  -11.5486  -48.6108    0.0000 C   0  0  0  0  0  0  0  0  0  0  0  0
  -10.1971  -49.2616    0.0000 C   0  0  0  0  0  0  0  0  0  0  0  0
   -8.8092  -49.8305    0.0000 C   0  0  0  0  0  0  0  0  0  0  0  0
   -7.3897  -50.3153    0.0000 C   0  0  0  0  0  0  0  0  0  0  0  0
   -5.9438  -50.7143    0.0000 C   0  0  0  0  0  0  0  0  0  0  0  0
   -4.4765  -51.0262    0.0000 C   0  0  0  0  0  0  0  0  0  0  0  0
   -2.9933  -51.2498    0.0000 C   0  0  0  0  0  0  0  0  0  0  0  0
   -1.4993  -51.3842    0.0000 C   0  0  0  0  0  0  0  0  0  0  0  0
    0.0000  -51.4291    0.0000 C   0  0  0  0  0  0  0  0  0  0  0  0
    1.4993  -51.3842    0.0000 C   0  0  0  0  0  0  0  0  0  0  0  0
    2.9933  -51.2498    0.0000 C   0  0  0  0  0  0  0  0  0  0  0  0
    4.4765  -51.0262    0.0000 C   0  0  0  0  0  0  0  0  0  0  0  0
    5.9438  -50.7143    0.0000 C   0  0  0  0  0  0  0  0  0  0  0  0
    7.3897  -50.3153    0.0000 C   0  0  0  0  0  0  0  0  0  0  0  0
    8.8092  -49.8305    0.0000 C   0  0  0  0  0  0  0  0  0  0  0  0
   10.1971  -49.2616    0.0000 C   0  0  0  0  0  0  0  0  0  0  0  0
   11.5486  -48.6108    0.0000 C   0  0  0  0  0  0  0  0  0  0  0  0
   12.8587  -47.8803    0.0000 C   0  0  0  0  0  0  0  0  0  0  0  0
   14.1228  -47.0728    0.0000 C   0  0  0  0  0  0  0  0  0  0  0  0
   15.3363  -46.1911    0.0000 C   0  0  0  0  0  0  0  0  0  0  0  0
   16.4949  -45.2384    0.0000 C   0  0  0  0  0  0  0  0  0  0  0  0
   17.5945  -44.2182    0.0000 C   0  0  0  0  0  0  0  0  0  0  0  0
   18.6311  -43.1340    0.0000 C   0  0  0  0  0  0  0  0  0  0  0  0
   19.6010  -41.9898    0.0000 C   0  0  0  0  0  0  0  0  0  0  0  0
   20.5008  -40.7896    0.0000 C   0  0  0  0  0  0  0  0  0  0  0  0
   21.3271  -39.5377    0.0000 C   0  0  0  0  0  0  0  0  0  0  0  0
   22.0771  -38.2387    0.0000 C   0  0  0  0  0  0  0  0  0  0  0  0
   22.7481  -36.8971    0.0000 C   0  0  0  0  0  0  0  0  0  0  0  0
   23.3376  -35.5178    0.0000 C   0  0  0  0  0  0  0  0  0  0  0  0
   23.8436  -34.1057    0.0000 C   0  0  0  0  0  0  0  0  0  0  0  0
   24.2642  -32.6659    0.0000 C   0  0  0  0  0  0  0  0  0  0  0  0
   24.5980  -31.2035    0.0000 C   0  0  0  0  0  0  0  0  0  0  0  0
   24.8437  -29.7238    0.0000 C   0  0  0  0  0  0  0  0  0  0  0  0
   25.0005  -28.2320    0.0000 C   0  0  0  0  0  0  0  0  0  0  0  0
   25.0678  -26.7335    0.0000 C   0  0  0  0  0  0  0  0  0  0  0  0
   25.0454  -25.2337    0.0000 C   0  0  0  0  0  0  0  0  0  0  0  0
   24.9333  -23.7379    0.0000 C   0  0  0  0  0  0  0  0  0  0  0  0
   24.7320  -22.2514    0.0000 C   0  0  0  0  0  0  0  0  0  0  0  0
   24.4421  -20.7797    0.0000 C   0  0  0  0  0  0  0  0  0  0  0  0
   24.0647  -19.3280    0.0000 C   0  0  0  0  0  0  0  0  0  0  0  0
   23.6012  -17.9014    0.0000 C   0  0  0  0  0  0  0  0  0  0  0  0
   23.0532  -16.5051    0.0000 C   0  0  0  0  0  0  0  0  0  0  0  0
   22.4226  -15.1440    0.0000 C   0  0  0  0  0  0  0  0  0  0  0  0
   21.7118  -13.8231    0.0000 C   0  0  0  0  0  0  0  0  0  0  0  0
   20.9233  -12.5471    0.0000 C   0  0  0  0  0  0  0  0  0  0  0  0
   20.0599  -11.3205    0.0000 C   0  0  0  0  0  0  0  0  0  0  0  0
   19.1246  -10.1478    0.0000 C   0  0  0  0  0  0  0  0  0  0  0  0
   18.1209   -9.0331    0.0000 C   0  0  0  0  0  0  0  0  0  0  0  0
   17.0524   -7.9804    0.0000 C   0  0  0  0  0  0  0  0  0  0  0  0
   15.9228   -6.9935    0.0000 C   0  0  0  0  0  0  0  0  0  0  0  0
   14.7362   -6.0759    0.0000 C   0  0  0  0  0  0  0  0  0  0  0  0
   13.4968   -5.2309    0.0000 C   0  0  0  0  0  0  0  0  0  0  0  0
   12.2091   -4.4616    0.0000 C   0  0  0  0  0  0  0  0  0  0  0  0
   10.8777   -3.7706    0.0000 C   0  0  0  0  0  0  0  0  0  0  0  0
    9.5074   -3.1605    0.0000 C   0  0  0  0  0  0  0  0  0  0  0  0
    8.1031   -2.6334    0.0000 C   0  0  0  0  0  0  0  0  0  0  0  0
    6.6697   -2.1913    0.0000 C   0  0  0  0  0  0  0  0  0  0  0  0
    5.2125   -1.8357    0.0000 C   0  0  0  0  0  0  0  0  0  0  0  0
    3.7366   -1.5678    0.0000 C   0  0  0  0  0  0  0  0  0  0  0  0
    2.2473   -1.3887    0.0000 C   0  0  0  0  0  0  0  0  0  0  0  0
    0.7500   -1.2990    0.0000 C   0  0  0  0  0  0  0  0  0  0  0  0
    1.5000    0.0000    0.0000 C   0  0  0  0  0  0  0  0  0  0  0  0
    0.7500    1.2990    0.0000 C   0  0  0  0  0  0  0  0  0  0  0  0
   -0.7500    1.2990    0.0000 C   0  0  0  0  0  0  0  0  0  0  0  0
   -1.5000    0.0000    0.0000 C   0  0  0  0  0  0  0  0  0  0  0  0
   -0.7500   -1.2990    0.0000 C   0  0  0  0  0  0  0  0  0  0  0  0
   -2.2473   -1.3887    0.0000 C   0  0  0  0  0  0  0  0  0  0  0  0
   -1.3476   -2.5889    0.0000 C   0  0  0  0  0  0  0  0  0  0  0  0
   -1.9371   -3.9682    0.0000 C   0  0  0  0  0  0  0  0  0  0  0  0
   -3.4264   -4.1473    0.0000 C   0  0  0  0  0  0  0  0  0  0  0  0
   -4.3261   -2.9471    0.0000 C   0  0  0  0  0  0  0  0  0  0  0  0
   -3.7366   -1.5678    0.0000 C   0  0  0  0  0  0  0  0  0  0  0  0
  1  2  1  0
  2  3  1  0
  3  4  1  0
  4  5  1  0
  5  6  1  0
  6  7  1  0
  7  8  1  0
  8  9  1  0
  9 10  1  0
 10 11  1  0
 11 12  1  0
 12 13  1  0
 13 14  1  0
 14 15  1  0
 15 16  1  0
 16 17  1  0
 17 18  1  0
 18 19  1  0
 19 20  1  0
 20 21  1  0
 21 22  1  0
 22 23  1  0
 23 24  1  0
 24 25  1  0
 25 26  1  0
 26 27  1  0
 27 28  1  0
 28 29  1  0
 29 30  1  0
 30 31  1  0
 31 32  1  0
 32 33  1  0
 33 34  1  0
 34 35  1  0
 35 36  1  0
 36 37  1  0
 37 38  1  0
 38 39  1  0
 39 40  1  0
 40 41  1  0
 41 42  1  0
 42 43  1  0
 43 44  1  0
 44 45  1  0
 45 46  1  0
 46 47  1  0
 47 48  1  0
 48 49  1  0
 49 50  1  0
 50 51  1  0
 51 52  1  0
 52 53  1  0
 53 54  1  0
 54 55  1  0
 55 56  1  0
 56 57  1  0
 57 58  1  0
 58 59  1  0
 59 60  1  0
 60 61  1  0
 61 62  1  0
 62 63  1  0
 63 64  1  0
 64 65  1  0
 65 66  1  0
 66 67  1  0
 67 68  1  0
 68 69  1  0
 69 70  1  0
 70 71  1  0
 71 72  1  0
 72 73  1  0
 73 74  1  0
 74 75  1  0
 75 76  1  0
 76 77  1  0
 77 78  1  0
 78 79  1  0
 79 80  1  0
 80 81  1  0
 81 82  1  0
 82 83  1  0
 83 84  1  0
 84 85  1  0
 85 86  1  0
 86 87  1  0
 87 88  1  0
 88 89  1  0
 89 90  1  0
 90 91  1  0
 91 92  1  0
 92 93  1  0
 93 94  1  0
 94 95  1  0
 95 96  1  0
 96 97  1  0
 97 98  1  0
 98 99  1  0
 99100  1  0
100101  1  0
101102  1  0
102103  1  0
103104  2  0
104105  1  0
105106  2  0
106107  1  0
107108  2  0
108109  1  0
109110  2  0
110111  1  0
111112  2  0
112113  1  0
113114  2  0
114  2  1  0
108103  1  0
114109  1  0
M  END
>  <Title>  (690) 
idAAYPgen9

$$$$

     RDKit          2D

  9  9  0  0  0  0  0  0  0  0999 V2000
    4.7286   -0.0000    0.0000 C   0  0  0  0  0  0  0  0  0  0  0  0
    3.2286   -0.0000    0.0000 C   0  0  0  0  0  0  0  0  0  0  0  0
    1.7286    0.0000    0.0000 C   0  0  0  0  0  0  0  0  0  0  0  0
    1.0777    1.3515    0.0000 C   0  0  0  0  0  0  0  0  0  0  0  0
   -0.3846    1.6852    0.0000 C   0  0  0  0  0  0  0  0  0  0  0  0
   -1.5574    0.7500    0.0000 C   0  0  0  0  0  0  0  0  0  0  0  0
   -1.5574   -0.7500    0.0000 C   0  0  0  0  0  0  0  0  0  0  0  0
   -0.3846   -1.6852    0.0000 C   0  0  0  0  0  0  0  0  0  0  0  0
    1.0777   -1.3515    0.0000 C   0  0  0  0  0  0  0  0  0  0  0  0
  1  2  3  0
  2  3  1  0
  3  4  1  0
  4  5  1  0
  5  6  1  0
  6  7  1  0
  7  8  1  0
  8  9  1  0
  9  3  1  0
M  END
>  <Title>  (691) 
idAAYQgen9

$$$$

     RDKit          2D

118119  0  0  0  0  0  0  0  0999 V2000
   -2.3726    0.1124    0.0000 C   0  0  0  0  0  0  0  0  0  0  0  0
   -2.2477   -1.3824    0.0000 C   0  0  0  0  0  0  0  0  0  0  0  0
   -3.7384   -1.5489    0.0000 C   0  0  0  0  0  0  0  0  0  0  0  0
   -5.2176   -1.7979    0.0000 C   0  0  0  0  0  0  0  0  0  0  0  0
   -6.6806   -2.1288    0.0000 C   0  0  0  0  0  0  0  0  0  0  0  0
   -8.1230   -2.5405    0.0000 C   0  0  0  0  0  0  0  0  0  0  0  0
   -9.5403   -3.0317    0.0000 C   0  0  0  0  0  0  0  0  0  0  0  0
  -10.9281   -3.6009    0.0000 C   0  0  0  0  0  0  0  0  0  0  0  0
  -12.2822   -4.2463    0.0000 C   0  0  0  0  0  0  0  0  0  0  0  0
  -13.5982   -4.9660    0.0000 C   0  0  0  0  0  0  0  0  0  0  0  0
  -14.8723   -5.7578    0.0000 C   0  0  0  0  0  0  0  0  0  0  0  0
  -16.1003   -6.6191    0.0000 C   0  0  0  0  0  0  0  0  0  0  0  0
  -17.2786   -7.5473    0.0000 C   0  0  0  0  0  0  0  0  0  0  0  0
  -18.4035   -8.5396    0.0000 C   0  0  0  0  0  0  0  0  0  0  0  0
  -19.4715   -9.5929    0.0000 C   0  0  0  0  0  0  0  0  0  0  0  0
  -20.4794  -10.7038    0.0000 C   0  0  0  0  0  0  0  0  0  0  0  0
  -21.4239  -11.8691    0.0000 C   0  0  0  0  0  0  0  0  0  0  0  0
  -22.3022  -13.0851    0.0000 C   0  0  0  0  0  0  0  0  0  0  0  0
  -23.1115  -14.3480    0.0000 C   0  0  0  0  0  0  0  0  0  0  0  0
  -23.8495  -15.6539    0.0000 C   0  0  0  0  0  0  0  0  0  0  0  0
  -24.5137  -16.9989    0.0000 C   0  0  0  0  0  0  0  0  0  0  0  0
  -25.1021  -18.3786    0.0000 C   0  0  0  0  0  0  0  0  0  0  0  0
  -25.6130  -19.7890    0.0000 C   0  0  0  0  0  0  0  0  0  0  0  0
  -26.0447  -21.2255    0.0000 C   0  0  0  0  0  0  0  0  0  0  0  0
  -26.3958  -22.6838    0.0000 C   0  0  0  0  0  0  0  0  0  0  0  0
  -26.6654  -24.1594    0.0000 C   0  0  0  0  0  0  0  0  0  0  0  0
  -26.8526  -25.6477    0.0000 C   0  0  0  0  0  0  0  0  0  0  0  0
  -26.9568  -27.1440    0.0000 C   0  0  0  0  0  0  0  0  0  0  0  0
  -26.9776  -28.6439    0.0000 C   0  0  0  0  0  0  0  0  0  0  0  0
  -26.9151  -30.1426    0.0000 C   0  0  0  0  0  0  0  0  0  0  0  0
  -26.7694  -31.6355    0.0000 C   0  0  0  0  0  0  0  0  0  0  0  0
  -26.5409  -33.1180    0.0000 C   0  0  0  0  0  0  0  0  0  0  0  0
  -26.2304  -34.5855    0.0000 C   0  0  0  0  0  0  0  0  0  0  0  0
  -25.8388  -36.0335    0.0000 C   0  0  0  0  0  0  0  0  0  0  0  0
  -25.3674  -37.4575    0.0000 C   0  0  0  0  0  0  0  0  0  0  0  0
  -24.8175  -38.8530    0.0000 C   0  0  0  0  0  0  0  0  0  0  0  0
  -24.1909  -40.2159    0.0000 C   0  0  0  0  0  0  0  0  0  0  0  0
  -23.4896  -41.5419    0.0000 C   0  0  0  0  0  0  0  0  0  0  0  0
  -22.7156  -42.8268    0.0000 C   0  0  0  0  0  0  0  0  0  0  0  0
  -21.8715  -44.0667    0.0000 C   0  0  0  0  0  0  0  0  0  0  0  0
  -20.9597  -45.2578    0.0000 C   0  0  0  0  0  0  0  0  0  0  0  0
  -19.9832  -46.3964    0.0000 C   0  0  0  0  0  0  0  0  0  0  0  0
  -18.9449  -47.4789    0.0000 C   0  0  0  0  0  0  0  0  0  0  0  0
  -17.8480  -48.5021    0.0000 C   0  0  0  0  0  0  0  0  0  0  0  0
  -16.6959  -49.4627    0.0000 C   0  0  0  0  0  0  0  0  0  0  0  0
  -15.4923  -50.3578    0.0000 C   0  0  0  0  0  0  0  0  0  0  0  0
  -14.2408  -51.1847    0.0000 C   0  0  0  0  0  0  0  0  0  0  0  0
  -12.9452  -51.9407    0.0000 C   0  0  0  0  0  0  0  0  0  0  0  0
  -11.6096  -52.6235    0.0000 C   0  0  0  0  0  0  0  0  0  0  0  0
  -10.2382  -53.2311    0.0000 C   0  0  0  0  0  0  0  0  0  0  0  0
   -8.8351  -53.7615    0.0000 C   0  0  0  0  0  0  0  0  0  0  0  0
   -7.4047  -54.2131    0.0000 C   0  0  0  0  0  0  0  0  0  0  0  0
   -5.9514  -54.5845    0.0000 C   0  0  0  0  0  0  0  0  0  0  0  0
   -4.4797  -54.8746    0.0000 C   0  0  0  0  0  0  0  0  0  0  0  0
   -2.9942  -55.0824    0.0000 C   0  0  0  0  0  0  0  0  0  0  0  0
   -1.4994  -55.2074    0.0000 C   0  0  0  0  0  0  0  0  0  0  0  0
   -0.0000  -55.2491    0.0000 C   0  0  0  0  0  0  0  0  0  0  0  0
    1.4994  -55.2074    0.0000 C   0  0  0  0  0  0  0  0  0  0  0  0
    2.9942  -55.0824    0.0000 C   0  0  0  0  0  0  0  0  0  0  0  0
    4.4797  -54.8746    0.0000 C   0  0  0  0  0  0  0  0  0  0  0  0
    5.9514  -54.5845    0.0000 C   0  0  0  0  0  0  0  0  0  0  0  0
    7.4047  -54.2131    0.0000 C   0  0  0  0  0  0  0  0  0  0  0  0
    8.8351  -53.7615    0.0000 C   0  0  0  0  0  0  0  0  0  0  0  0
   10.2382  -53.2311    0.0000 C   0  0  0  0  0  0  0  0  0  0  0  0
   11.6096  -52.6235    0.0000 C   0  0  0  0  0  0  0  0  0  0  0  0
   12.9452  -51.9407    0.0000 C   0  0  0  0  0  0  0  0  0  0  0  0
   14.2408  -51.1847    0.0000 C   0  0  0  0  0  0  0  0  0  0  0  0
   15.4923  -50.3578    0.0000 C   0  0  0  0  0  0  0  0  0  0  0  0
   16.6959  -49.4627    0.0000 C   0  0  0  0  0  0  0  0  0  0  0  0
   17.8480  -48.5021    0.0000 C   0  0  0  0  0  0  0  0  0  0  0  0
   18.9449  -47.4789    0.0000 C   0  0  0  0  0  0  0  0  0  0  0  0
   19.9832  -46.3964    0.0000 C   0  0  0  0  0  0  0  0  0  0  0  0
   20.9597  -45.2578    0.0000 C   0  0  0  0  0  0  0  0  0  0  0  0
   21.8715  -44.0667    0.0000 C   0  0  0  0  0  0  0  0  0  0  0  0
   22.7156  -42.8268    0.0000 C   0  0  0  0  0  0  0  0  0  0  0  0
   23.4896  -41.5419    0.0000 C   0  0  0  0  0  0  0  0  0  0  0  0
   24.1909  -40.2159    0.0000 C   0  0  0  0  0  0  0  0  0  0  0  0
   24.8175  -38.8530    0.0000 C   0  0  0  0  0  0  0  0  0  0  0  0
   25.3674  -37.4575    0.0000 C   0  0  0  0  0  0  0  0  0  0  0  0
   25.8388  -36.0335    0.0000 C   0  0  0  0  0  0  0  0  0  0  0  0
   26.2304  -34.5855    0.0000 C   0  0  0  0  0  0  0  0  0  0  0  0
   26.5409  -33.1180    0.0000 C   0  0  0  0  0  0  0  0  0  0  0  0
   26.7694  -31.6355    0.0000 C   0  0  0  0  0  0  0  0  0  0  0  0
   26.9151  -30.1426    0.0000 C   0  0  0  0  0  0  0  0  0  0  0  0
   26.9776  -28.6439    0.0000 C   0  0  0  0  0  0  0  0  0  0  0  0
   26.9568  -27.1440    0.0000 C   0  0  0  0  0  0  0  0  0  0  0  0
   26.8526  -25.6477    0.0000 C   0  0  0  0  0  0  0  0  0  0  0  0
   26.6654  -24.1594    0.0000 C   0  0  0  0  0  0  0  0  0  0  0  0
   26.3958  -22.6838    0.0000 C   0  0  0  0  0  0  0  0  0  0  0  0
   26.0447  -21.2255    0.0000 C   0  0  0  0  0  0  0  0  0  0  0  0
   25.6130  -19.7890    0.0000 C   0  0  0  0  0  0  0  0  0  0  0  0
   25.1021  -18.3786    0.0000 C   0  0  0  0  0  0  0  0  0  0  0  0
   24.5137  -16.9989    0.0000 C   0  0  0  0  0  0  0  0  0  0  0  0
   23.8495  -15.6539    0.0000 C   0  0  0  0  0  0  0  0  0  0  0  0
   23.1115  -14.3480    0.0000 C   0  0  0  0  0  0  0  0  0  0  0  0
   22.3022  -13.0851    0.0000 C   0  0  0  0  0  0  0  0  0  0  0  0
   21.4239  -11.8691    0.0000 C   0  0  0  0  0  0  0  0  0  0  0  0
   20.4794  -10.7038    0.0000 C   0  0  0  0  0  0  0  0  0  0  0  0
   19.4715   -9.5929    0.0000 C   0  0  0  0  0  0  0  0  0  0  0  0
   18.4035   -8.5396    0.0000 C   0  0  0  0  0  0  0  0  0  0  0  0
   17.2786   -7.5473    0.0000 C   0  0  0  0  0  0  0  0  0  0  0  0
   16.1003   -6.6191    0.0000 C   0  0  0  0  0  0  0  0  0  0  0  0
   14.8723   -5.7578    0.0000 C   0  0  0  0  0  0  0  0  0  0  0  0
   13.5982   -4.9660    0.0000 C   0  0  0  0  0  0  0  0  0  0  0  0
   12.2822   -4.2463    0.0000 C   0  0  0  0  0  0  0  0  0  0  0  0
   10.9281   -3.6009    0.0000 C   0  0  0  0  0  0  0  0  0  0  0  0
    9.5403   -3.0317    0.0000 C   0  0  0  0  0  0  0  0  0  0  0  0
    8.1230   -2.5405    0.0000 C   0  0  0  0  0  0  0  0  0  0  0  0
    6.6806   -2.1288    0.0000 C   0  0  0  0  0  0  0  0  0  0  0  0
    5.2176   -1.7979    0.0000 C   0  0  0  0  0  0  0  0  0  0  0  0
    3.7384   -1.5489    0.0000 C   0  0  0  0  0  0  0  0  0  0  0  0
    2.2477   -1.3824    0.0000 C   0  0  0  0  0  0  0  0  0  0  0  0
    0.7500   -1.2990    0.0000 C   0  0  0  0  0  0  0  0  0  0  0  0
    1.5000    0.0000    0.0000 C   0  0  0  0  0  0  0  0  0  0  0  0
    0.7500    1.2990    0.0000 C   0  0  0  0  0  0  0  0  0  0  0  0
   -0.7500    1.2990    0.0000 C   0  0  0  0  0  0  0  0  0  0  0  0
   -1.5000    0.0000    0.0000 C   0  0  0  0  0  0  0  0  0  0  0  0
   -0.7500   -1.2990    0.0000 C   0  0  0  0  0  0  0  0  0  0  0  0
  1  2  1  0
  2  3  1  0
  3  4  2  0
  4  5  1  0
  5  6  1  0
  6  7  1  0
  7  8  1  0
  8  9  1  0
  9 10  1  0
 10 11  1  0
 11 12  1  0
 12 13  1  0
 13 14  1  0
 14 15  1  0
 15 16  1  0
 16 17  1  0
 17 18  1  0
 18 19  1  0
 19 20  1  0
 20 21  1  0
 21 22  1  0
 22 23  1  0
 23 24  1  0
 24 25  1  0
 25 26  1  0
 26 27  1  0
 27 28  1  0
 28 29  1  0
 29 30  1  0
 30 31  1  0
 31 32  1  0
 32 33  1  0
 33 34  1  0
 34 35  1  0
 35 36  1  0
 36 37  1  0
 37 38  1  0
 38 39  1  0
 39 40  1  0
 40 41  1  0
 41 42  1  0
 42 43  1  0
 43 44  1  0
 44 45  1  0
 45 46  1  0
 46 47  1  0
 47 48  1  0
 48 49  1  0
 49 50  1  0
 50 51  1  0
 51 52  1  0
 52 53  1  0
 53 54  1  0
 54 55  1  0
 55 56  1  0
 56 57  1  0
 57 58  1  0
 58 59  1  0
 59 60  1  0
 60 61  1  0
 61 62  1  0
 62 63  1  0
 63 64  1  0
 64 65  1  0
 65 66  1  0
 66 67  1  0
 67 68  1  0
 68 69  1  0
 69 70  1  0
 70 71  1  0
 71 72  1  0
 72 73  1  0
 73 74  1  0
 74 75  1  0
 75 76  1  0
 76 77  1  0
 77 78  1  0
 78 79  1  0
 79 80  1  0
 80 81  1  0
 81 82  1  0
 82 83  1  0
 83 84  1  0
 84 85  1  0
 85 86  1  0
 86 87  1  0
 87 88  1  0
 88 89  1  0
 89 90  1  0
 90 91  1  0
 91 92  1  0
 92 93  1  0
 93 94  1  0
 94 95  1  0
 95 96  1  0
 96 97  1  0
 97 98  1  0
 98 99  1  0
 99100  1  0
100101  1  0
101102  1  0
102103  1  0
103104  1  0
104105  1  0
105106  1  0
106107  1  0
107108  1  0
108109  1  0
109110  1  0
110111  1  0
111112  1  0
112113  1  0
113114  2  0
114115  1  0
115116  2  0
116117  1  0
117118  2  0
118  2  1  0
118113  1  0
M  END
>  <Title>  (692) 
idAAYRgen9

$$$$

     RDKit          2D

 34 38  0  0  0  0  0  0  0  0999 V2000
   -1.1382   -8.3460    0.0000 C   0  0  0  0  0  0  0  0  0  0  0  0
   -0.7500   -6.8971    0.0000 C   0  0  0  0  0  0  0  0  0  0  0  0
    0.7500   -6.8971    0.0000 C   0  0  0  0  0  0  0  0  0  0  0  0
    2.0490   -6.1471    0.0000 C   0  0  0  0  0  0  0  0  0  0  0  0
    2.7990   -4.8481    0.0000 C   0  0  0  0  0  0  0  0  0  0  0  0
    2.7990   -3.3481    0.0000 C   0  0  0  0  0  0  0  0  0  0  0  0
    2.0490   -2.0490    0.0000 C   0  0  0  0  0  0  0  0  0  0  0  0
    3.1097   -0.9884    0.0000 C   0  0  0  0  0  0  0  0  0  0  0  0
    2.7215    0.4605    0.0000 O   0  0  0  0  0  0  0  0  0  0  0  0
    4.5586   -1.3766    0.0000 N   0  0  0  0  0  0  0  0  0  0  0  0
    5.6192   -0.3159    0.0000 C   0  0  0  0  0  0  0  0  0  0  0  0
    7.0681   -0.7042    0.0000 N   0  0  0  0  0  0  0  0  0  0  0  0
    8.1288    0.3565    0.0000 N   0  0  0  0  0  0  0  0  0  0  0  0
    7.7406    1.8054    0.0000 N   0  0  0  0  0  0  0  0  0  0  0  0
    6.2917    2.1936    0.0000 N   0  0  0  0  0  0  0  0  0  0  0  0
    5.2310    1.1329    0.0000 N   0  0  0  0  0  0  0  0  0  0  0  0
    0.7500   -1.2990    0.0000 C   0  0  0  0  0  0  0  0  0  0  0  0
    1.5000    0.0000    0.0000 C   0  0  0  0  0  0  0  0  0  0  0  0
    0.7500    1.2990    0.0000 C   0  0  0  0  0  0  0  0  0  0  0  0
   -0.7500    1.2990    0.0000 C   0  0  0  0  0  0  0  0  0  0  0  0
   -1.5000    0.0000    0.0000 C   0  0  0  0  0  0  0  0  0  0  0  0
   -0.7500   -1.2990    0.0000 C   0  0  0  0  0  0  0  0  0  0  0  0
   -2.0490   -2.0490    0.0000 C   0  0  0  0  0  0  0  0  0  0  0  0
   -2.7990   -0.7500    0.0000 C   0  0  0  0  0  0  0  0  0  0  0  0
   -4.2990   -0.7500    0.0000 C   0  0  0  0  0  0  0  0  0  0  0  0
   -5.0490   -2.0490    0.0000 C   0  0  0  0  0  0  0  0  0  0  0  0
   -4.2990   -3.3481    0.0000 C   0  0  0  0  0  0  0  0  0  0  0  0
   -2.7990   -3.3481    0.0000 C   0  0  0  0  0  0  0  0  0  0  0  0
   -2.7990   -4.8481    0.0000 C   0  0  0  0  0  0  0  0  0  0  0  0
   -4.2990   -4.8481    0.0000 C   0  0  0  0  0  0  0  0  0  0  0  0
   -5.0490   -6.1471    0.0000 C   0  0  0  0  0  0  0  0  0  0  0  0
   -4.2990   -7.4462    0.0000 C   0  0  0  0  0  0  0  0  0  0  0  0
   -2.7990   -7.4462    0.0000 C   0  0  0  0  0  0  0  0  0  0  0  0
   -2.0490   -6.1471    0.0000 C   0  0  0  0  0  0  0  0  0  0  0  0
  1  2  1  0
  2  3  1  0
  3  4  1  0
  4  5  1  0
  5  6  2  0
  6  7  1  0
  7  8  1  0
  8  9  2  0
  8 10  1  0
 10 11  1  0
 11 12  2  0
 12 13  1  0
 13 14  2  0
 14 15  1  0
 15 16  2  0
  7 17  1  0
 17 18  2  0
 18 19  1  0
 19 20  2  0
 20 21  1  0
 21 22  2  0
 22 23  1  0
 23 24  2  0
 24 25  1  0
 25 26  2  0
 26 27  1  0
 27 28  2  0
 28 29  1  0
 29 30  2  0
 30 31  1  0
 31 32  2  0
 32 33  1  0
 33 34  2  0
 34  2  1  0
 16 11  1  0
 22 17  1  0
 28 23  1  0
 34 29  1  0
M  END
>  <Title>  (693) 
idAAYSgen9

$$$$

     RDKit          2D

 30 32  0  0  0  0  0  0  0  0999 V2000
    6.2943    0.0000    0.0000 C   0  0  0  0  0  0  0  0  0  0  0  0
    4.7943    0.0000    0.0000 C   0  0  0  0  0  0  0  0  0  0  0  0
    4.5597   -1.4815    0.0000 C   0  0  0  0  0  0  0  0  0  0  0  0
    3.8787   -2.8180    0.0000 C   0  0  0  0  0  0  0  0  0  0  0  0
    2.8180   -3.8787    0.0000 C   0  0  0  0  0  0  0  0  0  0  0  0
    1.4815   -4.5597    0.0000 C   0  0  0  0  0  0  0  0  0  0  0  0
   -0.0000   -4.7943    0.0000 C   0  0  0  0  0  0  0  0  0  0  0  0
   -1.4815   -4.5597    0.0000 C   0  0  0  0  0  0  0  0  0  0  0  0
   -2.8180   -3.8787    0.0000 C   0  0  0  0  0  0  0  0  0  0  0  0
   -3.8787   -2.8180    0.0000 C   0  0  0  0  0  0  0  0  0  0  0  0
   -4.5597   -1.4815    0.0000 C   0  0  0  0  0  0  0  0  0  0  0  0
   -4.7943    0.0000    0.0000 C   0  0  0  0  0  0  0  0  0  0  0  0
   -4.5597    1.4815    0.0000 C   0  0  0  0  0  0  0  0  0  0  0  0
   -3.8787    2.8180    0.0000 C   0  0  0  0  0  0  0  0  0  0  0  0
   -2.8180    3.8787    0.0000 C   0  0  0  0  0  0  0  0  0  0  0  0
   -1.4815    4.5597    0.0000 C   0  0  0  0  0  0  0  0  0  0  0  0
    0.0000    4.7943    0.0000 C   0  0  0  0  0  0  0  0  0  0  0  0
    1.4815    4.5597    0.0000 C   0  0  0  0  0  0  0  0  0  0  0  0
    2.8180    3.8787    0.0000 C   0  0  0  0  0  0  0  0  0  0  0  0
    3.8787    2.8180    0.0000 C   0  0  0  0  0  0  0  0  0  0  0  0
    4.9394    3.8787    0.0000 C   0  0  0  0  0  0  0  0  0  0  0  0
    4.7047    5.3602    0.0000 C   0  0  0  0  0  0  0  0  0  0  0  0
    5.8704    6.3042    0.0000 C   0  0  0  0  0  0  0  0  0  0  0  0
    5.6358    7.7857    0.0000 C   0  0  0  0  0  0  0  0  0  0  0  0
    4.2354    8.3233    0.0000 C   0  0  0  0  0  0  0  0  0  0  0  0
    3.0697    7.3793    0.0000 C   0  0  0  0  0  0  0  0  0  0  0  0
    3.3043    5.8978    0.0000 C   0  0  0  0  0  0  0  0  0  0  0  0
    6.2759    3.1977    0.0000 C   0  0  0  0  0  0  0  0  0  0  0  0
    6.0412    1.7162    0.0000 C   0  0  0  0  0  0  0  0  0  0  0  0
    4.5597    1.4815    0.0000 C   0  0  0  0  0  0  0  0  0  0  0  0
  1  2  1  0
  2  3  1  0
  3  4  2  0
  4  5  1  0
  5  6  2  0
  6  7  1  0
  7  8  2  0
  8  9  1  0
  9 10  2  0
 10 11  1  0
 11 12  2  0
 12 13  1  0
 13 14  2  0
 14 15  1  0
 15 16  2  0
 16 17  1  0
 17 18  2  0
 18 19  1  0
 19 20  2  0
 20 21  1  0
 21 22  1  0
 22 23  2  0
 23 24  1  0
 24 25  2  0
 25 26  1  0
 26 27  2  0
 21 28  2  0
 28 29  1  0
 29 30  2  0
 30  2  1  0
 30 20  1  0
 27 22  1  0
M  END
>  <Title>  (694) 
idAAYTgen9

$$$$

     RDKit          2D

 20 22  0  0  0  0  0  0  0  0999 V2000
    9.8932    2.9686    0.0000 N   0  0  0  0  0  0  0  0  0  0  0  0
    8.8895    1.8539    0.0000 C   0  0  0  0  0  0  0  0  0  0  0  0
    7.8858    0.7391    0.0000 C   0  0  0  0  0  0  0  0  0  0  0  0
    7.9643   -0.7588    0.0000 C   0  0  0  0  0  0  0  0  0  0  0  0
    6.4664   -0.8373    0.0000 C   0  0  0  0  0  0  0  0  0  0  0  0
    5.4627   -1.9520    0.0000 C   0  0  0  0  0  0  0  0  0  0  0  0
    5.9262   -3.3786    0.0000 O   0  0  0  0  0  0  0  0  0  0  0  0
    3.9955   -1.6402    0.0000 N   0  0  0  0  0  0  0  0  0  0  0  0
    2.9918   -2.7549    0.0000 C   0  0  0  0  0  0  0  0  0  0  0  0
    3.3037   -4.2221    0.0000 N   0  0  0  0  0  0  0  0  0  0  0  0
    2.0046   -4.9721    0.0000 N   0  0  0  0  0  0  0  0  0  0  0  0
    0.8899   -3.9684    0.0000 N   0  0  0  0  0  0  0  0  0  0  0  0
    1.5000   -2.5981    0.0000 N   0  0  0  0  0  0  0  0  0  0  0  0
    0.7500   -1.2990    0.0000 C   0  0  0  0  0  0  0  0  0  0  0  0
    1.5000    0.0000    0.0000 C   0  0  0  0  0  0  0  0  0  0  0  0
    0.7500    1.2990    0.0000 C   0  0  0  0  0  0  0  0  0  0  0  0
   -0.7500    1.2990    0.0000 C   0  0  0  0  0  0  0  0  0  0  0  0
   -1.5000    0.0000    0.0000 C   0  0  0  0  0  0  0  0  0  0  0  0
   -0.7500   -1.2990    0.0000 C   0  0  0  0  0  0  0  0  0  0  0  0
    6.3879    0.6606    0.0000 C   0  0  0  0  0  0  0  0  0  0  0  0
  1  2  3  0
  2  3  1  0
  3  4  2  0
  4  5  1  0
  5  6  1  0
  6  7  2  0
  6  8  1  0
  8  9  1  0
  9 10  2  0
 10 11  1  0
 11 12  2  0
 12 13  1  0
 13 14  1  0
 14 15  2  0
 15 16  1  0
 16 17  2  0
 17 18  1  0
 18 19  2  0
  5 20  2  0
 20  3  1  0
 13  9  1  0
 19 14  1  0
M  END
>  <Title>  (695) 
idAAYUgen9

$$$$

     RDKit          2D

107108  0  0  0  0  0  0  0  0999 V2000
   -2.3856    0.1022    0.0000 C   0  0  0  0  0  0  0  0  0  0  0  0
   -2.2472   -1.3914    0.0000 C   0  0  0  0  0  0  0  0  0  0  0  0
   -3.7358   -1.5757    0.0000 C   0  0  0  0  0  0  0  0  0  0  0  0
   -5.2102   -1.8513    0.0000 C   0  0  0  0  0  0  0  0  0  0  0  0
   -6.6649   -2.2172    0.0000 C   0  0  0  0  0  0  0  0  0  0  0  0
   -8.0944   -2.6719    0.0000 C   0  0  0  0  0  0  0  0  0  0  0  0
   -9.4931   -3.2138    0.0000 C   0  0  0  0  0  0  0  0  0  0  0  0
  -10.8558   -3.8407    0.0000 C   0  0  0  0  0  0  0  0  0  0  0  0
  -12.1773   -4.5504    0.0000 C   0  0  0  0  0  0  0  0  0  0  0  0
  -13.4526   -5.3400    0.0000 C   0  0  0  0  0  0  0  0  0  0  0  0
  -14.6769   -6.2067    0.0000 C   0  0  0  0  0  0  0  0  0  0  0  0
  -15.8455   -7.1471    0.0000 C   0  0  0  0  0  0  0  0  0  0  0  0
  -16.9540   -8.1576    0.0000 C   0  0  0  0  0  0  0  0  0  0  0  0
  -17.9982   -9.2345    0.0000 C   0  0  0  0  0  0  0  0  0  0  0  0
  -18.9742  -10.3736    0.0000 C   0  0  0  0  0  0  0  0  0  0  0  0
  -19.8781  -11.5706    0.0000 C   0  0  0  0  0  0  0  0  0  0  0  0
  -20.7067  -12.8210    0.0000 C   0  0  0  0  0  0  0  0  0  0  0  0
  -21.4567  -14.1201    0.0000 C   0  0  0  0  0  0  0  0  0  0  0  0
  -22.1253  -15.4628    0.0000 C   0  0  0  0  0  0  0  0  0  0  0  0
  -22.7099  -16.8442    0.0000 C   0  0  0  0  0  0  0  0  0  0  0  0
  -23.2085  -18.2589    0.0000 C   0  0  0  0  0  0  0  0  0  0  0  0
  -23.6190  -19.7016    0.0000 C   0  0  0  0  0  0  0  0  0  0  0  0
  -23.9399  -21.1669    0.0000 C   0  0  0  0  0  0  0  0  0  0  0  0
  -24.1700  -22.6492    0.0000 C   0  0  0  0  0  0  0  0  0  0  0  0
  -24.3084  -24.1428    0.0000 C   0  0  0  0  0  0  0  0  0  0  0  0
  -24.3546  -25.6420    0.0000 C   0  0  0  0  0  0  0  0  0  0  0  0
  -24.3084  -27.1413    0.0000 C   0  0  0  0  0  0  0  0  0  0  0  0
  -24.1700  -28.6349    0.0000 C   0  0  0  0  0  0  0  0  0  0  0  0
  -23.9399  -30.1172    0.0000 C   0  0  0  0  0  0  0  0  0  0  0  0
  -23.6190  -31.5825    0.0000 C   0  0  0  0  0  0  0  0  0  0  0  0
  -23.2085  -33.0252    0.0000 C   0  0  0  0  0  0  0  0  0  0  0  0
  -22.7099  -34.4399    0.0000 C   0  0  0  0  0  0  0  0  0  0  0  0
  -22.1253  -35.8213    0.0000 C   0  0  0  0  0  0  0  0  0  0  0  0
  -21.4567  -37.1640    0.0000 C   0  0  0  0  0  0  0  0  0  0  0  0
  -20.7067  -38.4631    0.0000 C   0  0  0  0  0  0  0  0  0  0  0  0
  -19.8781  -39.7135    0.0000 C   0  0  0  0  0  0  0  0  0  0  0  0
  -18.9742  -40.9105    0.0000 C   0  0  0  0  0  0  0  0  0  0  0  0
  -17.9982  -42.0496    0.0000 C   0  0  0  0  0  0  0  0  0  0  0  0
  -16.9540  -43.1265    0.0000 C   0  0  0  0  0  0  0  0  0  0  0  0
  -15.8455  -44.1370    0.0000 C   0  0  0  0  0  0  0  0  0  0  0  0
  -14.6769  -45.0774    0.0000 C   0  0  0  0  0  0  0  0  0  0  0  0
  -13.4526  -45.9441    0.0000 C   0  0  0  0  0  0  0  0  0  0  0  0
  -12.1773  -46.7337    0.0000 C   0  0  0  0  0  0  0  0  0  0  0  0
  -10.8558  -47.4433    0.0000 C   0  0  0  0  0  0  0  0  0  0  0  0
   -9.4931  -48.0703    0.0000 C   0  0  0  0  0  0  0  0  0  0  0  0
   -8.0944  -48.6122    0.0000 C   0  0  0  0  0  0  0  0  0  0  0  0
   -6.6649  -49.0669    0.0000 C   0  0  0  0  0  0  0  0  0  0  0  0
   -5.2102  -49.4328    0.0000 C   0  0  0  0  0  0  0  0  0  0  0  0
   -3.7358  -49.7084    0.0000 C   0  0  0  0  0  0  0  0  0  0  0  0
   -2.2472  -49.8927    0.0000 C   0  0  0  0  0  0  0  0  0  0  0  0
   -0.7500  -49.9850    0.0000 C   0  0  0  0  0  0  0  0  0  0  0  0
    0.7500  -49.9850    0.0000 C   0  0  0  0  0  0  0  0  0  0  0  0
    2.2472  -49.8927    0.0000 C   0  0  0  0  0  0  0  0  0  0  0  0
    3.7358  -49.7084    0.0000 C   0  0  0  0  0  0  0  0  0  0  0  0
    5.2102  -49.4328    0.0000 C   0  0  0  0  0  0  0  0  0  0  0  0
    6.6649  -49.0669    0.0000 C   0  0  0  0  0  0  0  0  0  0  0  0
    8.0944  -48.6122    0.0000 C   0  0  0  0  0  0  0  0  0  0  0  0
    9.4931  -48.0703    0.0000 C   0  0  0  0  0  0  0  0  0  0  0  0
   10.8558  -47.4433    0.0000 C   0  0  0  0  0  0  0  0  0  0  0  0
   12.1773  -46.7337    0.0000 C   0  0  0  0  0  0  0  0  0  0  0  0
   13.4526  -45.9441    0.0000 C   0  0  0  0  0  0  0  0  0  0  0  0
   14.6769  -45.0774    0.0000 C   0  0  0  0  0  0  0  0  0  0  0  0
   15.8455  -44.1370    0.0000 C   0  0  0  0  0  0  0  0  0  0  0  0
   16.9540  -43.1265    0.0000 C   0  0  0  0  0  0  0  0  0  0  0  0
   17.9982  -42.0496    0.0000 C   0  0  0  0  0  0  0  0  0  0  0  0
   18.9742  -40.9105    0.0000 C   0  0  0  0  0  0  0  0  0  0  0  0
   19.8781  -39.7135    0.0000 C   0  0  0  0  0  0  0  0  0  0  0  0
   20.7067  -38.4631    0.0000 C   0  0  0  0  0  0  0  0  0  0  0  0
   21.4567  -37.1640    0.0000 C   0  0  0  0  0  0  0  0  0  0  0  0
   22.1253  -35.8213    0.0000 C   0  0  0  0  0  0  0  0  0  0  0  0
   22.7099  -34.4399    0.0000 C   0  0  0  0  0  0  0  0  0  0  0  0
   23.2085  -33.0252    0.0000 C   0  0  0  0  0  0  0  0  0  0  0  0
   23.6190  -31.5825    0.0000 C   0  0  0  0  0  0  0  0  0  0  0  0
   23.9399  -30.1172    0.0000 C   0  0  0  0  0  0  0  0  0  0  0  0
   24.1700  -28.6349    0.0000 C   0  0  0  0  0  0  0  0  0  0  0  0
   24.3084  -27.1413    0.0000 C   0  0  0  0  0  0  0  0  0  0  0  0
   24.3546  -25.6420    0.0000 C   0  0  0  0  0  0  0  0  0  0  0  0
   24.3084  -24.1428    0.0000 C   0  0  0  0  0  0  0  0  0  0  0  0
   24.1700  -22.6492    0.0000 C   0  0  0  0  0  0  0  0  0  0  0  0
   23.9399  -21.1669    0.0000 C   0  0  0  0  0  0  0  0  0  0  0  0
   23.6190  -19.7016    0.0000 C   0  0  0  0  0  0  0  0  0  0  0  0
   23.2085  -18.2589    0.0000 C   0  0  0  0  0  0  0  0  0  0  0  0
   22.7099  -16.8442    0.0000 C   0  0  0  0  0  0  0  0  0  0  0  0
   22.1253  -15.4628    0.0000 C   0  0  0  0  0  0  0  0  0  0  0  0
   21.4567  -14.1201    0.0000 C   0  0  0  0  0  0  0  0  0  0  0  0
   20.7067  -12.8210    0.0000 C   0  0  0  0  0  0  0  0  0  0  0  0
   19.8781  -11.5706    0.0000 C   0  0  0  0  0  0  0  0  0  0  0  0
   18.9742  -10.3736    0.0000 C   0  0  0  0  0  0  0  0  0  0  0  0
   17.9982   -9.2345    0.0000 C   0  0  0  0  0  0  0  0  0  0  0  0
   16.9540   -8.1576    0.0000 C   0  0  0  0  0  0  0  0  0  0  0  0
   15.8455   -7.1471    0.0000 C   0  0  0  0  0  0  0  0  0  0  0  0
   14.6769   -6.2067    0.0000 C   0  0  0  0  0  0  0  0  0  0  0  0
   13.4526   -5.3400    0.0000 C   0  0  0  0  0  0  0  0  0  0  0  0
   12.1773   -4.5504    0.0000 C   0  0  0  0  0  0  0  0  0  0  0  0
   10.8558   -3.8407    0.0000 C   0  0  0  0  0  0  0  0  0  0  0  0
    9.4931   -3.2138    0.0000 C   0  0  0  0  0  0  0  0  0  0  0  0
    8.0944   -2.6719    0.0000 C   0  0  0  0  0  0  0  0  0  0  0  0
    6.6649   -2.2172    0.0000 C   0  0  0  0  0  0  0  0  0  0  0  0
    5.2102   -1.8513    0.0000 C   0  0  0  0  0  0  0  0  0  0  0  0
    3.7358   -1.5757    0.0000 C   0  0  0  0  0  0  0  0  0  0  0  0
    2.2472   -1.3914    0.0000 C   0  0  0  0  0  0  0  0  0  0  0  0
    0.7500   -1.2990    0.0000 C   0  0  0  0  0  0  0  0  0  0  0  0
    1.5000    0.0000    0.0000 C   0  0  0  0  0  0  0  0  0  0  0  0
    0.7500    1.2990    0.0000 C   0  0  0  0  0  0  0  0  0  0  0  0
   -0.7500    1.2990    0.0000 C   0  0  0  0  0  0  0  0  0  0  0  0
   -1.5000    0.0000    0.0000 C   0  0  0  0  0  0  0  0  0  0  0  0
   -0.7500   -1.2990    0.0000 C   0  0  0  0  0  0  0  0  0  0  0  0
  1  2  1  0
  2  3  1  0
  3  4  1  0
  4  5  1  0
  5  6  1  0
  6  7  1  0
  7  8  1  0
  8  9  1  0
  9 10  1  0
 10 11  1  0
 11 12  1  0
 12 13  1  0
 13 14  1  0
 14 15  1  0
 15 16  1  0
 16 17  1  0
 17 18  1  0
 18 19  1  0
 19 20  1  0
 20 21  1  0
 21 22  1  0
 22 23  1  0
 23 24  1  0
 24 25  1  0
 25 26  1  0
 26 27  1  0
 27 28  1  0
 28 29  1  0
 29 30  1  0
 30 31  1  0
 31 32  1  0
 32 33  1  0
 33 34  1  0
 34 35  1  0
 35 36  1  0
 36 37  1  0
 37 38  1  0
 38 39  1  0
 39 40  1  0
 40 41  1  0
 41 42  1  0
 42 43  1  0
 43 44  1  0
 44 45  1  0
 45 46  1  0
 46 47  1  0
 47 48  1  0
 48 49  1  0
 49 50  1  0
 50 51  1  0
 51 52  1  0
 52 53  1  0
 53 54  1  0
 54 55  1  0
 55 56  1  0
 56 57  1  0
 57 58  1  0
 58 59  1  0
 59 60  1  0
 60 61  1  0
 61 62  1  0
 62 63  1  0
 63 64  1  0
 64 65  1  0
 65 66  1  0
 66 67  1  0
 67 68  1  0
 68 69  1  0
 69 70  1  0
 70 71  1  0
 71 72  1  0
 72 73  1  0
 73 74  1  0
 74 75  1  0
 75 76  1  0
 76 77  1  0
 77 78  1  0
 78 79  1  0
 79 80  1  0
 80 81  1  0
 81 82  1  0
 82 83  1  0
 83 84  1  0
 84 85  1  0
 85 86  1  0
 86 87  1  0
 87 88  1  0
 88 89  1  0
 89 90  1  0
 90 91  1  0
 91 92  1  0
 92 93  1  0
 93 94  1  0
 94 95  1  0
 95 96  1  0
 96 97  1  0
 97 98  1  0
 98 99  1  0
 99100  1  0
100101  1  0
101102  1  0
102103  2  0
103104  1  0
104105  2  0
105106  1  0
106107  2  0
107  2  1  0
107102  1  0
M  END
>  <Title>  (696) 
idAAYVgen9

$$$$

     RDKit          2D

 11 11  0  0  0  0  0  0  0  0999 V2000
    2.7760    2.5981    0.0000 O   0  0  0  0  0  0  0  0  0  0  0  0
    3.5260    1.2990    0.0000 C   0  0  0  0  0  0  0  0  0  0  0  0
    5.0260    1.2990    0.0000 O   0  0  0  0  0  0  0  0  0  0  0  0
    2.7760    0.0000    0.0000 O   0  0  0  0  0  0  0  0  0  0  0  0
    1.2760    0.0000    0.0000 C   0  0  0  0  0  0  0  0  0  0  0  0
    0.3943    1.2135    0.0000 O   0  0  0  0  0  0  0  0  0  0  0  0
   -1.0323    0.7500    0.0000 C   0  0  0  0  0  0  0  0  0  0  0  0
   -1.0323   -0.7500    0.0000 C   0  0  0  0  0  0  0  0  0  0  0  0
   -2.2458   -1.6317    0.0000 O   0  0  0  0  0  0  0  0  0  0  0  0
    0.3943   -1.2135    0.0000 C   0  0  0  0  0  0  0  0  0  0  0  0
    0.8578   -2.6401    0.0000 O   0  0  0  0  0  0  0  0  0  0  0  0
  1  2  2  0
  2  3  1  0
  2  4  1  0
  4  5  1  0
  5  6  1  0
  6  7  1  0
  7  8  1  0
  8  9  1  0
  8 10  2  0
 10 11  1  0
 10  5  1  0
M  END
>  <Title>  (697) 
idAAYWgen9

$$$$

     RDKit          2D

 81 84  0  0  0  0  0  0  0  0999 V2000
   -7.8999    4.1792    0.0000 C   0  0  0  0  0  0  0  0  0  0  0  0
   -6.8882    5.2867    0.0000 C   0  0  0  0  0  0  0  0  0  0  0  0
   -7.9471    6.3492    0.0000 C   0  0  0  0  0  0  0  0  0  0  0  0
   -8.9018    7.5061    0.0000 C   0  0  0  0  0  0  0  0  0  0  0  0
   -9.7441    8.7473    0.0000 C   0  0  0  0  0  0  0  0  0  0  0  0
  -10.4663   10.0620    0.0000 C   0  0  0  0  0  0  0  0  0  0  0  0
  -11.0623   11.4385    0.0000 C   0  0  0  0  0  0  0  0  0  0  0  0
  -11.5268   12.8648    0.0000 C   0  0  0  0  0  0  0  0  0  0  0  0
  -11.8557   14.3283    0.0000 C   0  0  0  0  0  0  0  0  0  0  0  0
  -12.0461   15.8162    0.0000 C   0  0  0  0  0  0  0  0  0  0  0  0
  -12.0963   17.3153    0.0000 C   0  0  0  0  0  0  0  0  0  0  0  0
  -12.0059   18.8126    0.0000 C   0  0  0  0  0  0  0  0  0  0  0  0
  -11.7758   20.2948    0.0000 C   0  0  0  0  0  0  0  0  0  0  0  0
  -11.4078   21.7490    0.0000 C   0  0  0  0  0  0  0  0  0  0  0  0
  -10.9053   23.1623    0.0000 C   0  0  0  0  0  0  0  0  0  0  0  0
  -10.2726   24.5224    0.0000 C   0  0  0  0  0  0  0  0  0  0  0  0
   -9.5154   25.8172    0.0000 C   0  0  0  0  0  0  0  0  0  0  0  0
   -8.6402   27.0354    0.0000 C   0  0  0  0  0  0  0  0  0  0  0  0
   -7.6548   28.1663    0.0000 C   0  0  0  0  0  0  0  0  0  0  0  0
   -6.5678   29.2000    0.0000 C   0  0  0  0  0  0  0  0  0  0  0  0
   -5.3889   30.1274    0.0000 C   0  0  0  0  0  0  0  0  0  0  0  0
   -4.1282   30.9403    0.0000 C   0  0  0  0  0  0  0  0  0  0  0  0
   -2.7970   31.6315    0.0000 C   0  0  0  0  0  0  0  0  0  0  0  0
   -1.4069   32.1951    0.0000 C   0  0  0  0  0  0  0  0  0  0  0  0
    0.0299   32.6260    0.0000 C   0  0  0  0  0  0  0  0  0  0  0  0
    1.5007   32.9205    0.0000 C   0  0  0  0  0  0  0  0  0  0  0  0
    2.9926   33.0760    0.0000 C   0  0  0  0  0  0  0  0  0  0  0  0
    4.4925   33.0910    0.0000 C   0  0  0  0  0  0  0  0  0  0  0  0
    5.9873   32.9656    0.0000 C   0  0  0  0  0  0  0  0  0  0  0  0
    7.4637   32.7007    0.0000 C   0  0  0  0  0  0  0  0  0  0  0  0
    8.9089   32.2988    0.0000 C   0  0  0  0  0  0  0  0  0  0  0  0
   10.3100   31.7632    0.0000 C   0  0  0  0  0  0  0  0  0  0  0  0
   11.6549   31.0989    0.0000 C   0  0  0  0  0  0  0  0  0  0  0  0
   12.9316   30.3115    0.0000 C   0  0  0  0  0  0  0  0  0  0  0  0
   14.1290   29.4080    0.0000 C   0  0  0  0  0  0  0  0  0  0  0  0
   15.2365   28.3964    0.0000 C   0  0  0  0  0  0  0  0  0  0  0  0
   16.2444   27.2855    0.0000 C   0  0  0  0  0  0  0  0  0  0  0  0
   17.1439   26.0851    0.0000 C   0  0  0  0  0  0  0  0  0  0  0  0
   17.9270   24.8057    0.0000 C   0  0  0  0  0  0  0  0  0  0  0  0
   18.5868   23.4586    0.0000 C   0  0  0  0  0  0  0  0  0  0  0  0
   19.1177   22.0557    0.0000 C   0  0  0  0  0  0  0  0  0  0  0  0
   19.5148   20.6092    0.0000 C   0  0  0  0  0  0  0  0  0  0  0  0
   19.7747   19.1319    0.0000 C   0  0  0  0  0  0  0  0  0  0  0  0
   19.8951   17.6368    0.0000 C   0  0  0  0  0  0  0  0  0  0  0  0
   19.8750   16.1369    0.0000 C   0  0  0  0  0  0  0  0  0  0  0  0
   19.7146   14.6455    0.0000 C   0  0  0  0  0  0  0  0  0  0  0  0
   19.4152   13.1757    0.0000 C   0  0  0  0  0  0  0  0  0  0  0  0
   18.9795   11.7404    0.0000 C   0  0  0  0  0  0  0  0  0  0  0  0
   18.4112   10.3522    0.0000 C   0  0  0  0  0  0  0  0  0  0  0  0
   17.7155    9.0233    0.0000 C   0  0  0  0  0  0  0  0  0  0  0  0
   16.8984    7.7653    0.0000 C   0  0  0  0  0  0  0  0  0  0  0  0
   15.9671    6.5895    0.0000 C   0  0  0  0  0  0  0  0  0  0  0  0
   14.9298    5.5060    0.0000 C   0  0  0  0  0  0  0  0  0  0  0  0
   13.7956    4.5244    0.0000 C   0  0  0  0  0  0  0  0  0  0  0  0
   12.5744    3.6533    0.0000 C   0  0  0  0  0  0  0  0  0  0  0  0
   11.2771    2.9004    0.0000 C   0  0  0  0  0  0  0  0  0  0  0  0
    9.9149    2.2723    0.0000 C   0  0  0  0  0  0  0  0  0  0  0  0
    8.4999    1.7745    0.0000 C   0  0  0  0  0  0  0  0  0  0  0  0
    7.0445    1.4114    0.0000 C   0  0  0  0  0  0  0  0  0  0  0  0
    5.5615    1.1862    0.0000 C   0  0  0  0  0  0  0  0  0  0  0  0
    4.0640    1.1008    0.0000 C   0  0  0  0  0  0  0  0  0  0  0  0
    2.5650    1.1561    0.0000 C   0  0  0  0  0  0  0  0  0  0  0  0
    1.0777    1.3515    0.0000 C   0  0  0  0  0  0  0  0  0  0  0  0
    1.7286    0.0000    0.0000 C   0  0  0  0  0  0  0  0  0  0  0  0
    1.0777   -1.3515    0.0000 C   0  0  0  0  0  0  0  0  0  0  0  0
   -0.3846   -1.6852    0.0000 C   0  0  0  0  0  0  0  0  0  0  0  0
   -1.5574   -0.7500    0.0000 C   0  0  0  0  0  0  0  0  0  0  0  0
   -1.5574    0.7500    0.0000 C   0  0  0  0  0  0  0  0  0  0  0  0
   -0.3846    1.6852    0.0000 C   0  0  0  0  0  0  0  0  0  0  0  0
   -1.8094    2.1545    0.0000 C   0  0  0  0  0  0  0  0  0  0  0  0
   -0.6020    3.0445    0.0000 C   0  0  0  0  0  0  0  0  0  0  0  0
   -0.7691    4.5352    0.0000 C   0  0  0  0  0  0  0  0  0  0  0  0
   -2.1436    5.1358    0.0000 C   0  0  0  0  0  0  0  0  0  0  0  0
   -3.3510    4.2458    0.0000 C   0  0  0  0  0  0  0  0  0  0  0  0
   -3.1839    2.7551    0.0000 C   0  0  0  0  0  0  0  0  0  0  0  0
   -4.4961    3.4818    0.0000 C   0  0  0  0  0  0  0  0  0  0  0  0
   -4.6099    1.9861    0.0000 C   0  0  0  0  0  0  0  0  0  0  0  0
   -5.9620    1.3368    0.0000 C   0  0  0  0  0  0  0  0  0  0  0  0
   -7.2004    2.1831    0.0000 C   0  0  0  0  0  0  0  0  0  0  0  0
   -7.0867    3.6788    0.0000 C   0  0  0  0  0  0  0  0  0  0  0  0
   -5.7345    4.3281    0.0000 C   0  0  0  0  0  0  0  0  0  0  0  0
  1  2  1  0
  2  3  2  0
  3  4  1  0
  4  5  1  0
  5  6  1  0
  6  7  1  0
  7  8  1  0
  8  9  1  0
  9 10  1  0
 10 11  1  0
 11 12  1  0
 12 13  1  0
 13 14  1  0
 14 15  1  0
 15 16  1  0
 16 17  1  0
 17 18  1  0
 18 19  1  0
 19 20  1  0
 20 21  1  0
 21 22  1  0
 22 23  1  0
 23 24  1  0
 24 25  1  0
 25 26  1  0
 26 27  1  0
 27 28  1  0
 28 29  1  0
 29 30  1  0
 30 31  1  0
 31 32  1  0
 32 33  1  0
 33 34  1  0
 34 35  1  0
 35 36  1  0
 36 37  1  0
 37 38  1  0
 38 39  1  0
 39 40  1  0
 40 41  1  0
 41 42  1  0
 42 43  1  0
 43 44  1  0
 44 45  1  0
 45 46  1  0
 46 47  1  0
 47 48  1  0
 48 49  1  0
 49 50  1  0
 50 51  1  0
 51 52  1  0
 52 53  1  0
 53 54  1  0
 54 55  1  0
 55 56  1  0
 56 57  1  0
 57 58  1  0
 58 59  1  0
 59 60  1  0
 60 61  1  0
 61 62  1  0
 62 63  1  0
 63 64  1  0
 64 65  1  0
 65 66  1  0
 66 67  2  0
 67 68  1  0
 68 69  2  0
 69 70  1  0
 70 71  2  0
 71 72  1  0
 72 73  2  0
 73 74  1  0
 74 75  2  0
 75 76  1  0
 76 77  2  0
 77 78  1  0
 78 79  2  0
 79 80  1  0
 80 81  2  0
 81  2  1  0
 69 63  1  0
 75 70  1  0
 81 76  1  0
M  END
>  <Title>  (698) 
idAAYXgen9

$$$$

     RDKit          2D

 86 86  0  0  0  0  0  0  0  0999 V2000
   21.7969    0.0000    0.0000 C   0  0  0  0  0  0  0  0  0  0  0  0
   20.2969    0.0000    0.0000 C   0  0  0  0  0  0  0  0  0  0  0  0
   20.2414    1.4990    0.0000 C   0  0  0  0  0  0  0  0  0  0  0  0
   20.0755    2.9898    0.0000 C   0  0  0  0  0  0  0  0  0  0  0  0
   19.7998    4.4642    0.0000 C   0  0  0  0  0  0  0  0  0  0  0  0
   19.4161    5.9143    0.0000 C   0  0  0  0  0  0  0  0  0  0  0  0
   18.9263    7.3321    0.0000 C   0  0  0  0  0  0  0  0  0  0  0  0
   18.3331    8.7098    0.0000 C   0  0  0  0  0  0  0  0  0  0  0  0
   17.6398   10.0400    0.0000 C   0  0  0  0  0  0  0  0  0  0  0  0
   16.8501   11.3153    0.0000 C   0  0  0  0  0  0  0  0  0  0  0  0
   15.9685   12.5288    0.0000 C   0  0  0  0  0  0  0  0  0  0  0  0
   14.9996   13.6739    0.0000 C   0  0  0  0  0  0  0  0  0  0  0  0
   13.9488   14.7443    0.0000 C   0  0  0  0  0  0  0  0  0  0  0  0
   12.8218   15.7342    0.0000 C   0  0  0  0  0  0  0  0  0  0  0  0
   11.6247   16.6382    0.0000 C   0  0  0  0  0  0  0  0  0  0  0  0
   10.3642   17.4513    0.0000 C   0  0  0  0  0  0  0  0  0  0  0  0
    9.0471   18.1690    0.0000 C   0  0  0  0  0  0  0  0  0  0  0  0
    7.6806   18.7876    0.0000 C   0  0  0  0  0  0  0  0  0  0  0  0
    6.2721   19.3035    0.0000 C   0  0  0  0  0  0  0  0  0  0  0  0
    4.8293   19.7140    0.0000 C   0  0  0  0  0  0  0  0  0  0  0  0
    3.3602   20.0168    0.0000 C   0  0  0  0  0  0  0  0  0  0  0  0
    1.8728   20.2103    0.0000 C   0  0  0  0  0  0  0  0  0  0  0  0
    0.3751   20.2934    0.0000 C   0  0  0  0  0  0  0  0  0  0  0  0
   -1.1247   20.2657    0.0000 C   0  0  0  0  0  0  0  0  0  0  0  0
   -2.6183   20.1273    0.0000 C   0  0  0  0  0  0  0  0  0  0  0  0
   -4.0976   19.8790    0.0000 C   0  0  0  0  0  0  0  0  0  0  0  0
   -5.5545   19.5221    0.0000 C   0  0  0  0  0  0  0  0  0  0  0  0
   -6.9811   19.0585    0.0000 C   0  0  0  0  0  0  0  0  0  0  0  0
   -8.3695   18.4909    0.0000 C   0  0  0  0  0  0  0  0  0  0  0  0
   -9.7123   17.8223    0.0000 C   0  0  0  0  0  0  0  0  0  0  0  0
  -11.0020   17.0564    0.0000 C   0  0  0  0  0  0  0  0  0  0  0  0
  -12.2316   16.1973    0.0000 C   0  0  0  0  0  0  0  0  0  0  0  0
  -13.3944   15.2497    0.0000 C   0  0  0  0  0  0  0  0  0  0  0  0
  -14.4841   14.2188    0.0000 C   0  0  0  0  0  0  0  0  0  0  0  0
  -15.4946   13.1103    0.0000 C   0  0  0  0  0  0  0  0  0  0  0  0
  -16.4205   11.9302    0.0000 C   0  0  0  0  0  0  0  0  0  0  0  0
  -17.2568   10.6849    0.0000 C   0  0  0  0  0  0  0  0  0  0  0  0
  -17.9987    9.3813    0.0000 C   0  0  0  0  0  0  0  0  0  0  0  0
  -18.6424    8.0264    0.0000 C   0  0  0  0  0  0  0  0  0  0  0  0
  -19.1843    6.6277    0.0000 C   0  0  0  0  0  0  0  0  0  0  0  0
  -19.6214    5.1928    0.0000 C   0  0  0  0  0  0  0  0  0  0  0  0
  -19.9513    3.7295    0.0000 C   0  0  0  0  0  0  0  0  0  0  0  0
  -20.1722    2.2459    0.0000 C   0  0  0  0  0  0  0  0  0  0  0  0
  -20.2830    0.7500    0.0000 C   0  0  0  0  0  0  0  0  0  0  0  0
  -20.2830   -0.7500    0.0000 C   0  0  0  0  0  0  0  0  0  0  0  0
  -20.1722   -2.2459    0.0000 C   0  0  0  0  0  0  0  0  0  0  0  0
  -19.9513   -3.7295    0.0000 C   0  0  0  0  0  0  0  0  0  0  0  0
  -19.6214   -5.1928    0.0000 C   0  0  0  0  0  0  0  0  0  0  0  0
  -19.1843   -6.6277    0.0000 C   0  0  0  0  0  0  0  0  0  0  0  0
  -18.6424   -8.0264    0.0000 C   0  0  0  0  0  0  0  0  0  0  0  0
  -17.9987   -9.3813    0.0000 C   0  0  0  0  0  0  0  0  0  0  0  0
  -17.2568  -10.6849    0.0000 C   0  0  0  0  0  0  0  0  0  0  0  0
  -16.4205  -11.9302    0.0000 C   0  0  0  0  0  0  0  0  0  0  0  0
  -15.4946  -13.1103    0.0000 C   0  0  0  0  0  0  0  0  0  0  0  0
  -14.4841  -14.2188    0.0000 C   0  0  0  0  0  0  0  0  0  0  0  0
  -13.3944  -15.2497    0.0000 C   0  0  0  0  0  0  0  0  0  0  0  0
  -12.2316  -16.1973    0.0000 C   0  0  0  0  0  0  0  0  0  0  0  0
  -11.0020  -17.0564    0.0000 C   0  0  0  0  0  0  0  0  0  0  0  0
   -9.7123  -17.8223    0.0000 C   0  0  0  0  0  0  0  0  0  0  0  0
   -8.3695  -18.4909    0.0000 C   0  0  0  0  0  0  0  0  0  0  0  0
   -6.9811  -19.0585    0.0000 C   0  0  0  0  0  0  0  0  0  0  0  0
   -5.5545  -19.5221    0.0000 C   0  0  0  0  0  0  0  0  0  0  0  0
   -4.0976  -19.8790    0.0000 C   0  0  0  0  0  0  0  0  0  0  0  0
   -2.6183  -20.1273    0.0000 C   0  0  0  0  0  0  0  0  0  0  0  0
   -1.1247  -20.2657    0.0000 C   0  0  0  0  0  0  0  0  0  0  0  0
    0.3751  -20.2934    0.0000 C   0  0  0  0  0  0  0  0  0  0  0  0
    1.8728  -20.2103    0.0000 C   0  0  0  0  0  0  0  0  0  0  0  0
    3.3602  -20.0168    0.0000 C   0  0  0  0  0  0  0  0  0  0  0  0
    4.8293  -19.7140    0.0000 C   0  0  0  0  0  0  0  0  0  0  0  0
    6.2721  -19.3035    0.0000 C   0  0  0  0  0  0  0  0  0  0  0  0
    7.6806  -18.7876    0.0000 C   0  0  0  0  0  0  0  0  0  0  0  0
    9.0471  -18.1690    0.0000 C   0  0  0  0  0  0  0  0  0  0  0  0
   10.3642  -17.4513    0.0000 C   0  0  0  0  0  0  0  0  0  0  0  0
   11.6247  -16.6382    0.0000 C   0  0  0  0  0  0  0  0  0  0  0  0
   12.8218  -15.7342    0.0000 C   0  0  0  0  0  0  0  0  0  0  0  0
   13.9488  -14.7443    0.0000 C   0  0  0  0  0  0  0  0  0  0  0  0
   14.9996  -13.6739    0.0000 C   0  0  0  0  0  0  0  0  0  0  0  0
   15.9685  -12.5288    0.0000 C   0  0  0  0  0  0  0  0  0  0  0  0
   16.8501  -11.3153    0.0000 C   0  0  0  0  0  0  0  0  0  0  0  0
   17.6398  -10.0400    0.0000 C   0  0  0  0  0  0  0  0  0  0  0  0
   18.3331   -8.7098    0.0000 C   0  0  0  0  0  0  0  0  0  0  0  0
   18.9263   -7.3321    0.0000 C   0  0  0  0  0  0  0  0  0  0  0  0
   19.4161   -5.9143    0.0000 C   0  0  0  0  0  0  0  0  0  0  0  0
   19.7998   -4.4642    0.0000 C   0  0  0  0  0  0  0  0  0  0  0  0
   20.0755   -2.9898    0.0000 C   0  0  0  0  0  0  0  0  0  0  0  0
   20.2414   -1.4990    0.0000 C   0  0  0  0  0  0  0  0  0  0  0  0
  1  2  1  0
  2  3  1  0
  3  4  2  0
  4  5  1  0
  5  6  1  0
  6  7  1  0
  7  8  1  0
  8  9  1  0
  9 10  1  0
 10 11  1  0
 11 12  1  0
 12 13  1  0
 13 14  1  0
 14 15  1  0
 15 16  1  0
 16 17  1  0
 17 18  1  0
 18 19  1  0
 19 20  1  0
 20 21  1  0
 21 22  1  0
 22 23  1  0
 23 24  1  0
 24 25  1  0
 25 26  1  0
 26 27  1  0
 27 28  1  0
 28 29  1  0
 29 30  1  0
 30 31  1  0
 31 32  1  0
 32 33  1  0
 33 34  1  0
 34 35  1  0
 35 36  1  0
 36 37  1  0
 37 38  1  0
 38 39  1  0
 39 40  1  0
 40 41  1  0
 41 42  1  0
 42 43  1  0
 43 44  1  0
 44 45  1  0
 45 46  1  0
 46 47  1  0
 47 48  1  0
 48 49  1  0
 49 50  1  0
 50 51  1  0
 51 52  1  0
 52 53  1  0
 53 54  1  0
 54 55  1  0
 55 56  1  0
 56 57  1  0
 57 58  1  0
 58 59  1  0
 59 60  1  0
 60 61  1  0
 61 62  1  0
 62 63  1  0
 63 64  1  0
 64 65  1  0
 65 66  1  0
 66 67  1  0
 67 68  1  0
 68 69  1  0
 69 70  1  0
 70 71  1  0
 71 72  1  0
 72 73  1  0
 73 74  1  0
 74 75  1  0
 75 76  1  0
 76 77  1  0
 77 78  1  0
 78 79  1  0
 79 80  1  0
 80 81  1  0
 81 82  1  0
 82 83  1  0
 83 84  1  0
 84 85  1  0
 85 86  1  0
 86  2  1  0
M  END
>  <Title>  (699) 
idAAYYgen9

$$$$

     RDKit          2D

 20 22  0  0  0  0  0  0  0  0999 V2000
   -4.0667   -3.6527    0.0000 N   0  0  0  0  0  0  0  0  0  0  0  0
   -2.6401   -3.1891    0.0000 C   0  0  0  0  0  0  0  0  0  0  0  0
   -1.2135   -2.7256    0.0000 C   0  0  0  0  0  0  0  0  0  0  0  0
   -0.0000   -3.6073    0.0000 C   0  0  0  0  0  0  0  0  0  0  0  0
    1.2135   -2.7256    0.0000 C   0  0  0  0  0  0  0  0  0  0  0  0
    2.6401   -3.1891    0.0000 C   0  0  0  0  0  0  0  0  0  0  0  0
    3.7548   -2.1855    0.0000 O   0  0  0  0  0  0  0  0  0  0  0  0
    2.9520   -4.6564    0.0000 N   0  0  0  0  0  0  0  0  0  0  0  0
    4.3786   -5.1199    0.0000 C   0  0  0  0  0  0  0  0  0  0  0  0
    4.6904   -6.5871    0.0000 N   0  0  0  0  0  0  0  0  0  0  0  0
    6.1170   -7.0506    0.0000 N   0  0  0  0  0  0  0  0  0  0  0  0
    7.2317   -6.0469    0.0000 N   0  0  0  0  0  0  0  0  0  0  0  0
    6.9199   -4.5797    0.0000 N   0  0  0  0  0  0  0  0  0  0  0  0
    5.4933   -4.1162    0.0000 N   0  0  0  0  0  0  0  0  0  0  0  0
    0.7500   -1.2990    0.0000 C   0  0  0  0  0  0  0  0  0  0  0  0
    1.5000    0.0000    0.0000 C   0  0  0  0  0  0  0  0  0  0  0  0
    0.7500    1.2990    0.0000 C   0  0  0  0  0  0  0  0  0  0  0  0
   -0.7500    1.2990    0.0000 C   0  0  0  0  0  0  0  0  0  0  0  0
   -1.5000    0.0000    0.0000 C   0  0  0  0  0  0  0  0  0  0  0  0
   -0.7500   -1.2990    0.0000 C   0  0  0  0  0  0  0  0  0  0  0  0
  1  2  3  0
  2  3  1  0
  3  4  2  0
  4  5  1  0
  5  6  1  0
  6  7  2  0
  6  8  1  0
  8  9  1  0
  9 10  2  0
 10 11  1  0
 11 12  2  0
 12 13  1  0
 13 14  2  0
  5 15  1  0
 15 16  2  0
 16 17  1  0
 17 18  2  0
 18 19  1  0
 19 20  2  0
 20  3  1  0
 14  9  1  0
 20 15  1  0
M  END
>  <Title>  (700) 
idAAYZgen9

$$$$

     RDKit          2D

 26 28  0  0  0  0  0  0  0  0999 V2000
  -12.6262   -6.4338    0.0000 C   0  0  0  0  0  0  0  0  0  0  0  0
  -11.1996   -5.9703    0.0000 C   0  0  0  0  0  0  0  0  0  0  0  0
   -9.7730   -5.5068    0.0000 C   0  0  0  0  0  0  0  0  0  0  0  0
   -8.3464   -5.0433    0.0000 C   0  0  0  0  0  0  0  0  0  0  0  0
   -6.9199   -4.5797    0.0000 C   0  0  0  0  0  0  0  0  0  0  0  0
   -5.4933   -4.1162    0.0000 C   0  0  0  0  0  0  0  0  0  0  0  0
   -4.0667   -3.6527    0.0000 C   0  0  0  0  0  0  0  0  0  0  0  0
   -2.6401   -3.1891    0.0000 C   0  0  0  0  0  0  0  0  0  0  0  0
   -1.2135   -2.7256    0.0000 C   0  0  0  0  0  0  0  0  0  0  0  0
   -0.0000   -3.6073    0.0000 C   0  0  0  0  0  0  0  0  0  0  0  0
    1.2135   -2.7256    0.0000 C   0  0  0  0  0  0  0  0  0  0  0  0
    2.6401   -3.1891    0.0000 C   0  0  0  0  0  0  0  0  0  0  0  0
    3.7548   -2.1855    0.0000 O   0  0  0  0  0  0  0  0  0  0  0  0
    2.9520   -4.6564    0.0000 N   0  0  0  0  0  0  0  0  0  0  0  0
    4.3786   -5.1199    0.0000 C   0  0  0  0  0  0  0  0  0  0  0  0
    4.6904   -6.5871    0.0000 N   0  0  0  0  0  0  0  0  0  0  0  0
    6.1170   -7.0506    0.0000 N   0  0  0  0  0  0  0  0  0  0  0  0
    7.2317   -6.0469    0.0000 N   0  0  0  0  0  0  0  0  0  0  0  0
    6.9199   -4.5797    0.0000 N   0  0  0  0  0  0  0  0  0  0  0  0
    5.4933   -4.1162    0.0000 N   0  0  0  0  0  0  0  0  0  0  0  0
    0.7500   -1.2990    0.0000 C   0  0  0  0  0  0  0  0  0  0  0  0
    1.5000    0.0000    0.0000 C   0  0  0  0  0  0  0  0  0  0  0  0
    0.7500    1.2990    0.0000 C   0  0  0  0  0  0  0  0  0  0  0  0
   -0.7500    1.2990    0.0000 C   0  0  0  0  0  0  0  0  0  0  0  0
   -1.5000    0.0000    0.0000 C   0  0  0  0  0  0  0  0  0  0  0  0
   -0.7500   -1.2990    0.0000 C   0  0  0  0  0  0  0  0  0  0  0  0
  1  2  3  0
  2  3  1  0
  3  4  3  0
  4  5  1  0
  5  6  3  0
  6  7  1  0
  7  8  3  0
  8  9  1  0
  9 10  2  0
 10 11  1  0
 11 12  1  0
 12 13  2  0
 12 14  1  0
 14 15  1  0
 15 16  2  0
 16 17  1  0
 17 18  2  0
 18 19  1  0
 19 20  2  0
 11 21  1  0
 21 22  2  0
 22 23  1  0
 23 24  2  0
 24 25  1  0
 25 26  2  0
 26  9  1  0
 20 15  1  0
 26 21  1  0
M  END
>  <Title>  (701) 
idAAZAgen9

$$$$

     RDKit          2D

 64 73  0  0  0  0  0  0  0  0999 V2000
    6.2168   -5.0497    0.0000 C   0  0  0  0  0  0  0  0  0  0  0  0
    4.7353   -5.2844    0.0000 C   0  0  0  0  0  0  0  0  0  0  0  0
    4.2718   -3.8578    0.0000 C   0  0  0  0  0  0  0  0  0  0  0  0
    3.3901   -2.6442    0.0000 C   0  0  0  0  0  0  0  0  0  0  0  0
    2.1766   -1.7626    0.0000 C   0  0  0  0  0  0  0  0  0  0  0  0
    2.8576   -0.4261    0.0000 C   0  0  0  0  0  0  0  0  0  0  0  0
    2.0406    0.8320    0.0000 O   0  0  0  0  0  0  0  0  0  0  0  0
    4.3555   -0.3475    0.0000 N   0  0  0  0  0  0  0  0  0  0  0  0
    5.0365    0.9890    0.0000 C   0  0  0  0  0  0  0  0  0  0  0  0
    6.5344    1.0675    0.0000 N   0  0  0  0  0  0  0  0  0  0  0  0
    7.2154    2.4040    0.0000 N   0  0  0  0  0  0  0  0  0  0  0  0
    6.3985    3.6620    0.0000 N   0  0  0  0  0  0  0  0  0  0  0  0
    4.9005    3.5835    0.0000 N   0  0  0  0  0  0  0  0  0  0  0  0
    4.2195    2.2470    0.0000 N   0  0  0  0  0  0  0  0  0  0  0  0
    0.7500   -1.2990    0.0000 C   0  0  0  0  0  0  0  0  0  0  0  0
    1.5000    0.0000    0.0000 C   0  0  0  0  0  0  0  0  0  0  0  0
    0.7500    1.2990    0.0000 C   0  0  0  0  0  0  0  0  0  0  0  0
   -0.7500    1.2990    0.0000 C   0  0  0  0  0  0  0  0  0  0  0  0
   -1.5000    0.0000    0.0000 C   0  0  0  0  0  0  0  0  0  0  0  0
   -0.7500   -1.2990    0.0000 C   0  0  0  0  0  0  0  0  0  0  0  0
   -2.1766   -1.7626    0.0000 C   0  0  0  0  0  0  0  0  0  0  0  0
   -2.3334   -0.2708    0.0000 C   0  0  0  0  0  0  0  0  0  0  0  0
   -3.7037    0.3393    0.0000 C   0  0  0  0  0  0  0  0  0  0  0  0
   -4.9172   -0.5424    0.0000 C   0  0  0  0  0  0  0  0  0  0  0  0
   -4.7604   -2.0341    0.0000 C   0  0  0  0  0  0  0  0  0  0  0  0
   -3.3901   -2.6442    0.0000 C   0  0  0  0  0  0  0  0  0  0  0  0
   -4.2718   -3.8578    0.0000 C   0  0  0  0  0  0  0  0  0  0  0  0
   -5.2755   -2.7430    0.0000 C   0  0  0  0  0  0  0  0  0  0  0  0
   -6.7427   -3.0549    0.0000 C   0  0  0  0  0  0  0  0  0  0  0  0
   -7.2062   -4.4815    0.0000 C   0  0  0  0  0  0  0  0  0  0  0  0
   -6.2025   -5.5962    0.0000 C   0  0  0  0  0  0  0  0  0  0  0  0
   -4.7353   -5.2844    0.0000 C   0  0  0  0  0  0  0  0  0  0  0  0
   -4.7353   -6.7844    0.0000 C   0  0  0  0  0  0  0  0  0  0  0  0
   -6.2025   -6.4725    0.0000 C   0  0  0  0  0  0  0  0  0  0  0  0
   -7.2062   -7.5872    0.0000 C   0  0  0  0  0  0  0  0  0  0  0  0
   -6.7427   -9.0138    0.0000 C   0  0  0  0  0  0  0  0  0  0  0  0
   -7.7464  -10.1285    0.0000 C   0  0  0  0  0  0  0  0  0  0  0  0
   -8.7501  -11.2432    0.0000 N   0  0  0  0  0  0  0  0  0  0  0  0
   -5.2755   -9.3257    0.0000 C   0  0  0  0  0  0  0  0  0  0  0  0
   -4.2718   -8.2109    0.0000 C   0  0  0  0  0  0  0  0  0  0  0  0
   -3.3901   -9.4245    0.0000 C   0  0  0  0  0  0  0  0  0  0  0  0
   -4.7604  -10.0346    0.0000 C   0  0  0  0  0  0  0  0  0  0  0  0
   -4.9172  -11.5263    0.0000 C   0  0  0  0  0  0  0  0  0  0  0  0
   -3.7037  -12.4080    0.0000 C   0  0  0  0  0  0  0  0  0  0  0  0
   -2.3334  -11.7979    0.0000 C   0  0  0  0  0  0  0  0  0  0  0  0
   -2.1766  -10.3061    0.0000 C   0  0  0  0  0  0  0  0  0  0  0  0
   -0.7500  -10.7697    0.0000 C   0  0  0  0  0  0  0  0  0  0  0  0
   -1.5000  -12.0687    0.0000 C   0  0  0  0  0  0  0  0  0  0  0  0
   -0.7500  -13.3677    0.0000 C   0  0  0  0  0  0  0  0  0  0  0  0
    0.7500  -13.3677    0.0000 C   0  0  0  0  0  0  0  0  0  0  0  0
    1.5000  -12.0687    0.0000 C   0  0  0  0  0  0  0  0  0  0  0  0
    0.7500  -10.7697    0.0000 C   0  0  0  0  0  0  0  0  0  0  0  0
    2.1766  -10.3061    0.0000 C   0  0  0  0  0  0  0  0  0  0  0  0
    2.3334  -11.7979    0.0000 C   0  0  0  0  0  0  0  0  0  0  0  0
    3.7037  -12.4080    0.0000 C   0  0  0  0  0  0  0  0  0  0  0  0
    4.9172  -11.5263    0.0000 C   0  0  0  0  0  0  0  0  0  0  0  0
    4.7604  -10.0346    0.0000 C   0  0  0  0  0  0  0  0  0  0  0  0
    3.3901   -9.4245    0.0000 C   0  0  0  0  0  0  0  0  0  0  0  0
    4.2718   -8.2109    0.0000 C   0  0  0  0  0  0  0  0  0  0  0  0
    5.2755   -9.3257    0.0000 C   0  0  0  0  0  0  0  0  0  0  0  0
    6.7427   -9.0138    0.0000 C   0  0  0  0  0  0  0  0  0  0  0  0
    7.2062   -7.5872    0.0000 C   0  0  0  0  0  0  0  0  0  0  0  0
    6.2025   -6.4725    0.0000 C   0  0  0  0  0  0  0  0  0  0  0  0
    4.7353   -6.7844    0.0000 C   0  0  0  0  0  0  0  0  0  0  0  0
  1  2  1  0
  2  3  1  0
  3  4  1  0
  4  5  1  0
  5  6  1  0
  6  7  2  0
  6  8  1  0
  8  9  1  0
  9 10  2  0
 10 11  1  0
 11 12  2  0
 12 13  1  0
 13 14  2  0
  5 15  1  0
 15 16  2  0
 16 17  1  0
 17 18  2  0
 18 19  1  0
 19 20  2  0
 20 21  1  0
 21 22  2  0
 22 23  1  0
 23 24  2  0
 24 25  1  0
 25 26  2  0
 26 27  1  0
 27 28  2  0
 28 29  1  0
 29 30  2  0
 30 31  1  0
 31 32  2  0
 32 33  1  0
 33 34  2  0
 34 35  1  0
 35 36  2  0
 36 37  1  0
 37 38  3  0
 36 39  1  0
 39 40  2  0
 40 41  1  0
 41 42  2  0
 42 43  1  0
 43 44  2  0
 44 45  1  0
 45 46  2  0
 46 47  1  0
 47 48  2  0
 48 49  1  0
 49 50  2  0
 50 51  1  0
 51 52  2  0
 52 53  1  0
 53 54  2  0
 54 55  1  0
 55 56  2  0
 56 57  1  0
 57 58  2  0
 58 59  1  0
 59 60  2  0
 60 61  1  0
 61 62  2  0
 62 63  1  0
 63 64  2  0
 64  2  1  0
 14  9  1  0
 20 15  1  0
 26 21  1  0
 32 27  1  0
 40 33  1  0
 46 41  1  0
 52 47  1  0
 58 53  1  0
 64 59  1  0
M  END
>  <Title>  (702) 
idAAZBgen9

$$$$

     RDKit          2D

 88 88  0  0  0  0  0  0  0  0999 V2000
   22.0356    0.0000    0.0000 C   0  0  0  0  0  0  0  0  0  0  0  0
   20.5356    0.0000    0.0000 C   0  0  0  0  0  0  0  0  0  0  0  0
   20.4808   -1.4990    0.0000 C   0  0  0  0  0  0  0  0  0  0  0  0
   20.3167   -2.9900    0.0000 C   0  0  0  0  0  0  0  0  0  0  0  0
   20.0443   -4.4650    0.0000 C   0  0  0  0  0  0  0  0  0  0  0  0
   19.6649   -5.9163    0.0000 C   0  0  0  0  0  0  0  0  0  0  0  0
   19.1805   -7.3359    0.0000 C   0  0  0  0  0  0  0  0  0  0  0  0
   18.5939   -8.7165    0.0000 C   0  0  0  0  0  0  0  0  0  0  0  0
   17.9080  -10.0505    0.0000 C   0  0  0  0  0  0  0  0  0  0  0  0
   17.1266  -11.3309    0.0000 C   0  0  0  0  0  0  0  0  0  0  0  0
   16.2538  -12.5508    0.0000 C   0  0  0  0  0  0  0  0  0  0  0  0
   15.2943  -13.7038    0.0000 C   0  0  0  0  0  0  0  0  0  0  0  0
   14.2532  -14.7836    0.0000 C   0  0  0  0  0  0  0  0  0  0  0  0
   13.1360  -15.7846    0.0000 C   0  0  0  0  0  0  0  0  0  0  0  0
   11.9488  -16.7014    0.0000 C   0  0  0  0  0  0  0  0  0  0  0  0
   10.6978  -17.5290    0.0000 C   0  0  0  0  0  0  0  0  0  0  0  0
    9.3897  -18.2631    0.0000 C   0  0  0  0  0  0  0  0  0  0  0  0
    8.0316  -18.8998    0.0000 C   0  0  0  0  0  0  0  0  0  0  0  0
    6.6305  -19.4357    0.0000 C   0  0  0  0  0  0  0  0  0  0  0  0
    5.1941  -19.8678    0.0000 C   0  0  0  0  0  0  0  0  0  0  0  0
    3.7300  -20.1940    0.0000 C   0  0  0  0  0  0  0  0  0  0  0  0
    2.2460  -20.4124    0.0000 C   0  0  0  0  0  0  0  0  0  0  0  0
    0.7500  -20.5219    0.0000 C   0  0  0  0  0  0  0  0  0  0  0  0
   -0.7500  -20.5219    0.0000 C   0  0  0  0  0  0  0  0  0  0  0  0
   -2.2460  -20.4124    0.0000 C   0  0  0  0  0  0  0  0  0  0  0  0
   -3.7300  -20.1940    0.0000 C   0  0  0  0  0  0  0  0  0  0  0  0
   -5.1941  -19.8678    0.0000 C   0  0  0  0  0  0  0  0  0  0  0  0
   -6.6305  -19.4357    0.0000 C   0  0  0  0  0  0  0  0  0  0  0  0
   -8.0316  -18.8998    0.0000 C   0  0  0  0  0  0  0  0  0  0  0  0
   -9.3897  -18.2631    0.0000 C   0  0  0  0  0  0  0  0  0  0  0  0
  -10.6978  -17.5290    0.0000 C   0  0  0  0  0  0  0  0  0  0  0  0
  -11.9488  -16.7014    0.0000 C   0  0  0  0  0  0  0  0  0  0  0  0
  -13.1360  -15.7846    0.0000 C   0  0  0  0  0  0  0  0  0  0  0  0
  -14.2532  -14.7836    0.0000 C   0  0  0  0  0  0  0  0  0  0  0  0
  -15.2943  -13.7038    0.0000 C   0  0  0  0  0  0  0  0  0  0  0  0
  -16.2538  -12.5508    0.0000 C   0  0  0  0  0  0  0  0  0  0  0  0
  -17.1266  -11.3309    0.0000 C   0  0  0  0  0  0  0  0  0  0  0  0
  -17.9080  -10.0505    0.0000 C   0  0  0  0  0  0  0  0  0  0  0  0
  -18.5939   -8.7165    0.0000 C   0  0  0  0  0  0  0  0  0  0  0  0
  -19.1805   -7.3359    0.0000 C   0  0  0  0  0  0  0  0  0  0  0  0
  -19.6649   -5.9163    0.0000 C   0  0  0  0  0  0  0  0  0  0  0  0
  -20.0443   -4.4650    0.0000 C   0  0  0  0  0  0  0  0  0  0  0  0
  -20.3167   -2.9900    0.0000 C   0  0  0  0  0  0  0  0  0  0  0  0
  -20.4808   -1.4990    0.0000 C   0  0  0  0  0  0  0  0  0  0  0  0
  -20.5356    0.0000    0.0000 C   0  0  0  0  0  0  0  0  0  0  0  0
  -20.4808    1.4990    0.0000 C   0  0  0  0  0  0  0  0  0  0  0  0
  -20.3167    2.9900    0.0000 C   0  0  0  0  0  0  0  0  0  0  0  0
  -20.0443    4.4650    0.0000 C   0  0  0  0  0  0  0  0  0  0  0  0
  -19.6649    5.9163    0.0000 C   0  0  0  0  0  0  0  0  0  0  0  0
  -19.1805    7.3359    0.0000 C   0  0  0  0  0  0  0  0  0  0  0  0
  -18.5939    8.7165    0.0000 C   0  0  0  0  0  0  0  0  0  0  0  0
  -17.9080   10.0505    0.0000 C   0  0  0  0  0  0  0  0  0  0  0  0
  -17.1266   11.3309    0.0000 C   0  0  0  0  0  0  0  0  0  0  0  0
  -16.2538   12.5508    0.0000 C   0  0  0  0  0  0  0  0  0  0  0  0
  -15.2943   13.7038    0.0000 C   0  0  0  0  0  0  0  0  0  0  0  0
  -14.2532   14.7836    0.0000 C   0  0  0  0  0  0  0  0  0  0  0  0
  -13.1360   15.7846    0.0000 C   0  0  0  0  0  0  0  0  0  0  0  0
  -11.9488   16.7014    0.0000 C   0  0  0  0  0  0  0  0  0  0  0  0
  -10.6978   17.5290    0.0000 C   0  0  0  0  0  0  0  0  0  0  0  0
   -9.3897   18.2631    0.0000 C   0  0  0  0  0  0  0  0  0  0  0  0
   -8.0316   18.8998    0.0000 C   0  0  0  0  0  0  0  0  0  0  0  0
   -6.6305   19.4357    0.0000 C   0  0  0  0  0  0  0  0  0  0  0  0
   -5.1941   19.8678    0.0000 C   0  0  0  0  0  0  0  0  0  0  0  0
   -3.7300   20.1940    0.0000 C   0  0  0  0  0  0  0  0  0  0  0  0
   -2.2460   20.4124    0.0000 C   0  0  0  0  0  0  0  0  0  0  0  0
   -0.7500   20.5219    0.0000 C   0  0  0  0  0  0  0  0  0  0  0  0
    0.7500   20.5219    0.0000 C   0  0  0  0  0  0  0  0  0  0  0  0
    2.2460   20.4124    0.0000 C   0  0  0  0  0  0  0  0  0  0  0  0
    3.7300   20.1940    0.0000 C   0  0  0  0  0  0  0  0  0  0  0  0
    5.1941   19.8678    0.0000 C   0  0  0  0  0  0  0  0  0  0  0  0
    6.6305   19.4357    0.0000 C   0  0  0  0  0  0  0  0  0  0  0  0
    8.0316   18.8998    0.0000 C   0  0  0  0  0  0  0  0  0  0  0  0
    9.3897   18.2631    0.0000 C   0  0  0  0  0  0  0  0  0  0  0  0
   10.6978   17.5290    0.0000 C   0  0  0  0  0  0  0  0  0  0  0  0
   11.9488   16.7014    0.0000 C   0  0  0  0  0  0  0  0  0  0  0  0
   13.1360   15.7846    0.0000 C   0  0  0  0  0  0  0  0  0  0  0  0
   14.2532   14.7836    0.0000 C   0  0  0  0  0  0  0  0  0  0  0  0
   15.2943   13.7038    0.0000 C   0  0  0  0  0  0  0  0  0  0  0  0
   16.2538   12.5508    0.0000 C   0  0  0  0  0  0  0  0  0  0  0  0
   17.1266   11.3309    0.0000 C   0  0  0  0  0  0  0  0  0  0  0  0
   17.9080   10.0505    0.0000 C   0  0  0  0  0  0  0  0  0  0  0  0
   18.5939    8.7165    0.0000 C   0  0  0  0  0  0  0  0  0  0  0  0
   19.1805    7.3359    0.0000 C   0  0  0  0  0  0  0  0  0  0  0  0
   19.6649    5.9163    0.0000 C   0  0  0  0  0  0  0  0  0  0  0  0
   20.0443    4.4650    0.0000 C   0  0  0  0  0  0  0  0  0  0  0  0
   20.3167    2.9900    0.0000 C   0  0  0  0  0  0  0  0  0  0  0  0
   21.8007    3.2084    0.0000 C   0  0  0  0  0  0  0  0  0  0  0  0
   20.4808    1.4990    0.0000 C   0  0  0  0  0  0  0  0  0  0  0  0
  1  2  1  0
  2  3  1  0
  3  4  1  0
  4  5  1  0
  5  6  1  0
  6  7  1  0
  7  8  1  0
  8  9  1  0
  9 10  1  0
 10 11  1  0
 11 12  1  0
 12 13  1  0
 13 14  1  0
 14 15  1  0
 15 16  1  0
 16 17  1  0
 17 18  1  0
 18 19  1  0
 19 20  1  0
 20 21  1  0
 21 22  1  0
 22 23  1  0
 23 24  1  0
 24 25  1  0
 25 26  1  0
 26 27  1  0
 27 28  1  0
 28 29  1  0
 29 30  1  0
 30 31  1  0
 31 32  1  0
 32 33  1  0
 33 34  1  0
 34 35  1  0
 35 36  1  0
 36 37  1  0
 37 38  1  0
 38 39  1  0
 39 40  1  0
 40 41  1  0
 41 42  1  0
 42 43  1  0
 43 44  1  0
 44 45  1  0
 45 46  1  0
 46 47  1  0
 47 48  1  0
 48 49  1  0
 49 50  1  0
 50 51  1  0
 51 52  1  0
 52 53  1  0
 53 54  1  0
 54 55  1  0
 55 56  1  0
 56 57  1  0
 57 58  1  0
 58 59  1  0
 59 60  1  0
 60 61  1  0
 61 62  1  0
 62 63  1  0
 63 64  1  0
 64 65  1  0
 65 66  1  0
 66 67  1  0
 67 68  1  0
 68 69  1  0
 69 70  1  0
 70 71  1  0
 71 72  1  0
 72 73  1  0
 73 74  1  0
 74 75  1  0
 75 76  1  0
 76 77  1  0
 77 78  1  0
 78 79  1  0
 79 80  1  0
 80 81  1  0
 81 82  1  0
 82 83  1  0
 83 84  1  0
 84 85  1  0
 85 86  1  0
 86 87  1  0
 86 88  1  0
 88  2  1  0
M  END
>  <Title>  (703) 
idAAZCgen9

$$$$

     RDKit          2D

  7  7  0  0  0  0  0  0  0  0999 V2000
    4.2760   -0.0000    0.0000 C   0  0  0  0  0  0  0  0  0  0  0  0
    2.7760    0.0000    0.0000 C   0  0  0  0  0  0  0  0  0  0  0  0
    1.2760    0.0000    0.0000 C   0  0  0  0  0  0  0  0  0  0  0  0
    0.3943    1.2135    0.0000 C   0  0  0  0  0  0  0  0  0  0  0  0
   -1.0323    0.7500    0.0000 C   0  0  0  0  0  0  0  0  0  0  0  0
   -1.0323   -0.7500    0.0000 C   0  0  0  0  0  0  0  0  0  0  0  0
    0.3943   -1.2135    0.0000 C   0  0  0  0  0  0  0  0  0  0  0  0
  1  2  3  0
  2  3  1  0
  3  4  2  0
  4  5  1  0
  5  6  2  0
  6  7  1  0
  7  3  1  0
M  END
>  <Title>  (704) 
idAAZDgen9

$$$$

     RDKit          2D

119119  0  0  0  0  0  0  0  0999 V2000
   29.6738    0.0000    0.0000 C   0  0  0  0  0  0  0  0  0  0  0  0
   28.1738    0.0000    0.0000 C   0  0  0  0  0  0  0  0  0  0  0  0
   28.1338   -1.4995    0.0000 C   0  0  0  0  0  0  0  0  0  0  0  0
   28.0141   -2.9947    0.0000 C   0  0  0  0  0  0  0  0  0  0  0  0
   27.8151   -4.4814    0.0000 C   0  0  0  0  0  0  0  0  0  0  0  0
   27.5371   -5.9554    0.0000 C   0  0  0  0  0  0  0  0  0  0  0  0
   27.1811   -7.4126    0.0000 C   0  0  0  0  0  0  0  0  0  0  0  0
   26.7481   -8.8487    0.0000 C   0  0  0  0  0  0  0  0  0  0  0  0
   26.2392  -10.2598    0.0000 C   0  0  0  0  0  0  0  0  0  0  0  0
   25.6560  -11.6417    0.0000 C   0  0  0  0  0  0  0  0  0  0  0  0
   25.0000  -12.9907    0.0000 C   0  0  0  0  0  0  0  0  0  0  0  0
   24.2732  -14.3029    0.0000 C   0  0  0  0  0  0  0  0  0  0  0  0
   23.4776  -15.5745    0.0000 C   0  0  0  0  0  0  0  0  0  0  0  0
   22.6154  -16.8019    0.0000 C   0  0  0  0  0  0  0  0  0  0  0  0
   21.6891  -17.9817    0.0000 C   0  0  0  0  0  0  0  0  0  0  0  0
   20.7013  -19.1106    0.0000 C   0  0  0  0  0  0  0  0  0  0  0  0
   19.6549  -20.1853    0.0000 C   0  0  0  0  0  0  0  0  0  0  0  0
   18.5527  -21.2027    0.0000 C   0  0  0  0  0  0  0  0  0  0  0  0
   17.3980  -22.1601    0.0000 C   0  0  0  0  0  0  0  0  0  0  0  0
   16.1939  -23.0547    0.0000 C   0  0  0  0  0  0  0  0  0  0  0  0
   14.9439  -23.8839    0.0000 C   0  0  0  0  0  0  0  0  0  0  0  0
   13.6516  -24.6454    0.0000 C   0  0  0  0  0  0  0  0  0  0  0  0
   12.3206  -25.3370    0.0000 C   0  0  0  0  0  0  0  0  0  0  0  0
   10.9546  -25.9568    0.0000 C   0  0  0  0  0  0  0  0  0  0  0  0
    9.5576  -26.5031    0.0000 C   0  0  0  0  0  0  0  0  0  0  0  0
    8.1335  -26.9742    0.0000 C   0  0  0  0  0  0  0  0  0  0  0  0
    6.6864  -27.3688    0.0000 C   0  0  0  0  0  0  0  0  0  0  0  0
    5.2203  -27.6859    0.0000 C   0  0  0  0  0  0  0  0  0  0  0  0
    3.7394  -27.9245    0.0000 C   0  0  0  0  0  0  0  0  0  0  0  0
    2.2479  -28.0839    0.0000 C   0  0  0  0  0  0  0  0  0  0  0  0
    0.7500  -28.1638    0.0000 C   0  0  0  0  0  0  0  0  0  0  0  0
   -0.7500  -28.1638    0.0000 C   0  0  0  0  0  0  0  0  0  0  0  0
   -2.2479  -28.0839    0.0000 C   0  0  0  0  0  0  0  0  0  0  0  0
   -3.7394  -27.9245    0.0000 C   0  0  0  0  0  0  0  0  0  0  0  0
   -5.2203  -27.6859    0.0000 C   0  0  0  0  0  0  0  0  0  0  0  0
   -6.6864  -27.3688    0.0000 C   0  0  0  0  0  0  0  0  0  0  0  0
   -8.1335  -26.9742    0.0000 C   0  0  0  0  0  0  0  0  0  0  0  0
   -9.5576  -26.5031    0.0000 C   0  0  0  0  0  0  0  0  0  0  0  0
  -10.9546  -25.9568    0.0000 C   0  0  0  0  0  0  0  0  0  0  0  0
  -12.3206  -25.3370    0.0000 C   0  0  0  0  0  0  0  0  0  0  0  0
  -13.6516  -24.6454    0.0000 C   0  0  0  0  0  0  0  0  0  0  0  0
  -14.9439  -23.8839    0.0000 C   0  0  0  0  0  0  0  0  0  0  0  0
  -16.1939  -23.0547    0.0000 C   0  0  0  0  0  0  0  0  0  0  0  0
  -17.3980  -22.1601    0.0000 C   0  0  0  0  0  0  0  0  0  0  0  0
  -18.5527  -21.2027    0.0000 C   0  0  0  0  0  0  0  0  0  0  0  0
  -19.6549  -20.1853    0.0000 C   0  0  0  0  0  0  0  0  0  0  0  0
  -20.7013  -19.1106    0.0000 C   0  0  0  0  0  0  0  0  0  0  0  0
  -21.6891  -17.9817    0.0000 C   0  0  0  0  0  0  0  0  0  0  0  0
  -22.6154  -16.8019    0.0000 C   0  0  0  0  0  0  0  0  0  0  0  0
  -23.4776  -15.5745    0.0000 C   0  0  0  0  0  0  0  0  0  0  0  0
  -24.2732  -14.3029    0.0000 C   0  0  0  0  0  0  0  0  0  0  0  0
  -25.0000  -12.9907    0.0000 C   0  0  0  0  0  0  0  0  0  0  0  0
  -25.6560  -11.6417    0.0000 C   0  0  0  0  0  0  0  0  0  0  0  0
  -26.2392  -10.2598    0.0000 C   0  0  0  0  0  0  0  0  0  0  0  0
  -26.7481   -8.8487    0.0000 C   0  0  0  0  0  0  0  0  0  0  0  0
  -27.1811   -7.4126    0.0000 C   0  0  0  0  0  0  0  0  0  0  0  0
  -27.5371   -5.9554    0.0000 C   0  0  0  0  0  0  0  0  0  0  0  0
  -27.8151   -4.4814    0.0000 C   0  0  0  0  0  0  0  0  0  0  0  0
  -28.0141   -2.9947    0.0000 C   0  0  0  0  0  0  0  0  0  0  0  0
  -28.1338   -1.4995    0.0000 C   0  0  0  0  0  0  0  0  0  0  0  0
  -28.1738    0.0000    0.0000 C   0  0  0  0  0  0  0  0  0  0  0  0
  -28.1338    1.4995    0.0000 C   0  0  0  0  0  0  0  0  0  0  0  0
  -28.0141    2.9947    0.0000 C   0  0  0  0  0  0  0  0  0  0  0  0
  -27.8151    4.4814    0.0000 C   0  0  0  0  0  0  0  0  0  0  0  0
  -27.5371    5.9554    0.0000 C   0  0  0  0  0  0  0  0  0  0  0  0
  -27.1811    7.4126    0.0000 C   0  0  0  0  0  0  0  0  0  0  0  0
  -26.7481    8.8487    0.0000 C   0  0  0  0  0  0  0  0  0  0  0  0
  -26.2392   10.2598    0.0000 C   0  0  0  0  0  0  0  0  0  0  0  0
  -25.6560   11.6417    0.0000 C   0  0  0  0  0  0  0  0  0  0  0  0
  -25.0000   12.9907    0.0000 C   0  0  0  0  0  0  0  0  0  0  0  0
  -24.2732   14.3029    0.0000 C   0  0  0  0  0  0  0  0  0  0  0  0
  -23.4776   15.5745    0.0000 C   0  0  0  0  0  0  0  0  0  0  0  0
  -22.6154   16.8019    0.0000 C   0  0  0  0  0  0  0  0  0  0  0  0
  -21.6891   17.9817    0.0000 C   0  0  0  0  0  0  0  0  0  0  0  0
  -20.7013   19.1106    0.0000 C   0  0  0  0  0  0  0  0  0  0  0  0
  -19.6549   20.1853    0.0000 C   0  0  0  0  0  0  0  0  0  0  0  0
  -18.5527   21.2027    0.0000 C   0  0  0  0  0  0  0  0  0  0  0  0
  -17.3980   22.1601    0.0000 C   0  0  0  0  0  0  0  0  0  0  0  0
  -16.1939   23.0547    0.0000 C   0  0  0  0  0  0  0  0  0  0  0  0
  -14.9439   23.8839    0.0000 C   0  0  0  0  0  0  0  0  0  0  0  0
  -13.6516   24.6454    0.0000 C   0  0  0  0  0  0  0  0  0  0  0  0
  -12.3206   25.3370    0.0000 C   0  0  0  0  0  0  0  0  0  0  0  0
  -10.9546   25.9568    0.0000 C   0  0  0  0  0  0  0  0  0  0  0  0
   -9.5576   26.5031    0.0000 C   0  0  0  0  0  0  0  0  0  0  0  0
   -8.1335   26.9742    0.0000 C   0  0  0  0  0  0  0  0  0  0  0  0
   -6.6864   27.3688    0.0000 C   0  0  0  0  0  0  0  0  0  0  0  0
   -5.2203   27.6859    0.0000 C   0  0  0  0  0  0  0  0  0  0  0  0
   -3.7394   27.9245    0.0000 C   0  0  0  0  0  0  0  0  0  0  0  0
   -2.2479   28.0839    0.0000 C   0  0  0  0  0  0  0  0  0  0  0  0
   -0.7500   28.1638    0.0000 C   0  0  0  0  0  0  0  0  0  0  0  0
    0.7500   28.1638    0.0000 C   0  0  0  0  0  0  0  0  0  0  0  0
    2.2479   28.0839    0.0000 C   0  0  0  0  0  0  0  0  0  0  0  0
    3.7394   27.9245    0.0000 C   0  0  0  0  0  0  0  0  0  0  0  0
    5.2203   27.6859    0.0000 C   0  0  0  0  0  0  0  0  0  0  0  0
    6.6864   27.3688    0.0000 C   0  0  0  0  0  0  0  0  0  0  0  0
    8.1335   26.9742    0.0000 C   0  0  0  0  0  0  0  0  0  0  0  0
    9.5576   26.5031    0.0000 C   0  0  0  0  0  0  0  0  0  0  0  0
   10.9546   25.9568    0.0000 C   0  0  0  0  0  0  0  0  0  0  0  0
   12.3206   25.3370    0.0000 C   0  0  0  0  0  0  0  0  0  0  0  0
   13.6516   24.6454    0.0000 C   0  0  0  0  0  0  0  0  0  0  0  0
   14.9439   23.8839    0.0000 C   0  0  0  0  0  0  0  0  0  0  0  0
   16.1939   23.0547    0.0000 C   0  0  0  0  0  0  0  0  0  0  0  0
   17.3980   22.1601    0.0000 C   0  0  0  0  0  0  0  0  0  0  0  0
   18.5527   21.2027    0.0000 C   0  0  0  0  0  0  0  0  0  0  0  0
   19.6549   20.1853    0.0000 C   0  0  0  0  0  0  0  0  0  0  0  0
   20.7013   19.1106    0.0000 C   0  0  0  0  0  0  0  0  0  0  0  0
   21.6891   17.9817    0.0000 C   0  0  0  0  0  0  0  0  0  0  0  0
   22.6154   16.8019    0.0000 C   0  0  0  0  0  0  0  0  0  0  0  0
   23.4776   15.5745    0.0000 C   0  0  0  0  0  0  0  0  0  0  0  0
   24.2732   14.3029    0.0000 C   0  0  0  0  0  0  0  0  0  0  0  0
   25.0000   12.9907    0.0000 C   0  0  0  0  0  0  0  0  0  0  0  0
   25.6560   11.6417    0.0000 C   0  0  0  0  0  0  0  0  0  0  0  0
   26.2392   10.2598    0.0000 C   0  0  0  0  0  0  0  0  0  0  0  0
   26.7481    8.8487    0.0000 C   0  0  0  0  0  0  0  0  0  0  0  0
   27.1811    7.4126    0.0000 C   0  0  0  0  0  0  0  0  0  0  0  0
   27.5371    5.9554    0.0000 C   0  0  0  0  0  0  0  0  0  0  0  0
   27.8151    4.4814    0.0000 C   0  0  0  0  0  0  0  0  0  0  0  0
   28.0141    2.9947    0.0000 C   0  0  0  0  0  0  0  0  0  0  0  0
   28.1338    1.4995    0.0000 C   0  0  0  0  0  0  0  0  0  0  0  0
  1  2  1  0
  2  3  1  0
  3  4  1  0
  4  5  1  0
  5  6  1  0
  6  7  1  0
  7  8  1  0
  8  9  1  0
  9 10  1  0
 10 11  1  0
 11 12  1  0
 12 13  1  0
 13 14  1  0
 14 15  1  0
 15 16  1  0
 16 17  1  0
 17 18  1  0
 18 19  1  0
 19 20  1  0
 20 21  1  0
 21 22  1  0
 22 23  1  0
 23 24  1  0
 24 25  1  0
 25 26  1  0
 26 27  1  0
 27 28  1  0
 28 29  1  0
 29 30  1  0
 30 31  1  0
 31 32  1  0
 32 33  1  0
 33 34  1  0
 34 35  1  0
 35 36  1  0
 36 37  1  0
 37 38  1  0
 38 39  1  0
 39 40  1  0
 40 41  1  0
 41 42  1  0
 42 43  1  0
 43 44  1  0
 44 45  1  0
 45 46  1  0
 46 47  1  0
 47 48  1  0
 48 49  1  0
 49 50  1  0
 50 51  1  0
 51 52  1  0
 52 53  1  0
 53 54  1  0
 54 55  1  0
 55 56  1  0
 56 57  1  0
 57 58  1  0
 58 59  1  0
 59 60  1  0
 60 61  1  0
 61 62  1  0
 62 63  1  0
 63 64  1  0
 64 65  1  0
 65 66  1  0
 66 67  1  0
 67 68  1  0
 68 69  1  0
 69 70  1  0
 70 71  1  0
 71 72  1  0
 72 73  1  0
 73 74  1  0
 74 75  1  0
 75 76  1  0
 76 77  1  0
 77 78  1  0
 78 79  1  0
 79 80  1  0
 80 81  1  0
 81 82  1  0
 82 83  1  0
 83 84  1  0
 84 85  1  0
 85 86  1  0
 86 87  1  0
 87 88  1  0
 88 89  1  0
 89 90  1  0
 90 91  1  0
 91 92  1  0
 92 93  1  0
 93 94  1  0
 94 95  1  0
 95 96  1  0
 96 97  1  0
 97 98  1  0
 98 99  1  0
 99100  1  0
100101  1  0
101102  1  0
102103  1  0
103104  1  0
104105  1  0
105106  1  0
106107  1  0
107108  1  0
108109  1  0
109110  1  0
110111  1  0
111112  1  0
112113  1  0
113114  1  0
114115  1  0
115116  1  0
116117  1  0
117118  1  0
118119  1  0
119  2  1  0
M  END
>  <Title>  (705) 
idAAZEgen9

$$$$

     RDKit          2D

 39 44  0  0  0  0  0  0  0  0999 V2000
    2.1535   -8.4451    0.0000 C   0  0  0  0  0  0  0  0  0  0  0  0
    1.4564   -7.1169    0.0000 C   0  0  0  0  0  0  0  0  0  0  0  0
    2.5792   -6.1222    0.0000 C   0  0  0  0  0  0  0  0  0  0  0  0
    3.1111   -4.7197    0.0000 C   0  0  0  0  0  0  0  0  0  0  0  0
    2.9303   -3.2306    0.0000 C   0  0  0  0  0  0  0  0  0  0  0  0
    2.0782   -1.9961    0.0000 C   0  0  0  0  0  0  0  0  0  0  0  0
    3.0729   -0.8734    0.0000 C   0  0  0  0  0  0  0  0  0  0  0  0
    2.5979    0.5494    0.0000 O   0  0  0  0  0  0  0  0  0  0  0  0
    4.5426   -1.1734    0.0000 N   0  0  0  0  0  0  0  0  0  0  0  0
    5.5372   -0.0506    0.0000 C   0  0  0  0  0  0  0  0  0  0  0  0
    7.0069   -0.3507    0.0000 N   0  0  0  0  0  0  0  0  0  0  0  0
    8.0016    0.7721    0.0000 N   0  0  0  0  0  0  0  0  0  0  0  0
    7.5266    2.1949    0.0000 N   0  0  0  0  0  0  0  0  0  0  0  0
    6.0569    2.4949    0.0000 N   0  0  0  0  0  0  0  0  0  0  0  0
    5.0622    1.3722    0.0000 N   0  0  0  0  0  0  0  0  0  0  0  0
    0.7500   -1.2990    0.0000 C   0  0  0  0  0  0  0  0  0  0  0  0
    1.5000    0.0000    0.0000 C   0  0  0  0  0  0  0  0  0  0  0  0
    0.7500    1.2990    0.0000 C   0  0  0  0  0  0  0  0  0  0  0  0
   -0.7500    1.2990    0.0000 C   0  0  0  0  0  0  0  0  0  0  0  0
   -1.5000    0.0000    0.0000 C   0  0  0  0  0  0  0  0  0  0  0  0
   -0.7500   -1.2990    0.0000 C   0  0  0  0  0  0  0  0  0  0  0  0
   -2.0782   -1.9961    0.0000 C   0  0  0  0  0  0  0  0  0  0  0  0
   -2.7212   -0.6409    0.0000 C   0  0  0  0  0  0  0  0  0  0  0  0
   -4.2164   -0.5202    0.0000 C   0  0  0  0  0  0  0  0  0  0  0  0
   -5.0685   -1.7547    0.0000 C   0  0  0  0  0  0  0  0  0  0  0  0
   -4.4254   -3.1099    0.0000 C   0  0  0  0  0  0  0  0  0  0  0  0
   -2.9303   -3.2306    0.0000 C   0  0  0  0  0  0  0  0  0  0  0  0
   -3.1111   -4.7197    0.0000 C   0  0  0  0  0  0  0  0  0  0  0  0
   -4.5917   -4.4790    0.0000 C   0  0  0  0  0  0  0  0  0  0  0  0
   -5.5403   -5.6410    0.0000 C   0  0  0  0  0  0  0  0  0  0  0  0
   -5.0084   -7.0435    0.0000 C   0  0  0  0  0  0  0  0  0  0  0  0
   -3.5278   -7.2841    0.0000 C   0  0  0  0  0  0  0  0  0  0  0  0
   -2.5792   -6.1222    0.0000 C   0  0  0  0  0  0  0  0  0  0  0  0
   -1.4564   -7.1169    0.0000 C   0  0  0  0  0  0  0  0  0  0  0  0
   -2.4955   -8.1987    0.0000 C   0  0  0  0  0  0  0  0  0  0  0  0
   -2.0782   -9.6395    0.0000 C   0  0  0  0  0  0  0  0  0  0  0  0
   -0.6218   -9.9984    0.0000 C   0  0  0  0  0  0  0  0  0  0  0  0
    0.4173   -8.9166    0.0000 C   0  0  0  0  0  0  0  0  0  0  0  0
   -0.0000   -7.4758    0.0000 C   0  0  0  0  0  0  0  0  0  0  0  0
  1  2  1  0
  2  3  2  0
  3  4  1  0
  4  5  2  0
  5  6  1  0
  6  7  1  0
  7  8  2  0
  7  9  1  0
  9 10  1  0
 10 11  2  0
 11 12  1  0
 12 13  2  0
 13 14  1  0
 14 15  2  0
  6 16  1  0
 16 17  2  0
 17 18  1  0
 18 19  2  0
 19 20  1  0
 20 21  2  0
 21 22  1  0
 22 23  2  0
 23 24  1  0
 24 25  2  0
 25 26  1  0
 26 27  2  0
 27 28  1  0
 28 29  2  0
 29 30  1  0
 30 31  2  0
 31 32  1  0
 32 33  2  0
 33 34  1  0
 34 35  2  0
 35 36  1  0
 36 37  2  0
 37 38  1  0
 38 39  2  0
 39  2  1  0
 15 10  1  0
 21 16  1  0
 27 22  1  0
 33 28  1  0
 39 34  1  0
M  END
>  <Title>  (706) 
idAAZFgen9

$$$$

     RDKit          2D

 15 16  0  0  0  0  0  0  0  0999 V2000
    1.8478   -9.0619    0.0000 C   0  0  0  0  0  0  0  0  0  0  0  0
    2.0046   -7.5702    0.0000 C   0  0  0  0  0  0  0  0  0  0  0  0
    3.3037   -6.8202    0.0000 C   0  0  0  0  0  0  0  0  0  0  0  0
    2.9918   -5.3529    0.0000 C   0  0  0  0  0  0  0  0  0  0  0  0
    1.5000   -5.1962    0.0000 C   0  0  0  0  0  0  0  0  0  0  0  0
    0.7500   -3.8971    0.0000 N   0  0  0  0  0  0  0  0  0  0  0  0
    1.5000   -2.5981    0.0000 C   0  0  0  0  0  0  0  0  0  0  0  0
    3.0000   -2.5981    0.0000 O   0  0  0  0  0  0  0  0  0  0  0  0
    0.7500   -1.2990    0.0000 C   0  0  0  0  0  0  0  0  0  0  0  0
    1.5000    0.0000    0.0000 C   0  0  0  0  0  0  0  0  0  0  0  0
    0.7500    1.2990    0.0000 C   0  0  0  0  0  0  0  0  0  0  0  0
   -0.7500    1.2990    0.0000 C   0  0  0  0  0  0  0  0  0  0  0  0
   -1.5000    0.0000    0.0000 C   0  0  0  0  0  0  0  0  0  0  0  0
   -0.7500   -1.2990    0.0000 C   0  0  0  0  0  0  0  0  0  0  0  0
    0.8899   -6.5665    0.0000 C   0  0  0  0  0  0  0  0  0  0  0  0
  1  2  1  0
  2  3  2  0
  3  4  1  0
  4  5  1  0
  5  6  1  0
  6  7  1  0
  7  8  2  0
  7  9  1  0
  9 10  2  0
 10 11  1  0
 11 12  2  0
 12 13  1  0
 13 14  2  0
  5 15  1  0
 15  2  1  0
 14  9  1  0
M  END
>  <Title>  (707) 
idAAZGgen9

$$$$

     RDKit          2D

 20 22  0  0  0  0  0  0  0  0999 V2000
   -3.0000   -2.5981    0.0000 C   0  0  0  0  0  0  0  0  0  0  0  0
   -1.5000   -2.5981    0.0000 C   0  0  0  0  0  0  0  0  0  0  0  0
   -0.7500   -3.8971    0.0000 C   0  0  0  0  0  0  0  0  0  0  0  0
    0.7500   -3.8971    0.0000 C   0  0  0  0  0  0  0  0  0  0  0  0
    1.5000   -2.5981    0.0000 C   0  0  0  0  0  0  0  0  0  0  0  0
    3.0000   -2.5981    0.0000 C   0  0  0  0  0  0  0  0  0  0  0  0
    3.7500   -1.2990    0.0000 O   0  0  0  0  0  0  0  0  0  0  0  0
    3.7500   -3.8971    0.0000 N   0  0  0  0  0  0  0  0  0  0  0  0
    5.2500   -3.8971    0.0000 C   0  0  0  0  0  0  0  0  0  0  0  0
    6.0000   -5.1962    0.0000 N   0  0  0  0  0  0  0  0  0  0  0  0
    7.5000   -5.1962    0.0000 N   0  0  0  0  0  0  0  0  0  0  0  0
    8.2500   -3.8971    0.0000 N   0  0  0  0  0  0  0  0  0  0  0  0
    7.5000   -2.5981    0.0000 N   0  0  0  0  0  0  0  0  0  0  0  0
    6.0000   -2.5981    0.0000 N   0  0  0  0  0  0  0  0  0  0  0  0
    0.7500   -1.2990    0.0000 C   0  0  0  0  0  0  0  0  0  0  0  0
    1.5000    0.0000    0.0000 C   0  0  0  0  0  0  0  0  0  0  0  0
    0.7500    1.2990    0.0000 C   0  0  0  0  0  0  0  0  0  0  0  0
   -0.7500    1.2990    0.0000 C   0  0  0  0  0  0  0  0  0  0  0  0
   -1.5000    0.0000    0.0000 C   0  0  0  0  0  0  0  0  0  0  0  0
   -0.7500   -1.2990    0.0000 C   0  0  0  0  0  0  0  0  0  0  0  0
  1  2  1  0
  2  3  1  0
  3  4  1  0
  4  5  1  0
  5  6  1  0
  6  7  2  0
  6  8  1  0
  8  9  1  0
  9 10  2  0
 10 11  1  0
 11 12  2  0
 12 13  1  0
 13 14  2  0
  5 15  1  0
 15 16  2  0
 16 17  1  0
 17 18  2  0
 18 19  1  0
 19 20  2  0
 20  2  1  0
 14  9  1  0
 20 15  1  0
M  END
>  <Title>  (708) 
idAAZHgen9

$$$$

     RDKit          2D

 62 62  0  0  0  0  0  0  0  0999 V2000
   15.8305    0.0000    0.0000 C   0  0  0  0  0  0  0  0  0  0  0  0
   14.3305    0.0000    0.0000 C   0  0  0  0  0  0  0  0  0  0  0  0
   14.2520   -1.4979    0.0000 C   0  0  0  0  0  0  0  0  0  0  0  0
   14.0173   -2.9795    0.0000 C   0  0  0  0  0  0  0  0  0  0  0  0
   13.6291   -4.4284    0.0000 C   0  0  0  0  0  0  0  0  0  0  0  0
   13.0916   -5.8287    0.0000 C   0  0  0  0  0  0  0  0  0  0  0  0
   12.4106   -7.1652    0.0000 C   0  0  0  0  0  0  0  0  0  0  0  0
   11.5936   -8.4233    0.0000 C   0  0  0  0  0  0  0  0  0  0  0  0
   10.6496   -9.5890    0.0000 C   0  0  0  0  0  0  0  0  0  0  0  0
    9.5890  -10.6496    0.0000 C   0  0  0  0  0  0  0  0  0  0  0  0
    8.4233  -11.5936    0.0000 C   0  0  0  0  0  0  0  0  0  0  0  0
    7.1652  -12.4106    0.0000 C   0  0  0  0  0  0  0  0  0  0  0  0
    5.8287  -13.0916    0.0000 C   0  0  0  0  0  0  0  0  0  0  0  0
    4.4284  -13.6291    0.0000 C   0  0  0  0  0  0  0  0  0  0  0  0
    2.9795  -14.0173    0.0000 C   0  0  0  0  0  0  0  0  0  0  0  0
    1.4979  -14.2520    0.0000 C   0  0  0  0  0  0  0  0  0  0  0  0
   -0.0000  -14.3305    0.0000 C   0  0  0  0  0  0  0  0  0  0  0  0
   -1.4979  -14.2520    0.0000 C   0  0  0  0  0  0  0  0  0  0  0  0
   -2.9795  -14.0173    0.0000 C   0  0  0  0  0  0  0  0  0  0  0  0
   -4.4284  -13.6291    0.0000 C   0  0  0  0  0  0  0  0  0  0  0  0
   -5.8287  -13.0916    0.0000 C   0  0  0  0  0  0  0  0  0  0  0  0
   -7.1652  -12.4106    0.0000 C   0  0  0  0  0  0  0  0  0  0  0  0
   -8.4233  -11.5936    0.0000 C   0  0  0  0  0  0  0  0  0  0  0  0
   -9.5890  -10.6496    0.0000 C   0  0  0  0  0  0  0  0  0  0  0  0
  -10.6496   -9.5890    0.0000 C   0  0  0  0  0  0  0  0  0  0  0  0
  -11.5936   -8.4233    0.0000 C   0  0  0  0  0  0  0  0  0  0  0  0
  -12.4106   -7.1652    0.0000 C   0  0  0  0  0  0  0  0  0  0  0  0
  -13.0916   -5.8287    0.0000 C   0  0  0  0  0  0  0  0  0  0  0  0
  -13.6291   -4.4284    0.0000 C   0  0  0  0  0  0  0  0  0  0  0  0
  -14.0173   -2.9795    0.0000 C   0  0  0  0  0  0  0  0  0  0  0  0
  -14.2520   -1.4979    0.0000 C   0  0  0  0  0  0  0  0  0  0  0  0
  -14.3305    0.0000    0.0000 C   0  0  0  0  0  0  0  0  0  0  0  0
  -14.2520    1.4979    0.0000 C   0  0  0  0  0  0  0  0  0  0  0  0
  -14.0173    2.9795    0.0000 C   0  0  0  0  0  0  0  0  0  0  0  0
  -13.6291    4.4284    0.0000 C   0  0  0  0  0  0  0  0  0  0  0  0
  -13.0916    5.8287    0.0000 C   0  0  0  0  0  0  0  0  0  0  0  0
  -12.4106    7.1652    0.0000 C   0  0  0  0  0  0  0  0  0  0  0  0
  -11.5936    8.4233    0.0000 C   0  0  0  0  0  0  0  0  0  0  0  0
  -10.6496    9.5890    0.0000 C   0  0  0  0  0  0  0  0  0  0  0  0
   -9.5890   10.6496    0.0000 C   0  0  0  0  0  0  0  0  0  0  0  0
   -8.4233   11.5936    0.0000 C   0  0  0  0  0  0  0  0  0  0  0  0
   -7.1652   12.4106    0.0000 C   0  0  0  0  0  0  0  0  0  0  0  0
   -5.8287   13.0916    0.0000 C   0  0  0  0  0  0  0  0  0  0  0  0
   -4.4284   13.6291    0.0000 C   0  0  0  0  0  0  0  0  0  0  0  0
   -2.9795   14.0173    0.0000 C   0  0  0  0  0  0  0  0  0  0  0  0
   -1.4979   14.2520    0.0000 C   0  0  0  0  0  0  0  0  0  0  0  0
    0.0000   14.3305    0.0000 C   0  0  0  0  0  0  0  0  0  0  0  0
    1.4979   14.2520    0.0000 C   0  0  0  0  0  0  0  0  0  0  0  0
    2.9795   14.0173    0.0000 C   0  0  0  0  0  0  0  0  0  0  0  0
    4.4284   13.6291    0.0000 C   0  0  0  0  0  0  0  0  0  0  0  0
    5.8287   13.0916    0.0000 C   0  0  0  0  0  0  0  0  0  0  0  0
    7.1652   12.4106    0.0000 C   0  0  0  0  0  0  0  0  0  0  0  0
    8.4233   11.5936    0.0000 C   0  0  0  0  0  0  0  0  0  0  0  0
    9.5890   10.6496    0.0000 C   0  0  0  0  0  0  0  0  0  0  0  0
   10.6496    9.5890    0.0000 C   0  0  0  0  0  0  0  0  0  0  0  0
   11.5936    8.4233    0.0000 C   0  0  0  0  0  0  0  0  0  0  0  0
   12.4106    7.1652    0.0000 C   0  0  0  0  0  0  0  0  0  0  0  0
   13.0916    5.8287    0.0000 C   0  0  0  0  0  0  0  0  0  0  0  0
   13.6291    4.4284    0.0000 C   0  0  0  0  0  0  0  0  0  0  0  0
   14.0173    2.9795    0.0000 C   0  0  0  0  0  0  0  0  0  0  0  0
   15.4846    3.2913    0.0000 C   0  0  0  0  0  0  0  0  0  0  0  0
   14.2520    1.4979    0.0000 C   0  0  0  0  0  0  0  0  0  0  0  0
  1  2  1  0
  2  3  1  0
  3  4  1  0
  4  5  1  0
  5  6  1  0
  6  7  1  0
  7  8  1  0
  8  9  1  0
  9 10  1  0
 10 11  1  0
 11 12  1  0
 12 13  1  0
 13 14  1  0
 14 15  1  0
 15 16  1  0
 16 17  1  0
 17 18  1  0
 18 19  1  0
 19 20  1  0
 20 21  1  0
 21 22  1  0
 22 23  1  0
 23 24  1  0
 24 25  1  0
 25 26  1  0
 26 27  1  0
 27 28  1  0
 28 29  1  0
 29 30  1  0
 30 31  1  0
 31 32  1  0
 32 33  1  0
 33 34  1  0
 34 35  1  0
 35 36  1  0
 36 37  1  0
 37 38  1  0
 38 39  1  0
 39 40  1  0
 40 41  1  0
 41 42  1  0
 42 43  1  0
 43 44  1  0
 44 45  1  0
 45 46  1  0
 46 47  1  0
 47 48  1  0
 48 49  1  0
 49 50  1  0
 50 51  1  0
 51 52  1  0
 52 53  1  0
 53 54  1  0
 54 55  1  0
 55 56  1  0
 56 57  1  0
 57 58  1  0
 58 59  1  0
 59 60  1  0
 60 61  1  0
 60 62  1  0
 62  2  1  0
M  END
>  <Title>  (709) 
idAAZIgen9

$$$$

     RDKit          2D

 87 93  0  0  0  0  0  0  0  0999 V2000
  -13.4346   -6.6679    0.0000 C   0  0  0  0  0  0  0  0  0  0  0  0
  -12.2167   -7.5435    0.0000 C   0  0  0  0  0  0  0  0  0  0  0  0
  -13.0305   -8.8035    0.0000 C   0  0  0  0  0  0  0  0  0  0  0  0
  -13.7149  -10.1383    0.0000 C   0  0  0  0  0  0  0  0  0  0  0  0
  -14.2629  -11.5346    0.0000 C   0  0  0  0  0  0  0  0  0  0  0  0
  -14.6691  -12.9786    0.0000 C   0  0  0  0  0  0  0  0  0  0  0  0
  -14.9296  -14.4558    0.0000 C   0  0  0  0  0  0  0  0  0  0  0  0
  -15.0417  -15.9516    0.0000 C   0  0  0  0  0  0  0  0  0  0  0  0
  -15.0043  -17.4511    0.0000 C   0  0  0  0  0  0  0  0  0  0  0  0
  -14.8178  -18.9395    0.0000 C   0  0  0  0  0  0  0  0  0  0  0  0
  -14.4840  -20.4019    0.0000 C   0  0  0  0  0  0  0  0  0  0  0  0
  -14.0063  -21.8238    0.0000 C   0  0  0  0  0  0  0  0  0  0  0  0
  -13.3893  -23.1910    0.0000 C   0  0  0  0  0  0  0  0  0  0  0  0
  -12.6393  -24.4901    0.0000 C   0  0  0  0  0  0  0  0  0  0  0  0
  -11.7637  -25.7080    0.0000 C   0  0  0  0  0  0  0  0  0  0  0  0
  -10.7712  -26.8326    0.0000 C   0  0  0  0  0  0  0  0  0  0  0  0
   -9.6716  -27.8529    0.0000 C   0  0  0  0  0  0  0  0  0  0  0  0
   -8.4759  -28.7586    0.0000 C   0  0  0  0  0  0  0  0  0  0  0  0
   -7.1960  -29.5408    0.0000 C   0  0  0  0  0  0  0  0  0  0  0  0
   -5.8445  -30.1916    0.0000 C   0  0  0  0  0  0  0  0  0  0  0  0
   -4.4350  -30.7046    0.0000 C   0  0  0  0  0  0  0  0  0  0  0  0
   -2.9814  -31.0748    0.0000 C   0  0  0  0  0  0  0  0  0  0  0  0
   -1.4981  -31.2983    0.0000 C   0  0  0  0  0  0  0  0  0  0  0  0
   -0.0000  -31.3731    0.0000 C   0  0  0  0  0  0  0  0  0  0  0  0
    1.4981  -31.2983    0.0000 C   0  0  0  0  0  0  0  0  0  0  0  0
    2.9814  -31.0748    0.0000 C   0  0  0  0  0  0  0  0  0  0  0  0
    4.4350  -30.7046    0.0000 C   0  0  0  0  0  0  0  0  0  0  0  0
    5.8445  -30.1916    0.0000 C   0  0  0  0  0  0  0  0  0  0  0  0
    7.1960  -29.5408    0.0000 C   0  0  0  0  0  0  0  0  0  0  0  0
    8.4759  -28.7586    0.0000 C   0  0  0  0  0  0  0  0  0  0  0  0
    9.6716  -27.8529    0.0000 C   0  0  0  0  0  0  0  0  0  0  0  0
   10.7712  -26.8326    0.0000 C   0  0  0  0  0  0  0  0  0  0  0  0
   11.7637  -25.7080    0.0000 C   0  0  0  0  0  0  0  0  0  0  0  0
   12.6393  -24.4901    0.0000 C   0  0  0  0  0  0  0  0  0  0  0  0
   13.3893  -23.1910    0.0000 C   0  0  0  0  0  0  0  0  0  0  0  0
   14.0063  -21.8238    0.0000 C   0  0  0  0  0  0  0  0  0  0  0  0
   14.4840  -20.4019    0.0000 C   0  0  0  0  0  0  0  0  0  0  0  0
   14.8178  -18.9395    0.0000 C   0  0  0  0  0  0  0  0  0  0  0  0
   15.0043  -17.4511    0.0000 C   0  0  0  0  0  0  0  0  0  0  0  0
   15.0417  -15.9516    0.0000 C   0  0  0  0  0  0  0  0  0  0  0  0
   14.9296  -14.4558    0.0000 C   0  0  0  0  0  0  0  0  0  0  0  0
   14.6691  -12.9786    0.0000 C   0  0  0  0  0  0  0  0  0  0  0  0
   14.2629  -11.5346    0.0000 C   0  0  0  0  0  0  0  0  0  0  0  0
   13.7149  -10.1383    0.0000 C   0  0  0  0  0  0  0  0  0  0  0  0
   13.0305   -8.8035    0.0000 C   0  0  0  0  0  0  0  0  0  0  0  0
   12.2167   -7.5435    0.0000 C   0  0  0  0  0  0  0  0  0  0  0  0
   11.2815   -6.3707    0.0000 C   0  0  0  0  0  0  0  0  0  0  0  0
   10.2341   -5.2969    0.0000 C   0  0  0  0  0  0  0  0  0  0  0  0
    9.0851   -4.3328    0.0000 C   0  0  0  0  0  0  0  0  0  0  0  0
    7.8457   -3.4878    0.0000 C   0  0  0  0  0  0  0  0  0  0  0  0
    6.5284   -2.7704    0.0000 C   0  0  0  0  0  0  0  0  0  0  0  0
    5.1462   -2.1877    0.0000 C   0  0  0  0  0  0  0  0  0  0  0  0
    3.7128   -1.7456    0.0000 C   0  0  0  0  0  0  0  0  0  0  0  0
    3.8845   -3.2358    0.0000 C   0  0  0  0  0  0  0  0  0  0  0  0
    2.5203   -3.8595    0.0000 C   0  0  0  0  0  0  0  0  0  0  0  0
    1.5055   -2.7548    0.0000 C   0  0  0  0  0  0  0  0  0  0  0  0
    2.2425   -1.4484    0.0000 C   0  0  0  0  0  0  0  0  0  0  0  0
    0.7500   -1.2990    0.0000 C   0  0  0  0  0  0  0  0  0  0  0  0
    1.5000    0.0000    0.0000 C   0  0  0  0  0  0  0  0  0  0  0  0
    0.7500    1.2990    0.0000 C   0  0  0  0  0  0  0  0  0  0  0  0
   -0.7500    1.2990    0.0000 C   0  0  0  0  0  0  0  0  0  0  0  0
   -1.5000    0.0000    0.0000 C   0  0  0  0  0  0  0  0  0  0  0  0
   -0.7500   -1.2990    0.0000 C   0  0  0  0  0  0  0  0  0  0  0  0
   -2.2425   -1.4484    0.0000 C   0  0  0  0  0  0  0  0  0  0  0  0
   -1.2500   -2.5731    0.0000 C   0  0  0  0  0  0  0  0  0  0  0  0
   -1.7277   -3.9950    0.0000 C   0  0  0  0  0  0  0  0  0  0  0  0
   -3.1980   -4.2922    0.0000 C   0  0  0  0  0  0  0  0  0  0  0  0
   -4.1905   -3.1675    0.0000 C   0  0  0  0  0  0  0  0  0  0  0  0
   -3.7128   -1.7456    0.0000 C   0  0  0  0  0  0  0  0  0  0  0  0
   -5.1462   -2.1877    0.0000 C   0  0  0  0  0  0  0  0  0  0  0  0
   -4.9596   -0.6994    0.0000 C   0  0  0  0  0  0  0  0  0  0  0  0
   -6.1553    0.2063    0.0000 C   0  0  0  0  0  0  0  0  0  0  0  0
   -7.5376   -0.3763    0.0000 C   0  0  0  0  0  0  0  0  0  0  0  0
   -7.7241   -1.8647    0.0000 C   0  0  0  0  0  0  0  0  0  0  0  0
   -6.5284   -2.7704    0.0000 C   0  0  0  0  0  0  0  0  0  0  0  0
   -7.8457   -3.4878    0.0000 C   0  0  0  0  0  0  0  0  0  0  0  0
   -6.4943   -4.1386    0.0000 C   0  0  0  0  0  0  0  0  0  0  0  0
   -6.3822   -5.6344    0.0000 C   0  0  0  0  0  0  0  0  0  0  0  0
   -7.6215   -6.4794    0.0000 C   0  0  0  0  0  0  0  0  0  0  0  0
   -8.9730   -5.8286    0.0000 C   0  0  0  0  0  0  0  0  0  0  0  0
   -9.0851   -4.3328    0.0000 C   0  0  0  0  0  0  0  0  0  0  0  0
  -10.2341   -5.2969    0.0000 C   0  0  0  0  0  0  0  0  0  0  0  0
  -10.6404   -3.8530    0.0000 C   0  0  0  0  0  0  0  0  0  0  0  0
  -12.0940   -3.4829    0.0000 C   0  0  0  0  0  0  0  0  0  0  0  0
  -13.1414   -4.5567    0.0000 C   0  0  0  0  0  0  0  0  0  0  0  0
  -12.7351   -6.0006    0.0000 C   0  0  0  0  0  0  0  0  0  0  0  0
  -11.2815   -6.3707    0.0000 C   0  0  0  0  0  0  0  0  0  0  0  0
  1  2  1  0
  2  3  1  0
  3  4  1  0
  4  5  1  0
  5  6  1  0
  6  7  1  0
  7  8  1  0
  8  9  1  0
  9 10  1  0
 10 11  1  0
 11 12  1  0
 12 13  1  0
 13 14  1  0
 14 15  1  0
 15 16  1  0
 16 17  1  0
 17 18  1  0
 18 19  1  0
 19 20  1  0
 20 21  1  0
 21 22  1  0
 22 23  1  0
 23 24  1  0
 24 25  1  0
 25 26  1  0
 26 27  1  0
 27 28  1  0
 28 29  1  0
 29 30  1  0
 30 31  1  0
 31 32  1  0
 32 33  1  0
 33 34  1  0
 34 35  1  0
 35 36  1  0
 36 37  2  0
 37 38  1  0
 38 39  2  0
 39 40  1  0
 40 41  2  0
 41 42  1  0
 42 43  2  0
 43 44  1  0
 44 45  2  0
 45 46  1  0
 46 47  2  0
 47 48  1  0
 48 49  2  0
 49 50  1  0
 50 51  2  0
 51 52  1  0
 52 53  2  0
 53 54  1  0
 54 55  2  0
 55 56  1  0
 56 57  2  0
 57 58  1  0
 58 59  2  0
 59 60  1  0
 60 61  2  0
 61 62  1  0
 62 63  2  0
 63 64  1  0
 64 65  2  0
 65 66  1  0
 66 67  2  0
 67 68  1  0
 68 69  2  0
 69 70  1  0
 70 71  2  0
 71 72  1  0
 72 73  2  0
 73 74  1  0
 74 75  2  0
 75 76  1  0
 76 77  2  0
 77 78  1  0
 78 79  2  0
 79 80  1  0
 80 81  2  0
 81 82  1  0
 82 83  2  0
 83 84  1  0
 84 85  2  0
 85 86  1  0
 86 87  2  0
 87  2  1  0
 57 53  1  0
 63 58  1  0
 69 64  1  0
 75 70  1  0
 81 76  1  0
 87 82  1  0
M  END
>  <Title>  (710) 
idAAZJgen9

$$$$

     RDKit          2D

100100  0  0  0  0  0  0  0  0999 V2000
   25.1385    0.0000    0.0000 C   0  0  0  0  0  0  0  0  0  0  0  0
   23.6385    0.0000    0.0000 C   0  0  0  0  0  0  0  0  0  0  0  0
   23.5909    1.4992    0.0000 C   0  0  0  0  0  0  0  0  0  0  0  0
   23.4483    2.9925    0.0000 C   0  0  0  0  0  0  0  0  0  0  0  0
   23.2113    4.4736    0.0000 C   0  0  0  0  0  0  0  0  0  0  0  0
   22.8808    5.9368    0.0000 C   0  0  0  0  0  0  0  0  0  0  0  0
   22.4582    7.3760    0.0000 C   0  0  0  0  0  0  0  0  0  0  0  0
   21.9452    8.7855    0.0000 C   0  0  0  0  0  0  0  0  0  0  0  0
   21.3438   10.1597    0.0000 C   0  0  0  0  0  0  0  0  0  0  0  0
   20.6565   11.4929    0.0000 C   0  0  0  0  0  0  0  0  0  0  0  0
   19.8860   12.7799    0.0000 C   0  0  0  0  0  0  0  0  0  0  0  0
   19.0354   14.0154    0.0000 C   0  0  0  0  0  0  0  0  0  0  0  0
   18.1081   15.1945    0.0000 C   0  0  0  0  0  0  0  0  0  0  0  0
   17.1080   16.3124    0.0000 C   0  0  0  0  0  0  0  0  0  0  0  0
   16.0389   17.3646    0.0000 C   0  0  0  0  0  0  0  0  0  0  0  0
   14.9053   18.3469    0.0000 C   0  0  0  0  0  0  0  0  0  0  0  0
   13.7117   19.2553    0.0000 C   0  0  0  0  0  0  0  0  0  0  0  0
   12.4628   20.0862    0.0000 C   0  0  0  0  0  0  0  0  0  0  0  0
   11.1638   20.8362    0.0000 C   0  0  0  0  0  0  0  0  0  0  0  0
    9.8198   21.5023    0.0000 C   0  0  0  0  0  0  0  0  0  0  0  0
    8.4362   22.0818    0.0000 C   0  0  0  0  0  0  0  0  0  0  0  0
    7.0187   22.5724    0.0000 C   0  0  0  0  0  0  0  0  0  0  0  0
    5.5730   22.9721    0.0000 C   0  0  0  0  0  0  0  0  0  0  0  0
    4.1048   23.2794    0.0000 C   0  0  0  0  0  0  0  0  0  0  0  0
    2.6200   23.4928    0.0000 C   0  0  0  0  0  0  0  0  0  0  0  0
    1.1248   23.6117    0.0000 C   0  0  0  0  0  0  0  0  0  0  0  0
   -0.3750   23.6355    0.0000 C   0  0  0  0  0  0  0  0  0  0  0  0
   -1.8733   23.5641    0.0000 C   0  0  0  0  0  0  0  0  0  0  0  0
   -3.3641   23.3979    0.0000 C   0  0  0  0  0  0  0  0  0  0  0  0
   -4.8413   23.1374    0.0000 C   0  0  0  0  0  0  0  0  0  0  0  0
   -6.2990   22.7838    0.0000 C   0  0  0  0  0  0  0  0  0  0  0  0
   -7.7314   22.3384    0.0000 C   0  0  0  0  0  0  0  0  0  0  0  0
   -9.1326   21.8031    0.0000 C   0  0  0  0  0  0  0  0  0  0  0  0
  -10.4971   21.1799    0.0000 C   0  0  0  0  0  0  0  0  0  0  0  0
  -11.8192   20.4715    0.0000 C   0  0  0  0  0  0  0  0  0  0  0  0
  -13.0938   19.6807    0.0000 C   0  0  0  0  0  0  0  0  0  0  0  0
  -14.3157   18.8106    0.0000 C   0  0  0  0  0  0  0  0  0  0  0  0
  -15.4799   17.8648    0.0000 C   0  0  0  0  0  0  0  0  0  0  0  0
  -16.5818   16.8470    0.0000 C   0  0  0  0  0  0  0  0  0  0  0  0
  -17.6169   15.7614    0.0000 C   0  0  0  0  0  0  0  0  0  0  0  0
  -18.5811   14.6123    0.0000 C   0  0  0  0  0  0  0  0  0  0  0  0
  -19.4705   13.4044    0.0000 C   0  0  0  0  0  0  0  0  0  0  0  0
  -20.2814   12.1426    0.0000 C   0  0  0  0  0  0  0  0  0  0  0  0
  -21.0107   10.8318    0.0000 C   0  0  0  0  0  0  0  0  0  0  0  0
  -21.6554    9.4774    0.0000 C   0  0  0  0  0  0  0  0  0  0  0  0
  -22.2129    8.0848    0.0000 C   0  0  0  0  0  0  0  0  0  0  0  0
  -22.6810    6.6597    0.0000 C   0  0  0  0  0  0  0  0  0  0  0  0
  -23.0577    5.2078    0.0000 C   0  0  0  0  0  0  0  0  0  0  0  0
  -23.3416    3.7349    0.0000 C   0  0  0  0  0  0  0  0  0  0  0  0
  -23.5314    2.2470    0.0000 C   0  0  0  0  0  0  0  0  0  0  0  0
  -23.6266    0.7500    0.0000 C   0  0  0  0  0  0  0  0  0  0  0  0
  -23.6266   -0.7500    0.0000 C   0  0  0  0  0  0  0  0  0  0  0  0
  -23.5314   -2.2470    0.0000 C   0  0  0  0  0  0  0  0  0  0  0  0
  -23.3416   -3.7349    0.0000 C   0  0  0  0  0  0  0  0  0  0  0  0
  -23.0577   -5.2078    0.0000 C   0  0  0  0  0  0  0  0  0  0  0  0
  -22.6810   -6.6597    0.0000 C   0  0  0  0  0  0  0  0  0  0  0  0
  -22.2129   -8.0848    0.0000 C   0  0  0  0  0  0  0  0  0  0  0  0
  -21.6554   -9.4774    0.0000 C   0  0  0  0  0  0  0  0  0  0  0  0
  -21.0107  -10.8318    0.0000 C   0  0  0  0  0  0  0  0  0  0  0  0
  -20.2814  -12.1426    0.0000 C   0  0  0  0  0  0  0  0  0  0  0  0
  -19.4705  -13.4044    0.0000 C   0  0  0  0  0  0  0  0  0  0  0  0
  -18.5811  -14.6123    0.0000 C   0  0  0  0  0  0  0  0  0  0  0  0
  -17.6169  -15.7614    0.0000 C   0  0  0  0  0  0  0  0  0  0  0  0
  -16.5818  -16.8470    0.0000 C   0  0  0  0  0  0  0  0  0  0  0  0
  -15.4799  -17.8648    0.0000 C   0  0  0  0  0  0  0  0  0  0  0  0
  -14.3157  -18.8106    0.0000 C   0  0  0  0  0  0  0  0  0  0  0  0
  -13.0938  -19.6807    0.0000 C   0  0  0  0  0  0  0  0  0  0  0  0
  -11.8192  -20.4715    0.0000 C   0  0  0  0  0  0  0  0  0  0  0  0
  -10.4971  -21.1799    0.0000 C   0  0  0  0  0  0  0  0  0  0  0  0
   -9.1326  -21.8031    0.0000 C   0  0  0  0  0  0  0  0  0  0  0  0
   -7.7314  -22.3384    0.0000 C   0  0  0  0  0  0  0  0  0  0  0  0
   -6.2990  -22.7838    0.0000 C   0  0  0  0  0  0  0  0  0  0  0  0
   -4.8413  -23.1374    0.0000 C   0  0  0  0  0  0  0  0  0  0  0  0
   -3.3641  -23.3979    0.0000 C   0  0  0  0  0  0  0  0  0  0  0  0
   -1.8733  -23.5641    0.0000 C   0  0  0  0  0  0  0  0  0  0  0  0
   -0.3750  -23.6355    0.0000 C   0  0  0  0  0  0  0  0  0  0  0  0
    1.1248  -23.6117    0.0000 C   0  0  0  0  0  0  0  0  0  0  0  0
    2.6200  -23.4928    0.0000 C   0  0  0  0  0  0  0  0  0  0  0  0
    4.1048  -23.2794    0.0000 C   0  0  0  0  0  0  0  0  0  0  0  0
    5.5730  -22.9721    0.0000 C   0  0  0  0  0  0  0  0  0  0  0  0
    7.0187  -22.5724    0.0000 C   0  0  0  0  0  0  0  0  0  0  0  0
    8.4362  -22.0818    0.0000 C   0  0  0  0  0  0  0  0  0  0  0  0
    9.8198  -21.5023    0.0000 C   0  0  0  0  0  0  0  0  0  0  0  0
   11.1638  -20.8362    0.0000 C   0  0  0  0  0  0  0  0  0  0  0  0
   12.4628  -20.0862    0.0000 C   0  0  0  0  0  0  0  0  0  0  0  0
   13.7117  -19.2553    0.0000 C   0  0  0  0  0  0  0  0  0  0  0  0
   14.9053  -18.3469    0.0000 C   0  0  0  0  0  0  0  0  0  0  0  0
   16.0389  -17.3646    0.0000 C   0  0  0  0  0  0  0  0  0  0  0  0
   17.1080  -16.3124    0.0000 C   0  0  0  0  0  0  0  0  0  0  0  0
   18.1081  -15.1945    0.0000 C   0  0  0  0  0  0  0  0  0  0  0  0
   19.0354  -14.0154    0.0000 C   0  0  0  0  0  0  0  0  0  0  0  0
   19.8860  -12.7799    0.0000 C   0  0  0  0  0  0  0  0  0  0  0  0
   20.6565  -11.4929    0.0000 C   0  0  0  0  0  0  0  0  0  0  0  0
   21.3438  -10.1597    0.0000 C   0  0  0  0  0  0  0  0  0  0  0  0
   21.9452   -8.7855    0.0000 C   0  0  0  0  0  0  0  0  0  0  0  0
   22.4582   -7.3760    0.0000 C   0  0  0  0  0  0  0  0  0  0  0  0
   22.8808   -5.9368    0.0000 C   0  0  0  0  0  0  0  0  0  0  0  0
   23.2113   -4.4736    0.0000 C   0  0  0  0  0  0  0  0  0  0  0  0
   23.4483   -2.9925    0.0000 C   0  0  0  0  0  0  0  0  0  0  0  0
   23.5909   -1.4992    0.0000 C   0  0  0  0  0  0  0  0  0  0  0  0
  1  2  1  0
  2  3  1  0
  3  4  2  0
  4  5  1  0
  5  6  1  0
  6  7  1  0
  7  8  1  0
  8  9  1  0
  9 10  1  0
 10 11  1  0
 11 12  1  0
 12 13  1  0
 13 14  1  0
 14 15  1  0
 15 16  1  0
 16 17  1  0
 17 18  1  0
 18 19  1  0
 19 20  1  0
 20 21  1  0
 21 22  1  0
 22 23  1  0
 23 24  1  0
 24 25  1  0
 25 26  1  0
 26 27  1  0
 27 28  1  0
 28 29  1  0
 29 30  1  0
 30 31  1  0
 31 32  1  0
 32 33  1  0
 33 34  1  0
 34 35  1  0
 35 36  1  0
 36 37  1  0
 37 38  1  0
 38 39  1  0
 39 40  1  0
 40 41  1  0
 41 42  1  0
 42 43  1  0
 43 44  1  0
 44 45  1  0
 45 46  1  0
 46 47  1  0
 47 48  1  0
 48 49  1  0
 49 50  1  0
 50 51  1  0
 51 52  1  0
 52 53  1  0
 53 54  1  0
 54 55  1  0
 55 56  1  0
 56 57  1  0
 57 58  1  0
 58 59  1  0
 59 60  1  0
 60 61  1  0
 61 62  1  0
 62 63  1  0
 63 64  1  0
 64 65  1  0
 65 66  1  0
 66 67  1  0
 67 68  1  0
 68 69  1  0
 69 70  1  0
 70 71  1  0
 71 72  1  0
 72 73  1  0
 73 74  1  0
 74 75  1  0
 75 76  1  0
 76 77  1  0
 77 78  1  0
 78 79  1  0
 79 80  1  0
 80 81  1  0
 81 82  1  0
 82 83  1  0
 83 84  1  0
 84 85  1  0
 85 86  1  0
 86 87  1  0
 87 88  1  0
 88 89  1  0
 89 90  1  0
 90 91  1  0
 91 92  1  0
 92 93  1  0
 93 94  1  0
 94 95  1  0
 95 96  1  0
 96 97  1  0
 97 98  1  0
 98 99  1  0
 99100  1  0
100  2  1  0
M  END
>  <Title>  (711) 
idAAZKgen9

$$$$

     RDKit          2D

 10 10  0  0  0  0  0  0  0  0999 V2000
    5.7760    0.0000    0.0000 O   0  0  0  0  0  0  0  0  0  0  0  0
    5.0260   -1.2990    0.0000 C   0  0  0  0  0  0  0  0  0  0  0  0
    5.7760   -2.5981    0.0000 O   0  0  0  0  0  0  0  0  0  0  0  0
    3.5260   -1.2990    0.0000 O   0  0  0  0  0  0  0  0  0  0  0  0
    2.7760    0.0000    0.0000 C   0  0  0  0  0  0  0  0  0  0  0  0
    1.2760    0.0000    0.0000 C   0  0  0  0  0  0  0  0  0  0  0  0
    0.3943    1.2135    0.0000 C   0  0  0  0  0  0  0  0  0  0  0  0
   -1.0323    0.7500    0.0000 C   0  0  0  0  0  0  0  0  0  0  0  0
   -1.0323   -0.7500    0.0000 C   0  0  0  0  0  0  0  0  0  0  0  0
    0.3943   -1.2135    0.0000 C   0  0  0  0  0  0  0  0  0  0  0  0
  1  2  2  0
  2  3  1  0
  2  4  1  0
  4  5  1  0
  5  6  1  0
  6  7  2  0
  7  8  1  0
  8  9  1  0
  9 10  2  0
 10  6  1  0
M  END
>  <Title>  (712) 
idAAZLgen9

$$$$

     RDKit          2D

 32 35  0  0  0  0  0  0  0  0999 V2000
   -0.0718  -10.0721    0.0000 C   0  0  0  0  0  0  0  0  0  0  0  0
   -0.9849   -8.8820    0.0000 C   0  0  0  0  0  0  0  0  0  0  0  0
   -2.4721   -9.0778    0.0000 O   0  0  0  0  0  0  0  0  0  0  0  0
   -0.4109   -7.4962    0.0000 C   0  0  0  0  0  0  0  0  0  0  0  0
    1.0763   -7.3004    0.0000 O   0  0  0  0  0  0  0  0  0  0  0  0
   -1.3240   -6.3062    0.0000 C   0  0  0  0  0  0  0  0  0  0  0  0
   -2.8112   -6.5020    0.0000 O   0  0  0  0  0  0  0  0  0  0  0  0
   -0.7500   -4.9204    0.0000 C   0  0  0  0  0  0  0  0  0  0  0  0
    0.7500   -4.9204    0.0000 C   0  0  0  0  0  0  0  0  0  0  0  0
    1.8107   -3.8597    0.0000 C   0  0  0  0  0  0  0  0  0  0  0  0
    1.8107   -2.3597    0.0000 C   0  0  0  0  0  0  0  0  0  0  0  0
    3.1965   -1.7857    0.0000 C   0  0  0  0  0  0  0  0  0  0  0  0
    3.3923   -0.2985    0.0000 O   0  0  0  0  0  0  0  0  0  0  0  0
    4.3865   -2.6988    0.0000 N   0  0  0  0  0  0  0  0  0  0  0  0
    5.7723   -2.1248    0.0000 C   0  0  0  0  0  0  0  0  0  0  0  0
    6.9624   -3.0379    0.0000 N   0  0  0  0  0  0  0  0  0  0  0  0
    8.3482   -2.4639    0.0000 N   0  0  0  0  0  0  0  0  0  0  0  0
    8.5440   -0.9767    0.0000 N   0  0  0  0  0  0  0  0  0  0  0  0
    7.3539   -0.0636    0.0000 N   0  0  0  0  0  0  0  0  0  0  0  0
    5.9681   -0.6376    0.0000 N   0  0  0  0  0  0  0  0  0  0  0  0
    0.7500   -1.2990    0.0000 C   0  0  0  0  0  0  0  0  0  0  0  0
    1.5000    0.0000    0.0000 C   0  0  0  0  0  0  0  0  0  0  0  0
    0.7500    1.2990    0.0000 C   0  0  0  0  0  0  0  0  0  0  0  0
   -0.7500    1.2990    0.0000 C   0  0  0  0  0  0  0  0  0  0  0  0
   -1.5000    0.0000    0.0000 C   0  0  0  0  0  0  0  0  0  0  0  0
   -0.7500   -1.2990    0.0000 C   0  0  0  0  0  0  0  0  0  0  0  0
   -1.8107   -2.3597    0.0000 C   0  0  0  0  0  0  0  0  0  0  0  0
   -3.1097   -1.6097    0.0000 C   0  0  0  0  0  0  0  0  0  0  0  0
   -4.4087   -2.3597    0.0000 C   0  0  0  0  0  0  0  0  0  0  0  0
   -4.4087   -3.8597    0.0000 C   0  0  0  0  0  0  0  0  0  0  0  0
   -3.1097   -4.6097    0.0000 C   0  0  0  0  0  0  0  0  0  0  0  0
   -1.8107   -3.8597    0.0000 C   0  0  0  0  0  0  0  0  0  0  0  0
  1  2  1  0
  2  3  2  0
  2  4  1  0
  4  5  2  0
  4  6  1  0
  6  7  2  0
  6  8  1  0
  8  9  1  0
  9 10  1  0
 10 11  1  0
 11 12  1  0
 12 13  2  0
 12 14  1  0
 14 15  1  0
 15 16  2  0
 16 17  1  0
 17 18  2  0
 18 19  1  0
 19 20  2  0
 11 21  1  0
 21 22  2  0
 22 23  1  0
 23 24  2  0
 24 25  1  0
 25 26  2  0
 26 27  1  0
 27 28  2  0
 28 29  1  0
 29 30  2  0
 30 31  1  0
 31 32  2  0
 32  8  1  0
 20 15  1  0
 26 21  1  0
 32 27  1  0
M  END
>  <Title>  (713) 
idAAZMgen9

$$$$

     RDKit          2D

  7  7  0  0  0  0  0  0  0  0999 V2000
    2.2814   -3.7077    0.0000 C   0  0  0  0  0  0  0  0  0  0  0  0
    1.3172   -2.5586    0.0000 C   0  0  0  0  0  0  0  0  0  0  0  0
    1.8302   -1.1491    0.0000 C   0  0  0  0  0  0  0  0  0  0  0  0
    0.8660    0.0000    0.0000 C   0  0  0  0  0  0  0  0  0  0  0  0
    1.8302    1.1491    0.0000 C   0  0  0  0  0  0  0  0  0  0  0  0
   -0.4330    0.7500    0.0000 C   0  0  0  0  0  0  0  0  0  0  0  0
   -0.4330   -0.7500    0.0000 C   0  0  0  0  0  0  0  0  0  0  0  0
  1  2  1  0
  2  3  1  0
  3  4  1  0
  4  5  1  0
  4  6  1  0
  6  7  2  0
  7  4  1  0
M  END
>  <Title>  (714) 
idAAZNgen9

$$$$

     RDKit          2D

 19 19  0  0  0  0  0  0  0  0999 V2000
   19.0607    0.0000    0.0000 C   0  0  0  0  0  0  0  0  0  0  0  0
   17.5607    0.0000    0.0000 C   0  0  0  0  0  0  0  0  0  0  0  0
   16.0607    0.0000    0.0000 C   0  0  0  0  0  0  0  0  0  0  0  0
   14.5607    0.0000    0.0000 C   0  0  0  0  0  0  0  0  0  0  0  0
   13.0607    0.0000    0.0000 C   0  0  0  0  0  0  0  0  0  0  0  0
   11.5607    0.0000    0.0000 C   0  0  0  0  0  0  0  0  0  0  0  0
   10.0607    0.0000    0.0000 C   0  0  0  0  0  0  0  0  0  0  0  0
    8.5607    0.0000    0.0000 C   0  0  0  0  0  0  0  0  0  0  0  0
    7.0607    0.0000    0.0000 C   0  0  0  0  0  0  0  0  0  0  0  0
    5.5607    0.0000    0.0000 C   0  0  0  0  0  0  0  0  0  0  0  0
    4.0607    0.0000    0.0000 C   0  0  0  0  0  0  0  0  0  0  0  0
    2.5607    0.0000    0.0000 C   0  0  0  0  0  0  0  0  0  0  0  0
    1.0607    0.0000    0.0000 C   0  0  0  0  0  0  0  0  0  0  0  0
   -0.0000   -1.0607    0.0000 C   0  0  0  0  0  0  0  0  0  0  0  0
   -0.0000   -2.5607    0.0000 C   0  0  0  0  0  0  0  0  0  0  0  0
   -0.0000   -4.0607    0.0000 N   0  0  0  0  0  0  0  0  0  0  0  0
   -1.0607    0.0000    0.0000 C   0  0  0  0  0  0  0  0  0  0  0  0
    0.0000    1.0607    0.0000 C   0  0  0  0  0  0  0  0  0  0  0  0
    0.0000    2.5607    0.0000 O   0  0  0  0  0  0  0  0  0  0  0  0
  1  2  3  0
  2  3  1  0
  3  4  3  0
  4  5  1  0
  5  6  3  0
  6  7  1  0
  7  8  3  0
  8  9  1  0
  9 10  3  0
 10 11  1  0
 11 12  3  0
 12 13  1  0
 13 14  2  0
 14 15  1  0
 15 16  3  0
 14 17  1  0
 17 18  2  0
 18 19  1  0
 18 13  1  0
M  END
>  <Title>  (715) 
idAAZOgen9

$$$$

     RDKit          2D

105108  0  0  0  0  0  0  0  0999 V2000
   -8.6092   -1.4224    0.0000 C   0  0  0  0  0  0  0  0  0  0  0  0
   -8.0589   -2.8179    0.0000 C   0  0  0  0  0  0  0  0  0  0  0  0
   -9.4347   -3.4155    0.0000 C   0  0  0  0  0  0  0  0  0  0  0  0
  -10.7666   -4.1055    0.0000 C   0  0  0  0  0  0  0  0  0  0  0  0
  -12.0482   -4.8849    0.0000 C   0  0  0  0  0  0  0  0  0  0  0  0
  -13.2737   -5.7499    0.0000 C   0  0  0  0  0  0  0  0  0  0  0  0
  -14.4372   -6.6966    0.0000 C   0  0  0  0  0  0  0  0  0  0  0  0
  -15.5335   -7.7204    0.0000 C   0  0  0  0  0  0  0  0  0  0  0  0
  -16.5573   -8.8167    0.0000 C   0  0  0  0  0  0  0  0  0  0  0  0
  -17.5039   -9.9802    0.0000 C   0  0  0  0  0  0  0  0  0  0  0  0
  -18.3690  -11.2057    0.0000 C   0  0  0  0  0  0  0  0  0  0  0  0
  -19.1483  -12.4873    0.0000 C   0  0  0  0  0  0  0  0  0  0  0  0
  -19.8384  -13.8191    0.0000 C   0  0  0  0  0  0  0  0  0  0  0  0
  -20.4360  -15.1950    0.0000 C   0  0  0  0  0  0  0  0  0  0  0  0
  -20.9384  -16.6083    0.0000 C   0  0  0  0  0  0  0  0  0  0  0  0
  -21.3430  -18.0527    0.0000 C   0  0  0  0  0  0  0  0  0  0  0  0
  -21.6482  -19.5214    0.0000 C   0  0  0  0  0  0  0  0  0  0  0  0
  -21.8525  -21.0074    0.0000 C   0  0  0  0  0  0  0  0  0  0  0  0
  -21.9548  -22.5039    0.0000 C   0  0  0  0  0  0  0  0  0  0  0  0
  -21.9548  -24.0039    0.0000 C   0  0  0  0  0  0  0  0  0  0  0  0
  -21.8525  -25.5004    0.0000 C   0  0  0  0  0  0  0  0  0  0  0  0
  -21.6482  -26.9864    0.0000 C   0  0  0  0  0  0  0  0  0  0  0  0
  -21.3430  -28.4550    0.0000 C   0  0  0  0  0  0  0  0  0  0  0  0
  -20.9384  -29.8994    0.0000 C   0  0  0  0  0  0  0  0  0  0  0  0
  -20.4360  -31.3128    0.0000 C   0  0  0  0  0  0  0  0  0  0  0  0
  -19.8384  -32.6886    0.0000 C   0  0  0  0  0  0  0  0  0  0  0  0
  -19.1483  -34.0205    0.0000 C   0  0  0  0  0  0  0  0  0  0  0  0
  -18.3690  -35.3021    0.0000 C   0  0  0  0  0  0  0  0  0  0  0  0
  -17.5039  -36.5275    0.0000 C   0  0  0  0  0  0  0  0  0  0  0  0
  -16.5573  -37.6911    0.0000 C   0  0  0  0  0  0  0  0  0  0  0  0
  -15.5335  -38.7874    0.0000 C   0  0  0  0  0  0  0  0  0  0  0  0
  -14.4372  -39.8112    0.0000 C   0  0  0  0  0  0  0  0  0  0  0  0
  -13.2737  -40.7578    0.0000 C   0  0  0  0  0  0  0  0  0  0  0  0
  -12.0482  -41.6228    0.0000 C   0  0  0  0  0  0  0  0  0  0  0  0
  -10.7666  -42.4022    0.0000 C   0  0  0  0  0  0  0  0  0  0  0  0
   -9.4347  -43.0923    0.0000 C   0  0  0  0  0  0  0  0  0  0  0  0
   -8.0589  -43.6899    0.0000 C   0  0  0  0  0  0  0  0  0  0  0  0
   -6.6455  -44.1922    0.0000 C   0  0  0  0  0  0  0  0  0  0  0  0
   -5.2012  -44.5969    0.0000 C   0  0  0  0  0  0  0  0  0  0  0  0
   -3.7325  -44.9021    0.0000 C   0  0  0  0  0  0  0  0  0  0  0  0
   -2.2465  -45.1064    0.0000 C   0  0  0  0  0  0  0  0  0  0  0  0
   -0.7500  -45.2087    0.0000 C   0  0  0  0  0  0  0  0  0  0  0  0
    0.7500  -45.2087    0.0000 C   0  0  0  0  0  0  0  0  0  0  0  0
    2.2465  -45.1064    0.0000 C   0  0  0  0  0  0  0  0  0  0  0  0
    3.7325  -44.9021    0.0000 C   0  0  0  0  0  0  0  0  0  0  0  0
    5.2012  -44.5969    0.0000 C   0  0  0  0  0  0  0  0  0  0  0  0
    6.6455  -44.1922    0.0000 C   0  0  0  0  0  0  0  0  0  0  0  0
    8.0589  -43.6899    0.0000 C   0  0  0  0  0  0  0  0  0  0  0  0
    9.4347  -43.0923    0.0000 C   0  0  0  0  0  0  0  0  0  0  0  0
   10.7666  -42.4022    0.0000 C   0  0  0  0  0  0  0  0  0  0  0  0
   12.0482  -41.6228    0.0000 C   0  0  0  0  0  0  0  0  0  0  0  0
   13.2737  -40.7578    0.0000 C   0  0  0  0  0  0  0  0  0  0  0  0
   14.4372  -39.8112    0.0000 C   0  0  0  0  0  0  0  0  0  0  0  0
   15.5335  -38.7874    0.0000 C   0  0  0  0  0  0  0  0  0  0  0  0
   16.5573  -37.6911    0.0000 C   0  0  0  0  0  0  0  0  0  0  0  0
   17.5039  -36.5275    0.0000 C   0  0  0  0  0  0  0  0  0  0  0  0
   18.3690  -35.3021    0.0000 C   0  0  0  0  0  0  0  0  0  0  0  0
   19.1483  -34.0205    0.0000 C   0  0  0  0  0  0  0  0  0  0  0  0
   19.8384  -32.6886    0.0000 C   0  0  0  0  0  0  0  0  0  0  0  0
   20.4360  -31.3128    0.0000 C   0  0  0  0  0  0  0  0  0  0  0  0
   20.9384  -29.8994    0.0000 C   0  0  0  0  0  0  0  0  0  0  0  0
   21.3430  -28.4550    0.0000 C   0  0  0  0  0  0  0  0  0  0  0  0
   21.6482  -26.9864    0.0000 C   0  0  0  0  0  0  0  0  0  0  0  0
   21.8525  -25.5004    0.0000 C   0  0  0  0  0  0  0  0  0  0  0  0
   21.9548  -24.0039    0.0000 C   0  0  0  0  0  0  0  0  0  0  0  0
   21.9548  -22.5039    0.0000 C   0  0  0  0  0  0  0  0  0  0  0  0
   21.8525  -21.0074    0.0000 C   0  0  0  0  0  0  0  0  0  0  0  0
   21.6482  -19.5214    0.0000 C   0  0  0  0  0  0  0  0  0  0  0  0
   21.3430  -18.0527    0.0000 C   0  0  0  0  0  0  0  0  0  0  0  0
   20.9384  -16.6083    0.0000 C   0  0  0  0  0  0  0  0  0  0  0  0
   20.4360  -15.1950    0.0000 C   0  0  0  0  0  0  0  0  0  0  0  0
   19.8384  -13.8191    0.0000 C   0  0  0  0  0  0  0  0  0  0  0  0
   19.1483  -12.4873    0.0000 C   0  0  0  0  0  0  0  0  0  0  0  0
   18.3690  -11.2057    0.0000 C   0  0  0  0  0  0  0  0  0  0  0  0
   17.5039   -9.9802    0.0000 C   0  0  0  0  0  0  0  0  0  0  0  0
   16.5573   -8.8167    0.0000 C   0  0  0  0  0  0  0  0  0  0  0  0
   15.5335   -7.7204    0.0000 C   0  0  0  0  0  0  0  0  0  0  0  0
   14.4372   -6.6966    0.0000 C   0  0  0  0  0  0  0  0  0  0  0  0
   13.2737   -5.7499    0.0000 C   0  0  0  0  0  0  0  0  0  0  0  0
   12.0482   -4.8849    0.0000 C   0  0  0  0  0  0  0  0  0  0  0  0
   10.7666   -4.1055    0.0000 C   0  0  0  0  0  0  0  0  0  0  0  0
    9.4347   -3.4155    0.0000 C   0  0  0  0  0  0  0  0  0  0  0  0
    8.0589   -2.8179    0.0000 C   0  0  0  0  0  0  0  0  0  0  0  0
    6.6455   -2.3155    0.0000 C   0  0  0  0  0  0  0  0  0  0  0  0
    5.2012   -1.9108    0.0000 C   0  0  0  0  0  0  0  0  0  0  0  0
    3.7325   -1.6057    0.0000 C   0  0  0  0  0  0  0  0  0  0  0  0
    2.2465   -1.4014    0.0000 C   0  0  0  0  0  0  0  0  0  0  0  0
    0.7500   -1.2990    0.0000 C   0  0  0  0  0  0  0  0  0  0  0  0
    1.5000    0.0000    0.0000 C   0  0  0  0  0  0  0  0  0  0  0  0
    0.7500    1.2990    0.0000 C   0  0  0  0  0  0  0  0  0  0  0  0
   -0.7500    1.2990    0.0000 C   0  0  0  0  0  0  0  0  0  0  0  0
   -1.5000    0.0000    0.0000 C   0  0  0  0  0  0  0  0  0  0  0  0
   -0.7500   -1.2990    0.0000 C   0  0  0  0  0  0  0  0  0  0  0  0
   -2.2465   -1.4014    0.0000 C   0  0  0  0  0  0  0  0  0  0  0  0
   -1.3266   -2.5862    0.0000 C   0  0  0  0  0  0  0  0  0  0  0  0
   -1.8927   -3.9753    0.0000 C   0  0  0  0  0  0  0  0  0  0  0  0
   -3.3788   -4.1795    0.0000 C   0  0  0  0  0  0  0  0  0  0  0  0
   -4.2987   -2.9947    0.0000 C   0  0  0  0  0  0  0  0  0  0  0  0
   -3.7325   -1.6057    0.0000 C   0  0  0  0  0  0  0  0  0  0  0  0
   -5.2012   -1.9108    0.0000 C   0  0  0  0  0  0  0  0  0  0  0  0
   -4.8294   -0.4576    0.0000 C   0  0  0  0  0  0  0  0  0  0  0  0
   -5.9021    0.5909    0.0000 C   0  0  0  0  0  0  0  0  0  0  0  0
   -7.3465    0.1862    0.0000 C   0  0  0  0  0  0  0  0  0  0  0  0
   -7.7182   -1.2670    0.0000 C   0  0  0  0  0  0  0  0  0  0  0  0
   -6.6455   -2.3155    0.0000 C   0  0  0  0  0  0  0  0  0  0  0  0
  1  2  1  0
  2  3  2  0
  3  4  1  0
  4  5  1  0
  5  6  1  0
  6  7  1  0
  7  8  1  0
  8  9  1  0
  9 10  1  0
 10 11  1  0
 11 12  1  0
 12 13  1  0
 13 14  1  0
 14 15  1  0
 15 16  1  0
 16 17  1  0
 17 18  1  0
 18 19  1  0
 19 20  1  0
 20 21  1  0
 21 22  1  0
 22 23  1  0
 23 24  1  0
 24 25  1  0
 25 26  1  0
 26 27  1  0
 27 28  1  0
 28 29  1  0
 29 30  1  0
 30 31  1  0
 31 32  1  0
 32 33  1  0
 33 34  1  0
 34 35  1  0
 35 36  1  0
 36 37  1  0
 37 38  1  0
 38 39  1  0
 39 40  1  0
 40 41  1  0
 41 42  1  0
 42 43  1  0
 43 44  1  0
 44 45  1  0
 45 46  1  0
 46 47  1  0
 47 48  1  0
 48 49  1  0
 49 50  1  0
 50 51  1  0
 51 52  1  0
 52 53  1  0
 53 54  1  0
 54 55  1  0
 55 56  1  0
 56 57  1  0
 57 58  1  0
 58 59  1  0
 59 60  1  0
 60 61  1  0
 61 62  1  0
 62 63  1  0
 63 64  1  0
 64 65  1  0
 65 66  1  0
 66 67  1  0
 67 68  1  0
 68 69  1  0
 69 70  1  0
 70 71  1  0
 71 72  1  0
 72 73  1  0
 73 74  1  0
 74 75  1  0
 75 76  1  0
 76 77  1  0
 77 78  1  0
 78 79  1  0
 79 80  1  0
 80 81  1  0
 81 82  1  0
 82 83  1  0
 83 84  1  0
 84 85  1  0
 85 86  1  0
 86 87  1  0
 87 88  1  0
 88 89  2  0
 89 90  1  0
 90 91  2  0
 91 92  1  0
 92 93  2  0
 93 94  1  0
 94 95  2  0
 95 96  1  0
 96 97  2  0
 97 98  1  0
 98 99  2  0
 99100  1  0
100101  2  0
101102  1  0
102103  2  0
103104  1  0
104105  2  0
105  2  1  0
 93 88  1  0
 99 94  1  0
105100  1  0
M  END
>  <Title>  (716) 
idAAZPgen9

$$$$

     RDKit          2D

 25 27  0  0  0  0  0  0  0  0999 V2000
    5.2500   -1.2990    0.0000 C   0  0  0  0  0  0  0  0  0  0  0  0
    3.7500   -1.2990    0.0000 C   0  0  0  0  0  0  0  0  0  0  0  0
    3.0000   -2.5981    0.0000 O   0  0  0  0  0  0  0  0  0  0  0  0
    3.0000    0.0000    0.0000 N   0  0  0  0  0  0  0  0  0  0  0  0
    1.5000    0.0000    0.0000 C   0  0  0  0  0  0  0  0  0  0  0  0
    0.7500   -1.2990    0.0000 C   0  0  0  0  0  0  0  0  0  0  0  0
   -0.7500   -1.2990    0.0000 C   0  0  0  0  0  0  0  0  0  0  0  0
   -1.5000    0.0000    0.0000 C   0  0  0  0  0  0  0  0  0  0  0  0
   -0.7500    1.2990    0.0000 C   0  0  0  0  0  0  0  0  0  0  0  0
    0.7500    1.2990    0.0000 C   0  0  0  0  0  0  0  0  0  0  0  0
    1.5000    2.5981    0.0000 C   0  0  0  0  0  0  0  0  0  0  0  0
    3.0000    2.5981    0.0000 C   0  0  0  0  0  0  0  0  0  0  0  0
    3.7500    3.8971    0.0000 C   0  0  0  0  0  0  0  0  0  0  0  0
    3.0000    5.1962    0.0000 C   0  0  0  0  0  0  0  0  0  0  0  0
    1.5000    5.1962    0.0000 C   0  0  0  0  0  0  0  0  0  0  0  0
    0.7500    6.4952    0.0000 C   0  0  0  0  0  0  0  0  0  0  0  0
   -0.7500    6.4952    0.0000 O   0  0  0  0  0  0  0  0  0  0  0  0
    1.5000    7.7942    0.0000 N   0  0  0  0  0  0  0  0  0  0  0  0
    0.7500    9.0933    0.0000 C   0  0  0  0  0  0  0  0  0  0  0  0
    1.5000   10.3923    0.0000 N   0  0  0  0  0  0  0  0  0  0  0  0
    0.7500   11.6913    0.0000 N   0  0  0  0  0  0  0  0  0  0  0  0
   -0.7500   11.6913    0.0000 N   0  0  0  0  0  0  0  0  0  0  0  0
   -1.5000   10.3923    0.0000 N   0  0  0  0  0  0  0  0  0  0  0  0
   -0.7500    9.0933    0.0000 N   0  0  0  0  0  0  0  0  0  0  0  0
    0.7500    3.8971    0.0000 C   0  0  0  0  0  0  0  0  0  0  0  0
  1  2  1  0
  2  3  2  0
  2  4  1  0
  4  5  1  0
  5  6  2  0
  6  7  1  0
  7  8  2  0
  8  9  1  0
  9 10  2  0
 10 11  1  0
 11 12  2  0
 12 13  1  0
 13 14  1  0
 14 15  1  0
 15 16  1  0
 16 17  2  0
 16 18  1  0
 18 19  1  0
 19 20  2  0
 20 21  1  0
 21 22  2  0
 22 23  1  0
 23 24  2  0
 15 25  1  0
 10  5  1  0
 25 11  1  0
 24 19  1  0
M  END
>  <Title>  (717) 
idAAZQgen9

$$$$

     RDKit          2D

 50 56  0  0  0  0  0  0  0  0999 V2000
    9.3691  -13.2634    0.0000 C   0  0  0  0  0  0  0  0  0  0  0  0
    8.2543  -12.2597    0.0000 C   0  0  0  0  0  0  0  0  0  0  0  0
    7.1396  -11.2560    0.0000 C   0  0  0  0  0  0  0  0  0  0  0  0
    6.0249  -10.2524    0.0000 C   0  0  0  0  0  0  0  0  0  0  0  0
    4.9102   -9.2487    0.0000 C   0  0  0  0  0  0  0  0  0  0  0  0
    3.7955   -8.2450    0.0000 C   0  0  0  0  0  0  0  0  0  0  0  0
    2.6807   -7.2413    0.0000 C   0  0  0  0  0  0  0  0  0  0  0  0
    3.4307   -5.9422    0.0000 C   0  0  0  0  0  0  0  0  0  0  0  0
    3.5875   -4.4504    0.0000 C   0  0  0  0  0  0  0  0  0  0  0  0
    3.1240   -3.0239    0.0000 C   0  0  0  0  0  0  0  0  0  0  0  0
    2.1203   -1.9091    0.0000 C   0  0  0  0  0  0  0  0  0  0  0  0
    3.0020   -0.6956    0.0000 C   0  0  0  0  0  0  0  0  0  0  0  0
    2.3919    0.6747    0.0000 O   0  0  0  0  0  0  0  0  0  0  0  0
    4.4938   -0.8524    0.0000 N   0  0  0  0  0  0  0  0  0  0  0  0
    5.3755    0.3611    0.0000 C   0  0  0  0  0  0  0  0  0  0  0  0
    6.8672    0.2043    0.0000 N   0  0  0  0  0  0  0  0  0  0  0  0
    7.7489    1.4178    0.0000 N   0  0  0  0  0  0  0  0  0  0  0  0
    7.1388    2.7882    0.0000 N   0  0  0  0  0  0  0  0  0  0  0  0
    5.6470    2.9450    0.0000 N   0  0  0  0  0  0  0  0  0  0  0  0
    4.7654    1.7314    0.0000 N   0  0  0  0  0  0  0  0  0  0  0  0
    0.7500   -1.2990    0.0000 C   0  0  0  0  0  0  0  0  0  0  0  0
    1.5000    0.0000    0.0000 C   0  0  0  0  0  0  0  0  0  0  0  0
    0.7500    1.2990    0.0000 C   0  0  0  0  0  0  0  0  0  0  0  0
   -0.7500    1.2990    0.0000 C   0  0  0  0  0  0  0  0  0  0  0  0
   -1.5000    0.0000    0.0000 C   0  0  0  0  0  0  0  0  0  0  0  0
   -0.7500   -1.2990    0.0000 C   0  0  0  0  0  0  0  0  0  0  0  0
   -2.1203   -1.9091    0.0000 C   0  0  0  0  0  0  0  0  0  0  0  0
   -2.5838   -0.4826    0.0000 C   0  0  0  0  0  0  0  0  0  0  0  0
   -4.0511   -0.1707    0.0000 C   0  0  0  0  0  0  0  0  0  0  0  0
   -5.0548   -1.2854    0.0000 C   0  0  0  0  0  0  0  0  0  0  0  0
   -4.5912   -2.7120    0.0000 C   0  0  0  0  0  0  0  0  0  0  0  0
   -3.1240   -3.0239    0.0000 C   0  0  0  0  0  0  0  0  0  0  0  0
   -3.5875   -4.4504    0.0000 C   0  0  0  0  0  0  0  0  0  0  0  0
   -4.9579   -3.8403    0.0000 C   0  0  0  0  0  0  0  0  0  0  0  0
   -6.1714   -4.7220    0.0000 C   0  0  0  0  0  0  0  0  0  0  0  0
   -6.0146   -6.2138    0.0000 C   0  0  0  0  0  0  0  0  0  0  0  0
   -4.6443   -6.8239    0.0000 C   0  0  0  0  0  0  0  0  0  0  0  0
   -3.4307   -5.9422    0.0000 C   0  0  0  0  0  0  0  0  0  0  0  0
   -2.6807   -7.2413    0.0000 C   0  0  0  0  0  0  0  0  0  0  0  0
   -4.0511   -7.8514    0.0000 C   0  0  0  0  0  0  0  0  0  0  0  0
   -4.2079   -9.3432    0.0000 C   0  0  0  0  0  0  0  0  0  0  0  0
   -2.9943  -10.2248    0.0000 C   0  0  0  0  0  0  0  0  0  0  0  0
   -1.6240   -9.6147    0.0000 C   0  0  0  0  0  0  0  0  0  0  0  0
   -1.4672   -8.1229    0.0000 C   0  0  0  0  0  0  0  0  0  0  0  0
   -0.0000   -8.4348    0.0000 C   0  0  0  0  0  0  0  0  0  0  0  0
   -0.4635   -9.8614    0.0000 C   0  0  0  0  0  0  0  0  0  0  0  0
    0.5402  -10.9761    0.0000 C   0  0  0  0  0  0  0  0  0  0  0  0
    2.0074  -10.6642    0.0000 C   0  0  0  0  0  0  0  0  0  0  0  0
    2.4709   -9.2377    0.0000 C   0  0  0  0  0  0  0  0  0  0  0  0
    1.4672   -8.1229    0.0000 C   0  0  0  0  0  0  0  0  0  0  0  0
  1  2  3  0
  2  3  1  0
  3  4  3  0
  4  5  1  0
  5  6  3  0
  6  7  1  0
  7  8  2  0
  8  9  1  0
  9 10  2  0
 10 11  1  0
 11 12  1  0
 12 13  2  0
 12 14  1  0
 14 15  1  0
 15 16  2  0
 16 17  1  0
 17 18  2  0
 18 19  1  0
 19 20  2  0
 11 21  1  0
 21 22  2  0
 22 23  1  0
 23 24  2  0
 24 25  1  0
 25 26  2  0
 26 27  1  0
 27 28  2  0
 28 29  1  0
 29 30  2  0
 30 31  1  0
 31 32  2  0
 32 33  1  0
 33 34  2  0
 34 35  1  0
 35 36  2  0
 36 37  1  0
 37 38  2  0
 38 39  1  0
 39 40  2  0
 40 41  1  0
 41 42  2  0
 42 43  1  0
 43 44  2  0
 44 45  1  0
 45 46  2  0
 46 47  1  0
 47 48  2  0
 48 49  1  0
 49 50  2  0
 50  7  1  0
 20 15  1  0
 26 21  1  0
 32 27  1  0
 38 33  1  0
 44 39  1  0
 50 45  1  0
M  END
>  <Title>  (718) 
idAAZRgen9

$$$$

     RDKit          2D

 23 24  0  0  0  0  0  0  0  0999 V2000
    3.7500    1.2990    0.0000 O   0  0  0  0  0  0  0  0  0  0  0  0
    3.0000    0.0000    0.0000 C   0  0  0  0  0  0  0  0  0  0  0  0
    3.7500   -1.2990    0.0000 O   0  0  0  0  0  0  0  0  0  0  0  0
    1.5000    0.0000    0.0000 C   0  0  0  0  0  0  0  0  0  0  0  0
    0.7500   -1.2990    0.0000 C   0  0  0  0  0  0  0  0  0  0  0  0
   -0.7500   -1.2990    0.0000 C   0  0  0  0  0  0  0  0  0  0  0  0
   -1.5000    0.0000    0.0000 C   0  0  0  0  0  0  0  0  0  0  0  0
   -0.7500    1.2990    0.0000 N   0  0  0  0  0  0  0  0  0  0  0  0
   -1.5000    2.5981    0.0000 C   0  0  0  0  0  0  0  0  0  0  0  0
   -0.7500    3.8971    0.0000 O   0  0  0  0  0  0  0  0  0  0  0  0
   -3.0000    2.5981    0.0000 C   0  0  0  0  0  0  0  0  0  0  0  0
   -3.7500    1.2990    0.0000 O   0  0  0  0  0  0  0  0  0  0  0  0
   -3.7500    3.8971    0.0000 N   0  0  0  0  0  0  0  0  0  0  0  0
   -5.2418    4.0539    0.0000 C   0  0  0  0  0  0  0  0  0  0  0  0
   -5.5537    5.5211    0.0000 C   0  0  0  0  0  0  0  0  0  0  0  0
   -4.2546    6.2711    0.0000 C   0  0  0  0  0  0  0  0  0  0  0  0
   -4.0978    7.7629    0.0000 C   0  0  0  0  0  0  0  0  0  0  0  0
   -5.3113    8.6446    0.0000 O   0  0  0  0  0  0  0  0  0  0  0  0
   -2.7275    8.3730    0.0000 O   0  0  0  0  0  0  0  0  0  0  0  0
   -3.1399    5.2674    0.0000 C   0  0  0  0  0  0  0  0  0  0  0  0
   -1.6727    5.5793    0.0000 O   0  0  0  0  0  0  0  0  0  0  0  0
    0.7500    1.2990    0.0000 C   0  0  0  0  0  0  0  0  0  0  0  0
    1.5000    2.5981    0.0000 O   0  0  0  0  0  0  0  0  0  0  0  0
  1  2  2  0
  2  3  1  0
  2  4  1  0
  4  5  1  0
  5  6  1  0
  6  7  1  0
  7  8  1  0
  8  9  1  0
  9 10  2  0
  9 11  1  0
 11 12  2  0
 11 13  1  0
 13 14  1  0
 14 15  1  0
 15 16  1  0
 16 17  1  0
 17 18  2  0
 17 19  1  0
 16 20  1  0
 20 21  2  0
  8 22  1  0
 22 23  2  0
 22  4  1  0
 20 13  1  0
M  END
>  <Title>  (719) 
idAAZSgen9

$$$$

     RDKit          2D

 67 67  0  0  0  0  0  0  0  0999 V2000
   16.5464   -2.5981    0.0000 O   0  0  0  0  0  0  0  0  0  0  0  0
   17.2964   -1.2990    0.0000 C   0  0  0  0  0  0  0  0  0  0  0  0
   18.7964   -1.2990    0.0000 O   0  0  0  0  0  0  0  0  0  0  0  0
   16.5464    0.0000    0.0000 O   0  0  0  0  0  0  0  0  0  0  0  0
   15.0464    0.0000    0.0000 C   0  0  0  0  0  0  0  0  0  0  0  0
   14.9716    1.4981    0.0000 C   0  0  0  0  0  0  0  0  0  0  0  0
   14.7480    2.9814    0.0000 C   0  0  0  0  0  0  0  0  0  0  0  0
   14.3779    4.4350    0.0000 C   0  0  0  0  0  0  0  0  0  0  0  0
   13.8649    5.8445    0.0000 C   0  0  0  0  0  0  0  0  0  0  0  0
   13.2141    7.1960    0.0000 C   0  0  0  0  0  0  0  0  0  0  0  0
   12.4319    8.4759    0.0000 C   0  0  0  0  0  0  0  0  0  0  0  0
   11.5262    9.6716    0.0000 C   0  0  0  0  0  0  0  0  0  0  0  0
   10.5059   10.7712    0.0000 C   0  0  0  0  0  0  0  0  0  0  0  0
    9.3813   11.7637    0.0000 C   0  0  0  0  0  0  0  0  0  0  0  0
    8.1634   12.6393    0.0000 C   0  0  0  0  0  0  0  0  0  0  0  0
    6.8643   13.3893    0.0000 C   0  0  0  0  0  0  0  0  0  0  0  0
    5.4971   14.0063    0.0000 C   0  0  0  0  0  0  0  0  0  0  0  0
    4.0752   14.4840    0.0000 C   0  0  0  0  0  0  0  0  0  0  0  0
    2.6128   14.8178    0.0000 C   0  0  0  0  0  0  0  0  0  0  0  0
    1.1244   15.0043    0.0000 C   0  0  0  0  0  0  0  0  0  0  0  0
   -0.3751   15.0417    0.0000 C   0  0  0  0  0  0  0  0  0  0  0  0
   -1.8709   14.9296    0.0000 C   0  0  0  0  0  0  0  0  0  0  0  0
   -3.3481   14.6691    0.0000 C   0  0  0  0  0  0  0  0  0  0  0  0
   -4.7921   14.2629    0.0000 C   0  0  0  0  0  0  0  0  0  0  0  0
   -6.1884   13.7149    0.0000 C   0  0  0  0  0  0  0  0  0  0  0  0
   -7.5232   13.0305    0.0000 C   0  0  0  0  0  0  0  0  0  0  0  0
   -8.7832   12.2167    0.0000 C   0  0  0  0  0  0  0  0  0  0  0  0
   -9.9560   11.2815    0.0000 C   0  0  0  0  0  0  0  0  0  0  0  0
  -11.0298   10.2341    0.0000 C   0  0  0  0  0  0  0  0  0  0  0  0
  -11.9940    9.0851    0.0000 C   0  0  0  0  0  0  0  0  0  0  0  0
  -12.8389    7.8457    0.0000 C   0  0  0  0  0  0  0  0  0  0  0  0
  -13.5563    6.5284    0.0000 C   0  0  0  0  0  0  0  0  0  0  0  0
  -14.1390    5.1462    0.0000 C   0  0  0  0  0  0  0  0  0  0  0  0
  -14.5811    3.7128    0.0000 C   0  0  0  0  0  0  0  0  0  0  0  0
  -14.8783    2.2425    0.0000 C   0  0  0  0  0  0  0  0  0  0  0  0
  -15.0277    0.7500    0.0000 C   0  0  0  0  0  0  0  0  0  0  0  0
  -15.0277   -0.7500    0.0000 C   0  0  0  0  0  0  0  0  0  0  0  0
  -14.8783   -2.2425    0.0000 C   0  0  0  0  0  0  0  0  0  0  0  0
  -14.5811   -3.7128    0.0000 C   0  0  0  0  0  0  0  0  0  0  0  0
  -14.1390   -5.1462    0.0000 C   0  0  0  0  0  0  0  0  0  0  0  0
  -13.5563   -6.5284    0.0000 C   0  0  0  0  0  0  0  0  0  0  0  0
  -12.8389   -7.8457    0.0000 C   0  0  0  0  0  0  0  0  0  0  0  0
  -11.9940   -9.0851    0.0000 C   0  0  0  0  0  0  0  0  0  0  0  0
  -11.0298  -10.2341    0.0000 C   0  0  0  0  0  0  0  0  0  0  0  0
   -9.9560  -11.2815    0.0000 C   0  0  0  0  0  0  0  0  0  0  0  0
   -8.7832  -12.2167    0.0000 C   0  0  0  0  0  0  0  0  0  0  0  0
   -7.5232  -13.0305    0.0000 C   0  0  0  0  0  0  0  0  0  0  0  0
   -6.1884  -13.7149    0.0000 C   0  0  0  0  0  0  0  0  0  0  0  0
   -4.7921  -14.2629    0.0000 C   0  0  0  0  0  0  0  0  0  0  0  0
   -3.3481  -14.6691    0.0000 C   0  0  0  0  0  0  0  0  0  0  0  0
   -1.8709  -14.9296    0.0000 C   0  0  0  0  0  0  0  0  0  0  0  0
   -0.3751  -15.0417    0.0000 C   0  0  0  0  0  0  0  0  0  0  0  0
    1.1244  -15.0043    0.0000 C   0  0  0  0  0  0  0  0  0  0  0  0
    2.6128  -14.8178    0.0000 C   0  0  0  0  0  0  0  0  0  0  0  0
    4.0752  -14.4840    0.0000 C   0  0  0  0  0  0  0  0  0  0  0  0
    5.4971  -14.0063    0.0000 C   0  0  0  0  0  0  0  0  0  0  0  0
    6.8643  -13.3893    0.0000 C   0  0  0  0  0  0  0  0  0  0  0  0
    8.1634  -12.6393    0.0000 C   0  0  0  0  0  0  0  0  0  0  0  0
    9.3813  -11.7637    0.0000 C   0  0  0  0  0  0  0  0  0  0  0  0
   10.5059  -10.7712    0.0000 C   0  0  0  0  0  0  0  0  0  0  0  0
   11.5262   -9.6716    0.0000 C   0  0  0  0  0  0  0  0  0  0  0  0
   12.4319   -8.4759    0.0000 C   0  0  0  0  0  0  0  0  0  0  0  0
   13.2141   -7.1960    0.0000 C   0  0  0  0  0  0  0  0  0  0  0  0
   13.8649   -5.8445    0.0000 C   0  0  0  0  0  0  0  0  0  0  0  0
   14.3779   -4.4350    0.0000 C   0  0  0  0  0  0  0  0  0  0  0  0
   14.7480   -2.9814    0.0000 C   0  0  0  0  0  0  0  0  0  0  0  0
   14.9716   -1.4981    0.0000 C   0  0  0  0  0  0  0  0  0  0  0  0
  1  2  2  0
  2  3  1  0
  2  4  1  0
  4  5  1  0
  5  6  1  0
  6  7  1  0
  7  8  1  0
  8  9  1  0
  9 10  1  0
 10 11  1  0
 11 12  1  0
 12 13  1  0
 13 14  1  0
 14 15  1  0
 15 16  1  0
 16 17  1  0
 17 18  1  0
 18 19  1  0
 19 20  1  0
 20 21  1  0
 21 22  1  0
 22 23  1  0
 23 24  1  0
 24 25  1  0
 25 26  1  0
 26 27  1  0
 27 28  1  0
 28 29  1  0
 29 30  1  0
 30 31  1  0
 31 32  1  0
 32 33  1  0
 33 34  1  0
 34 35  1  0
 35 36  1  0
 36 37  1  0
 37 38  1  0
 38 39  1  0
 39 40  1  0
 40 41  1  0
 41 42  1  0
 42 43  1  0
 43 44  1  0
 44 45  1  0
 45 46  1  0
 46 47  1  0
 47 48  1  0
 48 49  1  0
 49 50  1  0
 50 51  1  0
 51 52  1  0
 52 53  1  0
 53 54  1  0
 54 55  1  0
 55 56  1  0
 56 57  1  0
 57 58  1  0
 58 59  1  0
 59 60  1  0
 60 61  1  0
 61 62  1  0
 62 63  1  0
 63 64  1  0
 64 65  1  0
 65 66  1  0
 66 67  1  0
 67  5  1  0
M  END
>  <Title>  (720) 
idAAZTgen9

$$$$

     RDKit          2D

120120  0  0  0  0  0  0  0  0999 V2000
   29.9125    0.0000    0.0000 C   0  0  0  0  0  0  0  0  0  0  0  0
   28.4125    0.0000    0.0000 C   0  0  0  0  0  0  0  0  0  0  0  0
   28.3729    1.4995    0.0000 C   0  0  0  0  0  0  0  0  0  0  0  0
   28.2542    2.9948    0.0000 C   0  0  0  0  0  0  0  0  0  0  0  0
   28.0568    4.4817    0.0000 C   0  0  0  0  0  0  0  0  0  0  0  0
   27.7811    5.9562    0.0000 C   0  0  0  0  0  0  0  0  0  0  0  0
   27.4281    7.4140    0.0000 C   0  0  0  0  0  0  0  0  0  0  0  0
   26.9986    8.8512    0.0000 C   0  0  0  0  0  0  0  0  0  0  0  0
   26.4938   10.2638    0.0000 C   0  0  0  0  0  0  0  0  0  0  0  0
   25.9152   11.6477    0.0000 C   0  0  0  0  0  0  0  0  0  0  0  0
   25.2644   12.9991    0.0000 C   0  0  0  0  0  0  0  0  0  0  0  0
   24.5432   14.3144    0.0000 C   0  0  0  0  0  0  0  0  0  0  0  0
   23.7535   15.5897    0.0000 C   0  0  0  0  0  0  0  0  0  0  0  0
   22.8977   16.8216    0.0000 C   0  0  0  0  0  0  0  0  0  0  0  0
   21.9780   18.0065    0.0000 C   0  0  0  0  0  0  0  0  0  0  0  0
   20.9971   19.1413    0.0000 C   0  0  0  0  0  0  0  0  0  0  0  0
   19.9576   20.2228    0.0000 C   0  0  0  0  0  0  0  0  0  0  0  0
   18.8625   21.2479    0.0000 C   0  0  0  0  0  0  0  0  0  0  0  0
   17.7149   22.2138    0.0000 C   0  0  0  0  0  0  0  0  0  0  0  0
   16.5179   23.1177    0.0000 C   0  0  0  0  0  0  0  0  0  0  0  0
   15.2748   23.9572    0.0000 C   0  0  0  0  0  0  0  0  0  0  0  0
   13.9892   24.7300    0.0000 C   0  0  0  0  0  0  0  0  0  0  0  0
   12.6645   25.4338    0.0000 C   0  0  0  0  0  0  0  0  0  0  0  0
   11.3046   26.0667    0.0000 C   0  0  0  0  0  0  0  0  0  0  0  0
    9.9132   26.6270    0.0000 C   0  0  0  0  0  0  0  0  0  0  0  0
    8.4941   27.1131    0.0000 C   0  0  0  0  0  0  0  0  0  0  0  0
    7.0514   27.5236    0.0000 C   0  0  0  0  0  0  0  0  0  0  0  0
    5.5890   27.8573    0.0000 C   0  0  0  0  0  0  0  0  0  0  0  0
    4.1110   28.1135    0.0000 C   0  0  0  0  0  0  0  0  0  0  0  0
    2.6216   28.2913    0.0000 C   0  0  0  0  0  0  0  0  0  0  0  0
    1.1248   28.3902    0.0000 C   0  0  0  0  0  0  0  0  0  0  0  0
   -0.3750   28.4100    0.0000 C   0  0  0  0  0  0  0  0  0  0  0  0
   -1.8739   28.3506    0.0000 C   0  0  0  0  0  0  0  0  0  0  0  0
   -3.3675   28.2122    0.0000 C   0  0  0  0  0  0  0  0  0  0  0  0
   -4.8517   27.9952    0.0000 C   0  0  0  0  0  0  0  0  0  0  0  0
   -6.3224   27.7001    0.0000 C   0  0  0  0  0  0  0  0  0  0  0  0
   -7.7754   27.3278    0.0000 C   0  0  0  0  0  0  0  0  0  0  0  0
   -9.2068   26.8794    0.0000 C   0  0  0  0  0  0  0  0  0  0  0  0
  -10.6126   26.3560    0.0000 C   0  0  0  0  0  0  0  0  0  0  0  0
  -11.9887   25.7592    0.0000 C   0  0  0  0  0  0  0  0  0  0  0  0
  -13.3315   25.0906    0.0000 C   0  0  0  0  0  0  0  0  0  0  0  0
  -14.6371   24.3521    0.0000 C   0  0  0  0  0  0  0  0  0  0  0  0
  -15.9019   23.5457    0.0000 C   0  0  0  0  0  0  0  0  0  0  0  0
  -17.1223   22.6736    0.0000 C   0  0  0  0  0  0  0  0  0  0  0  0
  -18.2951   21.7384    0.0000 C   0  0  0  0  0  0  0  0  0  0  0  0
  -19.4168   20.7426    0.0000 C   0  0  0  0  0  0  0  0  0  0  0  0
  -20.4845   19.6889    0.0000 C   0  0  0  0  0  0  0  0  0  0  0  0
  -21.4950   18.5804    0.0000 C   0  0  0  0  0  0  0  0  0  0  0  0
  -22.4456   17.4201    0.0000 C   0  0  0  0  0  0  0  0  0  0  0  0
  -23.3337   16.2113    0.0000 C   0  0  0  0  0  0  0  0  0  0  0  0
  -24.1568   14.9572    0.0000 C   0  0  0  0  0  0  0  0  0  0  0  0
  -24.9125   13.6615    0.0000 C   0  0  0  0  0  0  0  0  0  0  0  0
  -25.5987   12.3277    0.0000 C   0  0  0  0  0  0  0  0  0  0  0  0
  -26.2137   10.9595    0.0000 C   0  0  0  0  0  0  0  0  0  0  0  0
  -26.7555    9.5608    0.0000 C   0  0  0  0  0  0  0  0  0  0  0  0
  -27.2228    8.1355    0.0000 C   0  0  0  0  0  0  0  0  0  0  0  0
  -27.6142    6.6874    0.0000 C   0  0  0  0  0  0  0  0  0  0  0  0
  -27.9287    5.2208    0.0000 C   0  0  0  0  0  0  0  0  0  0  0  0
  -28.1653    3.7396    0.0000 C   0  0  0  0  0  0  0  0  0  0  0  0
  -28.3234    2.2479    0.0000 C   0  0  0  0  0  0  0  0  0  0  0  0
  -28.4026    0.7500    0.0000 C   0  0  0  0  0  0  0  0  0  0  0  0
  -28.4026   -0.7500    0.0000 C   0  0  0  0  0  0  0  0  0  0  0  0
  -28.3234   -2.2479    0.0000 C   0  0  0  0  0  0  0  0  0  0  0  0
  -28.1653   -3.7396    0.0000 C   0  0  0  0  0  0  0  0  0  0  0  0
  -27.9287   -5.2208    0.0000 C   0  0  0  0  0  0  0  0  0  0  0  0
  -27.6142   -6.6874    0.0000 C   0  0  0  0  0  0  0  0  0  0  0  0
  -27.2228   -8.1355    0.0000 C   0  0  0  0  0  0  0  0  0  0  0  0
  -26.7555   -9.5608    0.0000 C   0  0  0  0  0  0  0  0  0  0  0  0
  -26.2137  -10.9595    0.0000 C   0  0  0  0  0  0  0  0  0  0  0  0
  -25.5987  -12.3277    0.0000 C   0  0  0  0  0  0  0  0  0  0  0  0
  -24.9125  -13.6615    0.0000 C   0  0  0  0  0  0  0  0  0  0  0  0
  -24.1568  -14.9572    0.0000 C   0  0  0  0  0  0  0  0  0  0  0  0
  -23.3337  -16.2113    0.0000 C   0  0  0  0  0  0  0  0  0  0  0  0
  -22.4456  -17.4201    0.0000 C   0  0  0  0  0  0  0  0  0  0  0  0
  -21.4950  -18.5804    0.0000 C   0  0  0  0  0  0  0  0  0  0  0  0
  -20.4845  -19.6889    0.0000 C   0  0  0  0  0  0  0  0  0  0  0  0
  -19.4168  -20.7426    0.0000 C   0  0  0  0  0  0  0  0  0  0  0  0
  -18.2951  -21.7384    0.0000 C   0  0  0  0  0  0  0  0  0  0  0  0
  -17.1223  -22.6736    0.0000 C   0  0  0  0  0  0  0  0  0  0  0  0
  -15.9019  -23.5457    0.0000 C   0  0  0  0  0  0  0  0  0  0  0  0
  -14.6371  -24.3521    0.0000 C   0  0  0  0  0  0  0  0  0  0  0  0
  -13.3315  -25.0906    0.0000 C   0  0  0  0  0  0  0  0  0  0  0  0
  -11.9887  -25.7592    0.0000 C   0  0  0  0  0  0  0  0  0  0  0  0
  -10.6126  -26.3560    0.0000 C   0  0  0  0  0  0  0  0  0  0  0  0
   -9.2068  -26.8794    0.0000 C   0  0  0  0  0  0  0  0  0  0  0  0
   -7.7754  -27.3278    0.0000 C   0  0  0  0  0  0  0  0  0  0  0  0
   -6.3224  -27.7001    0.0000 C   0  0  0  0  0  0  0  0  0  0  0  0
   -4.8517  -27.9952    0.0000 C   0  0  0  0  0  0  0  0  0  0  0  0
   -3.3675  -28.2122    0.0000 C   0  0  0  0  0  0  0  0  0  0  0  0
   -1.8739  -28.3506    0.0000 C   0  0  0  0  0  0  0  0  0  0  0  0
   -0.3750  -28.4100    0.0000 C   0  0  0  0  0  0  0  0  0  0  0  0
    1.1248  -28.3902    0.0000 C   0  0  0  0  0  0  0  0  0  0  0  0
    2.6216  -28.2913    0.0000 C   0  0  0  0  0  0  0  0  0  0  0  0
    4.1110  -28.1135    0.0000 C   0  0  0  0  0  0  0  0  0  0  0  0
    5.5890  -27.8573    0.0000 C   0  0  0  0  0  0  0  0  0  0  0  0
    7.0514  -27.5236    0.0000 C   0  0  0  0  0  0  0  0  0  0  0  0
    8.4941  -27.1131    0.0000 C   0  0  0  0  0  0  0  0  0  0  0  0
    9.9132  -26.6270    0.0000 C   0  0  0  0  0  0  0  0  0  0  0  0
   11.3046  -26.0667    0.0000 C   0  0  0  0  0  0  0  0  0  0  0  0
   12.6645  -25.4338    0.0000 C   0  0  0  0  0  0  0  0  0  0  0  0
   13.9892  -24.7300    0.0000 C   0  0  0  0  0  0  0  0  0  0  0  0
   15.2748  -23.9572    0.0000 C   0  0  0  0  0  0  0  0  0  0  0  0
   16.5179  -23.1177    0.0000 C   0  0  0  0  0  0  0  0  0  0  0  0
   17.7149  -22.2138    0.0000 C   0  0  0  0  0  0  0  0  0  0  0  0
   18.8625  -21.2479    0.0000 C   0  0  0  0  0  0  0  0  0  0  0  0
   19.9576  -20.2228    0.0000 C   0  0  0  0  0  0  0  0  0  0  0  0
   20.9971  -19.1413    0.0000 C   0  0  0  0  0  0  0  0  0  0  0  0
   21.9780  -18.0065    0.0000 C   0  0  0  0  0  0  0  0  0  0  0  0
   22.8977  -16.8216    0.0000 C   0  0  0  0  0  0  0  0  0  0  0  0
   23.7535  -15.5897    0.0000 C   0  0  0  0  0  0  0  0  0  0  0  0
   24.5432  -14.3144    0.0000 C   0  0  0  0  0  0  0  0  0  0  0  0
   25.2644  -12.9991    0.0000 C   0  0  0  0  0  0  0  0  0  0  0  0
   25.9152  -11.6477    0.0000 C   0  0  0  0  0  0  0  0  0  0  0  0
   26.4938  -10.2638    0.0000 C   0  0  0  0  0  0  0  0  0  0  0  0
   26.9986   -8.8512    0.0000 C   0  0  0  0  0  0  0  0  0  0  0  0
   27.4281   -7.4140    0.0000 C   0  0  0  0  0  0  0  0  0  0  0  0
   27.7811   -5.9562    0.0000 C   0  0  0  0  0  0  0  0  0  0  0  0
   28.0568   -4.4817    0.0000 C   0  0  0  0  0  0  0  0  0  0  0  0
   28.2542   -2.9948    0.0000 C   0  0  0  0  0  0  0  0  0  0  0  0
   28.3729   -1.4995    0.0000 C   0  0  0  0  0  0  0  0  0  0  0  0
  1  2  1  0
  2  3  1  0
  3  4  2  0
  4  5  1  0
  5  6  1  0
  6  7  1  0
  7  8  1  0
  8  9  1  0
  9 10  1  0
 10 11  1  0
 11 12  1  0
 12 13  1  0
 13 14  1  0
 14 15  1  0
 15 16  1  0
 16 17  1  0
 17 18  1  0
 18 19  1  0
 19 20  1  0
 20 21  1  0
 21 22  1  0
 22 23  1  0
 23 24  1  0
 24 25  1  0
 25 26  1  0
 26 27  1  0
 27 28  1  0
 28 29  1  0
 29 30  1  0
 30 31  1  0
 31 32  1  0
 32 33  1  0
 33 34  1  0
 34 35  1  0
 35 36  1  0
 36 37  1  0
 37 38  1  0
 38 39  1  0
 39 40  1  0
 40 41  1  0
 41 42  1  0
 42 43  1  0
 43 44  1  0
 44 45  1  0
 45 46  1  0
 46 47  1  0
 47 48  1  0
 48 49  1  0
 49 50  1  0
 50 51  1  0
 51 52  1  0
 52 53  1  0
 53 54  1  0
 54 55  1  0
 55 56  1  0
 56 57  1  0
 57 58  1  0
 58 59  1  0
 59 60  1  0
 60 61  1  0
 61 62  1  0
 62 63  1  0
 63 64  1  0
 64 65  1  0
 65 66  1  0
 66 67  1  0
 67 68  1  0
 68 69  1  0
 69 70  1  0
 70 71  1  0
 71 72  1  0
 72 73  1  0
 73 74  1  0
 74 75  1  0
 75 76  1  0
 76 77  1  0
 77 78  1  0
 78 79  1  0
 79 80  1  0
 80 81  1  0
 81 82  1  0
 82 83  1  0
 83 84  1  0
 84 85  1  0
 85 86  1  0
 86 87  1  0
 87 88  1  0
 88 89  1  0
 89 90  1  0
 90 91  1  0
 91 92  1  0
 92 93  1  0
 93 94  1  0
 94 95  1  0
 95 96  1  0
 96 97  1  0
 97 98  1  0
 98 99  1  0
 99100  1  0
100101  1  0
101102  1  0
102103  1  0
103104  1  0
104105  1  0
105106  1  0
106107  1  0
107108  1  0
108109  1  0
109110  1  0
110111  1  0
111112  1  0
112113  1  0
113114  1  0
114115  1  0
115116  1  0
116117  1  0
117118  1  0
118119  1  0
119120  1  0
120  2  1  0
M  END
>  <Title>  (721) 
idAAZUgen9

$$$$

     RDKit          2D

  6  6  0  0  0  0  0  0  0  0999 V2000
    2.7760    0.0000    0.0000 C   0  0  0  0  0  0  0  0  0  0  0  0
    1.2760    0.0000    0.0000 C   0  0  0  0  0  0  0  0  0  0  0  0
    0.3943    1.2135    0.0000 C   0  0  0  0  0  0  0  0  0  0  0  0
   -1.0323    0.7500    0.0000 C   0  0  0  0  0  0  0  0  0  0  0  0
   -1.0323   -0.7500    0.0000 C   0  0  0  0  0  0  0  0  0  0  0  0
    0.3943   -1.2135    0.0000 C   0  0  0  0  0  0  0  0  0  0  0  0
  1  2  1  0
  2  3  1  0
  3  4  2  0
  4  5  1  0
  5  6  2  0
  6  2  1  0
M  END
>  <Title>  (722) 
idAAZVgen9

$$$$

     RDKit          2D

 33 37  0  0  0  0  0  0  0  0999 V2000
   -0.0000   -8.0154    0.0000 C   0  0  0  0  0  0  0  0  0  0  0  0
   -0.0000   -6.5154    0.0000 C   0  0  0  0  0  0  0  0  0  0  0  0
    1.4392   -6.0928    0.0000 C   0  0  0  0  0  0  0  0  0  0  0  0
    2.4215   -4.9592    0.0000 C   0  0  0  0  0  0  0  0  0  0  0  0
    2.6350   -3.4744    0.0000 C   0  0  0  0  0  0  0  0  0  0  0  0
    2.0119   -2.1100    0.0000 C   0  0  0  0  0  0  0  0  0  0  0  0
    3.1455   -1.1277    0.0000 C   0  0  0  0  0  0  0  0  0  0  0  0
    2.8616    0.3452    0.0000 O   0  0  0  0  0  0  0  0  0  0  0  0
    4.5630   -1.6183    0.0000 N   0  0  0  0  0  0  0  0  0  0  0  0
    5.6966   -0.6360    0.0000 C   0  0  0  0  0  0  0  0  0  0  0  0
    7.1141   -1.1266    0.0000 N   0  0  0  0  0  0  0  0  0  0  0  0
    8.2478   -0.1443    0.0000 N   0  0  0  0  0  0  0  0  0  0  0  0
    7.9639    1.3286    0.0000 N   0  0  0  0  0  0  0  0  0  0  0  0
    6.5464    1.8192    0.0000 N   0  0  0  0  0  0  0  0  0  0  0  0
    5.4128    0.8369    0.0000 N   0  0  0  0  0  0  0  0  0  0  0  0
    0.7500   -1.2990    0.0000 C   0  0  0  0  0  0  0  0  0  0  0  0
    1.5000    0.0000    0.0000 C   0  0  0  0  0  0  0  0  0  0  0  0
    0.7500    1.2990    0.0000 C   0  0  0  0  0  0  0  0  0  0  0  0
   -0.7500    1.2990    0.0000 C   0  0  0  0  0  0  0  0  0  0  0  0
   -1.5000    0.0000    0.0000 C   0  0  0  0  0  0  0  0  0  0  0  0
   -0.7500   -1.2990    0.0000 C   0  0  0  0  0  0  0  0  0  0  0  0
   -2.0119   -2.1100    0.0000 C   0  0  0  0  0  0  0  0  0  0  0  0
   -2.8820   -0.8881    0.0000 C   0  0  0  0  0  0  0  0  0  0  0  0
   -4.3752   -1.0307    0.0000 C   0  0  0  0  0  0  0  0  0  0  0  0
   -4.9983   -2.3952    0.0000 C   0  0  0  0  0  0  0  0  0  0  0  0
   -4.1282   -3.6170    0.0000 C   0  0  0  0  0  0  0  0  0  0  0  0
   -2.6350   -3.4744    0.0000 C   0  0  0  0  0  0  0  0  0  0  0  0
   -2.4215   -4.9592    0.0000 C   0  0  0  0  0  0  0  0  0  0  0  0
   -3.8944   -5.2431    0.0000 C   0  0  0  0  0  0  0  0  0  0  0  0
   -4.3850   -6.6606    0.0000 C   0  0  0  0  0  0  0  0  0  0  0  0
   -3.4027   -7.7942    0.0000 C   0  0  0  0  0  0  0  0  0  0  0  0
   -1.9298   -7.5103    0.0000 C   0  0  0  0  0  0  0  0  0  0  0  0
   -1.4392   -6.0928    0.0000 C   0  0  0  0  0  0  0  0  0  0  0  0
  1  2  1  0
  2  3  2  0
  3  4  1  0
  4  5  1  0
  5  6  1  0
  6  7  1  0
  7  8  2  0
  7  9  1  0
  9 10  1  0
 10 11  2  0
 11 12  1  0
 12 13  2  0
 13 14  1  0
 14 15  2  0
  6 16  1  0
 16 17  2  0
 17 18  1  0
 18 19  2  0
 19 20  1  0
 20 21  2  0
 21 22  1  0
 22 23  2  0
 23 24  1  0
 24 25  2  0
 25 26  1  0
 26 27  2  0
 27 28  1  0
 28 29  2  0
 29 30  1  0
 30 31  2  0
 31 32  1  0
 32 33  2  0
 33  2  1  0
 15 10  1  0
 21 16  1  0
 27 22  1  0
 33 28  1  0
M  END
>  <Title>  (723) 
idAAZWgen9

$$$$

     RDKit          2D

 21 21  0  0  0  0  0  0  0  0999 V2000
   25.2760   -0.0000    0.0000 C   0  0  0  0  0  0  0  0  0  0  0  0
   23.7760   -0.0000    0.0000 C   0  0  0  0  0  0  0  0  0  0  0  0
   22.2760   -0.0000    0.0000 C   0  0  0  0  0  0  0  0  0  0  0  0
   20.7760   -0.0000    0.0000 C   0  0  0  0  0  0  0  0  0  0  0  0
   19.2760   -0.0000    0.0000 C   0  0  0  0  0  0  0  0  0  0  0  0
   17.7760   -0.0000    0.0000 C   0  0  0  0  0  0  0  0  0  0  0  0
   16.2760   -0.0000    0.0000 C   0  0  0  0  0  0  0  0  0  0  0  0
   14.7760   -0.0000    0.0000 C   0  0  0  0  0  0  0  0  0  0  0  0
   13.2760   -0.0000    0.0000 C   0  0  0  0  0  0  0  0  0  0  0  0
   11.7760   -0.0000    0.0000 C   0  0  0  0  0  0  0  0  0  0  0  0
   10.2760   -0.0000    0.0000 C   0  0  0  0  0  0  0  0  0  0  0  0
    8.7760   -0.0000    0.0000 C   0  0  0  0  0  0  0  0  0  0  0  0
    7.2760   -0.0000    0.0000 C   0  0  0  0  0  0  0  0  0  0  0  0
    5.7760   -0.0000    0.0000 C   0  0  0  0  0  0  0  0  0  0  0  0
    4.2760   -0.0000    0.0000 C   0  0  0  0  0  0  0  0  0  0  0  0
    2.7760    0.0000    0.0000 C   0  0  0  0  0  0  0  0  0  0  0  0
    1.2760    0.0000    0.0000 C   0  0  0  0  0  0  0  0  0  0  0  0
    0.3943    1.2135    0.0000 C   0  0  0  0  0  0  0  0  0  0  0  0
   -1.0323    0.7500    0.0000 C   0  0  0  0  0  0  0  0  0  0  0  0
   -1.0323   -0.7500    0.0000 C   0  0  0  0  0  0  0  0  0  0  0  0
    0.3943   -1.2135    0.0000 C   0  0  0  0  0  0  0  0  0  0  0  0
  1  2  3  0
  2  3  1  0
  3  4  3  0
  4  5  1  0
  5  6  3  0
  6  7  1  0
  7  8  3  0
  8  9  1  0
  9 10  3  0
 10 11  1  0
 11 12  3  0
 12 13  1  0
 13 14  3  0
 14 15  1  0
 15 16  3  0
 16 17  1  0
 17 18  2  0
 18 19  1  0
 19 20  1  0
 20 21  2  0
 21 17  1  0
M  END
>  <Title>  (724) 
idAAZXgen9

$$$$

     RDKit          2D

 48 48  0  0  0  0  0  0  0  0999 V2000
   12.2517    0.0000    0.0000 C   0  0  0  0  0  0  0  0  0  0  0  0
   10.7517    0.0000    0.0000 C   0  0  0  0  0  0  0  0  0  0  0  0
   10.6471    1.4963    0.0000 C   0  0  0  0  0  0  0  0  0  0  0  0
   10.3352    2.9636    0.0000 C   0  0  0  0  0  0  0  0  0  0  0  0
    9.8222    4.3731    0.0000 C   0  0  0  0  0  0  0  0  0  0  0  0
    9.1180    5.6975    0.0000 C   0  0  0  0  0  0  0  0  0  0  0  0
    8.2363    6.9111    0.0000 C   0  0  0  0  0  0  0  0  0  0  0  0
    7.1943    7.9901    0.0000 C   0  0  0  0  0  0  0  0  0  0  0  0
    6.0123    8.9136    0.0000 C   0  0  0  0  0  0  0  0  0  0  0  0
    4.7132    9.6636    0.0000 C   0  0  0  0  0  0  0  0  0  0  0  0
    3.3225   10.2255    0.0000 C   0  0  0  0  0  0  0  0  0  0  0  0
    1.8670   10.5883    0.0000 C   0  0  0  0  0  0  0  0  0  0  0  0
    0.3752   10.7451    0.0000 C   0  0  0  0  0  0  0  0  0  0  0  0
   -1.1239   10.6928    0.0000 C   0  0  0  0  0  0  0  0  0  0  0  0
   -2.6011   10.4323    0.0000 C   0  0  0  0  0  0  0  0  0  0  0  0
   -4.0277    9.9688    0.0000 C   0  0  0  0  0  0  0  0  0  0  0  0
   -5.3758    9.3112    0.0000 C   0  0  0  0  0  0  0  0  0  0  0  0
   -6.6194    8.4724    0.0000 C   0  0  0  0  0  0  0  0  0  0  0  0
   -7.7341    7.4688    0.0000 C   0  0  0  0  0  0  0  0  0  0  0  0
   -8.6983    6.3197    0.0000 C   0  0  0  0  0  0  0  0  0  0  0  0
   -9.4932    5.0476    0.0000 C   0  0  0  0  0  0  0  0  0  0  0  0
  -10.1033    3.6773    0.0000 C   0  0  0  0  0  0  0  0  0  0  0  0
  -10.5167    2.2354    0.0000 C   0  0  0  0  0  0  0  0  0  0  0  0
  -10.7255    0.7500    0.0000 C   0  0  0  0  0  0  0  0  0  0  0  0
  -10.7255   -0.7500    0.0000 C   0  0  0  0  0  0  0  0  0  0  0  0
  -10.5167   -2.2354    0.0000 C   0  0  0  0  0  0  0  0  0  0  0  0
  -10.1033   -3.6773    0.0000 C   0  0  0  0  0  0  0  0  0  0  0  0
   -9.4932   -5.0476    0.0000 C   0  0  0  0  0  0  0  0  0  0  0  0
   -8.6983   -6.3197    0.0000 C   0  0  0  0  0  0  0  0  0  0  0  0
   -7.7341   -7.4688    0.0000 C   0  0  0  0  0  0  0  0  0  0  0  0
   -6.6194   -8.4724    0.0000 C   0  0  0  0  0  0  0  0  0  0  0  0
   -5.3758   -9.3112    0.0000 C   0  0  0  0  0  0  0  0  0  0  0  0
   -4.0277   -9.9688    0.0000 C   0  0  0  0  0  0  0  0  0  0  0  0
   -2.6011  -10.4323    0.0000 C   0  0  0  0  0  0  0  0  0  0  0  0
   -1.1239  -10.6928    0.0000 C   0  0  0  0  0  0  0  0  0  0  0  0
    0.3752  -10.7451    0.0000 C   0  0  0  0  0  0  0  0  0  0  0  0
    1.8670  -10.5883    0.0000 C   0  0  0  0  0  0  0  0  0  0  0  0
    3.3225  -10.2255    0.0000 C   0  0  0  0  0  0  0  0  0  0  0  0
    4.7132   -9.6636    0.0000 C   0  0  0  0  0  0  0  0  0  0  0  0
    6.0123   -8.9136    0.0000 C   0  0  0  0  0  0  0  0  0  0  0  0
    7.1943   -7.9901    0.0000 C   0  0  0  0  0  0  0  0  0  0  0  0
    8.2363   -6.9111    0.0000 C   0  0  0  0  0  0  0  0  0  0  0  0
    9.1180   -5.6975    0.0000 C   0  0  0  0  0  0  0  0  0  0  0  0
    9.8222   -4.3731    0.0000 C   0  0  0  0  0  0  0  0  0  0  0  0
   10.3352   -2.9636    0.0000 C   0  0  0  0  0  0  0  0  0  0  0  0
   11.7771   -3.3770    0.0000 C   0  0  0  0  0  0  0  0  0  0  0  0
   10.6471   -1.4963    0.0000 C   0  0  0  0  0  0  0  0  0  0  0  0
   12.1325   -1.7051    0.0000 O   0  0  0  0  0  0  0  0  0  0  0  0
  1  2  1  0
  2  3  1  0
  3  4  1  0
  4  5  1  0
  5  6  1  0
  6  7  1  0
  7  8  1  0
  8  9  1  0
  9 10  1  0
 10 11  1  0
 11 12  1  0
 12 13  1  0
 13 14  1  0
 14 15  1  0
 15 16  1  0
 16 17  1  0
 17 18  1  0
 18 19  1  0
 19 20  1  0
 20 21  1  0
 21 22  1  0
 22 23  1  0
 23 24  1  0
 24 25  1  0
 25 26  1  0
 26 27  1  0
 27 28  1  0
 28 29  1  0
 29 30  1  0
 30 31  1  0
 31 32  1  0
 32 33  1  0
 33 34  1  0
 34 35  1  0
 35 36  1  0
 36 37  1  0
 37 38  1  0
 38 39  1  0
 39 40  1  0
 40 41  1  0
 41 42  1  0
 42 43  1  0
 43 44  1  0
 44 45  1  0
 45 46  1  0
 45 47  1  0
 47 48  2  0
 47  2  1  0
M  END
>  <Title>  (725) 
idAAZYgen9

$$$$

     RDKit          2D

 94 94  0  0  0  0  0  0  0  0999 V2000
   23.4677   -0.0000    0.0000 C   0  0  0  0  0  0  0  0  0  0  0  0
   21.9677    0.0000    0.0000 C   0  0  0  0  0  0  0  0  0  0  0  0
   21.9164   -1.4991    0.0000 C   0  0  0  0  0  0  0  0  0  0  0  0
   21.7630   -2.9913    0.0000 C   0  0  0  0  0  0  0  0  0  0  0  0
   21.5082   -4.4695    0.0000 C   0  0  0  0  0  0  0  0  0  0  0  0
   21.1530   -5.9268    0.0000 C   0  0  0  0  0  0  0  0  0  0  0  0
   20.6993   -7.3565    0.0000 C   0  0  0  0  0  0  0  0  0  0  0  0
   20.1490   -8.7519    0.0000 C   0  0  0  0  0  0  0  0  0  0  0  0
   19.5048  -10.1065    0.0000 C   0  0  0  0  0  0  0  0  0  0  0  0
   18.7696  -11.4140    0.0000 C   0  0  0  0  0  0  0  0  0  0  0  0
   17.9469  -12.6683    0.0000 C   0  0  0  0  0  0  0  0  0  0  0  0
   17.0406  -13.8635    0.0000 C   0  0  0  0  0  0  0  0  0  0  0  0
   16.0547  -14.9941    0.0000 C   0  0  0  0  0  0  0  0  0  0  0  0
   14.9941  -16.0547    0.0000 C   0  0  0  0  0  0  0  0  0  0  0  0
   13.8635  -17.0406    0.0000 C   0  0  0  0  0  0  0  0  0  0  0  0
   12.6683  -17.9469    0.0000 C   0  0  0  0  0  0  0  0  0  0  0  0
   11.4140  -18.7696    0.0000 C   0  0  0  0  0  0  0  0  0  0  0  0
   10.1065  -19.5048    0.0000 C   0  0  0  0  0  0  0  0  0  0  0  0
    8.7519  -20.1490    0.0000 C   0  0  0  0  0  0  0  0  0  0  0  0
    7.3565  -20.6993    0.0000 C   0  0  0  0  0  0  0  0  0  0  0  0
    5.9268  -21.1530    0.0000 C   0  0  0  0  0  0  0  0  0  0  0  0
    4.4695  -21.5082    0.0000 C   0  0  0  0  0  0  0  0  0  0  0  0
    2.9913  -21.7630    0.0000 C   0  0  0  0  0  0  0  0  0  0  0  0
    1.4991  -21.9164    0.0000 C   0  0  0  0  0  0  0  0  0  0  0  0
   -0.0000  -21.9677    0.0000 C   0  0  0  0  0  0  0  0  0  0  0  0
   -1.4991  -21.9164    0.0000 C   0  0  0  0  0  0  0  0  0  0  0  0
   -2.9913  -21.7630    0.0000 C   0  0  0  0  0  0  0  0  0  0  0  0
   -4.4695  -21.5082    0.0000 C   0  0  0  0  0  0  0  0  0  0  0  0
   -5.9268  -21.1530    0.0000 C   0  0  0  0  0  0  0  0  0  0  0  0
   -7.3565  -20.6993    0.0000 C   0  0  0  0  0  0  0  0  0  0  0  0
   -8.7519  -20.1490    0.0000 C   0  0  0  0  0  0  0  0  0  0  0  0
  -10.1065  -19.5048    0.0000 C   0  0  0  0  0  0  0  0  0  0  0  0
  -11.4140  -18.7696    0.0000 C   0  0  0  0  0  0  0  0  0  0  0  0
  -12.6683  -17.9469    0.0000 C   0  0  0  0  0  0  0  0  0  0  0  0
  -13.8635  -17.0406    0.0000 C   0  0  0  0  0  0  0  0  0  0  0  0
  -14.9941  -16.0547    0.0000 C   0  0  0  0  0  0  0  0  0  0  0  0
  -16.0547  -14.9941    0.0000 C   0  0  0  0  0  0  0  0  0  0  0  0
  -17.0406  -13.8635    0.0000 C   0  0  0  0  0  0  0  0  0  0  0  0
  -17.9469  -12.6683    0.0000 C   0  0  0  0  0  0  0  0  0  0  0  0
  -18.7696  -11.4140    0.0000 C   0  0  0  0  0  0  0  0  0  0  0  0
  -19.5048  -10.1065    0.0000 C   0  0  0  0  0  0  0  0  0  0  0  0
  -20.1490   -8.7519    0.0000 C   0  0  0  0  0  0  0  0  0  0  0  0
  -20.6993   -7.3565    0.0000 C   0  0  0  0  0  0  0  0  0  0  0  0
  -21.1530   -5.9268    0.0000 C   0  0  0  0  0  0  0  0  0  0  0  0
  -21.5082   -4.4695    0.0000 C   0  0  0  0  0  0  0  0  0  0  0  0
  -21.7630   -2.9913    0.0000 C   0  0  0  0  0  0  0  0  0  0  0  0
  -21.9164   -1.4991    0.0000 C   0  0  0  0  0  0  0  0  0  0  0  0
  -21.9677    0.0000    0.0000 C   0  0  0  0  0  0  0  0  0  0  0  0
  -21.9164    1.4991    0.0000 C   0  0  0  0  0  0  0  0  0  0  0  0
  -21.7630    2.9913    0.0000 C   0  0  0  0  0  0  0  0  0  0  0  0
  -21.5082    4.4695    0.0000 C   0  0  0  0  0  0  0  0  0  0  0  0
  -21.1530    5.9268    0.0000 C   0  0  0  0  0  0  0  0  0  0  0  0
  -20.6993    7.3565    0.0000 C   0  0  0  0  0  0  0  0  0  0  0  0
  -20.1490    8.7519    0.0000 C   0  0  0  0  0  0  0  0  0  0  0  0
  -19.5048   10.1065    0.0000 C   0  0  0  0  0  0  0  0  0  0  0  0
  -18.7696   11.4140    0.0000 C   0  0  0  0  0  0  0  0  0  0  0  0
  -17.9469   12.6683    0.0000 C   0  0  0  0  0  0  0  0  0  0  0  0
  -17.0406   13.8635    0.0000 C   0  0  0  0  0  0  0  0  0  0  0  0
  -16.0547   14.9941    0.0000 C   0  0  0  0  0  0  0  0  0  0  0  0
  -14.9941   16.0547    0.0000 C   0  0  0  0  0  0  0  0  0  0  0  0
  -13.8635   17.0406    0.0000 C   0  0  0  0  0  0  0  0  0  0  0  0
  -12.6683   17.9469    0.0000 C   0  0  0  0  0  0  0  0  0  0  0  0
  -11.4140   18.7696    0.0000 C   0  0  0  0  0  0  0  0  0  0  0  0
  -10.1065   19.5048    0.0000 C   0  0  0  0  0  0  0  0  0  0  0  0
   -8.7519   20.1490    0.0000 C   0  0  0  0  0  0  0  0  0  0  0  0
   -7.3565   20.6993    0.0000 C   0  0  0  0  0  0  0  0  0  0  0  0
   -5.9268   21.1530    0.0000 C   0  0  0  0  0  0  0  0  0  0  0  0
   -4.4695   21.5082    0.0000 C   0  0  0  0  0  0  0  0  0  0  0  0
   -2.9913   21.7630    0.0000 C   0  0  0  0  0  0  0  0  0  0  0  0
   -1.4991   21.9164    0.0000 C   0  0  0  0  0  0  0  0  0  0  0  0
    0.0000   21.9677    0.0000 C   0  0  0  0  0  0  0  0  0  0  0  0
    1.4991   21.9164    0.0000 C   0  0  0  0  0  0  0  0  0  0  0  0
    2.9913   21.7630    0.0000 C   0  0  0  0  0  0  0  0  0  0  0  0
    4.4695   21.5082    0.0000 C   0  0  0  0  0  0  0  0  0  0  0  0
    5.9268   21.1530    0.0000 C   0  0  0  0  0  0  0  0  0  0  0  0
    7.3565   20.6993    0.0000 C   0  0  0  0  0  0  0  0  0  0  0  0
    8.7519   20.1490    0.0000 C   0  0  0  0  0  0  0  0  0  0  0  0
   10.1065   19.5048    0.0000 C   0  0  0  0  0  0  0  0  0  0  0  0
   11.4140   18.7696    0.0000 C   0  0  0  0  0  0  0  0  0  0  0  0
   12.6683   17.9469    0.0000 C   0  0  0  0  0  0  0  0  0  0  0  0
   13.8635   17.0406    0.0000 C   0  0  0  0  0  0  0  0  0  0  0  0
   14.9941   16.0547    0.0000 C   0  0  0  0  0  0  0  0  0  0  0  0
   16.0547   14.9941    0.0000 C   0  0  0  0  0  0  0  0  0  0  0  0
   17.0406   13.8635    0.0000 C   0  0  0  0  0  0  0  0  0  0  0  0
   17.9469   12.6683    0.0000 C   0  0  0  0  0  0  0  0  0  0  0  0
   18.7696   11.4140    0.0000 C   0  0  0  0  0  0  0  0  0  0  0  0
   19.5048   10.1065    0.0000 C   0  0  0  0  0  0  0  0  0  0  0  0
   20.1490    8.7519    0.0000 C   0  0  0  0  0  0  0  0  0  0  0  0
   20.6993    7.3565    0.0000 C   0  0  0  0  0  0  0  0  0  0  0  0
   21.1530    5.9268    0.0000 C   0  0  0  0  0  0  0  0  0  0  0  0
   21.5082    4.4695    0.0000 C   0  0  0  0  0  0  0  0  0  0  0  0
   21.7630    2.9913    0.0000 C   0  0  0  0  0  0  0  0  0  0  0  0
   23.2491    3.1955    0.0000 C   0  0  0  0  0  0  0  0  0  0  0  0
   21.9164    1.4991    0.0000 C   0  0  0  0  0  0  0  0  0  0  0  0
  1  2  1  0
  2  3  1  0
  3  4  1  0
  4  5  1  0
  5  6  1  0
  6  7  1  0
  7  8  1  0
  8  9  1  0
  9 10  1  0
 10 11  1  0
 11 12  1  0
 12 13  1  0
 13 14  1  0
 14 15  1  0
 15 16  1  0
 16 17  1  0
 17 18  1  0
 18 19  1  0
 19 20  1  0
 20 21  1  0
 21 22  1  0
 22 23  1  0
 23 24  1  0
 24 25  1  0
 25 26  1  0
 26 27  1  0
 27 28  1  0
 28 29  1  0
 29 30  1  0
 30 31  1  0
 31 32  1  0
 32 33  1  0
 33 34  1  0
 34 35  1  0
 35 36  1  0
 36 37  1  0
 37 38  1  0
 38 39  1  0
 39 40  1  0
 40 41  1  0
 41 42  1  0
 42 43  1  0
 43 44  1  0
 44 45  1  0
 45 46  1  0
 46 47  1  0
 47 48  1  0
 48 49  1  0
 49 50  1  0
 50 51  1  0
 51 52  1  0
 52 53  1  0
 53 54  1  0
 54 55  1  0
 55 56  1  0
 56 57  1  0
 57 58  1  0
 58 59  1  0
 59 60  1  0
 60 61  1  0
 61 62  1  0
 62 63  1  0
 63 64  1  0
 64 65  1  0
 65 66  1  0
 66 67  1  0
 67 68  1  0
 68 69  1  0
 69 70  1  0
 70 71  1  0
 71 72  1  0
 72 73  1  0
 73 74  1  0
 74 75  1  0
 75 76  1  0
 76 77  1  0
 77 78  1  0
 78 79  1  0
 79 80  1  0
 80 81  1  0
 81 82  1  0
 82 83  1  0
 83 84  1  0
 84 85  1  0
 85 86  1  0
 86 87  1  0
 87 88  1  0
 88 89  1  0
 89 90  1  0
 90 91  1  0
 91 92  1  0
 92 93  1  0
 92 94  1  0
 94  2  1  0
M  END
>  <Title>  (726) 
idAAZZgen9

$$$$

     RDKit          2D

 33 33  0  0  0  0  0  0  0  0999 V2000
    9.1517    0.0000    0.0000 C   0  0  0  0  0  0  0  0  0  0  0  0
    7.6517    0.0000    0.0000 C   0  0  0  0  0  0  0  0  0  0  0  0
    7.5047   -1.4928    0.0000 C   0  0  0  0  0  0  0  0  0  0  0  0
    7.0693   -2.9282    0.0000 C   0  0  0  0  0  0  0  0  0  0  0  0
    6.3622   -4.2511    0.0000 C   0  0  0  0  0  0  0  0  0  0  0  0
    5.4106   -5.4106    0.0000 C   0  0  0  0  0  0  0  0  0  0  0  0
    4.2511   -6.3622    0.0000 C   0  0  0  0  0  0  0  0  0  0  0  0
    2.9282   -7.0693    0.0000 C   0  0  0  0  0  0  0  0  0  0  0  0
    1.4928   -7.5047    0.0000 C   0  0  0  0  0  0  0  0  0  0  0  0
   -0.0000   -7.6517    0.0000 C   0  0  0  0  0  0  0  0  0  0  0  0
   -1.4928   -7.5047    0.0000 C   0  0  0  0  0  0  0  0  0  0  0  0
   -2.9282   -7.0693    0.0000 C   0  0  0  0  0  0  0  0  0  0  0  0
   -4.2511   -6.3622    0.0000 C   0  0  0  0  0  0  0  0  0  0  0  0
   -5.4106   -5.4106    0.0000 C   0  0  0  0  0  0  0  0  0  0  0  0
   -6.3622   -4.2511    0.0000 C   0  0  0  0  0  0  0  0  0  0  0  0
   -7.0693   -2.9282    0.0000 C   0  0  0  0  0  0  0  0  0  0  0  0
   -7.5047   -1.4928    0.0000 C   0  0  0  0  0  0  0  0  0  0  0  0
   -7.6517    0.0000    0.0000 C   0  0  0  0  0  0  0  0  0  0  0  0
   -7.5047    1.4928    0.0000 C   0  0  0  0  0  0  0  0  0  0  0  0
   -7.0693    2.9282    0.0000 C   0  0  0  0  0  0  0  0  0  0  0  0
   -6.3622    4.2511    0.0000 C   0  0  0  0  0  0  0  0  0  0  0  0
   -5.4106    5.4106    0.0000 C   0  0  0  0  0  0  0  0  0  0  0  0
   -4.2511    6.3622    0.0000 C   0  0  0  0  0  0  0  0  0  0  0  0
   -2.9282    7.0693    0.0000 C   0  0  0  0  0  0  0  0  0  0  0  0
   -1.4928    7.5047    0.0000 C   0  0  0  0  0  0  0  0  0  0  0  0
    0.0000    7.6517    0.0000 C   0  0  0  0  0  0  0  0  0  0  0  0
    1.4928    7.5047    0.0000 C   0  0  0  0  0  0  0  0  0  0  0  0
    2.9282    7.0693    0.0000 C   0  0  0  0  0  0  0  0  0  0  0  0
    4.2511    6.3622    0.0000 C   0  0  0  0  0  0  0  0  0  0  0  0
    5.4106    5.4106    0.0000 C   0  0  0  0  0  0  0  0  0  0  0  0
    6.3622    4.2511    0.0000 C   0  0  0  0  0  0  0  0  0  0  0  0
    7.0693    2.9282    0.0000 C   0  0  0  0  0  0  0  0  0  0  0  0
    7.5047    1.4928    0.0000 C   0  0  0  0  0  0  0  0  0  0  0  0
  1  2  1  0
  2  3  1  0
  3  4  1  0
  4  5  1  0
  5  6  1  0
  6  7  1  0
  7  8  1  0
  8  9  1  0
  9 10  1  0
 10 11  1  0
 11 12  1  0
 12 13  1  0
 13 14  1  0
 14 15  1  0
 15 16  1  0
 16 17  1  0
 17 18  1  0
 18 19  1  0
 19 20  1  0
 20 21  1  0
 21 22  1  0
 22 23  1  0
 23 24  1  0
 24 25  1  0
 25 26  1  0
 26 27  1  0
 27 28  1  0
 28 29  1  0
 29 30  1  0
 30 31  1  0
 31 32  1  0
 32 33  1  0
 33  2  1  0
M  END
>  <Title>  (727) 
idABAAgen9

$$$$

     RDKit          2D

  9  9  0  0  0  0  0  0  0  0999 V2000
    5.0260   -1.2990    0.0000 C   0  0  0  0  0  0  0  0  0  0  0  0
    3.5260   -1.2990    0.0000 N   0  0  0  0  0  0  0  0  0  0  0  0
    2.7760    0.0000    0.0000 C   0  0  0  0  0  0  0  0  0  0  0  0
    3.5260    1.2990    0.0000 O   0  0  0  0  0  0  0  0  0  0  0  0
    1.2760    0.0000    0.0000 C   0  0  0  0  0  0  0  0  0  0  0  0
    0.3943    1.2135    0.0000 C   0  0  0  0  0  0  0  0  0  0  0  0
   -1.0323    0.7500    0.0000 C   0  0  0  0  0  0  0  0  0  0  0  0
   -1.0323   -0.7500    0.0000 C   0  0  0  0  0  0  0  0  0  0  0  0
    0.3943   -1.2135    0.0000 C   0  0  0  0  0  0  0  0  0  0  0  0
  1  2  1  0
  2  3  1  0
  3  4  2  0
  3  5  1  0
  5  6  2  0
  6  7  1  0
  7  8  2  0
  8  9  1  0
  9  5  1  0
M  END
>  <Title>  (728) 
idABABgen9

$$$$

     RDKit          2D

 41 45  0  0  0  0  0  0  0  0999 V2000
    1.5000   -7.7942    0.0000 C   0  0  0  0  0  0  0  0  0  0  0  0
    0.7500   -6.4952    0.0000 C   0  0  0  0  0  0  0  0  0  0  0  0
    1.5000   -5.1962    0.0000 C   0  0  0  0  0  0  0  0  0  0  0  0
    0.7500   -3.8971    0.0000 C   0  0  0  0  0  0  0  0  0  0  0  0
   -0.7500   -3.8971    0.0000 O   0  0  0  0  0  0  0  0  0  0  0  0
    1.5000   -2.5981    0.0000 N   0  0  0  0  0  0  0  0  0  0  0  0
    0.7500   -1.2990    0.0000 C   0  0  0  0  0  0  0  0  0  0  0  0
    1.5000    0.0000    0.0000 C   0  0  0  0  0  0  0  0  0  0  0  0
    0.7500    1.2990    0.0000 C   0  0  0  0  0  0  0  0  0  0  0  0
   -0.7500    1.2990    0.0000 C   0  0  0  0  0  0  0  0  0  0  0  0
   -1.5000    2.5981    0.0000 C   0  0  0  0  0  0  0  0  0  0  0  0
   -3.0000    2.5981    0.0000 O   0  0  0  0  0  0  0  0  0  0  0  0
   -0.7500    3.8971    0.0000 N   0  0  0  0  0  0  0  0  0  0  0  0
    0.7500    3.8971    0.0000 C   0  0  0  0  0  0  0  0  0  0  0  0
    1.5000    5.1962    0.0000 C   0  0  0  0  0  0  0  0  0  0  0  0
    0.7500    6.4952    0.0000 C   0  0  0  0  0  0  0  0  0  0  0  0
    1.5000    7.7942    0.0000 C   0  0  0  0  0  0  0  0  0  0  0  0
    3.0000    7.7942    0.0000 C   0  0  0  0  0  0  0  0  0  0  0  0
    3.7500    9.0933    0.0000 C   0  0  0  0  0  0  0  0  0  0  0  0
    3.0000   10.3923    0.0000 C   0  0  0  0  0  0  0  0  0  0  0  0
    1.5000   10.3923    0.0000 C   0  0  0  0  0  0  0  0  0  0  0  0
    0.7500    9.0933    0.0000 C   0  0  0  0  0  0  0  0  0  0  0  0
   -0.7500    6.4952    0.0000 C   0  0  0  0  0  0  0  0  0  0  0  0
   -1.5000    5.1962    0.0000 C   0  0  0  0  0  0  0  0  0  0  0  0
   -1.5000    0.0000    0.0000 C   0  0  0  0  0  0  0  0  0  0  0  0
   -0.7500   -1.2990    0.0000 C   0  0  0  0  0  0  0  0  0  0  0  0
   -0.7500   -6.4952    0.0000 N   0  0  0  0  0  0  0  0  0  0  0  0
   -1.6317   -5.2817    0.0000 C   0  0  0  0  0  0  0  0  0  0  0  0
   -3.0583   -5.7452    0.0000 C   0  0  0  0  0  0  0  0  0  0  0  0
   -3.0583   -7.2452    0.0000 C   0  0  0  0  0  0  0  0  0  0  0  0
   -4.2718   -8.1269    0.0000 C   0  0  0  0  0  0  0  0  0  0  0  0
   -5.6421   -7.5168    0.0000 O   0  0  0  0  0  0  0  0  0  0  0  0
   -4.1150   -9.6187    0.0000 N   0  0  0  0  0  0  0  0  0  0  0  0
   -5.3285  -10.5003    0.0000 C   0  0  0  0  0  0  0  0  0  0  0  0
   -5.1717  -11.9921    0.0000 N   0  0  0  0  0  0  0  0  0  0  0  0
   -6.3853  -12.8738    0.0000 N   0  0  0  0  0  0  0  0  0  0  0  0
   -7.7556  -12.2637    0.0000 N   0  0  0  0  0  0  0  0  0  0  0  0
   -7.9124  -10.7719    0.0000 N   0  0  0  0  0  0  0  0  0  0  0  0
   -6.6988   -9.8902    0.0000 N   0  0  0  0  0  0  0  0  0  0  0  0
   -1.6317   -7.7087    0.0000 C   0  0  0  0  0  0  0  0  0  0  0  0
   -1.1682   -9.1353    0.0000 O   0  0  0  0  0  0  0  0  0  0  0  0
  1  2  1  0
  2  3  1  0
  3  4  1  0
  4  5  2  0
  4  6  1  0
  6  7  1  0
  7  8  2  0
  8  9  1  0
  9 10  2  0
 10 11  1  0
 11 12  2  0
 11 13  1  0
 13 14  1  0
 14 15  2  0
 15 16  1  0
 16 17  1  0
 17 18  2  0
 18 19  1  0
 19 20  2  0
 20 21  1  0
 21 22  2  0
 16 23  1  0
 23 24  1  0
 10 25  1  0
 25 26  1  0
  2 27  1  0
 27 28  1  0
 28 29  1  0
 29 30  1  0
 30 31  1  0
 31 32  2  0
 31 33  1  0
 33 34  1  0
 34 35  2  0
 35 36  1  0
 36 37  2  0
 37 38  1  0
 38 39  2  0
 30 40  1  0
 40 41  2  0
 26  7  1  0
 40 27  1  0
 24 13  1  0
 39 34  1  0
 22 17  1  0
M  END
>  <Title>  (729) 
idABACgen9

$$$$

     RDKit          2D

 99 99  0  0  0  0  0  0  0  0999 V2000
   24.8998    0.0000    0.0000 C   0  0  0  0  0  0  0  0  0  0  0  0
   23.3998    0.0000    0.0000 C   0  0  0  0  0  0  0  0  0  0  0  0
   23.3517   -1.4992    0.0000 C   0  0  0  0  0  0  0  0  0  0  0  0
   23.2077   -2.9923    0.0000 C   0  0  0  0  0  0  0  0  0  0  0  0
   22.9683   -4.4731    0.0000 C   0  0  0  0  0  0  0  0  0  0  0  0
   22.6345   -5.9355    0.0000 C   0  0  0  0  0  0  0  0  0  0  0  0
   22.2077   -7.3735    0.0000 C   0  0  0  0  0  0  0  0  0  0  0  0
   21.6897   -8.7812    0.0000 C   0  0  0  0  0  0  0  0  0  0  0  0
   21.0825  -10.1528    0.0000 C   0  0  0  0  0  0  0  0  0  0  0  0
   20.3887  -11.4827    0.0000 C   0  0  0  0  0  0  0  0  0  0  0  0
   19.6111  -12.7654    0.0000 C   0  0  0  0  0  0  0  0  0  0  0  0
   18.7529  -13.9957    0.0000 C   0  0  0  0  0  0  0  0  0  0  0  0
   17.8177  -15.1684    0.0000 C   0  0  0  0  0  0  0  0  0  0  0  0
   16.8092  -16.2788    0.0000 C   0  0  0  0  0  0  0  0  0  0  0  0
   15.7317  -17.3223    0.0000 C   0  0  0  0  0  0  0  0  0  0  0  0
   14.5895  -18.2947    0.0000 C   0  0  0  0  0  0  0  0  0  0  0  0
   13.3874  -19.1919    0.0000 C   0  0  0  0  0  0  0  0  0  0  0  0
   12.1303  -20.0102    0.0000 C   0  0  0  0  0  0  0  0  0  0  0  0
   10.8233  -20.7462    0.0000 C   0  0  0  0  0  0  0  0  0  0  0  0
    9.4718  -21.3971    0.0000 C   0  0  0  0  0  0  0  0  0  0  0  0
    8.0815  -21.9600    0.0000 C   0  0  0  0  0  0  0  0  0  0  0  0
    6.6579  -22.4326    0.0000 C   0  0  0  0  0  0  0  0  0  0  0  0
    5.2069  -22.8131    0.0000 C   0  0  0  0  0  0  0  0  0  0  0  0
    3.7346  -23.0998    0.0000 C   0  0  0  0  0  0  0  0  0  0  0  0
    2.2469  -23.2917    0.0000 C   0  0  0  0  0  0  0  0  0  0  0  0
    0.7500  -23.3878    0.0000 C   0  0  0  0  0  0  0  0  0  0  0  0
   -0.7500  -23.3878    0.0000 C   0  0  0  0  0  0  0  0  0  0  0  0
   -2.2469  -23.2917    0.0000 C   0  0  0  0  0  0  0  0  0  0  0  0
   -3.7346  -23.0998    0.0000 C   0  0  0  0  0  0  0  0  0  0  0  0
   -5.2069  -22.8131    0.0000 C   0  0  0  0  0  0  0  0  0  0  0  0
   -6.6579  -22.4326    0.0000 C   0  0  0  0  0  0  0  0  0  0  0  0
   -8.0815  -21.9600    0.0000 C   0  0  0  0  0  0  0  0  0  0  0  0
   -9.4718  -21.3971    0.0000 C   0  0  0  0  0  0  0  0  0  0  0  0
  -10.8233  -20.7462    0.0000 C   0  0  0  0  0  0  0  0  0  0  0  0
  -12.1303  -20.0102    0.0000 C   0  0  0  0  0  0  0  0  0  0  0  0
  -13.3874  -19.1919    0.0000 C   0  0  0  0  0  0  0  0  0  0  0  0
  -14.5895  -18.2947    0.0000 C   0  0  0  0  0  0  0  0  0  0  0  0
  -15.7317  -17.3223    0.0000 C   0  0  0  0  0  0  0  0  0  0  0  0
  -16.8092  -16.2788    0.0000 C   0  0  0  0  0  0  0  0  0  0  0  0
  -17.8177  -15.1684    0.0000 C   0  0  0  0  0  0  0  0  0  0  0  0
  -18.7529  -13.9957    0.0000 C   0  0  0  0  0  0  0  0  0  0  0  0
  -19.6111  -12.7654    0.0000 C   0  0  0  0  0  0  0  0  0  0  0  0
  -20.3887  -11.4827    0.0000 C   0  0  0  0  0  0  0  0  0  0  0  0
  -21.0825  -10.1528    0.0000 C   0  0  0  0  0  0  0  0  0  0  0  0
  -21.6897   -8.7812    0.0000 C   0  0  0  0  0  0  0  0  0  0  0  0
  -22.2077   -7.3735    0.0000 C   0  0  0  0  0  0  0  0  0  0  0  0
  -22.6345   -5.9355    0.0000 C   0  0  0  0  0  0  0  0  0  0  0  0
  -22.9683   -4.4731    0.0000 C   0  0  0  0  0  0  0  0  0  0  0  0
  -23.2077   -2.9923    0.0000 C   0  0  0  0  0  0  0  0  0  0  0  0
  -23.3517   -1.4992    0.0000 C   0  0  0  0  0  0  0  0  0  0  0  0
  -23.3998    0.0000    0.0000 C   0  0  0  0  0  0  0  0  0  0  0  0
  -23.3517    1.4992    0.0000 C   0  0  0  0  0  0  0  0  0  0  0  0
  -23.2077    2.9923    0.0000 C   0  0  0  0  0  0  0  0  0  0  0  0
  -22.9683    4.4731    0.0000 C   0  0  0  0  0  0  0  0  0  0  0  0
  -22.6345    5.9355    0.0000 C   0  0  0  0  0  0  0  0  0  0  0  0
  -22.2077    7.3735    0.0000 C   0  0  0  0  0  0  0  0  0  0  0  0
  -21.6897    8.7812    0.0000 C   0  0  0  0  0  0  0  0  0  0  0  0
  -21.0825   10.1528    0.0000 C   0  0  0  0  0  0  0  0  0  0  0  0
  -20.3887   11.4827    0.0000 C   0  0  0  0  0  0  0  0  0  0  0  0
  -19.6111   12.7654    0.0000 C   0  0  0  0  0  0  0  0  0  0  0  0
  -18.7529   13.9957    0.0000 C   0  0  0  0  0  0  0  0  0  0  0  0
  -17.8177   15.1684    0.0000 C   0  0  0  0  0  0  0  0  0  0  0  0
  -16.8092   16.2788    0.0000 C   0  0  0  0  0  0  0  0  0  0  0  0
  -15.7317   17.3223    0.0000 C   0  0  0  0  0  0  0  0  0  0  0  0
  -14.5895   18.2947    0.0000 C   0  0  0  0  0  0  0  0  0  0  0  0
  -13.3874   19.1919    0.0000 C   0  0  0  0  0  0  0  0  0  0  0  0
  -12.1303   20.0102    0.0000 C   0  0  0  0  0  0  0  0  0  0  0  0
  -10.8233   20.7462    0.0000 C   0  0  0  0  0  0  0  0  0  0  0  0
   -9.4718   21.3971    0.0000 C   0  0  0  0  0  0  0  0  0  0  0  0
   -8.0815   21.9600    0.0000 C   0  0  0  0  0  0  0  0  0  0  0  0
   -6.6579   22.4326    0.0000 C   0  0  0  0  0  0  0  0  0  0  0  0
   -5.2069   22.8131    0.0000 C   0  0  0  0  0  0  0  0  0  0  0  0
   -3.7346   23.0998    0.0000 C   0  0  0  0  0  0  0  0  0  0  0  0
   -2.2469   23.2917    0.0000 C   0  0  0  0  0  0  0  0  0  0  0  0
   -0.7500   23.3878    0.0000 C   0  0  0  0  0  0  0  0  0  0  0  0
    0.7500   23.3878    0.0000 C   0  0  0  0  0  0  0  0  0  0  0  0
    2.2469   23.2917    0.0000 C   0  0  0  0  0  0  0  0  0  0  0  0
    3.7346   23.0998    0.0000 C   0  0  0  0  0  0  0  0  0  0  0  0
    5.2069   22.8131    0.0000 C   0  0  0  0  0  0  0  0  0  0  0  0
    6.6579   22.4326    0.0000 C   0  0  0  0  0  0  0  0  0  0  0  0
    8.0815   21.9600    0.0000 C   0  0  0  0  0  0  0  0  0  0  0  0
    9.4718   21.3971    0.0000 C   0  0  0  0  0  0  0  0  0  0  0  0
   10.8233   20.7462    0.0000 C   0  0  0  0  0  0  0  0  0  0  0  0
   12.1303   20.0102    0.0000 C   0  0  0  0  0  0  0  0  0  0  0  0
   13.3874   19.1919    0.0000 C   0  0  0  0  0  0  0  0  0  0  0  0
   14.5895   18.2947    0.0000 C   0  0  0  0  0  0  0  0  0  0  0  0
   15.7317   17.3223    0.0000 C   0  0  0  0  0  0  0  0  0  0  0  0
   16.8092   16.2788    0.0000 C   0  0  0  0  0  0  0  0  0  0  0  0
   17.8177   15.1684    0.0000 C   0  0  0  0  0  0  0  0  0  0  0  0
   18.7529   13.9957    0.0000 C   0  0  0  0  0  0  0  0  0  0  0  0
   19.6111   12.7654    0.0000 C   0  0  0  0  0  0  0  0  0  0  0  0
   20.3887   11.4827    0.0000 C   0  0  0  0  0  0  0  0  0  0  0  0
   21.0825   10.1528    0.0000 C   0  0  0  0  0  0  0  0  0  0  0  0
   21.6897    8.7812    0.0000 C   0  0  0  0  0  0  0  0  0  0  0  0
   22.2077    7.3735    0.0000 C   0  0  0  0  0  0  0  0  0  0  0  0
   22.6345    5.9355    0.0000 C   0  0  0  0  0  0  0  0  0  0  0  0
   22.9683    4.4731    0.0000 C   0  0  0  0  0  0  0  0  0  0  0  0
   23.2077    2.9923    0.0000 C   0  0  0  0  0  0  0  0  0  0  0  0
   23.3517    1.4992    0.0000 C   0  0  0  0  0  0  0  0  0  0  0  0
  1  2  1  0
  2  3  1  0
  3  4  1  0
  4  5  1  0
  5  6  1  0
  6  7  1  0
  7  8  1  0
  8  9  1  0
  9 10  1  0
 10 11  1  0
 11 12  1  0
 12 13  1  0
 13 14  1  0
 14 15  1  0
 15 16  1  0
 16 17  1  0
 17 18  1  0
 18 19  1  0
 19 20  1  0
 20 21  1  0
 21 22  1  0
 22 23  1  0
 23 24  1  0
 24 25  1  0
 25 26  1  0
 26 27  1  0
 27 28  1  0
 28 29  1  0
 29 30  1  0
 30 31  1  0
 31 32  1  0
 32 33  1  0
 33 34  1  0
 34 35  1  0
 35 36  1  0
 36 37  1  0
 37 38  1  0
 38 39  1  0
 39 40  1  0
 40 41  1  0
 41 42  1  0
 42 43  1  0
 43 44  1  0
 44 45  1  0
 45 46  1  0
 46 47  1  0
 47 48  1  0
 48 49  1  0
 49 50  1  0
 50 51  1  0
 51 52  1  0
 52 53  1  0
 53 54  1  0
 54 55  1  0
 55 56  1  0
 56 57  1  0
 57 58  1  0
 58 59  1  0
 59 60  1  0
 60 61  1  0
 61 62  1  0
 62 63  1  0
 63 64  1  0
 64 65  1  0
 65 66  1  0
 66 67  1  0
 67 68  1  0
 68 69  1  0
 69 70  1  0
 70 71  1  0
 71 72  1  0
 72 73  1  0
 73 74  1  0
 74 75  1  0
 75 76  1  0
 76 77  1  0
 77 78  1  0
 78 79  1  0
 79 80  1  0
 80 81  1  0
 81 82  1  0
 82 83  1  0
 83 84  1  0
 84 85  1  0
 85 86  1  0
 86 87  1  0
 87 88  1  0
 88 89  1  0
 89 90  1  0
 90 91  1  0
 91 92  1  0
 92 93  1  0
 93 94  1  0
 94 95  1  0
 95 96  1  0
 96 97  1  0
 97 98  1  0
 98 99  1  0
 99  2  1  0
M  END
>  <Title>  (730) 
idABADgen9

$$$$

     RDKit          2D

 71 72  0  0  0  0  0  0  0  0999 V2000
   13.0682   -5.2497    0.0000 C   0  0  0  0  0  0  0  0  0  0  0  0
   13.9530   -4.4170    0.0000 C   0  0  0  0  0  0  0  0  0  0  0  0
   14.9590   -5.5296    0.0000 C   0  0  0  0  0  0  0  0  0  0  0  0
   16.3481   -6.0956    0.0000 C   0  0  0  0  0  0  0  0  0  0  0  0
   17.8452   -6.0028    0.0000 C   0  0  0  0  0  0  0  0  0  0  0  0
   19.1538   -5.2696    0.0000 C   0  0  0  0  0  0  0  0  0  0  0  0
   20.0147   -4.0413    0.0000 C   0  0  0  0  0  0  0  0  0  0  0  0
   20.2574   -2.5610    0.0000 C   0  0  0  0  0  0  0  0  0  0  0  0
   19.8338   -1.1221    0.0000 C   0  0  0  0  0  0  0  0  0  0  0  0
   18.8278   -0.0094    0.0000 C   0  0  0  0  0  0  0  0  0  0  0  0
   17.4387    0.5565    0.0000 C   0  0  0  0  0  0  0  0  0  0  0  0
   15.9415    0.4637    0.0000 C   0  0  0  0  0  0  0  0  0  0  0  0
   14.6329   -0.2694    0.0000 C   0  0  0  0  0  0  0  0  0  0  0  0
   13.7720   -1.4978    0.0000 C   0  0  0  0  0  0  0  0  0  0  0  0
   13.8533    0.0000    0.0000 C   0  0  0  0  0  0  0  0  0  0  0  0
   13.7720    1.4978    0.0000 C   0  0  0  0  0  0  0  0  0  0  0  0
   13.5294    2.9780    0.0000 C   0  0  0  0  0  0  0  0  0  0  0  0
   13.1281    4.4234    0.0000 C   0  0  0  0  0  0  0  0  0  0  0  0
   12.5729    5.8168    0.0000 C   0  0  0  0  0  0  0  0  0  0  0  0
   11.8703    7.1421    0.0000 C   0  0  0  0  0  0  0  0  0  0  0  0
   11.0285    8.3836    0.0000 C   0  0  0  0  0  0  0  0  0  0  0  0
   10.0574    9.5269    0.0000 C   0  0  0  0  0  0  0  0  0  0  0  0
    8.9684   10.5584    0.0000 C   0  0  0  0  0  0  0  0  0  0  0  0
    7.7743   11.4662    0.0000 C   0  0  0  0  0  0  0  0  0  0  0  0
    6.4890   12.2395    0.0000 C   0  0  0  0  0  0  0  0  0  0  0  0
    5.1276   12.8693    0.0000 C   0  0  0  0  0  0  0  0  0  0  0  0
    3.7061   13.3483    0.0000 C   0  0  0  0  0  0  0  0  0  0  0  0
    2.2412   13.6708    0.0000 C   0  0  0  0  0  0  0  0  0  0  0  0
    0.7500   13.8329    0.0000 C   0  0  0  0  0  0  0  0  0  0  0  0
   -0.7500   13.8329    0.0000 C   0  0  0  0  0  0  0  0  0  0  0  0
   -2.2412   13.6708    0.0000 C   0  0  0  0  0  0  0  0  0  0  0  0
   -3.7061   13.3483    0.0000 C   0  0  0  0  0  0  0  0  0  0  0  0
   -5.1276   12.8693    0.0000 C   0  0  0  0  0  0  0  0  0  0  0  0
   -6.4890   12.2395    0.0000 C   0  0  0  0  0  0  0  0  0  0  0  0
   -7.7743   11.4662    0.0000 C   0  0  0  0  0  0  0  0  0  0  0  0
   -8.9684   10.5584    0.0000 C   0  0  0  0  0  0  0  0  0  0  0  0
  -10.0574    9.5269    0.0000 C   0  0  0  0  0  0  0  0  0  0  0  0
  -11.0285    8.3836    0.0000 C   0  0  0  0  0  0  0  0  0  0  0  0
  -11.8703    7.1421    0.0000 C   0  0  0  0  0  0  0  0  0  0  0  0
  -12.5729    5.8168    0.0000 C   0  0  0  0  0  0  0  0  0  0  0  0
  -13.1281    4.4234    0.0000 C   0  0  0  0  0  0  0  0  0  0  0  0
  -13.5294    2.9780    0.0000 C   0  0  0  0  0  0  0  0  0  0  0  0
  -13.7720    1.4978    0.0000 C   0  0  0  0  0  0  0  0  0  0  0  0
  -13.8533    0.0000    0.0000 C   0  0  0  0  0  0  0  0  0  0  0  0
  -13.7720   -1.4978    0.0000 C   0  0  0  0  0  0  0  0  0  0  0  0
  -13.5294   -2.9780    0.0000 C   0  0  0  0  0  0  0  0  0  0  0  0
  -13.1281   -4.4234    0.0000 C   0  0  0  0  0  0  0  0  0  0  0  0
  -12.5729   -5.8168    0.0000 C   0  0  0  0  0  0  0  0  0  0  0  0
  -11.8703   -7.1421    0.0000 C   0  0  0  0  0  0  0  0  0  0  0  0
  -11.0285   -8.3836    0.0000 C   0  0  0  0  0  0  0  0  0  0  0  0
  -10.0574   -9.5269    0.0000 C   0  0  0  0  0  0  0  0  0  0  0  0
   -8.9684  -10.5584    0.0000 C   0  0  0  0  0  0  0  0  0  0  0  0
   -7.7743  -11.4662    0.0000 C   0  0  0  0  0  0  0  0  0  0  0  0
   -6.4890  -12.2395    0.0000 C   0  0  0  0  0  0  0  0  0  0  0  0
   -5.1276  -12.8693    0.0000 C   0  0  0  0  0  0  0  0  0  0  0  0
   -3.7061  -13.3483    0.0000 C   0  0  0  0  0  0  0  0  0  0  0  0
   -2.2412  -13.6708    0.0000 C   0  0  0  0  0  0  0  0  0  0  0  0
   -0.7500  -13.8329    0.0000 C   0  0  0  0  0  0  0  0  0  0  0  0
    0.7500  -13.8329    0.0000 C   0  0  0  0  0  0  0  0  0  0  0  0
    2.2412  -13.6708    0.0000 C   0  0  0  0  0  0  0  0  0  0  0  0
    3.7061  -13.3483    0.0000 C   0  0  0  0  0  0  0  0  0  0  0  0
    5.1276  -12.8693    0.0000 C   0  0  0  0  0  0  0  0  0  0  0  0
    6.4890  -12.2395    0.0000 C   0  0  0  0  0  0  0  0  0  0  0  0
    7.7743  -11.4662    0.0000 C   0  0  0  0  0  0  0  0  0  0  0  0
    8.9684  -10.5584    0.0000 C   0  0  0  0  0  0  0  0  0  0  0  0
   10.0574   -9.5269    0.0000 C   0  0  0  0  0  0  0  0  0  0  0  0
   11.0285   -8.3836    0.0000 C   0  0  0  0  0  0  0  0  0  0  0  0
   11.8703   -7.1421    0.0000 C   0  0  0  0  0  0  0  0  0  0  0  0
   12.5729   -5.8168    0.0000 C   0  0  0  0  0  0  0  0  0  0  0  0
   13.1281   -4.4234    0.0000 C   0  0  0  0  0  0  0  0  0  0  0  0
   13.5294   -2.9780    0.0000 C   0  0  0  0  0  0  0  0  0  0  0  0
  1  2  1  0
  2  3  1  0
  3  4  1  0
  4  5  1  0
  5  6  1  0
  6  7  1  0
  7  8  1  0
  8  9  1  0
  9 10  1  0
 10 11  1  0
 11 12  1  0
 12 13  1  0
 13 14  1  0
 14 15  1  0
 15 16  1  0
 16 17  1  0
 17 18  1  0
 18 19  1  0
 19 20  1  0
 20 21  1  0
 21 22  1  0
 22 23  1  0
 23 24  1  0
 24 25  1  0
 25 26  1  0
 26 27  1  0
 27 28  1  0
 28 29  1  0
 29 30  1  0
 30 31  1  0
 31 32  1  0
 32 33  1  0
 33 34  1  0
 34 35  1  0
 35 36  1  0
 36 37  1  0
 37 38  1  0
 38 39  1  0
 39 40  1  0
 40 41  1  0
 41 42  1  0
 42 43  1  0
 43 44  1  0
 44 45  1  0
 45 46  1  0
 46 47  1  0
 47 48  1  0
 48 49  1  0
 49 50  1  0
 50 51  2  0
 51 52  1  0
 52 53  2  0
 53 54  1  0
 54 55  2  0
 55 56  1  0
 56 57  2  0
 57 58  1  0
 58 59  2  0
 59 60  1  0
 60 61  2  0
 61 62  1  0
 62 63  2  0
 63 64  1  0
 64 65  2  0
 65 66  1  0
 66 67  2  0
 67 68  1  0
 68 69  2  0
 69 70  1  0
 70 71  2  0
 71  2  1  0
 71 14  1  0
M  END
>  <Title>  (731) 
idABAEgen9

$$$$

     RDKit          2D

 21 23  0  0  0  0  0  0  0  0999 V2000
    6.9240   -6.1312    0.0000 C   0  0  0  0  0  0  0  0  0  0  0  0
    5.5537   -5.5211    0.0000 C   0  0  0  0  0  0  0  0  0  0  0  0
    4.2546   -6.2711    0.0000 C   0  0  0  0  0  0  0  0  0  0  0  0
    3.1399   -5.2674    0.0000 C   0  0  0  0  0  0  0  0  0  0  0  0
    3.7500   -3.8971    0.0000 C   0  0  0  0  0  0  0  0  0  0  0  0
    3.0000   -2.5981    0.0000 C   0  0  0  0  0  0  0  0  0  0  0  0
    3.7500   -1.2990    0.0000 O   0  0  0  0  0  0  0  0  0  0  0  0
    1.5000   -2.5981    0.0000 N   0  0  0  0  0  0  0  0  0  0  0  0
    0.7500   -1.2990    0.0000 C   0  0  0  0  0  0  0  0  0  0  0  0
    1.5000    0.0000    0.0000 C   0  0  0  0  0  0  0  0  0  0  0  0
    0.7500    1.2990    0.0000 N   0  0  0  0  0  0  0  0  0  0  0  0
   -0.7500    1.2990    0.0000 N   0  0  0  0  0  0  0  0  0  0  0  0
   -1.5000    0.0000    0.0000 N   0  0  0  0  0  0  0  0  0  0  0  0
   -0.7500   -1.2990    0.0000 N   0  0  0  0  0  0  0  0  0  0  0  0
   -1.5000   -2.5981    0.0000 C   0  0  0  0  0  0  0  0  0  0  0  0
   -3.0000   -2.5981    0.0000 C   0  0  0  0  0  0  0  0  0  0  0  0
   -3.7500   -3.8971    0.0000 C   0  0  0  0  0  0  0  0  0  0  0  0
   -3.0000   -5.1962    0.0000 C   0  0  0  0  0  0  0  0  0  0  0  0
   -1.5000   -5.1962    0.0000 C   0  0  0  0  0  0  0  0  0  0  0  0
   -0.7500   -3.8971    0.0000 C   0  0  0  0  0  0  0  0  0  0  0  0
    5.2418   -4.0539    0.0000 C   0  0  0  0  0  0  0  0  0  0  0  0
  1  2  1  0
  2  3  2  0
  3  4  1  0
  4  5  1  0
  5  6  1  0
  6  7  2  0
  6  8  1  0
  8  9  1  0
  9 10  1  0
 10 11  1  0
 11 12  1  0
 12 13  2  0
 13 14  1  0
 14 15  1  0
 15 16  2  0
 16 17  1  0
 17 18  2  0
 18 19  1  0
 19 20  2  0
  5 21  2  0
 21  2  1  0
 14  9  1  0
 20 15  1  0
M  END
>  <Title>  (732) 
idABAFgen9

$$$$

     RDKit          2D

 21 23  0  0  0  0  0  0  0  0999 V2000
    3.0000    0.0000    0.0000 C   0  0  0  0  0  0  0  0  0  0  0  0
    1.5000    0.0000    0.0000 C   0  0  0  0  0  0  0  0  0  0  0  0
    0.7500   -1.2990    0.0000 C   0  0  0  0  0  0  0  0  0  0  0  0
   -0.7500   -1.2990    0.0000 C   0  0  0  0  0  0  0  0  0  0  0  0
   -1.5000    0.0000    0.0000 C   0  0  0  0  0  0  0  0  0  0  0  0
   -3.0000    0.0000    0.0000 C   0  0  0  0  0  0  0  0  0  0  0  0
   -3.7500   -1.2990    0.0000 O   0  0  0  0  0  0  0  0  0  0  0  0
   -3.7500    1.2990    0.0000 N   0  0  0  0  0  0  0  0  0  0  0  0
   -5.2500    1.2990    0.0000 C   0  0  0  0  0  0  0  0  0  0  0  0
   -6.1317    0.0855    0.0000 N   0  0  0  0  0  0  0  0  0  0  0  0
   -7.5583    0.5490    0.0000 N   0  0  0  0  0  0  0  0  0  0  0  0
   -7.5583    2.0490    0.0000 N   0  0  0  0  0  0  0  0  0  0  0  0
   -6.1317    2.5126    0.0000 N   0  0  0  0  0  0  0  0  0  0  0  0
   -5.6682    3.9391    0.0000 C   0  0  0  0  0  0  0  0  0  0  0  0
   -4.2009    4.2510    0.0000 C   0  0  0  0  0  0  0  0  0  0  0  0
   -3.7374    5.6776    0.0000 C   0  0  0  0  0  0  0  0  0  0  0  0
   -4.7411    6.7923    0.0000 C   0  0  0  0  0  0  0  0  0  0  0  0
   -6.2083    6.4805    0.0000 C   0  0  0  0  0  0  0  0  0  0  0  0
   -6.6718    5.0539    0.0000 C   0  0  0  0  0  0  0  0  0  0  0  0
   -0.7500    1.2990    0.0000 C   0  0  0  0  0  0  0  0  0  0  0  0
    0.7500    1.2990    0.0000 C   0  0  0  0  0  0  0  0  0  0  0  0
  1  2  1  0
  2  3  1  0
  3  4  2  0
  4  5  1  0
  5  6  1  0
  6  7  2  0
  6  8  1  0
  8  9  1  0
  9 10  2  0
 10 11  1  0
 11 12  2  0
 12 13  1  0
 13 14  1  0
 14 15  2  0
 15 16  1  0
 16 17  2  0
 17 18  1  0
 18 19  2  0
  5 20  1  0
 20 21  2  0
 21  2  1  0
 13  9  1  0
 19 14  1  0
M  END
>  <Title>  (733) 
idABAGgen9

$$$$

     RDKit          2D

 48 54  0  0  0  0  0  0  0  0999 V2000
    6.9790   -6.5041    0.0000 C   0  0  0  0  0  0  0  0  0  0  0  0
    5.6275   -5.8532    0.0000 C   0  0  0  0  0  0  0  0  0  0  0  0
    5.5154   -4.3574    0.0000 O   0  0  0  0  0  0  0  0  0  0  0  0
    4.3881   -6.6982    0.0000 C   0  0  0  0  0  0  0  0  0  0  0  0
    4.5002   -8.1940    0.0000 O   0  0  0  0  0  0  0  0  0  0  0  0
    3.0367   -6.0474    0.0000 C   0  0  0  0  0  0  0  0  0  0  0  0
    3.3705   -4.5850    0.0000 C   0  0  0  0  0  0  0  0  0  0  0  0
    3.0367   -3.1226    0.0000 C   0  0  0  0  0  0  0  0  0  0  0  0
    2.1015   -1.9499    0.0000 C   0  0  0  0  0  0  0  0  0  0  0  0
    3.0367   -0.7771    0.0000 C   0  0  0  0  0  0  0  0  0  0  0  0
    2.4887    0.6192    0.0000 O   0  0  0  0  0  0  0  0  0  0  0  0
    4.5199   -1.0007    0.0000 N   0  0  0  0  0  0  0  0  0  0  0  0
    5.4552    0.1721    0.0000 C   0  0  0  0  0  0  0  0  0  0  0  0
    6.9384   -0.0515    0.0000 N   0  0  0  0  0  0  0  0  0  0  0  0
    7.8736    1.1213    0.0000 N   0  0  0  0  0  0  0  0  0  0  0  0
    7.3256    2.5176    0.0000 N   0  0  0  0  0  0  0  0  0  0  0  0
    5.8424    2.7411    0.0000 N   0  0  0  0  0  0  0  0  0  0  0  0
    4.9072    1.5684    0.0000 N   0  0  0  0  0  0  0  0  0  0  0  0
    0.7500   -1.2990    0.0000 C   0  0  0  0  0  0  0  0  0  0  0  0
    1.5000    0.0000    0.0000 C   0  0  0  0  0  0  0  0  0  0  0  0
    0.7500    1.2990    0.0000 C   0  0  0  0  0  0  0  0  0  0  0  0
   -0.7500    1.2990    0.0000 C   0  0  0  0  0  0  0  0  0  0  0  0
   -1.5000    0.0000    0.0000 C   0  0  0  0  0  0  0  0  0  0  0  0
   -0.7500   -1.2990    0.0000 C   0  0  0  0  0  0  0  0  0  0  0  0
   -2.1015   -1.9499    0.0000 C   0  0  0  0  0  0  0  0  0  0  0  0
   -2.6495   -0.5536    0.0000 C   0  0  0  0  0  0  0  0  0  0  0  0
   -4.1327   -0.3300    0.0000 C   0  0  0  0  0  0  0  0  0  0  0  0
   -5.0679   -1.5027    0.0000 C   0  0  0  0  0  0  0  0  0  0  0  0
   -4.5199   -2.8990    0.0000 C   0  0  0  0  0  0  0  0  0  0  0  0
   -3.0367   -3.1226    0.0000 C   0  0  0  0  0  0  0  0  0  0  0  0
   -3.3705   -4.5850    0.0000 C   0  0  0  0  0  0  0  0  0  0  0  0
   -4.8038   -4.1429    0.0000 C   0  0  0  0  0  0  0  0  0  0  0  0
   -5.9034   -5.1631    0.0000 C   0  0  0  0  0  0  0  0  0  0  0  0
   -5.5696   -6.6255    0.0000 C   0  0  0  0  0  0  0  0  0  0  0  0
   -4.1363   -7.0677    0.0000 C   0  0  0  0  0  0  0  0  0  0  0  0
   -3.0367   -6.0474    0.0000 C   0  0  0  0  0  0  0  0  0  0  0  0
   -2.1015   -7.2201    0.0000 C   0  0  0  0  0  0  0  0  0  0  0  0
   -3.3408   -8.0651    0.0000 C   0  0  0  0  0  0  0  0  0  0  0  0
   -3.2287   -9.5609    0.0000 C   0  0  0  0  0  0  0  0  0  0  0  0
   -1.8773  -10.2118    0.0000 C   0  0  0  0  0  0  0  0  0  0  0  0
   -0.6379   -9.3668    0.0000 C   0  0  0  0  0  0  0  0  0  0  0  0
   -0.7500   -7.8710    0.0000 C   0  0  0  0  0  0  0  0  0  0  0  0
    0.7500   -7.8710    0.0000 C   0  0  0  0  0  0  0  0  0  0  0  0
    0.6379   -9.3668    0.0000 C   0  0  0  0  0  0  0  0  0  0  0  0
    1.8773  -10.2118    0.0000 C   0  0  0  0  0  0  0  0  0  0  0  0
    3.2287   -9.5609    0.0000 C   0  0  0  0  0  0  0  0  0  0  0  0
    3.3408   -8.0651    0.0000 C   0  0  0  0  0  0  0  0  0  0  0  0
    2.1015   -7.2201    0.0000 C   0  0  0  0  0  0  0  0  0  0  0  0
  1  2  1  0
  2  3  2  0
  2  4  1  0
  4  5  2  0
  4  6  1  0
  6  7  1  0
  7  8  1  0
  8  9  1  0
  9 10  1  0
 10 11  2  0
 10 12  1  0
 12 13  1  0
 13 14  2  0
 14 15  1  0
 15 16  2  0
 16 17  1  0
 17 18  2  0
  9 19  1  0
 19 20  2  0
 20 21  1  0
 21 22  2  0
 22 23  1  0
 23 24  2  0
 24 25  1  0
 25 26  2  0
 26 27  1  0
 27 28  2  0
 28 29  1  0
 29 30  2  0
 30 31  1  0
 31 32  2  0
 32 33  1  0
 33 34  2  0
 34 35  1  0
 35 36  2  0
 36 37  1  0
 37 38  2  0
 38 39  1  0
 39 40  2  0
 40 41  1  0
 41 42  2  0
 42 43  1  0
 43 44  2  0
 44 45  1  0
 45 46  2  0
 46 47  1  0
 47 48  2  0
 48  6  1  0
 18 13  1  0
 24 19  1  0
 30 25  1  0
 36 31  1  0
 42 37  1  0
 48 43  1  0
M  END
>  <Title>  (734) 
idABAHgen9

$$$$

     RDKit          2D

 68 78  0  0  0  0  0  0  0  0999 V2000
    6.4958   -4.6081    0.0000 C   0  0  0  0  0  0  0  0  0  0  0  0
    5.0565   -5.0307    0.0000 C   0  0  0  0  0  0  0  0  0  0  0  0
    4.4334   -3.6662    0.0000 C   0  0  0  0  0  0  0  0  0  0  0  0
    3.4511   -2.5326    0.0000 C   0  0  0  0  0  0  0  0  0  0  0  0
    2.1892   -1.7216    0.0000 C   0  0  0  0  0  0  0  0  0  0  0  0
    2.8124   -0.3572    0.0000 C   0  0  0  0  0  0  0  0  0  0  0  0
    1.9423    0.8647    0.0000 O   0  0  0  0  0  0  0  0  0  0  0  0
    4.3056   -0.2146    0.0000 N   0  0  0  0  0  0  0  0  0  0  0  0
    4.9287    1.1498    0.0000 C   0  0  0  0  0  0  0  0  0  0  0  0
    6.4219    1.2924    0.0000 N   0  0  0  0  0  0  0  0  0  0  0  0
    7.0450    2.6569    0.0000 N   0  0  0  0  0  0  0  0  0  0  0  0
    6.1749    3.8787    0.0000 N   0  0  0  0  0  0  0  0  0  0  0  0
    4.6817    3.7362    0.0000 N   0  0  0  0  0  0  0  0  0  0  0  0
    4.0586    2.3717    0.0000 N   0  0  0  0  0  0  0  0  0  0  0  0
    0.7500   -1.2990    0.0000 C   0  0  0  0  0  0  0  0  0  0  0  0
    1.5000    0.0000    0.0000 C   0  0  0  0  0  0  0  0  0  0  0  0
    0.7500    1.2990    0.0000 C   0  0  0  0  0  0  0  0  0  0  0  0
   -0.7500    1.2990    0.0000 C   0  0  0  0  0  0  0  0  0  0  0  0
   -1.5000    0.0000    0.0000 C   0  0  0  0  0  0  0  0  0  0  0  0
   -0.7500   -1.2990    0.0000 C   0  0  0  0  0  0  0  0  0  0  0  0
   -2.1892   -1.7216    0.0000 C   0  0  0  0  0  0  0  0  0  0  0  0
   -2.2606   -0.2233    0.0000 C   0  0  0  0  0  0  0  0  0  0  0  0
   -3.5939    0.4640    0.0000 C   0  0  0  0  0  0  0  0  0  0  0  0
   -4.8557   -0.3470    0.0000 C   0  0  0  0  0  0  0  0  0  0  0  0
   -4.7844   -1.8453    0.0000 C   0  0  0  0  0  0  0  0  0  0  0  0
   -3.4511   -2.5326    0.0000 C   0  0  0  0  0  0  0  0  0  0  0  0
   -4.4334   -3.6662    0.0000 C   0  0  0  0  0  0  0  0  0  0  0  0
   -5.3035   -2.4444    0.0000 C   0  0  0  0  0  0  0  0  0  0  0  0
   -6.7967   -2.5869    0.0000 C   0  0  0  0  0  0  0  0  0  0  0  0
   -7.4198   -3.9514    0.0000 C   0  0  0  0  0  0  0  0  0  0  0  0
   -6.5497   -5.1733    0.0000 C   0  0  0  0  0  0  0  0  0  0  0  0
   -5.0565   -5.0307    0.0000 C   0  0  0  0  0  0  0  0  0  0  0  0
   -5.2700   -6.5154    0.0000 C   0  0  0  0  0  0  0  0  0  0  0  0
   -6.6626   -5.9579    0.0000 C   0  0  0  0  0  0  0  0  0  0  0  0
   -7.8416   -6.8851    0.0000 C   0  0  0  0  0  0  0  0  0  0  0  0
   -7.6282   -8.3699    0.0000 C   0  0  0  0  0  0  0  0  0  0  0  0
   -6.2356   -8.9274    0.0000 C   0  0  0  0  0  0  0  0  0  0  0  0
   -5.0565   -8.0001    0.0000 C   0  0  0  0  0  0  0  0  0  0  0  0
   -4.4334   -9.3646    0.0000 C   0  0  0  0  0  0  0  0  0  0  0  0
   -5.9063   -9.6485    0.0000 C   0  0  0  0  0  0  0  0  0  0  0  0
   -6.3969  -11.0660    0.0000 C   0  0  0  0  0  0  0  0  0  0  0  0
   -5.4146  -12.1996    0.0000 C   0  0  0  0  0  0  0  0  0  0  0  0
   -3.9417  -11.9157    0.0000 C   0  0  0  0  0  0  0  0  0  0  0  0
   -3.4511  -10.4982    0.0000 C   0  0  0  0  0  0  0  0  0  0  0  0
   -2.1892  -11.3092    0.0000 C   0  0  0  0  0  0  0  0  0  0  0  0
   -3.2748  -12.3443    0.0000 C   0  0  0  0  0  0  0  0  0  0  0  0
   -2.9212  -13.8020    0.0000 C   0  0  0  0  0  0  0  0  0  0  0  0
   -1.4820  -14.2246    0.0000 C   0  0  0  0  0  0  0  0  0  0  0  0
   -0.3964  -13.1895    0.0000 C   0  0  0  0  0  0  0  0  0  0  0  0
   -0.7500  -11.7318    0.0000 C   0  0  0  0  0  0  0  0  0  0  0  0
    0.7500  -11.7318    0.0000 C   0  0  0  0  0  0  0  0  0  0  0  0
    0.3964  -13.1895    0.0000 C   0  0  0  0  0  0  0  0  0  0  0  0
    1.4820  -14.2246    0.0000 C   0  0  0  0  0  0  0  0  0  0  0  0
    2.9212  -13.8020    0.0000 C   0  0  0  0  0  0  0  0  0  0  0  0
    3.2748  -12.3443    0.0000 C   0  0  0  0  0  0  0  0  0  0  0  0
    2.1892  -11.3092    0.0000 C   0  0  0  0  0  0  0  0  0  0  0  0
    3.4511  -10.4982    0.0000 C   0  0  0  0  0  0  0  0  0  0  0  0
    3.9417  -11.9157    0.0000 C   0  0  0  0  0  0  0  0  0  0  0  0
    5.4146  -12.1996    0.0000 C   0  0  0  0  0  0  0  0  0  0  0  0
    6.3969  -11.0660    0.0000 C   0  0  0  0  0  0  0  0  0  0  0  0
    5.9063   -9.6485    0.0000 C   0  0  0  0  0  0  0  0  0  0  0  0
    4.4334   -9.3646    0.0000 C   0  0  0  0  0  0  0  0  0  0  0  0
    5.0565   -8.0001    0.0000 C   0  0  0  0  0  0  0  0  0  0  0  0
    6.2356   -8.9274    0.0000 C   0  0  0  0  0  0  0  0  0  0  0  0
    7.6282   -8.3699    0.0000 C   0  0  0  0  0  0  0  0  0  0  0  0
    7.8416   -6.8851    0.0000 C   0  0  0  0  0  0  0  0  0  0  0  0
    6.6626   -5.9579    0.0000 C   0  0  0  0  0  0  0  0  0  0  0  0
    5.2700   -6.5154    0.0000 C   0  0  0  0  0  0  0  0  0  0  0  0
  1  2  1  0
  2  3  2  0
  3  4  1  0
  4  5  2  0
  5  6  1  0
  6  7  2  0
  6  8  1  0
  8  9  1  0
  9 10  2  0
 10 11  1  0
 11 12  2  0
 12 13  1  0
 13 14  2  0
  5 15  1  0
 15 16  2  0
 16 17  1  0
 17 18  2  0
 18 19  1  0
 19 20  2  0
 20 21  1  0
 21 22  2  0
 22 23  1  0
 23 24  2  0
 24 25  1  0
 25 26  2  0
 26 27  1  0
 27 28  2  0
 28 29  1  0
 29 30  2  0
 30 31  1  0
 31 32  2  0
 32 33  1  0
 33 34  2  0
 34 35  1  0
 35 36  2  0
 36 37  1  0
 37 38  2  0
 38 39  1  0
 39 40  2  0
 40 41  1  0
 41 42  2  0
 42 43  1  0
 43 44  2  0
 44 45  1  0
 45 46  2  0
 46 47  1  0
 47 48  2  0
 48 49  1  0
 49 50  2  0
 50 51  1  0
 51 52  2  0
 52 53  1  0
 53 54  2  0
 54 55  1  0
 55 56  2  0
 56 57  1  0
 57 58  2  0
 58 59  1  0
 59 60  2  0
 60 61  1  0
 61 62  2  0
 62 63  1  0
 63 64  2  0
 64 65  1  0
 65 66  2  0
 66 67  1  0
 67 68  2  0
 68  2  1  0
 14  9  1  0
 20 15  1  0
 26 21  1  0
 32 27  1  0
 38 33  1  0
 44 39  1  0
 50 45  1  0
 56 51  1  0
 62 57  1  0
 68 63  1  0
M  END
>  <Title>  (735) 
idABAIgen9

$$$$

     RDKit          2D

 70 80  0  0  0  0  0  0  0  0999 V2000
    7.5000   18.1865    0.0000 C   0  0  0  0  0  0  0  0  0  0  0  0
    8.2500   16.8875    0.0000 C   0  0  0  0  0  0  0  0  0  0  0  0
    9.7500   16.8875    0.0000 C   0  0  0  0  0  0  0  0  0  0  0  0
   10.5000   15.5885    0.0000 C   0  0  0  0  0  0  0  0  0  0  0  0
    9.7500   14.2894    0.0000 C   0  0  0  0  0  0  0  0  0  0  0  0
    8.2500   14.2894    0.0000 C   0  0  0  0  0  0  0  0  0  0  0  0
    7.5000   15.5885    0.0000 C   0  0  0  0  0  0  0  0  0  0  0  0
    6.0000   15.5885    0.0000 C   0  0  0  0  0  0  0  0  0  0  0  0
    5.2500   16.8875    0.0000 O   0  0  0  0  0  0  0  0  0  0  0  0
    5.2500   14.2894    0.0000 N   0  0  0  0  0  0  0  0  0  0  0  0
    3.7500   14.2894    0.0000 C   0  0  0  0  0  0  0  0  0  0  0  0
    3.0000   15.5885    0.0000 N   0  0  0  0  0  0  0  0  0  0  0  0
    1.5000   15.5885    0.0000 N   0  0  0  0  0  0  0  0  0  0  0  0
    0.7500   14.2894    0.0000 C   0  0  0  0  0  0  0  0  0  0  0  0
    1.5000   12.9904    0.0000 C   0  0  0  0  0  0  0  0  0  0  0  0
    3.0000   12.9904    0.0000 C   0  0  0  0  0  0  0  0  0  0  0  0
    3.7500   11.6913    0.0000 C   0  0  0  0  0  0  0  0  0  0  0  0
    5.2500   11.6913    0.0000 C   0  0  0  0  0  0  0  0  0  0  0  0
    6.0000   10.3923    0.0000 C   0  0  0  0  0  0  0  0  0  0  0  0
    5.2500    9.0933    0.0000 C   0  0  0  0  0  0  0  0  0  0  0  0
    3.7500    9.0933    0.0000 C   0  0  0  0  0  0  0  0  0  0  0  0
    3.0000   10.3923    0.0000 C   0  0  0  0  0  0  0  0  0  0  0  0
    1.5000   10.3923    0.0000 C   0  0  0  0  0  0  0  0  0  0  0  0
    0.7500   11.6913    0.0000 C   0  0  0  0  0  0  0  0  0  0  0  0
   -0.7500   11.6913    0.0000 C   0  0  0  0  0  0  0  0  0  0  0  0
   -1.5000   10.3923    0.0000 C   0  0  0  0  0  0  0  0  0  0  0  0
   -0.7500    9.0933    0.0000 C   0  0  0  0  0  0  0  0  0  0  0  0
    0.7500    9.0933    0.0000 C   0  0  0  0  0  0  0  0  0  0  0  0
    1.5000    7.7942    0.0000 C   0  0  0  0  0  0  0  0  0  0  0  0
    3.0000    7.7942    0.0000 C   0  0  0  0  0  0  0  0  0  0  0  0
    3.7500    6.4952    0.0000 C   0  0  0  0  0  0  0  0  0  0  0  0
    3.0000    5.1962    0.0000 C   0  0  0  0  0  0  0  0  0  0  0  0
    1.5000    5.1962    0.0000 C   0  0  0  0  0  0  0  0  0  0  0  0
    0.7500    6.4952    0.0000 C   0  0  0  0  0  0  0  0  0  0  0  0
   -0.7500    6.4952    0.0000 C   0  0  0  0  0  0  0  0  0  0  0  0
   -1.5000    7.7942    0.0000 C   0  0  0  0  0  0  0  0  0  0  0  0
   -3.0000    7.7942    0.0000 C   0  0  0  0  0  0  0  0  0  0  0  0
   -3.7500    6.4952    0.0000 C   0  0  0  0  0  0  0  0  0  0  0  0
   -3.0000    5.1962    0.0000 C   0  0  0  0  0  0  0  0  0  0  0  0
   -1.5000    5.1962    0.0000 C   0  0  0  0  0  0  0  0  0  0  0  0
   -0.7500    3.8971    0.0000 C   0  0  0  0  0  0  0  0  0  0  0  0
    0.7500    3.8971    0.0000 C   0  0  0  0  0  0  0  0  0  0  0  0
    1.5000    2.5981    0.0000 C   0  0  0  0  0  0  0  0  0  0  0  0
    0.7500    1.2990    0.0000 C   0  0  0  0  0  0  0  0  0  0  0  0
   -0.7500    1.2990    0.0000 C   0  0  0  0  0  0  0  0  0  0  0  0
   -1.5000    2.5981    0.0000 C   0  0  0  0  0  0  0  0  0  0  0  0
   -3.0000    2.5981    0.0000 C   0  0  0  0  0  0  0  0  0  0  0  0
   -3.7500    3.8971    0.0000 C   0  0  0  0  0  0  0  0  0  0  0  0
   -5.2500    3.8971    0.0000 C   0  0  0  0  0  0  0  0  0  0  0  0
   -6.0000    2.5981    0.0000 C   0  0  0  0  0  0  0  0  0  0  0  0
   -5.2500    1.2990    0.0000 C   0  0  0  0  0  0  0  0  0  0  0  0
   -3.7500    1.2990    0.0000 C   0  0  0  0  0  0  0  0  0  0  0  0
   -3.0000    0.0000    0.0000 C   0  0  0  0  0  0  0  0  0  0  0  0
   -1.5000    0.0000    0.0000 C   0  0  0  0  0  0  0  0  0  0  0  0
   -0.7500   -1.2990    0.0000 C   0  0  0  0  0  0  0  0  0  0  0  0
   -1.5000   -2.5981    0.0000 C   0  0  0  0  0  0  0  0  0  0  0  0
   -3.0000   -2.5981    0.0000 C   0  0  0  0  0  0  0  0  0  0  0  0
   -3.7500   -1.2990    0.0000 C   0  0  0  0  0  0  0  0  0  0  0  0
   -5.2500   -1.2990    0.0000 C   0  0  0  0  0  0  0  0  0  0  0  0
   -6.0000    0.0000    0.0000 C   0  0  0  0  0  0  0  0  0  0  0  0
   -7.5000    0.0000    0.0000 C   0  0  0  0  0  0  0  0  0  0  0  0
   -8.2500   -1.2990    0.0000 C   0  0  0  0  0  0  0  0  0  0  0  0
   -7.5000   -2.5981    0.0000 C   0  0  0  0  0  0  0  0  0  0  0  0
   -6.0000   -2.5981    0.0000 C   0  0  0  0  0  0  0  0  0  0  0  0
   -5.2500   -3.8971    0.0000 C   0  0  0  0  0  0  0  0  0  0  0  0
   -6.0000   -5.1962    0.0000 C   0  0  0  0  0  0  0  0  0  0  0  0
   -5.2500   -6.4952    0.0000 C   0  0  0  0  0  0  0  0  0  0  0  0
   -3.7500   -6.4952    0.0000 C   0  0  0  0  0  0  0  0  0  0  0  0
   -3.0000   -5.1962    0.0000 C   0  0  0  0  0  0  0  0  0  0  0  0
   -3.7500   -3.8971    0.0000 C   0  0  0  0  0  0  0  0  0  0  0  0
  1  2  1  0
  2  3  2  0
  3  4  1  0
  4  5  2  0
  5  6  1  0
  6  7  2  0
  7  8  1  0
  8  9  2  0
  8 10  1  0
 10 11  1  0
 11 12  2  0
 12 13  1  0
 13 14  2  0
 14 15  1  0
 15 16  2  0
 16 17  1  0
 17 18  2  0
 18 19  1  0
 19 20  2  0
 20 21  1  0
 21 22  2  0
 22 23  1  0
 23 24  2  0
 24 25  1  0
 25 26  2  0
 26 27  1  0
 27 28  2  0
 28 29  1  0
 29 30  2  0
 30 31  1  0
 31 32  2  0
 32 33  1  0
 33 34  2  0
 34 35  1  0
 35 36  2  0
 36 37  1  0
 37 38  2  0
 38 39  1  0
 39 40  2  0
 40 41  1  0
 41 42  2  0
 42 43  1  0
 43 44  2  0
 44 45  1  0
 45 46  2  0
 46 47  1  0
 47 48  2  0
 48 49  1  0
 49 50  2  0
 50 51  1  0
 51 52  2  0
 52 53  1  0
 53 54  2  0
 54 55  1  0
 55 56  2  0
 56 57  1  0
 57 58  2  0
 58 59  1  0
 59 60  2  0
 60 61  1  0
 61 62  2  0
 62 63  1  0
 63 64  2  0
 64 65  1  0
 65 66  2  0
 66 67  1  0
 67 68  2  0
 68 69  1  0
 69 70  2  0
  7  2  1  0
 16 11  1  0
 22 17  1  0
 28 23  1  0
 34 29  1  0
 40 35  1  0
 46 41  1  0
 52 47  1  0
 58 53  1  0
 64 59  1  0
 70 65  1  0
M  END
>  <Title>  (736) 
idABAJgen9

$$$$

     RDKit          2D

 13 13  0  0  0  0  0  0  0  0999 V2000
   10.5000    0.0000    0.0000 C   0  0  0  0  0  0  0  0  0  0  0  0
    9.0000    0.0000    0.0000 C   0  0  0  0  0  0  0  0  0  0  0  0
    7.5000    0.0000    0.0000 C   0  0  0  0  0  0  0  0  0  0  0  0
    6.0000    0.0000    0.0000 C   0  0  0  0  0  0  0  0  0  0  0  0
    4.5000    0.0000    0.0000 C   0  0  0  0  0  0  0  0  0  0  0  0
    3.0000    0.0000    0.0000 C   0  0  0  0  0  0  0  0  0  0  0  0
    1.5000    0.0000    0.0000 C   0  0  0  0  0  0  0  0  0  0  0  0
    0.7500   -1.2990    0.0000 C   0  0  0  0  0  0  0  0  0  0  0  0
   -0.7500   -1.2990    0.0000 C   0  0  0  0  0  0  0  0  0  0  0  0
   -1.5000    0.0000    0.0000 C   0  0  0  0  0  0  0  0  0  0  0  0
   -3.0000    0.0000    0.0000 C   0  0  0  0  0  0  0  0  0  0  0  0
   -0.7500    1.2990    0.0000 C   0  0  0  0  0  0  0  0  0  0  0  0
    0.7500    1.2990    0.0000 C   0  0  0  0  0  0  0  0  0  0  0  0
  1  2  3  0
  2  3  1  0
  3  4  3  0
  4  5  1  0
  5  6  3  0
  6  7  1  0
  7  8  2  0
  8  9  1  0
  9 10  2  0
 10 11  1  0
 10 12  1  0
 12 13  2  0
 13  7  1  0
M  END
>  <Title>  (737) 
idABAKgen9

$$$$

     RDKit          2D

  9  9  0  0  0  0  0  0  0  0999 V2000
    2.7760    0.0000    0.0000 C   0  0  0  0  0  0  0  0  0  0  0  0
    1.2760    0.0000    0.0000 C   0  0  0  0  0  0  0  0  0  0  0  0
    0.3943    1.2135    0.0000 C   0  0  0  0  0  0  0  0  0  0  0  0
   -1.0323    0.7500    0.0000 C   0  0  0  0  0  0  0  0  0  0  0  0
   -1.0323   -0.7500    0.0000 C   0  0  0  0  0  0  0  0  0  0  0  0
    0.3943   -1.2135    0.0000 C   0  0  0  0  0  0  0  0  0  0  0  0
    0.8578   -2.6401    0.0000 C   0  0  0  0  0  0  0  0  0  0  0  0
    2.3250   -2.9520    0.0000 O   0  0  0  0  0  0  0  0  0  0  0  0
   -0.1459   -3.7548    0.0000 O   0  0  0  0  0  0  0  0  0  0  0  0
  1  2  1  0
  2  3  2  0
  3  4  1  0
  4  5  2  0
  5  6  1  0
  6  7  1  0
  7  8  2  0
  7  9  1  0
  6  2  1  0
M  END
>  <Title>  (738) 
idABALgen9

$$$$

     RDKit          2D

 20 21  0  0  0  0  0  0  0  0999 V2000
    5.2500   -1.2990    0.0000 C   0  0  0  0  0  0  0  0  0  0  0  0
    3.7500   -1.2990    0.0000 C   0  0  0  0  0  0  0  0  0  0  0  0
    3.0000    0.0000    0.0000 C   0  0  0  0  0  0  0  0  0  0  0  0
    1.5000    0.0000    0.0000 C   0  0  0  0  0  0  0  0  0  0  0  0
    0.7500   -1.2990    0.0000 C   0  0  0  0  0  0  0  0  0  0  0  0
   -0.7500   -1.2990    0.0000 C   0  0  0  0  0  0  0  0  0  0  0  0
   -1.5000    0.0000    0.0000 C   0  0  0  0  0  0  0  0  0  0  0  0
   -0.7500    1.2990    0.0000 C   0  0  0  0  0  0  0  0  0  0  0  0
    0.7500    1.2990    0.0000 C   0  0  0  0  0  0  0  0  0  0  0  0
    1.5000    2.5981    0.0000 C   0  0  0  0  0  0  0  0  0  0  0  0
    3.0000    2.5981    0.0000 O   0  0  0  0  0  0  0  0  0  0  0  0
    0.7500    3.8971    0.0000 N   0  0  0  0  0  0  0  0  0  0  0  0
   -0.7418    4.0539    0.0000 C   0  0  0  0  0  0  0  0  0  0  0  0
   -1.0537    5.5211    0.0000 C   0  0  0  0  0  0  0  0  0  0  0  0
    0.2454    6.2711    0.0000 C   0  0  0  0  0  0  0  0  0  0  0  0
    0.4022    7.7629    0.0000 C   0  0  0  0  0  0  0  0  0  0  0  0
   -0.8113    8.6446    0.0000 O   0  0  0  0  0  0  0  0  0  0  0  0
    1.7725    8.3730    0.0000 O   0  0  0  0  0  0  0  0  0  0  0  0
    1.3601    5.2674    0.0000 C   0  0  0  0  0  0  0  0  0  0  0  0
    2.8273    5.5793    0.0000 O   0  0  0  0  0  0  0  0  0  0  0  0
  1  2  1  0
  2  3  1  0
  3  4  1  0
  4  5  2  0
  5  6  1  0
  6  7  2  0
  7  8  1  0
  8  9  2  0
  9 10  1  0
 10 11  2  0
 10 12  1  0
 12 13  1  0
 13 14  1  0
 14 15  1  0
 15 16  1  0
 16 17  2  0
 16 18  1  0
 15 19  1  0
 19 20  2  0
  9  4  1  0
 19 12  1  0
M  END
>  <Title>  (739) 
idABAMgen9

$$$$

     RDKit          2D

 16 16  0  0  0  0  0  0  0  0999 V2000
   13.5000    0.0000    0.0000 C   0  0  0  0  0  0  0  0  0  0  0  0
   12.0000    0.0000    0.0000 C   0  0  0  0  0  0  0  0  0  0  0  0
   10.5000    0.0000    0.0000 C   0  0  0  0  0  0  0  0  0  0  0  0
    9.0000    0.0000    0.0000 C   0  0  0  0  0  0  0  0  0  0  0  0
    7.5000    0.0000    0.0000 C   0  0  0  0  0  0  0  0  0  0  0  0
    6.0000    0.0000    0.0000 C   0  0  0  0  0  0  0  0  0  0  0  0
    4.5000    0.0000    0.0000 C   0  0  0  0  0  0  0  0  0  0  0  0
    3.0000    0.0000    0.0000 C   0  0  0  0  0  0  0  0  0  0  0  0
    1.5000    0.0000    0.0000 C   0  0  0  0  0  0  0  0  0  0  0  0
    0.7500   -1.2990    0.0000 C   0  0  0  0  0  0  0  0  0  0  0  0
   -0.7500   -1.2990    0.0000 C   0  0  0  0  0  0  0  0  0  0  0  0
   -1.5000    0.0000    0.0000 C   0  0  0  0  0  0  0  0  0  0  0  0
   -3.0000    0.0000    0.0000 C   0  0  0  0  0  0  0  0  0  0  0  0
   -4.5000    0.0000    0.0000 N   0  0  0  0  0  0  0  0  0  0  0  0
   -0.7500    1.2990    0.0000 C   0  0  0  0  0  0  0  0  0  0  0  0
    0.7500    1.2990    0.0000 C   0  0  0  0  0  0  0  0  0  0  0  0
  1  2  3  0
  2  3  1  0
  3  4  3  0
  4  5  1  0
  5  6  3  0
  6  7  1  0
  7  8  3  0
  8  9  1  0
  9 10  2  0
 10 11  1  0
 11 12  2  0
 12 13  1  0
 13 14  3  0
 12 15  1  0
 15 16  2  0
 16  9  1  0
M  END
>  <Title>  (740) 
idABANgen9

$$$$

     RDKit          2D

  9  9  0  0  0  0  0  0  0  0999 V2000
    5.0260   -1.2990    0.0000 C   0  0  0  0  0  0  0  0  0  0  0  0
    3.5260   -1.2990    0.0000 N   0  0  0  0  0  0  0  0  0  0  0  0
    2.7760   -2.5981    0.0000 C   0  0  0  0  0  0  0  0  0  0  0  0
    2.7760    0.0000    0.0000 C   0  0  0  0  0  0  0  0  0  0  0  0
    1.2760    0.0000    0.0000 C   0  0  0  0  0  0  0  0  0  0  0  0
    0.3943    1.2135    0.0000 C   0  0  0  0  0  0  0  0  0  0  0  0
   -1.0323    0.7500    0.0000 C   0  0  0  0  0  0  0  0  0  0  0  0
   -1.0323   -0.7500    0.0000 C   0  0  0  0  0  0  0  0  0  0  0  0
    0.3943   -1.2135    0.0000 C   0  0  0  0  0  0  0  0  0  0  0  0
  1  2  1  0
  2  3  1  0
  2  4  1  0
  4  5  1  0
  5  6  2  0
  6  7  1  0
  7  8  1  0
  8  9  2  0
  9  5  1  0
M  END
>  <Title>  (741) 
idABAOgen9

$$$$

     RDKit          2D

 94 95  0  0  0  0  0  0  0  0999 V2000
   -3.3193   -0.0636    0.0000 C   0  0  0  0  0  0  0  0  0  0  0  0
   -3.1034   -1.5480    0.0000 C   0  0  0  0  0  0  0  0  0  0  0  0
   -4.5790   -1.8174    0.0000 C   0  0  0  0  0  0  0  0  0  0  0  0
   -6.0314   -2.1925    0.0000 C   0  0  0  0  0  0  0  0  0  0  0  0
   -7.4529   -2.6714    0.0000 C   0  0  0  0  0  0  0  0  0  0  0  0
   -8.8361   -3.2517    0.0000 C   0  0  0  0  0  0  0  0  0  0  0  0
  -10.1738   -3.9303    0.0000 C   0  0  0  0  0  0  0  0  0  0  0  0
  -11.4591   -4.7036    0.0000 C   0  0  0  0  0  0  0  0  0  0  0  0
  -12.6852   -5.5677    0.0000 C   0  0  0  0  0  0  0  0  0  0  0  0
  -13.8458   -6.5180    0.0000 C   0  0  0  0  0  0  0  0  0  0  0  0
  -14.9348   -7.5495    0.0000 C   0  0  0  0  0  0  0  0  0  0  0  0
  -15.9465   -8.6569    0.0000 C   0  0  0  0  0  0  0  0  0  0  0  0
  -16.8757   -9.8345    0.0000 C   0  0  0  0  0  0  0  0  0  0  0  0
  -17.7175  -11.0760    0.0000 C   0  0  0  0  0  0  0  0  0  0  0  0
  -18.4675  -12.3751    0.0000 C   0  0  0  0  0  0  0  0  0  0  0  0
  -19.1218  -13.7248    0.0000 C   0  0  0  0  0  0  0  0  0  0  0  0
  -19.6770  -15.1183    0.0000 C   0  0  0  0  0  0  0  0  0  0  0  0
  -20.1302  -16.5482    0.0000 C   0  0  0  0  0  0  0  0  0  0  0  0
  -20.4791  -18.0071    0.0000 C   0  0  0  0  0  0  0  0  0  0  0  0
  -20.7217  -19.4873    0.0000 C   0  0  0  0  0  0  0  0  0  0  0  0
  -20.8570  -20.9812    0.0000 C   0  0  0  0  0  0  0  0  0  0  0  0
  -20.8841  -22.4810    0.0000 C   0  0  0  0  0  0  0  0  0  0  0  0
  -20.8028  -23.9788    0.0000 C   0  0  0  0  0  0  0  0  0  0  0  0
  -20.6138  -25.4668    0.0000 C   0  0  0  0  0  0  0  0  0  0  0  0
  -20.3178  -26.9373    0.0000 C   0  0  0  0  0  0  0  0  0  0  0  0
  -19.9165  -28.3826    0.0000 C   0  0  0  0  0  0  0  0  0  0  0  0
  -19.4120  -29.7952    0.0000 C   0  0  0  0  0  0  0  0  0  0  0  0
  -18.8068  -31.1677    0.0000 C   0  0  0  0  0  0  0  0  0  0  0  0
  -18.1042  -32.4930    0.0000 C   0  0  0  0  0  0  0  0  0  0  0  0
  -17.3078  -33.7641    0.0000 C   0  0  0  0  0  0  0  0  0  0  0  0
  -16.4218  -34.9745    0.0000 C   0  0  0  0  0  0  0  0  0  0  0  0
  -15.4507  -36.1177    0.0000 C   0  0  0  0  0  0  0  0  0  0  0  0
  -14.3996  -37.1879    0.0000 C   0  0  0  0  0  0  0  0  0  0  0  0
  -13.2741  -38.1795    0.0000 C   0  0  0  0  0  0  0  0  0  0  0  0
  -12.0800  -39.0872    0.0000 C   0  0  0  0  0  0  0  0  0  0  0  0
  -10.8234  -39.9065    0.0000 C   0  0  0  0  0  0  0  0  0  0  0  0
   -9.5111  -40.6329    0.0000 C   0  0  0  0  0  0  0  0  0  0  0  0
   -8.1497  -41.2627    0.0000 C   0  0  0  0  0  0  0  0  0  0  0  0
   -6.7464  -41.7927    0.0000 C   0  0  0  0  0  0  0  0  0  0  0  0
   -5.3086  -42.2200    0.0000 C   0  0  0  0  0  0  0  0  0  0  0  0
   -3.8437  -42.5424    0.0000 C   0  0  0  0  0  0  0  0  0  0  0  0
   -2.3593  -42.7584    0.0000 C   0  0  0  0  0  0  0  0  0  0  0  0
   -0.8632  -42.8666    0.0000 C   0  0  0  0  0  0  0  0  0  0  0  0
    0.6368  -42.8666    0.0000 C   0  0  0  0  0  0  0  0  0  0  0  0
    2.1329  -42.7584    0.0000 C   0  0  0  0  0  0  0  0  0  0  0  0
    3.6173  -42.5424    0.0000 C   0  0  0  0  0  0  0  0  0  0  0  0
    5.0822  -42.2200    0.0000 C   0  0  0  0  0  0  0  0  0  0  0  0
    6.5200  -41.7927    0.0000 C   0  0  0  0  0  0  0  0  0  0  0  0
    7.9233  -41.2627    0.0000 C   0  0  0  0  0  0  0  0  0  0  0  0
    9.2847  -40.6329    0.0000 C   0  0  0  0  0  0  0  0  0  0  0  0
   10.5970  -39.9065    0.0000 C   0  0  0  0  0  0  0  0  0  0  0  0
   11.8536  -39.0872    0.0000 C   0  0  0  0  0  0  0  0  0  0  0  0
   13.0477  -38.1795    0.0000 C   0  0  0  0  0  0  0  0  0  0  0  0
   14.1732  -37.1879    0.0000 C   0  0  0  0  0  0  0  0  0  0  0  0
   15.2243  -36.1177    0.0000 C   0  0  0  0  0  0  0  0  0  0  0  0
   16.1953  -34.9745    0.0000 C   0  0  0  0  0  0  0  0  0  0  0  0
   17.0814  -33.7641    0.0000 C   0  0  0  0  0  0  0  0  0  0  0  0
   17.8778  -32.4930    0.0000 C   0  0  0  0  0  0  0  0  0  0  0  0
   18.5804  -31.1677    0.0000 C   0  0  0  0  0  0  0  0  0  0  0  0
   19.1856  -29.7952    0.0000 C   0  0  0  0  0  0  0  0  0  0  0  0
   19.6901  -28.3826    0.0000 C   0  0  0  0  0  0  0  0  0  0  0  0
   20.0914  -26.9373    0.0000 C   0  0  0  0  0  0  0  0  0  0  0  0
   20.3874  -25.4668    0.0000 C   0  0  0  0  0  0  0  0  0  0  0  0
   20.5764  -23.9788    0.0000 C   0  0  0  0  0  0  0  0  0  0  0  0
   20.6576  -22.4810    0.0000 C   0  0  0  0  0  0  0  0  0  0  0  0
   20.6306  -20.9812    0.0000 C   0  0  0  0  0  0  0  0  0  0  0  0
   20.4953  -19.4873    0.0000 C   0  0  0  0  0  0  0  0  0  0  0  0
   20.2527  -18.0071    0.0000 C   0  0  0  0  0  0  0  0  0  0  0  0
   19.9038  -16.5482    0.0000 C   0  0  0  0  0  0  0  0  0  0  0  0
   19.4506  -15.1183    0.0000 C   0  0  0  0  0  0  0  0  0  0  0  0
   18.8954  -13.7248    0.0000 C   0  0  0  0  0  0  0  0  0  0  0  0
   18.2411  -12.3751    0.0000 C   0  0  0  0  0  0  0  0  0  0  0  0
   17.4911  -11.0760    0.0000 C   0  0  0  0  0  0  0  0  0  0  0  0
   16.6493   -9.8345    0.0000 C   0  0  0  0  0  0  0  0  0  0  0  0
   15.7201   -8.6569    0.0000 C   0  0  0  0  0  0  0  0  0  0  0  0
   14.7084   -7.5495    0.0000 C   0  0  0  0  0  0  0  0  0  0  0  0
   13.6194   -6.5180    0.0000 C   0  0  0  0  0  0  0  0  0  0  0  0
   12.4588   -5.5677    0.0000 C   0  0  0  0  0  0  0  0  0  0  0  0
   11.2327   -4.7036    0.0000 C   0  0  0  0  0  0  0  0  0  0  0  0
    9.9474   -3.9303    0.0000 C   0  0  0  0  0  0  0  0  0  0  0  0
    8.6097   -3.2517    0.0000 C   0  0  0  0  0  0  0  0  0  0  0  0
    7.2265   -2.6714    0.0000 C   0  0  0  0  0  0  0  0  0  0  0  0
    5.8050   -2.1925    0.0000 C   0  0  0  0  0  0  0  0  0  0  0  0
    4.3526   -1.8174    0.0000 C   0  0  0  0  0  0  0  0  0  0  0  0
    2.8770   -1.5480    0.0000 C   0  0  0  0  0  0  0  0  0  0  0  0
    1.3858   -1.3858    0.0000 C   0  0  0  0  0  0  0  0  0  0  0  0
    1.9598    0.0000    0.0000 C   0  0  0  0  0  0  0  0  0  0  0  0
    1.3858    1.3858    0.0000 C   0  0  0  0  0  0  0  0  0  0  0  0
    0.0000    1.9598    0.0000 C   0  0  0  0  0  0  0  0  0  0  0  0
   -1.3858    1.3858    0.0000 C   0  0  0  0  0  0  0  0  0  0  0  0
   -1.9598    0.0000    0.0000 C   0  0  0  0  0  0  0  0  0  0  0  0
   -1.3858   -1.3858    0.0000 C   0  0  0  0  0  0  0  0  0  0  0  0
   -0.0000   -1.9598    0.0000 C   0  0  0  0  0  0  0  0  0  0  0  0
   -0.0000   -3.4598    0.0000 C   0  0  0  0  0  0  0  0  0  0  0  0
  1  2  1  0
  2  3  1  0
  3  4  1  0
  4  5  1  0
  5  6  1  0
  6  7  1  0
  7  8  1  0
  8  9  1  0
  9 10  1  0
 10 11  1  0
 11 12  1  0
 12 13  1  0
 13 14  1  0
 14 15  1  0
 15 16  1  0
 16 17  1  0
 17 18  1  0
 18 19  1  0
 19 20  1  0
 20 21  1  0
 21 22  1  0
 22 23  1  0
 23 24  1  0
 24 25  1  0
 25 26  1  0
 26 27  1  0
 27 28  1  0
 28 29  1  0
 29 30  1  0
 30 31  1  0
 31 32  1  0
 32 33  1  0
 33 34  1  0
 34 35  1  0
 35 36  1  0
 36 37  1  0
 37 38  1  0
 38 39  1  0
 39 40  1  0
 40 41  1  0
 41 42  1  0
 42 43  1  0
 43 44  1  0
 44 45  1  0
 45 46  1  0
 46 47  1  0
 47 48  1  0
 48 49  1  0
 49 50  1  0
 50 51  1  0
 51 52  1  0
 52 53  1  0
 53 54  1  0
 54 55  1  0
 55 56  1  0
 56 57  1  0
 57 58  1  0
 58 59  1  0
 59 60  1  0
 60 61  1  0
 61 62  1  0
 62 63  1  0
 63 64  1  0
 64 65  1  0
 65 66  1  0
 66 67  1  0
 67 68  1  0
 68 69  1  0
 69 70  1  0
 70 71  1  0
 71 72  1  0
 72 73  1  0
 73 74  1  0
 74 75  1  0
 75 76  1  0
 76 77  1  0
 77 78  2  0
 78 79  1  0
 79 80  2  0
 80 81  1  0
 81 82  2  0
 82 83  1  0
 83 84  2  0
 84 85  1  0
 85 86  2  0
 86 87  1  0
 87 88  1  0
 88 89  1  0
 89 90  1  0
 90 91  1  0
 91 92  1  0
 92 93  1  0
 93 94  1  0
 92  2  1  0
 93 86  1  0
M  END
>  <Title>  (742) 
idABAPgen9

$$$$

     RDKit          2D

 19 19  0  0  0  0  0  0  0  0999 V2000
   19.2760   -0.0000    0.0000 C   0  0  0  0  0  0  0  0  0  0  0  0
   17.7760   -0.0000    0.0000 C   0  0  0  0  0  0  0  0  0  0  0  0
   16.2760   -0.0000    0.0000 C   0  0  0  0  0  0  0  0  0  0  0  0
   14.7760   -0.0000    0.0000 C   0  0  0  0  0  0  0  0  0  0  0  0
   13.2760   -0.0000    0.0000 C   0  0  0  0  0  0  0  0  0  0  0  0
   11.7760   -0.0000    0.0000 C   0  0  0  0  0  0  0  0  0  0  0  0
   10.2760   -0.0000    0.0000 C   0  0  0  0  0  0  0  0  0  0  0  0
    8.7760   -0.0000    0.0000 C   0  0  0  0  0  0  0  0  0  0  0  0
    7.2760   -0.0000    0.0000 C   0  0  0  0  0  0  0  0  0  0  0  0
    5.7760   -0.0000    0.0000 C   0  0  0  0  0  0  0  0  0  0  0  0
    4.2760   -0.0000    0.0000 C   0  0  0  0  0  0  0  0  0  0  0  0
    2.7760    0.0000    0.0000 C   0  0  0  0  0  0  0  0  0  0  0  0
    1.2760    0.0000    0.0000 C   0  0  0  0  0  0  0  0  0  0  0  0
    0.3943    1.2135    0.0000 C   0  0  0  0  0  0  0  0  0  0  0  0
   -1.0323    0.7500    0.0000 C   0  0  0  0  0  0  0  0  0  0  0  0
   -2.2458    1.6317    0.0000 C   0  0  0  0  0  0  0  0  0  0  0  0
   -3.4593    2.5134    0.0000 C   0  0  0  0  0  0  0  0  0  0  0  0
   -1.0323   -0.7500    0.0000 C   0  0  0  0  0  0  0  0  0  0  0  0
    0.3943   -1.2135    0.0000 C   0  0  0  0  0  0  0  0  0  0  0  0
  1  2  3  0
  2  3  1  0
  3  4  3  0
  4  5  1  0
  5  6  3  0
  6  7  1  0
  7  8  3  0
  8  9  1  0
  9 10  3  0
 10 11  1  0
 11 12  3  0
 12 13  1  0
 13 14  2  0
 14 15  1  0
 15 16  1  0
 16 17  3  0
 15 18  2  0
 18 19  1  0
 19 13  1  0
M  END
>  <Title>  (743) 
idABAQgen9

$$$$

     RDKit          2D

 29 32  0  0  0  0  0  0  0  0999 V2000
    3.0000    0.0000    0.0000 C   0  0  0  0  0  0  0  0  0  0  0  0
    1.5000    0.0000    0.0000 C   0  0  0  0  0  0  0  0  0  0  0  0
    0.7500   -1.2990    0.0000 C   0  0  0  0  0  0  0  0  0  0  0  0
   -0.7500   -1.2990    0.0000 C   0  0  0  0  0  0  0  0  0  0  0  0
   -1.5000    0.0000    0.0000 C   0  0  0  0  0  0  0  0  0  0  0  0
   -3.0000    0.0000    0.0000 C   0  0  0  0  0  0  0  0  0  0  0  0
   -3.7500   -1.2990    0.0000 O   0  0  0  0  0  0  0  0  0  0  0  0
   -3.7500    1.2990    0.0000 N   0  0  0  0  0  0  0  0  0  0  0  0
   -5.2500    1.2990    0.0000 C   0  0  0  0  0  0  0  0  0  0  0  0
   -6.1317    0.0855    0.0000 N   0  0  0  0  0  0  0  0  0  0  0  0
   -7.5583    0.5490    0.0000 N   0  0  0  0  0  0  0  0  0  0  0  0
   -7.5583    2.0490    0.0000 N   0  0  0  0  0  0  0  0  0  0  0  0
   -6.1317    2.5126    0.0000 N   0  0  0  0  0  0  0  0  0  0  0  0
   -5.6682    3.9391    0.0000 N   0  0  0  0  0  0  0  0  0  0  0  0
   -4.2009    4.2510    0.0000 C   0  0  0  0  0  0  0  0  0  0  0  0
   -3.7374    5.6776    0.0000 C   0  0  0  0  0  0  0  0  0  0  0  0
   -4.7411    6.7923    0.0000 C   0  0  0  0  0  0  0  0  0  0  0  0
   -6.2083    6.4805    0.0000 C   0  0  0  0  0  0  0  0  0  0  0  0
   -6.6718    5.0539    0.0000 C   0  0  0  0  0  0  0  0  0  0  0  0
   -8.1391    4.7420    0.0000 C   0  0  0  0  0  0  0  0  0  0  0  0
   -9.1428    5.8567    0.0000 C   0  0  0  0  0  0  0  0  0  0  0  0
  -10.6100    5.5448    0.0000 C   0  0  0  0  0  0  0  0  0  0  0  0
  -11.0735    4.1183    0.0000 C   0  0  0  0  0  0  0  0  0  0  0  0
  -10.0698    3.0035    0.0000 C   0  0  0  0  0  0  0  0  0  0  0  0
   -8.6026    3.3154    0.0000 C   0  0  0  0  0  0  0  0  0  0  0  0
   -0.7500    1.2990    0.0000 C   0  0  0  0  0  0  0  0  0  0  0  0
   -2.1595    1.8121    0.0000 C   0  0  0  0  0  0  0  0  0  0  0  0
   -0.4895    2.7762    0.0000 C   0  0  0  0  0  0  0  0  0  0  0  0
    0.7500    1.2990    0.0000 C   0  0  0  0  0  0  0  0  0  0  0  0
  1  2  1  0
  2  3  2  0
  3  4  1  0
  4  5  1  0
  5  6  1  0
  6  7  2  0
  6  8  1  0
  8  9  1  0
  9 10  2  0
 10 11  1  0
 11 12  2  0
 12 13  1  0
 13 14  1  0
 14 15  1  0
 15 16  1  0
 16 17  1  0
 17 18  1  0
 18 19  1  0
 19 20  1  0
 20 21  2  0
 21 22  1  0
 22 23  2  0
 23 24  1  0
 24 25  2  0
  5 26  1  0
 26 27  1  0
 26 28  1  0
 26 29  1  0
 29  2  1  0
 13  9  1  0
 19 14  1  0
 25 20  1  0
M  END
>  <Title>  (744) 
idABARgen9

$$$$

     RDKit          2D

 43 43  0  0  0  0  0  0  0  0999 V2000
   11.2976   -0.0000    0.0000 C   0  0  0  0  0  0  0  0  0  0  0  0
    9.7976    0.0000    0.0000 C   0  0  0  0  0  0  0  0  0  0  0  0
    9.6828    1.4956    0.0000 C   0  0  0  0  0  0  0  0  0  0  0  0
    9.3410    2.9561    0.0000 C   0  0  0  0  0  0  0  0  0  0  0  0
    8.7803    4.3474    0.0000 C   0  0  0  0  0  0  0  0  0  0  0  0
    8.0138    5.6367    0.0000 C   0  0  0  0  0  0  0  0  0  0  0  0
    7.0594    6.7940    0.0000 C   0  0  0  0  0  0  0  0  0  0  0  0
    5.9396    7.7920    0.0000 C   0  0  0  0  0  0  0  0  0  0  0  0
    4.6805    8.6073    0.0000 C   0  0  0  0  0  0  0  0  0  0  0  0
    3.3118    9.2209    0.0000 C   0  0  0  0  0  0  0  0  0  0  0  0
    1.8654    9.6184    0.0000 C   0  0  0  0  0  0  0  0  0  0  0  0
    0.3753    9.7904    0.0000 C   0  0  0  0  0  0  0  0  0  0  0  0
   -1.1236    9.7330    0.0000 C   0  0  0  0  0  0  0  0  0  0  0  0
   -2.5962    9.4474    0.0000 C   0  0  0  0  0  0  0  0  0  0  0  0
   -4.0079    8.9404    0.0000 C   0  0  0  0  0  0  0  0  0  0  0  0
   -5.3257    8.2238    0.0000 C   0  0  0  0  0  0  0  0  0  0  0  0
   -6.5186    7.3144    0.0000 C   0  0  0  0  0  0  0  0  0  0  0  0
   -7.5588    6.2337    0.0000 C   0  0  0  0  0  0  0  0  0  0  0  0
   -8.4217    5.0068    0.0000 C   0  0  0  0  0  0  0  0  0  0  0  0
   -9.0873    3.6625    0.0000 C   0  0  0  0  0  0  0  0  0  0  0  0
   -9.5399    2.2324    0.0000 C   0  0  0  0  0  0  0  0  0  0  0  0
   -9.7689    0.7500    0.0000 C   0  0  0  0  0  0  0  0  0  0  0  0
   -9.7689   -0.7500    0.0000 C   0  0  0  0  0  0  0  0  0  0  0  0
   -9.5399   -2.2324    0.0000 C   0  0  0  0  0  0  0  0  0  0  0  0
   -9.0873   -3.6625    0.0000 C   0  0  0  0  0  0  0  0  0  0  0  0
   -8.4217   -5.0068    0.0000 C   0  0  0  0  0  0  0  0  0  0  0  0
   -7.5588   -6.2337    0.0000 C   0  0  0  0  0  0  0  0  0  0  0  0
   -6.5186   -7.3144    0.0000 C   0  0  0  0  0  0  0  0  0  0  0  0
   -5.3257   -8.2238    0.0000 C   0  0  0  0  0  0  0  0  0  0  0  0
   -4.0079   -8.9404    0.0000 C   0  0  0  0  0  0  0  0  0  0  0  0
   -2.5962   -9.4474    0.0000 C   0  0  0  0  0  0  0  0  0  0  0  0
   -1.1236   -9.7330    0.0000 C   0  0  0  0  0  0  0  0  0  0  0  0
    0.3753   -9.7904    0.0000 C   0  0  0  0  0  0  0  0  0  0  0  0
    1.8654   -9.6184    0.0000 C   0  0  0  0  0  0  0  0  0  0  0  0
    3.3118   -9.2209    0.0000 C   0  0  0  0  0  0  0  0  0  0  0  0
    4.6805   -8.6073    0.0000 C   0  0  0  0  0  0  0  0  0  0  0  0
    5.9396   -7.7920    0.0000 C   0  0  0  0  0  0  0  0  0  0  0  0
    7.0594   -6.7940    0.0000 C   0  0  0  0  0  0  0  0  0  0  0  0
    8.0138   -5.6367    0.0000 C   0  0  0  0  0  0  0  0  0  0  0  0
    8.7803   -4.3474    0.0000 C   0  0  0  0  0  0  0  0  0  0  0  0
    9.3410   -2.9561    0.0000 C   0  0  0  0  0  0  0  0  0  0  0  0
   10.7711   -3.4087    0.0000 C   0  0  0  0  0  0  0  0  0  0  0  0
    9.6828   -1.4956    0.0000 N   0  0  0  0  0  0  0  0  0  0  0  0
  1  2  1  0
  2  3  2  0
  3  4  1  0
  4  5  1  0
  5  6  1  0
  6  7  1  0
  7  8  1  0
  8  9  1  0
  9 10  1  0
 10 11  1  0
 11 12  1  0
 12 13  1  0
 13 14  1  0
 14 15  1  0
 15 16  1  0
 16 17  1  0
 17 18  1  0
 18 19  1  0
 19 20  1  0
 20 21  1  0
 21 22  1  0
 22 23  1  0
 23 24  1  0
 24 25  1  0
 25 26  1  0
 26 27  1  0
 27 28  1  0
 28 29  1  0
 29 30  1  0
 30 31  1  0
 31 32  1  0
 32 33  1  0
 33 34  1  0
 34 35  1  0
 35 36  1  0
 36 37  1  0
 37 38  1  0
 38 39  1  0
 39 40  1  0
 40 41  1  0
 41 42  1  0
 41 43  1  0
 43  2  1  0
M  END
>  <Title>  (745) 
idABASgen9

$$$$

     RDKit          2D

 10 10  0  0  0  0  0  0  0  0999 V2000
    5.0260   -3.8971    0.0000 C   0  0  0  0  0  0  0  0  0  0  0  0
    4.2760   -2.5981    0.0000 C   0  0  0  0  0  0  0  0  0  0  0  0
    3.5260   -1.2990    0.0000 C   0  0  0  0  0  0  0  0  0  0  0  0
    2.7760    0.0000    0.0000 C   0  0  0  0  0  0  0  0  0  0  0  0
    3.5260    1.2990    0.0000 O   0  0  0  0  0  0  0  0  0  0  0  0
    1.2760    0.0000    0.0000 C   0  0  0  0  0  0  0  0  0  0  0  0
    0.3943    1.2135    0.0000 C   0  0  0  0  0  0  0  0  0  0  0  0
   -1.0323    0.7500    0.0000 C   0  0  0  0  0  0  0  0  0  0  0  0
   -1.0323   -0.7500    0.0000 C   0  0  0  0  0  0  0  0  0  0  0  0
    0.3943   -1.2135    0.0000 C   0  0  0  0  0  0  0  0  0  0  0  0
  1  2  1  0
  2  3  3  0
  3  4  1  0
  4  5  2  0
  4  6  1  0
  6  7  2  0
  7  8  1  0
  8  9  2  0
  9 10  1  0
 10  6  1  0
M  END
>  <Title>  (746) 
idABATgen9

$$$$

     RDKit          2D

 63 72  0  0  0  0  0  0  0  0999 V2000
    6.2168   -5.0497    0.0000 C   0  0  0  0  0  0  0  0  0  0  0  0
    4.7353   -5.2844    0.0000 C   0  0  0  0  0  0  0  0  0  0  0  0
    4.2718   -3.8578    0.0000 C   0  0  0  0  0  0  0  0  0  0  0  0
    3.3901   -2.6442    0.0000 C   0  0  0  0  0  0  0  0  0  0  0  0
    4.4508   -1.5836    0.0000 C   0  0  0  0  0  0  0  0  0  0  0  0
    2.1766   -1.7626    0.0000 C   0  0  0  0  0  0  0  0  0  0  0  0
    2.8576   -0.4261    0.0000 C   0  0  0  0  0  0  0  0  0  0  0  0
    2.0406    0.8320    0.0000 O   0  0  0  0  0  0  0  0  0  0  0  0
    4.3555   -0.3475    0.0000 N   0  0  0  0  0  0  0  0  0  0  0  0
    5.0365    0.9890    0.0000 C   0  0  0  0  0  0  0  0  0  0  0  0
    6.5344    1.0675    0.0000 N   0  0  0  0  0  0  0  0  0  0  0  0
    7.2154    2.4040    0.0000 N   0  0  0  0  0  0  0  0  0  0  0  0
    6.3985    3.6620    0.0000 N   0  0  0  0  0  0  0  0  0  0  0  0
    4.9005    3.5835    0.0000 N   0  0  0  0  0  0  0  0  0  0  0  0
    4.2195    2.2470    0.0000 N   0  0  0  0  0  0  0  0  0  0  0  0
    0.7500   -1.2990    0.0000 C   0  0  0  0  0  0  0  0  0  0  0  0
    1.5000    0.0000    0.0000 C   0  0  0  0  0  0  0  0  0  0  0  0
    0.7500    1.2990    0.0000 C   0  0  0  0  0  0  0  0  0  0  0  0
   -0.7500    1.2990    0.0000 C   0  0  0  0  0  0  0  0  0  0  0  0
   -1.5000    0.0000    0.0000 C   0  0  0  0  0  0  0  0  0  0  0  0
   -0.7500   -1.2990    0.0000 C   0  0  0  0  0  0  0  0  0  0  0  0
   -2.1766   -1.7626    0.0000 C   0  0  0  0  0  0  0  0  0  0  0  0
   -2.3334   -0.2708    0.0000 C   0  0  0  0  0  0  0  0  0  0  0  0
   -3.7037    0.3393    0.0000 C   0  0  0  0  0  0  0  0  0  0  0  0
   -4.9172   -0.5424    0.0000 C   0  0  0  0  0  0  0  0  0  0  0  0
   -4.7604   -2.0341    0.0000 C   0  0  0  0  0  0  0  0  0  0  0  0
   -3.3901   -2.6442    0.0000 C   0  0  0  0  0  0  0  0  0  0  0  0
   -4.2718   -3.8578    0.0000 C   0  0  0  0  0  0  0  0  0  0  0  0
   -5.2755   -2.7430    0.0000 C   0  0  0  0  0  0  0  0  0  0  0  0
   -6.7427   -3.0549    0.0000 C   0  0  0  0  0  0  0  0  0  0  0  0
   -7.2062   -4.4815    0.0000 C   0  0  0  0  0  0  0  0  0  0  0  0
   -6.2025   -5.5962    0.0000 C   0  0  0  0  0  0  0  0  0  0  0  0
   -4.7353   -5.2844    0.0000 C   0  0  0  0  0  0  0  0  0  0  0  0
   -4.7353   -6.7844    0.0000 C   0  0  0  0  0  0  0  0  0  0  0  0
   -6.2025   -6.4725    0.0000 C   0  0  0  0  0  0  0  0  0  0  0  0
   -7.2062   -7.5872    0.0000 C   0  0  0  0  0  0  0  0  0  0  0  0
   -6.7427   -9.0138    0.0000 C   0  0  0  0  0  0  0  0  0  0  0  0
   -5.2755   -9.3257    0.0000 C   0  0  0  0  0  0  0  0  0  0  0  0
   -4.2718   -8.2109    0.0000 C   0  0  0  0  0  0  0  0  0  0  0  0
   -3.3901   -9.4245    0.0000 C   0  0  0  0  0  0  0  0  0  0  0  0
   -4.7604  -10.0346    0.0000 C   0  0  0  0  0  0  0  0  0  0  0  0
   -4.9172  -11.5263    0.0000 C   0  0  0  0  0  0  0  0  0  0  0  0
   -3.7037  -12.4080    0.0000 C   0  0  0  0  0  0  0  0  0  0  0  0
   -2.3334  -11.7979    0.0000 C   0  0  0  0  0  0  0  0  0  0  0  0
   -2.1766  -10.3061    0.0000 C   0  0  0  0  0  0  0  0  0  0  0  0
   -0.7500  -10.7697    0.0000 C   0  0  0  0  0  0  0  0  0  0  0  0
   -1.5000  -12.0687    0.0000 C   0  0  0  0  0  0  0  0  0  0  0  0
   -0.7500  -13.3677    0.0000 C   0  0  0  0  0  0  0  0  0  0  0  0
    0.7500  -13.3677    0.0000 C   0  0  0  0  0  0  0  0  0  0  0  0
    1.5000  -12.0687    0.0000 C   0  0  0  0  0  0  0  0  0  0  0  0
    0.7500  -10.7697    0.0000 C   0  0  0  0  0  0  0  0  0  0  0  0
    2.1766  -10.3061    0.0000 C   0  0  0  0  0  0  0  0  0  0  0  0
    2.3334  -11.7979    0.0000 C   0  0  0  0  0  0  0  0  0  0  0  0
    3.7037  -12.4080    0.0000 C   0  0  0  0  0  0  0  0  0  0  0  0
    4.9172  -11.5263    0.0000 C   0  0  0  0  0  0  0  0  0  0  0  0
    4.7604  -10.0346    0.0000 C   0  0  0  0  0  0  0  0  0  0  0  0
    3.3901   -9.4245    0.0000 C   0  0  0  0  0  0  0  0  0  0  0  0
    4.2718   -8.2109    0.0000 C   0  0  0  0  0  0  0  0  0  0  0  0
    5.2755   -9.3257    0.0000 C   0  0  0  0  0  0  0  0  0  0  0  0
    6.7427   -9.0138    0.0000 C   0  0  0  0  0  0  0  0  0  0  0  0
    7.2062   -7.5872    0.0000 C   0  0  0  0  0  0  0  0  0  0  0  0
    6.2025   -6.4725    0.0000 C   0  0  0  0  0  0  0  0  0  0  0  0
    4.7353   -6.7844    0.0000 C   0  0  0  0  0  0  0  0  0  0  0  0
  1  2  1  0
  2  3  2  0
  3  4  1  0
  4  5  1  0
  4  6  1  0
  6  7  1  0
  7  8  2  0
  7  9  1  0
  9 10  1  0
 10 11  2  0
 11 12  1  0
 12 13  2  0
 13 14  1  0
 14 15  2  0
  6 16  1  0
 16 17  2  0
 17 18  1  0
 18 19  2  0
 19 20  1  0
 20 21  2  0
 21 22  1  0
 22 23  2  0
 23 24  1  0
 24 25  2  0
 25 26  1  0
 26 27  2  0
 27 28  1  0
 28 29  2  0
 29 30  1  0
 30 31  2  0
 31 32  1  0
 32 33  2  0
 33 34  1  0
 34 35  2  0
 35 36  1  0
 36 37  2  0
 37 38  1  0
 38 39  2  0
 39 40  1  0
 40 41  2  0
 41 42  1  0
 42 43  2  0
 43 44  1  0
 44 45  2  0
 45 46  1  0
 46 47  2  0
 47 48  1  0
 48 49  2  0
 49 50  1  0
 50 51  2  0
 51 52  1  0
 52 53  2  0
 53 54  1  0
 54 55  2  0
 55 56  1  0
 56 57  2  0
 57 58  1  0
 58 59  2  0
 59 60  1  0
 60 61  2  0
 61 62  1  0
 62 63  2  0
 63  2  1  0
 15 10  1  0
 21 16  1  0
 27 22  1  0
 33 28  1  0
 39 34  1  0
 45 40  1  0
 51 46  1  0
 57 52  1  0
 63 58  1  0
M  END
>  <Title>  (747) 
idABAUgen9

$$$$

     RDKit          2D

 53 53  0  0  0  0  0  0  0  0999 V2000
   13.2059   -2.5981    0.0000 O   0  0  0  0  0  0  0  0  0  0  0  0
   13.9559   -1.2990    0.0000 C   0  0  0  0  0  0  0  0  0  0  0  0
   15.4559   -1.2990    0.0000 O   0  0  0  0  0  0  0  0  0  0  0  0
   13.2059   -0.0000    0.0000 O   0  0  0  0  0  0  0  0  0  0  0  0
   11.7059    0.0000    0.0000 C   0  0  0  0  0  0  0  0  0  0  0  0
   11.6098    1.4969    0.0000 C   0  0  0  0  0  0  0  0  0  0  0  0
   11.3231    2.9693    0.0000 C   0  0  0  0  0  0  0  0  0  0  0  0
   10.8504    4.3928    0.0000 C   0  0  0  0  0  0  0  0  0  0  0  0
   10.1996    5.7443    0.0000 C   0  0  0  0  0  0  0  0  0  0  0  0
    9.3813    7.0014    0.0000 C   0  0  0  0  0  0  0  0  0  0  0  0
    8.4089    8.1436    0.0000 C   0  0  0  0  0  0  0  0  0  0  0  0
    7.2985    9.1520    0.0000 C   0  0  0  0  0  0  0  0  0  0  0  0
    6.0683   10.0102    0.0000 C   0  0  0  0  0  0  0  0  0  0  0  0
    4.7384   10.7040    0.0000 C   0  0  0  0  0  0  0  0  0  0  0  0
    3.3307   11.2221    0.0000 C   0  0  0  0  0  0  0  0  0  0  0  0
    1.8683   11.5559    0.0000 C   0  0  0  0  0  0  0  0  0  0  0  0
    0.3752   11.6999    0.0000 C   0  0  0  0  0  0  0  0  0  0  0  0
   -1.1240   11.6518    0.0000 C   0  0  0  0  0  0  0  0  0  0  0  0
   -2.6048   11.4124    0.0000 C   0  0  0  0  0  0  0  0  0  0  0  0
   -4.0428   10.9856    0.0000 C   0  0  0  0  0  0  0  0  0  0  0  0
   -5.4144   10.3784    0.0000 C   0  0  0  0  0  0  0  0  0  0  0  0
   -6.6971    9.6009    0.0000 C   0  0  0  0  0  0  0  0  0  0  0  0
   -7.8699    8.6656    0.0000 C   0  0  0  0  0  0  0  0  0  0  0  0
   -8.9134    7.5881    0.0000 C   0  0  0  0  0  0  0  0  0  0  0  0
   -9.8106    6.3860    0.0000 C   0  0  0  0  0  0  0  0  0  0  0  0
  -10.5467    5.0790    0.0000 C   0  0  0  0  0  0  0  0  0  0  0  0
  -11.1096    3.6886    0.0000 C   0  0  0  0  0  0  0  0  0  0  0  0
  -11.4900    2.2377    0.0000 C   0  0  0  0  0  0  0  0  0  0  0  0
  -11.6819    0.7500    0.0000 C   0  0  0  0  0  0  0  0  0  0  0  0
  -11.6819   -0.7500    0.0000 C   0  0  0  0  0  0  0  0  0  0  0  0
  -11.4900   -2.2377    0.0000 C   0  0  0  0  0  0  0  0  0  0  0  0
  -11.1096   -3.6886    0.0000 C   0  0  0  0  0  0  0  0  0  0  0  0
  -10.5467   -5.0790    0.0000 C   0  0  0  0  0  0  0  0  0  0  0  0
   -9.8106   -6.3860    0.0000 C   0  0  0  0  0  0  0  0  0  0  0  0
   -8.9134   -7.5881    0.0000 C   0  0  0  0  0  0  0  0  0  0  0  0
   -7.8699   -8.6656    0.0000 C   0  0  0  0  0  0  0  0  0  0  0  0
   -6.6971   -9.6009    0.0000 C   0  0  0  0  0  0  0  0  0  0  0  0
   -5.4144  -10.3784    0.0000 C   0  0  0  0  0  0  0  0  0  0  0  0
   -4.0428  -10.9856    0.0000 C   0  0  0  0  0  0  0  0  0  0  0  0
   -2.6048  -11.4124    0.0000 C   0  0  0  0  0  0  0  0  0  0  0  0
   -1.1240  -11.6518    0.0000 C   0  0  0  0  0  0  0  0  0  0  0  0
    0.3752  -11.6999    0.0000 C   0  0  0  0  0  0  0  0  0  0  0  0
    1.8683  -11.5559    0.0000 C   0  0  0  0  0  0  0  0  0  0  0  0
    3.3307  -11.2221    0.0000 C   0  0  0  0  0  0  0  0  0  0  0  0
    4.7384  -10.7040    0.0000 C   0  0  0  0  0  0  0  0  0  0  0  0
    6.0683  -10.0102    0.0000 C   0  0  0  0  0  0  0  0  0  0  0  0
    7.2985   -9.1520    0.0000 C   0  0  0  0  0  0  0  0  0  0  0  0
    8.4089   -8.1436    0.0000 C   0  0  0  0  0  0  0  0  0  0  0  0
    9.3813   -7.0014    0.0000 C   0  0  0  0  0  0  0  0  0  0  0  0
   10.1996   -5.7443    0.0000 C   0  0  0  0  0  0  0  0  0  0  0  0
   10.8504   -4.3928    0.0000 C   0  0  0  0  0  0  0  0  0  0  0  0
   11.3231   -2.9693    0.0000 C   0  0  0  0  0  0  0  0  0  0  0  0
   11.6098   -1.4969    0.0000 C   0  0  0  0  0  0  0  0  0  0  0  0
  1  2  2  0
  2  3  1  0
  2  4  1  0
  4  5  1  0
  5  6  1  0
  6  7  2  0
  7  8  1  0
  8  9  2  0
  9 10  1  0
 10 11  1  0
 11 12  1  0
 12 13  1  0
 13 14  1  0
 14 15  1  0
 15 16  1  0
 16 17  1  0
 17 18  1  0
 18 19  1  0
 19 20  1  0
 20 21  1  0
 21 22  1  0
 22 23  1  0
 23 24  1  0
 24 25  1  0
 25 26  1  0
 26 27  1  0
 27 28  1  0
 28 29  1  0
 29 30  1  0
 30 31  1  0
 31 32  1  0
 32 33  1  0
 33 34  1  0
 34 35  2  0
 35 36  1  0
 36 37  2  0
 37 38  1  0
 38 39  2  0
 39 40  1  0
 40 41  2  0
 41 42  1  0
 42 43  2  0
 43 44  1  0
 44 45  2  0
 45 46  1  0
 46 47  1  0
 47 48  1  0
 48 49  1  0
 49 50  1  0
 50 51  1  0
 51 52  1  0
 52 53  2  0
 53  5  1  0
M  END
>  <Title>  (748) 
idABAVgen9

$$$$

     RDKit          2D

113113  0  0  0  0  0  0  0  0999 V2000
   27.5254   -2.5981    0.0000 O   0  0  0  0  0  0  0  0  0  0  0  0
   28.2754   -1.2990    0.0000 C   0  0  0  0  0  0  0  0  0  0  0  0
   29.7754   -1.2990    0.0000 O   0  0  0  0  0  0  0  0  0  0  0  0
   27.5254    0.0000    0.0000 O   0  0  0  0  0  0  0  0  0  0  0  0
   26.0254    0.0000    0.0000 C   0  0  0  0  0  0  0  0  0  0  0  0
   25.9822    1.4994    0.0000 C   0  0  0  0  0  0  0  0  0  0  0  0
   25.8527    2.9938    0.0000 C   0  0  0  0  0  0  0  0  0  0  0  0
   25.6373    4.4782    0.0000 C   0  0  0  0  0  0  0  0  0  0  0  0
   25.3367    5.9478    0.0000 C   0  0  0  0  0  0  0  0  0  0  0  0
   24.9519    7.3976    0.0000 C   0  0  0  0  0  0  0  0  0  0  0  0
   24.4843    8.8229    0.0000 C   0  0  0  0  0  0  0  0  0  0  0  0
   23.9353   10.2188    0.0000 C   0  0  0  0  0  0  0  0  0  0  0  0
   23.3068   11.5808    0.0000 C   0  0  0  0  0  0  0  0  0  0  0  0
   22.6009   12.9043    0.0000 C   0  0  0  0  0  0  0  0  0  0  0  0
   21.8200   14.1850    0.0000 C   0  0  0  0  0  0  0  0  0  0  0  0
   20.9665   15.4185    0.0000 C   0  0  0  0  0  0  0  0  0  0  0  0
   20.0434   16.6008    0.0000 C   0  0  0  0  0  0  0  0  0  0  0  0
   19.0537   17.7280    0.0000 C   0  0  0  0  0  0  0  0  0  0  0  0
   18.0007   18.7962    0.0000 C   0  0  0  0  0  0  0  0  0  0  0  0
   16.8879   19.8021    0.0000 C   0  0  0  0  0  0  0  0  0  0  0  0
   15.7190   20.7421    0.0000 C   0  0  0  0  0  0  0  0  0  0  0  0
   14.4979   21.6133    0.0000 C   0  0  0  0  0  0  0  0  0  0  0  0
   13.2287   22.4126    0.0000 C   0  0  0  0  0  0  0  0  0  0  0  0
   11.9154   23.1375    0.0000 C   0  0  0  0  0  0  0  0  0  0  0  0
   10.5627   23.7856    0.0000 C   0  0  0  0  0  0  0  0  0  0  0  0
    9.1748   24.3546    0.0000 C   0  0  0  0  0  0  0  0  0  0  0  0
    7.7564   24.8427    0.0000 C   0  0  0  0  0  0  0  0  0  0  0  0
    6.3123   25.2483    0.0000 C   0  0  0  0  0  0  0  0  0  0  0  0
    4.8472   25.5701    0.0000 C   0  0  0  0  0  0  0  0  0  0  0  0
    3.3660   25.8068    0.0000 C   0  0  0  0  0  0  0  0  0  0  0  0
    1.8736   25.9579    0.0000 C   0  0  0  0  0  0  0  0  0  0  0  0
    0.3750   26.0227    0.0000 C   0  0  0  0  0  0  0  0  0  0  0  0
   -1.1248   26.0011    0.0000 C   0  0  0  0  0  0  0  0  0  0  0  0
   -2.6209   25.8931    0.0000 C   0  0  0  0  0  0  0  0  0  0  0  0
   -4.1083   25.6991    0.0000 C   0  0  0  0  0  0  0  0  0  0  0  0
   -5.5821   25.4198    0.0000 C   0  0  0  0  0  0  0  0  0  0  0  0
   -7.0373   25.0559    0.0000 C   0  0  0  0  0  0  0  0  0  0  0  0
   -8.4691   24.6089    0.0000 C   0  0  0  0  0  0  0  0  0  0  0  0
   -9.8728   24.0801    0.0000 C   0  0  0  0  0  0  0  0  0  0  0  0
  -11.2437   23.4713    0.0000 C   0  0  0  0  0  0  0  0  0  0  0  0
  -12.5773   22.7845    0.0000 C   0  0  0  0  0  0  0  0  0  0  0  0
  -13.8690   22.0221    0.0000 C   0  0  0  0  0  0  0  0  0  0  0  0
  -15.1147   21.1865    0.0000 C   0  0  0  0  0  0  0  0  0  0  0  0
  -16.3102   20.2805    0.0000 C   0  0  0  0  0  0  0  0  0  0  0  0
  -17.4515   19.3072    0.0000 C   0  0  0  0  0  0  0  0  0  0  0  0
  -18.5349   18.2697    0.0000 C   0  0  0  0  0  0  0  0  0  0  0  0
  -19.5567   17.1715    0.0000 C   0  0  0  0  0  0  0  0  0  0  0  0
  -20.5135   16.0163    0.0000 C   0  0  0  0  0  0  0  0  0  0  0  0
  -21.4021   14.8079    0.0000 C   0  0  0  0  0  0  0  0  0  0  0  0
  -22.2197   13.5503    0.0000 C   0  0  0  0  0  0  0  0  0  0  0  0
  -22.9634   12.2476    0.0000 C   0  0  0  0  0  0  0  0  0  0  0  0
  -23.6309   10.9043    0.0000 C   0  0  0  0  0  0  0  0  0  0  0  0
  -24.2199    9.5248    0.0000 C   0  0  0  0  0  0  0  0  0  0  0  0
  -24.7284    8.1136    0.0000 C   0  0  0  0  0  0  0  0  0  0  0  0
  -25.1547    6.6755    0.0000 C   0  0  0  0  0  0  0  0  0  0  0  0
  -25.4976    5.2152    0.0000 C   0  0  0  0  0  0  0  0  0  0  0  0
  -25.7557    3.7376    0.0000 C   0  0  0  0  0  0  0  0  0  0  0  0
  -25.9282    2.2475    0.0000 C   0  0  0  0  0  0  0  0  0  0  0  0
  -26.0146    0.7500    0.0000 C   0  0  0  0  0  0  0  0  0  0  0  0
  -26.0146   -0.7500    0.0000 C   0  0  0  0  0  0  0  0  0  0  0  0
  -25.9282   -2.2475    0.0000 C   0  0  0  0  0  0  0  0  0  0  0  0
  -25.7557   -3.7376    0.0000 C   0  0  0  0  0  0  0  0  0  0  0  0
  -25.4976   -5.2152    0.0000 C   0  0  0  0  0  0  0  0  0  0  0  0
  -25.1547   -6.6755    0.0000 C   0  0  0  0  0  0  0  0  0  0  0  0
  -24.7284   -8.1136    0.0000 C   0  0  0  0  0  0  0  0  0  0  0  0
  -24.2199   -9.5248    0.0000 C   0  0  0  0  0  0  0  0  0  0  0  0
  -23.6309  -10.9043    0.0000 C   0  0  0  0  0  0  0  0  0  0  0  0
  -22.9634  -12.2476    0.0000 C   0  0  0  0  0  0  0  0  0  0  0  0
  -22.2197  -13.5503    0.0000 C   0  0  0  0  0  0  0  0  0  0  0  0
  -21.4021  -14.8079    0.0000 C   0  0  0  0  0  0  0  0  0  0  0  0
  -20.5135  -16.0163    0.0000 C   0  0  0  0  0  0  0  0  0  0  0  0
  -19.5567  -17.1715    0.0000 C   0  0  0  0  0  0  0  0  0  0  0  0
  -18.5349  -18.2697    0.0000 C   0  0  0  0  0  0  0  0  0  0  0  0
  -17.4515  -19.3072    0.0000 C   0  0  0  0  0  0  0  0  0  0  0  0
  -16.3102  -20.2805    0.0000 C   0  0  0  0  0  0  0  0  0  0  0  0
  -15.1147  -21.1865    0.0000 C   0  0  0  0  0  0  0  0  0  0  0  0
  -13.8690  -22.0221    0.0000 C   0  0  0  0  0  0  0  0  0  0  0  0
  -12.5773  -22.7845    0.0000 C   0  0  0  0  0  0  0  0  0  0  0  0
  -11.2437  -23.4713    0.0000 C   0  0  0  0  0  0  0  0  0  0  0  0
   -9.8728  -24.0801    0.0000 C   0  0  0  0  0  0  0  0  0  0  0  0
   -8.4691  -24.6089    0.0000 C   0  0  0  0  0  0  0  0  0  0  0  0
   -7.0373  -25.0559    0.0000 C   0  0  0  0  0  0  0  0  0  0  0  0
   -5.5821  -25.4198    0.0000 C   0  0  0  0  0  0  0  0  0  0  0  0
   -4.1083  -25.6991    0.0000 C   0  0  0  0  0  0  0  0  0  0  0  0
   -2.6209  -25.8931    0.0000 C   0  0  0  0  0  0  0  0  0  0  0  0
   -1.1248  -26.0011    0.0000 C   0  0  0  0  0  0  0  0  0  0  0  0
    0.3750  -26.0227    0.0000 C   0  0  0  0  0  0  0  0  0  0  0  0
    1.8736  -25.9579    0.0000 C   0  0  0  0  0  0  0  0  0  0  0  0
    3.3660  -25.8068    0.0000 C   0  0  0  0  0  0  0  0  0  0  0  0
    4.8472  -25.5701    0.0000 C   0  0  0  0  0  0  0  0  0  0  0  0
    6.3123  -25.2483    0.0000 C   0  0  0  0  0  0  0  0  0  0  0  0
    7.7564  -24.8427    0.0000 C   0  0  0  0  0  0  0  0  0  0  0  0
    9.1748  -24.3546    0.0000 C   0  0  0  0  0  0  0  0  0  0  0  0
   10.5627  -23.7856    0.0000 C   0  0  0  0  0  0  0  0  0  0  0  0
   11.9154  -23.1375    0.0000 C   0  0  0  0  0  0  0  0  0  0  0  0
   13.2287  -22.4126    0.0000 C   0  0  0  0  0  0  0  0  0  0  0  0
   14.4979  -21.6133    0.0000 C   0  0  0  0  0  0  0  0  0  0  0  0
   15.7190  -20.7421    0.0000 C   0  0  0  0  0  0  0  0  0  0  0  0
   16.8879  -19.8021    0.0000 C   0  0  0  0  0  0  0  0  0  0  0  0
   18.0007  -18.7962    0.0000 C   0  0  0  0  0  0  0  0  0  0  0  0
   19.0537  -17.7280    0.0000 C   0  0  0  0  0  0  0  0  0  0  0  0
   20.0434  -16.6008    0.0000 C   0  0  0  0  0  0  0  0  0  0  0  0
   20.9665  -15.4185    0.0000 C   0  0  0  0  0  0  0  0  0  0  0  0
   21.8200  -14.1850    0.0000 C   0  0  0  0  0  0  0  0  0  0  0  0
   22.6009  -12.9043    0.0000 C   0  0  0  0  0  0  0  0  0  0  0  0
   23.3068  -11.5808    0.0000 C   0  0  0  0  0  0  0  0  0  0  0  0
   23.9353  -10.2188    0.0000 C   0  0  0  0  0  0  0  0  0  0  0  0
   24.4843   -8.8229    0.0000 C   0  0  0  0  0  0  0  0  0  0  0  0
   24.9519   -7.3976    0.0000 C   0  0  0  0  0  0  0  0  0  0  0  0
   25.3367   -5.9478    0.0000 C   0  0  0  0  0  0  0  0  0  0  0  0
   25.6373   -4.4782    0.0000 C   0  0  0  0  0  0  0  0  0  0  0  0
   25.8527   -2.9938    0.0000 C   0  0  0  0  0  0  0  0  0  0  0  0
   25.9822   -1.4994    0.0000 C   0  0  0  0  0  0  0  0  0  0  0  0
  1  2  2  0
  2  3  1  0
  2  4  1  0
  4  5  1  0
  5  6  1  0
  6  7  2  0
  7  8  1  0
  8  9  1  0
  9 10  1  0
 10 11  1  0
 11 12  1  0
 12 13  1  0
 13 14  1  0
 14 15  1  0
 15 16  1  0
 16 17  1  0
 17 18  1  0
 18 19  1  0
 19 20  1  0
 20 21  1  0
 21 22  1  0
 22 23  1  0
 23 24  1  0
 24 25  1  0
 25 26  1  0
 26 27  1  0
 27 28  1  0
 28 29  1  0
 29 30  1  0
 30 31  1  0
 31 32  1  0
 32 33  1  0
 33 34  1  0
 34 35  1  0
 35 36  1  0
 36 37  1  0
 37 38  1  0
 38 39  1  0
 39 40  1  0
 40 41  1  0
 41 42  1  0
 42 43  1  0
 43 44  1  0
 44 45  1  0
 45 46  1  0
 46 47  1  0
 47 48  1  0
 48 49  1  0
 49 50  1  0
 50 51  1  0
 51 52  1  0
 52 53  1  0
 53 54  1  0
 54 55  1  0
 55 56  1  0
 56 57  1  0
 57 58  1  0
 58 59  1  0
 59 60  1  0
 60 61  1  0
 61 62  1  0
 62 63  1  0
 63 64  1  0
 64 65  1  0
 65 66  1  0
 66 67  1  0
 67 68  1  0
 68 69  1  0
 69 70  1  0
 70 71  1  0
 71 72  1  0
 72 73  1  0
 73 74  1  0
 74 75  1  0
 75 76  1  0
 76 77  1  0
 77 78  1  0
 78 79  1  0
 79 80  1  0
 80 81  1  0
 81 82  1  0
 82 83  1  0
 83 84  1  0
 84 85  1  0
 85 86  1  0
 86 87  1  0
 87 88  1  0
 88 89  1  0
 89 90  1  0
 90 91  1  0
 91 92  1  0
 92 93  1  0
 93 94  1  0
 94 95  1  0
 95 96  1  0
 96 97  1  0
 97 98  1  0
 98 99  1  0
 99100  1  0
100101  1  0
101102  1  0
102103  1  0
103104  1  0
104105  1  0
105106  1  0
106107  1  0
107108  1  0
108109  1  0
109110  1  0
110111  1  0
111112  1  0
112113  1  0
113  5  1  0
M  END
>  <Title>  (749) 
idABAWgen9

$$$$

     RDKit          2D

126126  0  0  0  0  0  0  0  0999 V2000
   45.2867  -10.3923    0.0000 C   0  0  0  0  0  0  0  0  0  0  0  0
   43.7867  -10.3923    0.0000 C   0  0  0  0  0  0  0  0  0  0  0  0
   43.0367   -9.0933    0.0000 C   0  0  0  0  0  0  0  0  0  0  0  0
   41.5367   -9.0933    0.0000 C   0  0  0  0  0  0  0  0  0  0  0  0
   40.7867   -7.7942    0.0000 C   0  0  0  0  0  0  0  0  0  0  0  0
   39.2867   -7.7942    0.0000 C   0  0  0  0  0  0  0  0  0  0  0  0
   38.5367   -6.4952    0.0000 C   0  0  0  0  0  0  0  0  0  0  0  0
   37.0367   -6.4952    0.0000 C   0  0  0  0  0  0  0  0  0  0  0  0
   36.2867   -5.1962    0.0000 C   0  0  0  0  0  0  0  0  0  0  0  0
   34.7867   -5.1962    0.0000 C   0  0  0  0  0  0  0  0  0  0  0  0
   34.0367   -3.8971    0.0000 C   0  0  0  0  0  0  0  0  0  0  0  0
   32.5367   -3.8971    0.0000 C   0  0  0  0  0  0  0  0  0  0  0  0
   31.7867   -2.5981    0.0000 C   0  0  0  0  0  0  0  0  0  0  0  0
   30.2867   -2.5981    0.0000 C   0  0  0  0  0  0  0  0  0  0  0  0
   29.5367   -1.2990    0.0000 C   0  0  0  0  0  0  0  0  0  0  0  0
   28.0367   -1.2990    0.0000 C   0  0  0  0  0  0  0  0  0  0  0  0
   27.2867    0.0000    0.0000 C   0  0  0  0  0  0  0  0  0  0  0  0
   25.7867    0.0000    0.0000 C   0  0  0  0  0  0  0  0  0  0  0  0
   25.7431   -1.4994    0.0000 C   0  0  0  0  0  0  0  0  0  0  0  0
   25.6124   -2.9937    0.0000 C   0  0  0  0  0  0  0  0  0  0  0  0
   25.3950   -4.4778    0.0000 C   0  0  0  0  0  0  0  0  0  0  0  0
   25.0917   -5.9468    0.0000 C   0  0  0  0  0  0  0  0  0  0  0  0
   24.7034   -7.3957    0.0000 C   0  0  0  0  0  0  0  0  0  0  0  0
   24.2316   -8.8196    0.0000 C   0  0  0  0  0  0  0  0  0  0  0  0
   23.6778  -10.2136    0.0000 C   0  0  0  0  0  0  0  0  0  0  0  0
   23.0439  -11.5731    0.0000 C   0  0  0  0  0  0  0  0  0  0  0  0
   22.3320  -12.8934    0.0000 C   0  0  0  0  0  0  0  0  0  0  0  0
   21.5445  -14.1700    0.0000 C   0  0  0  0  0  0  0  0  0  0  0  0
   20.6841  -15.3988    0.0000 C   0  0  0  0  0  0  0  0  0  0  0  0
   19.7538  -16.5754    0.0000 C   0  0  0  0  0  0  0  0  0  0  0  0
   18.7566  -17.6959    0.0000 C   0  0  0  0  0  0  0  0  0  0  0  0
   17.6959  -18.7566    0.0000 C   0  0  0  0  0  0  0  0  0  0  0  0
   16.5754  -19.7538    0.0000 C   0  0  0  0  0  0  0  0  0  0  0  0
   15.3988  -20.6841    0.0000 C   0  0  0  0  0  0  0  0  0  0  0  0
   14.1700  -21.5445    0.0000 C   0  0  0  0  0  0  0  0  0  0  0  0
   12.8934  -22.3320    0.0000 C   0  0  0  0  0  0  0  0  0  0  0  0
   11.5731  -23.0439    0.0000 C   0  0  0  0  0  0  0  0  0  0  0  0
   10.2136  -23.6778    0.0000 C   0  0  0  0  0  0  0  0  0  0  0  0
    8.8196  -24.2316    0.0000 C   0  0  0  0  0  0  0  0  0  0  0  0
    7.3957  -24.7034    0.0000 C   0  0  0  0  0  0  0  0  0  0  0  0
    5.9468  -25.0917    0.0000 C   0  0  0  0  0  0  0  0  0  0  0  0
    4.4778  -25.3950    0.0000 C   0  0  0  0  0  0  0  0  0  0  0  0
    2.9937  -25.6124    0.0000 C   0  0  0  0  0  0  0  0  0  0  0  0
    1.4994  -25.7431    0.0000 C   0  0  0  0  0  0  0  0  0  0  0  0
   -0.0000  -25.7867    0.0000 C   0  0  0  0  0  0  0  0  0  0  0  0
   -1.4994  -25.7431    0.0000 C   0  0  0  0  0  0  0  0  0  0  0  0
   -2.9937  -25.6124    0.0000 C   0  0  0  0  0  0  0  0  0  0  0  0
   -4.4778  -25.3950    0.0000 C   0  0  0  0  0  0  0  0  0  0  0  0
   -5.9468  -25.0917    0.0000 C   0  0  0  0  0  0  0  0  0  0  0  0
   -7.3957  -24.7034    0.0000 C   0  0  0  0  0  0  0  0  0  0  0  0
   -8.8196  -24.2316    0.0000 C   0  0  0  0  0  0  0  0  0  0  0  0
  -10.2136  -23.6778    0.0000 C   0  0  0  0  0  0  0  0  0  0  0  0
  -11.5731  -23.0439    0.0000 C   0  0  0  0  0  0  0  0  0  0  0  0
  -12.8934  -22.3320    0.0000 C   0  0  0  0  0  0  0  0  0  0  0  0
  -14.1700  -21.5445    0.0000 C   0  0  0  0  0  0  0  0  0  0  0  0
  -15.3988  -20.6841    0.0000 C   0  0  0  0  0  0  0  0  0  0  0  0
  -16.5754  -19.7538    0.0000 C   0  0  0  0  0  0  0  0  0  0  0  0
  -17.6959  -18.7566    0.0000 C   0  0  0  0  0  0  0  0  0  0  0  0
  -18.7566  -17.6959    0.0000 C   0  0  0  0  0  0  0  0  0  0  0  0
  -19.7538  -16.5754    0.0000 C   0  0  0  0  0  0  0  0  0  0  0  0
  -20.6841  -15.3988    0.0000 C   0  0  0  0  0  0  0  0  0  0  0  0
  -21.5445  -14.1700    0.0000 C   0  0  0  0  0  0  0  0  0  0  0  0
  -22.3320  -12.8934    0.0000 C   0  0  0  0  0  0  0  0  0  0  0  0
  -23.0439  -11.5731    0.0000 C   0  0  0  0  0  0  0  0  0  0  0  0
  -23.6778  -10.2136    0.0000 C   0  0  0  0  0  0  0  0  0  0  0  0
  -24.2316   -8.8196    0.0000 C   0  0  0  0  0  0  0  0  0  0  0  0
  -24.7034   -7.3957    0.0000 C   0  0  0  0  0  0  0  0  0  0  0  0
  -25.0917   -5.9468    0.0000 C   0  0  0  0  0  0  0  0  0  0  0  0
  -25.3950   -4.4778    0.0000 C   0  0  0  0  0  0  0  0  0  0  0  0
  -25.6124   -2.9937    0.0000 C   0  0  0  0  0  0  0  0  0  0  0  0
  -25.7431   -1.4994    0.0000 C   0  0  0  0  0  0  0  0  0  0  0  0
  -25.7867    0.0000    0.0000 C   0  0  0  0  0  0  0  0  0  0  0  0
  -25.7431    1.4994    0.0000 C   0  0  0  0  0  0  0  0  0  0  0  0
  -25.6124    2.9937    0.0000 C   0  0  0  0  0  0  0  0  0  0  0  0
  -25.3950    4.4778    0.0000 C   0  0  0  0  0  0  0  0  0  0  0  0
  -25.0917    5.9468    0.0000 C   0  0  0  0  0  0  0  0  0  0  0  0
  -24.7034    7.3957    0.0000 C   0  0  0  0  0  0  0  0  0  0  0  0
  -24.2316    8.8196    0.0000 C   0  0  0  0  0  0  0  0  0  0  0  0
  -23.6778   10.2136    0.0000 C   0  0  0  0  0  0  0  0  0  0  0  0
  -23.0439   11.5731    0.0000 C   0  0  0  0  0  0  0  0  0  0  0  0
  -22.3320   12.8934    0.0000 C   0  0  0  0  0  0  0  0  0  0  0  0
  -21.5445   14.1700    0.0000 C   0  0  0  0  0  0  0  0  0  0  0  0
  -20.6841   15.3988    0.0000 C   0  0  0  0  0  0  0  0  0  0  0  0
  -19.7538   16.5754    0.0000 C   0  0  0  0  0  0  0  0  0  0  0  0
  -18.7566   17.6959    0.0000 C   0  0  0  0  0  0  0  0  0  0  0  0
  -17.6959   18.7566    0.0000 C   0  0  0  0  0  0  0  0  0  0  0  0
  -16.5754   19.7538    0.0000 C   0  0  0  0  0  0  0  0  0  0  0  0
  -15.3988   20.6841    0.0000 C   0  0  0  0  0  0  0  0  0  0  0  0
  -14.1700   21.5445    0.0000 C   0  0  0  0  0  0  0  0  0  0  0  0
  -12.8934   22.3320    0.0000 C   0  0  0  0  0  0  0  0  0  0  0  0
  -11.5731   23.0439    0.0000 C   0  0  0  0  0  0  0  0  0  0  0  0
  -10.2136   23.6778    0.0000 C   0  0  0  0  0  0  0  0  0  0  0  0
   -8.8196   24.2316    0.0000 C   0  0  0  0  0  0  0  0  0  0  0  0
   -7.3957   24.7034    0.0000 C   0  0  0  0  0  0  0  0  0  0  0  0
   -5.9468   25.0917    0.0000 C   0  0  0  0  0  0  0  0  0  0  0  0
   -4.4778   25.3950    0.0000 C   0  0  0  0  0  0  0  0  0  0  0  0
   -2.9937   25.6124    0.0000 C   0  0  0  0  0  0  0  0  0  0  0  0
   -1.4994   25.7431    0.0000 C   0  0  0  0  0  0  0  0  0  0  0  0
    0.0000   25.7867    0.0000 C   0  0  0  0  0  0  0  0  0  0  0  0
    1.4994   25.7431    0.0000 C   0  0  0  0  0  0  0  0  0  0  0  0
    2.9937   25.6124    0.0000 C   0  0  0  0  0  0  0  0  0  0  0  0
    4.4778   25.3950    0.0000 C   0  0  0  0  0  0  0  0  0  0  0  0
    5.9468   25.0917    0.0000 C   0  0  0  0  0  0  0  0  0  0  0  0
    7.3957   24.7034    0.0000 C   0  0  0  0  0  0  0  0  0  0  0  0
    8.8196   24.2316    0.0000 C   0  0  0  0  0  0  0  0  0  0  0  0
   10.2136   23.6778    0.0000 C   0  0  0  0  0  0  0  0  0  0  0  0
   11.5731   23.0439    0.0000 C   0  0  0  0  0  0  0  0  0  0  0  0
   12.8934   22.3320    0.0000 C   0  0  0  0  0  0  0  0  0  0  0  0
   14.1700   21.5445    0.0000 C   0  0  0  0  0  0  0  0  0  0  0  0
   15.3988   20.6841    0.0000 C   0  0  0  0  0  0  0  0  0  0  0  0
   16.5754   19.7538    0.0000 C   0  0  0  0  0  0  0  0  0  0  0  0
   17.6959   18.7566    0.0000 C   0  0  0  0  0  0  0  0  0  0  0  0
   18.7566   17.6959    0.0000 C   0  0  0  0  0  0  0  0  0  0  0  0
   19.7538   16.5754    0.0000 C   0  0  0  0  0  0  0  0  0  0  0  0
   20.6841   15.3988    0.0000 C   0  0  0  0  0  0  0  0  0  0  0  0
   21.5445   14.1700    0.0000 C   0  0  0  0  0  0  0  0  0  0  0  0
   22.3320   12.8934    0.0000 C   0  0  0  0  0  0  0  0  0  0  0  0
   23.0439   11.5731    0.0000 C   0  0  0  0  0  0  0  0  0  0  0  0
   23.6778   10.2136    0.0000 C   0  0  0  0  0  0  0  0  0  0  0  0
   24.2316    8.8196    0.0000 C   0  0  0  0  0  0  0  0  0  0  0  0
   24.7034    7.3957    0.0000 C   0  0  0  0  0  0  0  0  0  0  0  0
   25.0917    5.9468    0.0000 C   0  0  0  0  0  0  0  0  0  0  0  0
   25.3950    4.4778    0.0000 C   0  0  0  0  0  0  0  0  0  0  0  0
   25.6124    2.9937    0.0000 C   0  0  0  0  0  0  0  0  0  0  0  0
   25.7431    1.4994    0.0000 C   0  0  0  0  0  0  0  0  0  0  0  0
   27.2406    1.5866    0.0000 C   0  0  0  0  0  0  0  0  0  0  0  0
  1  2  1  0
  2  3  1  0
  3  4  1  0
  4  5  1  0
  5  6  1  0
  6  7  1  0
  7  8  1  0
  8  9  1  0
  9 10  1  0
 10 11  1  0
 11 12  1  0
 12 13  1  0
 13 14  1  0
 14 15  1  0
 15 16  1  0
 16 17  1  0
 17 18  1  0
 18 19  1  0
 19 20  1  0
 20 21  1  0
 21 22  1  0
 22 23  1  0
 23 24  1  0
 24 25  1  0
 25 26  1  0
 26 27  1  0
 27 28  1  0
 28 29  1  0
 29 30  1  0
 30 31  1  0
 31 32  1  0
 32 33  1  0
 33 34  1  0
 34 35  1  0
 35 36  1  0
 36 37  1  0
 37 38  1  0
 38 39  1  0
 39 40  1  0
 40 41  1  0
 41 42  1  0
 42 43  1  0
 43 44  1  0
 44 45  1  0
 45 46  1  0
 46 47  1  0
 47 48  1  0
 48 49  1  0
 49 50  1  0
 50 51  1  0
 51 52  1  0
 52 53  1  0
 53 54  1  0
 54 55  1  0
 55 56  1  0
 56 57  1  0
 57 58  1  0
 58 59  1  0
 59 60  1  0
 60 61  1  0
 61 62  1  0
 62 63  1  0
 63 64  1  0
 64 65  1  0
 65 66  1  0
 66 67  1  0
 67 68  1  0
 68 69  1  0
 69 70  1  0
 70 71  1  0
 71 72  1  0
 72 73  1  0
 73 74  1  0
 74 75  1  0
 75 76  1  0
 76 77  1  0
 77 78  1  0
 78 79  1  0
 79 80  1  0
 80 81  1  0
 81 82  1  0
 82 83  1  0
 83 84  1  0
 84 85  1  0
 85 86  1  0
 86 87  1  0
 87 88  1  0
 88 89  1  0
 89 90  1  0
 90 91  1  0
 91 92  1  0
 92 93  1  0
 93 94  1  0
 94 95  1  0
 95 96  1  0
 96 97  1  0
 97 98  1  0
 98 99  1  0
 99100  1  0
100101  1  0
101102  1  0
102103  1  0
103104  1  0
104105  1  0
105106  1  0
106107  1  0
107108  1  0
108109  1  0
109110  1  0
110111  1  0
111112  1  0
112113  1  0
113114  1  0
114115  1  0
115116  1  0
116117  1  0
117118  1  0
118119  1  0
119120  1  0
120121  1  0
121122  1  0
122123  1  0
123124  1  0
124125  1  0
125126  1  0
125 18  1  0
M  END
>  <Title>  (750) 
idABAXgen9

$$$$

     RDKit          2D

 22 24  0  0  0  0  0  0  0  0999 V2000
    6.0000   -2.5981    0.0000 C   0  0  0  0  0  0  0  0  0  0  0  0
    5.2500   -3.8971    0.0000 C   0  0  0  0  0  0  0  0  0  0  0  0
    6.0000   -5.1962    0.0000 C   0  0  0  0  0  0  0  0  0  0  0  0
    5.2500   -6.4952    0.0000 C   0  0  0  0  0  0  0  0  0  0  0  0
    3.7500   -6.4952    0.0000 C   0  0  0  0  0  0  0  0  0  0  0  0
    3.0000   -5.1962    0.0000 C   0  0  0  0  0  0  0  0  0  0  0  0
    3.7500   -3.8971    0.0000 C   0  0  0  0  0  0  0  0  0  0  0  0
    3.0000   -2.5981    0.0000 C   0  0  0  0  0  0  0  0  0  0  0  0
    3.7500   -1.2990    0.0000 O   0  0  0  0  0  0  0  0  0  0  0  0
    1.5000   -2.5981    0.0000 N   0  0  0  0  0  0  0  0  0  0  0  0
    0.7500   -1.2990    0.0000 C   0  0  0  0  0  0  0  0  0  0  0  0
    1.5000    0.0000    0.0000 N   0  0  0  0  0  0  0  0  0  0  0  0
    0.7500    1.2990    0.0000 N   0  0  0  0  0  0  0  0  0  0  0  0
   -0.7500    1.2990    0.0000 N   0  0  0  0  0  0  0  0  0  0  0  0
   -1.5000    0.0000    0.0000 N   0  0  0  0  0  0  0  0  0  0  0  0
   -2.9672   -0.3119    0.0000 C   0  0  0  0  0  0  0  0  0  0  0  0
   -3.1240   -1.8037    0.0000 C   0  0  0  0  0  0  0  0  0  0  0  0
   -4.4231   -2.5537    0.0000 C   0  0  0  0  0  0  0  0  0  0  0  0
   -4.4231   -4.0537    0.0000 O   0  0  0  0  0  0  0  0  0  0  0  0
   -5.7221   -1.8037    0.0000 O   0  0  0  0  0  0  0  0  0  0  0  0
   -1.7537   -2.4138    0.0000 C   0  0  0  0  0  0  0  0  0  0  0  0
   -0.7500   -1.2990    0.0000 C   0  0  0  0  0  0  0  0  0  0  0  0
  1  2  1  0
  2  3  2  0
  3  4  1  0
  4  5  1  0
  5  6  1  0
  6  7  2  0
  7  8  1  0
  8  9  2  0
  8 10  1  0
 10 11  1  0
 11 12  2  0
 12 13  1  0
 13 14  2  0
 14 15  1  0
 15 16  1  0
 16 17  1  0
 17 18  1  0
 18 19  2  0
 18 20  1  0
 17 21  1  0
 21 22  2  0
  7  2  1  0
 22 11  1  0
 22 15  1  0
M  END
>  <Title>  (751) 
idABAYgen9

$$$$

     RDKit          2D

 55 63  0  0  0  0  0  0  0  0999 V2000
    4.3881   -6.6982    0.0000 C   0  0  0  0  0  0  0  0  0  0  0  0
    3.0367   -6.0474    0.0000 C   0  0  0  0  0  0  0  0  0  0  0  0
    3.3705   -4.5850    0.0000 C   0  0  0  0  0  0  0  0  0  0  0  0
    3.0367   -3.1226    0.0000 C   0  0  0  0  0  0  0  0  0  0  0  0
    2.1015   -1.9499    0.0000 C   0  0  0  0  0  0  0  0  0  0  0  0
    3.0367   -0.7771    0.0000 C   0  0  0  0  0  0  0  0  0  0  0  0
    2.4887    0.6192    0.0000 O   0  0  0  0  0  0  0  0  0  0  0  0
    4.5199   -1.0007    0.0000 N   0  0  0  0  0  0  0  0  0  0  0  0
    5.4552    0.1721    0.0000 C   0  0  0  0  0  0  0  0  0  0  0  0
    5.0561    1.6180    0.0000 N   0  0  0  0  0  0  0  0  0  0  0  0
    6.3080    2.4444    0.0000 N   0  0  0  0  0  0  0  0  0  0  0  0
    7.4807    1.5091    0.0000 N   0  0  0  0  0  0  0  0  0  0  0  0
    6.9537    0.1048    0.0000 N   0  0  0  0  0  0  0  0  0  0  0  0
    7.7800   -1.1471    0.0000 C   0  0  0  0  0  0  0  0  0  0  0  0
    7.1090   -2.4887    0.0000 C   0  0  0  0  0  0  0  0  0  0  0  0
    7.9354   -3.7405    0.0000 C   0  0  0  0  0  0  0  0  0  0  0  0
    9.4327   -3.6508    0.0000 C   0  0  0  0  0  0  0  0  0  0  0  0
   10.1037   -2.3092    0.0000 C   0  0  0  0  0  0  0  0  0  0  0  0
    9.2773   -1.0574    0.0000 C   0  0  0  0  0  0  0  0  0  0  0  0
    9.9483    0.2842    0.0000 C   0  0  0  0  0  0  0  0  0  0  0  0
   11.4456    0.3739    0.0000 C   0  0  0  0  0  0  0  0  0  0  0  0
   12.1166    1.7155    0.0000 C   0  0  0  0  0  0  0  0  0  0  0  0
   11.2902    2.9673    0.0000 C   0  0  0  0  0  0  0  0  0  0  0  0
    9.7929    2.8776    0.0000 C   0  0  0  0  0  0  0  0  0  0  0  0
    9.1219    1.5360    0.0000 C   0  0  0  0  0  0  0  0  0  0  0  0
    0.7500   -1.2990    0.0000 C   0  0  0  0  0  0  0  0  0  0  0  0
    1.5000    0.0000    0.0000 C   0  0  0  0  0  0  0  0  0  0  0  0
    0.7500    1.2990    0.0000 C   0  0  0  0  0  0  0  0  0  0  0  0
   -0.7500    1.2990    0.0000 C   0  0  0  0  0  0  0  0  0  0  0  0
   -1.5000    0.0000    0.0000 C   0  0  0  0  0  0  0  0  0  0  0  0
   -0.7500   -1.2990    0.0000 C   0  0  0  0  0  0  0  0  0  0  0  0
   -2.1015   -1.9499    0.0000 C   0  0  0  0  0  0  0  0  0  0  0  0
   -2.6495   -0.5536    0.0000 C   0  0  0  0  0  0  0  0  0  0  0  0
   -4.1327   -0.3300    0.0000 C   0  0  0  0  0  0  0  0  0  0  0  0
   -5.0679   -1.5027    0.0000 C   0  0  0  0  0  0  0  0  0  0  0  0
   -4.5199   -2.8990    0.0000 C   0  0  0  0  0  0  0  0  0  0  0  0
   -3.0367   -3.1226    0.0000 C   0  0  0  0  0  0  0  0  0  0  0  0
   -3.3705   -4.5850    0.0000 C   0  0  0  0  0  0  0  0  0  0  0  0
   -4.8038   -4.1429    0.0000 C   0  0  0  0  0  0  0  0  0  0  0  0
   -5.9034   -5.1631    0.0000 C   0  0  0  0  0  0  0  0  0  0  0  0
   -5.5696   -6.6255    0.0000 C   0  0  0  0  0  0  0  0  0  0  0  0
   -4.1363   -7.0677    0.0000 C   0  0  0  0  0  0  0  0  0  0  0  0
   -3.0367   -6.0474    0.0000 C   0  0  0  0  0  0  0  0  0  0  0  0
   -2.1015   -7.2201    0.0000 C   0  0  0  0  0  0  0  0  0  0  0  0
   -3.3408   -8.0651    0.0000 C   0  0  0  0  0  0  0  0  0  0  0  0
   -3.2287   -9.5609    0.0000 C   0  0  0  0  0  0  0  0  0  0  0  0
   -1.8773  -10.2118    0.0000 C   0  0  0  0  0  0  0  0  0  0  0  0
   -0.6379   -9.3668    0.0000 C   0  0  0  0  0  0  0  0  0  0  0  0
   -0.7500   -7.8710    0.0000 C   0  0  0  0  0  0  0  0  0  0  0  0
    0.7500   -7.8710    0.0000 C   0  0  0  0  0  0  0  0  0  0  0  0
    0.6379   -9.3668    0.0000 C   0  0  0  0  0  0  0  0  0  0  0  0
    1.8773  -10.2118    0.0000 C   0  0  0  0  0  0  0  0  0  0  0  0
    3.2287   -9.5609    0.0000 C   0  0  0  0  0  0  0  0  0  0  0  0
    3.3408   -8.0651    0.0000 C   0  0  0  0  0  0  0  0  0  0  0  0
    2.1015   -7.2201    0.0000 C   0  0  0  0  0  0  0  0  0  0  0  0
  1  2  1  0
  2  3  2  0
  3  4  1  0
  4  5  2  0
  5  6  1  0
  6  7  2  0
  6  8  1  0
  8  9  1  0
  9 10  2  0
 10 11  1  0
 11 12  2  0
 12 13  1  0
 13 14  1  0
 14 15  2  0
 15 16  1  0
 16 17  2  0
 17 18  1  0
 18 19  2  0
 19 20  1  0
 20 21  2  0
 21 22  1  0
 22 23  2  0
 23 24  1  0
 24 25  2  0
  5 26  1  0
 26 27  2  0
 27 28  1  0
 28 29  2  0
 29 30  1  0
 30 31  2  0
 31 32  1  0
 32 33  2  0
 33 34  1  0
 34 35  2  0
 35 36  1  0
 36 37  2  0
 37 38  1  0
 38 39  2  0
 39 40  1  0
 40 41  2  0
 41 42  1  0
 42 43  2  0
 43 44  1  0
 44 45  2  0
 45 46  1  0
 46 47  2  0
 47 48  1  0
 48 49  2  0
 49 50  1  0
 50 51  2  0
 51 52  1  0
 52 53  2  0
 53 54  1  0
 54 55  2  0
 55  2  1  0
 13  9  1  0
 19 14  1  0
 25 20  1  0
 31 26  1  0
 37 32  1  0
 43 38  1  0
 49 44  1  0
 55 50  1  0
M  END
>  <Title>  (752) 
idABAZgen9

$$$$

     RDKit          2D

  9  9  0  0  0  0  0  0  0  0999 V2000
    2.7760   -2.5981    0.0000 O   0  0  0  0  0  0  0  0  0  0  0  0
    3.5260   -1.2990    0.0000 C   0  0  0  0  0  0  0  0  0  0  0  0
    5.0260   -1.2990    0.0000 O   0  0  0  0  0  0  0  0  0  0  0  0
    2.7760    0.0000    0.0000 C   0  0  0  0  0  0  0  0  0  0  0  0
    1.2760    0.0000    0.0000 C   0  0  0  0  0  0  0  0  0  0  0  0
    0.3943    1.2135    0.0000 C   0  0  0  0  0  0  0  0  0  0  0  0
   -1.0323    0.7500    0.0000 C   0  0  0  0  0  0  0  0  0  0  0  0
   -1.0323   -0.7500    0.0000 C   0  0  0  0  0  0  0  0  0  0  0  0
    0.3943   -1.2135    0.0000 C   0  0  0  0  0  0  0  0  0  0  0  0
  1  2  2  0
  2  3  1  0
  2  4  1  0
  4  5  1  0
  5  6  2  0
  6  7  1  0
  7  8  1  0
  8  9  2  0
  9  5  1  0
M  END
>  <Title>  (753) 
idABBAgen9

$$$$

     RDKit          2D

 30 33  0  0  0  0  0  0  0  0999 V2000
    3.0000    0.0000    0.0000 C   0  0  0  0  0  0  0  0  0  0  0  0
    1.5000    0.0000    0.0000 C   0  0  0  0  0  0  0  0  0  0  0  0
    0.7500   -1.2990    0.0000 C   0  0  0  0  0  0  0  0  0  0  0  0
   -0.7500   -1.2990    0.0000 C   0  0  0  0  0  0  0  0  0  0  0  0
   -1.5000    0.0000    0.0000 C   0  0  0  0  0  0  0  0  0  0  0  0
   -3.0000    0.0000    0.0000 C   0  0  0  0  0  0  0  0  0  0  0  0
   -3.7500   -1.2990    0.0000 O   0  0  0  0  0  0  0  0  0  0  0  0
   -3.7500    1.2990    0.0000 N   0  0  0  0  0  0  0  0  0  0  0  0
   -5.2500    1.2990    0.0000 C   0  0  0  0  0  0  0  0  0  0  0  0
   -6.1317    0.0855    0.0000 N   0  0  0  0  0  0  0  0  0  0  0  0
   -7.5583    0.5490    0.0000 N   0  0  0  0  0  0  0  0  0  0  0  0
   -7.5583    2.0490    0.0000 N   0  0  0  0  0  0  0  0  0  0  0  0
   -6.1317    2.5126    0.0000 N   0  0  0  0  0  0  0  0  0  0  0  0
   -5.6682    3.9391    0.0000 C   0  0  0  0  0  0  0  0  0  0  0  0
   -6.5498    5.1527    0.0000 C   0  0  0  0  0  0  0  0  0  0  0  0
   -5.6682    6.3662    0.0000 C   0  0  0  0  0  0  0  0  0  0  0  0
   -4.2416    5.9027    0.0000 C   0  0  0  0  0  0  0  0  0  0  0  0
   -3.0280    6.7844    0.0000 C   0  0  0  0  0  0  0  0  0  0  0  0
   -3.1848    8.2761    0.0000 O   0  0  0  0  0  0  0  0  0  0  0  0
   -1.6577    6.1742    0.0000 N   0  0  0  0  0  0  0  0  0  0  0  0
   -0.4442    7.0559    0.0000 C   0  0  0  0  0  0  0  0  0  0  0  0
    0.9261    6.4458    0.0000 N   0  0  0  0  0  0  0  0  0  0  0  0
    2.1396    7.3275    0.0000 N   0  0  0  0  0  0  0  0  0  0  0  0
    1.9829    8.8193    0.0000 N   0  0  0  0  0  0  0  0  0  0  0  0
    0.6125    9.4294    0.0000 N   0  0  0  0  0  0  0  0  0  0  0  0
   -0.6010    8.5477    0.0000 N   0  0  0  0  0  0  0  0  0  0  0  0
   -4.2416    4.4027    0.0000 C   0  0  0  0  0  0  0  0  0  0  0  0
   -0.7500    1.2990    0.0000 O   0  0  0  0  0  0  0  0  0  0  0  0
    0.7500    1.2990    0.0000 C   0  0  0  0  0  0  0  0  0  0  0  0
    1.5000    2.5981    0.0000 O   0  0  0  0  0  0  0  0  0  0  0  0
  1  2  1  0
  2  3  1  0
  3  4  1  0
  4  5  1  0
  5  6  1  0
  6  7  2  0
  6  8  1  0
  8  9  1  0
  9 10  2  0
 10 11  1  0
 11 12  2  0
 12 13  1  0
 13 14  1  0
 14 15  1  0
 15 16  1  0
 16 17  1  0
 17 18  1  0
 18 19  2  0
 18 20  1  0
 20 21  1  0
 21 22  2  0
 22 23  1  0
 23 24  2  0
 24 25  1  0
 25 26  2  0
 17 27  1  0
  5 28  1  0
 28 29  1  0
 29 30  2  0
 29  2  1  0
 13  9  1  0
 27 14  1  0
 26 21  1  0
M  END
>  <Title>  (754) 
idABBBgen9

$$$$

     RDKit          2D

 16 16  0  0  0  0  0  0  0  0999 V2000
   13.2760   -0.0000    0.0000 C   0  0  0  0  0  0  0  0  0  0  0  0
   11.7760   -0.0000    0.0000 C   0  0  0  0  0  0  0  0  0  0  0  0
   10.2760   -0.0000    0.0000 C   0  0  0  0  0  0  0  0  0  0  0  0
    8.7760   -0.0000    0.0000 C   0  0  0  0  0  0  0  0  0  0  0  0
    7.2760   -0.0000    0.0000 C   0  0  0  0  0  0  0  0  0  0  0  0
    5.7760   -0.0000    0.0000 C   0  0  0  0  0  0  0  0  0  0  0  0
    4.2760   -0.0000    0.0000 C   0  0  0  0  0  0  0  0  0  0  0  0
    2.7760    0.0000    0.0000 C   0  0  0  0  0  0  0  0  0  0  0  0
    1.2760    0.0000    0.0000 C   0  0  0  0  0  0  0  0  0  0  0  0
    0.3943    1.2135    0.0000 C   0  0  0  0  0  0  0  0  0  0  0  0
   -1.0323    0.7500    0.0000 C   0  0  0  0  0  0  0  0  0  0  0  0
   -2.2458    1.6317    0.0000 C   0  0  0  0  0  0  0  0  0  0  0  0
   -3.6161    1.0216    0.0000 O   0  0  0  0  0  0  0  0  0  0  0  0
   -2.0890    3.1235    0.0000 O   0  0  0  0  0  0  0  0  0  0  0  0
   -1.0323   -0.7500    0.0000 C   0  0  0  0  0  0  0  0  0  0  0  0
    0.3943   -1.2135    0.0000 C   0  0  0  0  0  0  0  0  0  0  0  0
  1  2  3  0
  2  3  1  0
  3  4  3  0
  4  5  1  0
  5  6  3  0
  6  7  1  0
  7  8  3  0
  8  9  1  0
  9 10  2  0
 10 11  1  0
 11 12  1  0
 12 13  2  0
 12 14  1  0
 11 15  1  0
 15 16  2  0
 16  9  1  0
M  END
>  <Title>  (755) 
idABBCgen9

$$$$

     RDKit          2D

 14 15  0  0  0  0  0  0  0  0999 V2000
    2.7760    0.0000    0.0000 C   0  0  0  0  0  0  0  0  0  0  0  0
    1.2760    0.0000    0.0000 C   0  0  0  0  0  0  0  0  0  0  0  0
    0.3943    1.2135    0.0000 C   0  0  0  0  0  0  0  0  0  0  0  0
   -1.0323    0.7500    0.0000 C   0  0  0  0  0  0  0  0  0  0  0  0
   -1.0323   -0.7500    0.0000 C   0  0  0  0  0  0  0  0  0  0  0  0
    0.3943   -1.2135    0.0000 C   0  0  0  0  0  0  0  0  0  0  0  0
    0.8578   -2.6401    0.0000 C   0  0  0  0  0  0  0  0  0  0  0  0
    2.3250   -2.9520    0.0000 O   0  0  0  0  0  0  0  0  0  0  0  0
   -0.1459   -3.7548    0.0000 N   0  0  0  0  0  0  0  0  0  0  0  0
    0.3177   -5.1814    0.0000 C   0  0  0  0  0  0  0  0  0  0  0  0
    1.7442   -5.6449    0.0000 C   0  0  0  0  0  0  0  0  0  0  0  0
    1.7442   -7.1449    0.0000 C   0  0  0  0  0  0  0  0  0  0  0  0
    0.3177   -7.6085    0.0000 C   0  0  0  0  0  0  0  0  0  0  0  0
   -0.5640   -6.3949    0.0000 C   0  0  0  0  0  0  0  0  0  0  0  0
  1  2  1  0
  2  3  2  0
  3  4  1  0
  4  5  2  0
  5  6  1  0
  6  7  1  0
  7  8  2  0
  7  9  1  0
  9 10  1  0
 10 11  2  0
 11 12  1  0
 12 13  2  0
 13 14  1  0
  6  2  1  0
 14 10  1  0
M  END
>  <Title>  (756) 
idABBDgen9

$$$$

     RDKit          2D

  8  8  0  0  0  0  0  0  0  0999 V2000
    4.5000    0.0000    0.0000 C   0  0  0  0  0  0  0  0  0  0  0  0
    3.0000    0.0000    0.0000 C   0  0  0  0  0  0  0  0  0  0  0  0
    1.5000    0.0000    0.0000 C   0  0  0  0  0  0  0  0  0  0  0  0
    0.7500   -1.2990    0.0000 C   0  0  0  0  0  0  0  0  0  0  0  0
   -0.7500   -1.2990    0.0000 C   0  0  0  0  0  0  0  0  0  0  0  0
   -1.5000    0.0000    0.0000 C   0  0  0  0  0  0  0  0  0  0  0  0
   -0.7500    1.2990    0.0000 C   0  0  0  0  0  0  0  0  0  0  0  0
    0.7500    1.2990    0.0000 C   0  0  0  0  0  0  0  0  0  0  0  0
  1  2  3  0
  2  3  1  0
  3  4  2  0
  4  5  1  0
  5  6  1  0
  6  7  1  0
  7  8  1  0
  8  3  1  0
M  END
>  <Title>  (757) 
idABBEgen9

$$$$

     RDKit          2D

 11 11  0  0  0  0  0  0  0  0999 V2000
    5.1929   -0.0000    0.0000 C   0  0  0  0  0  0  0  0  0  0  0  0
    3.6929    0.0000    0.0000 C   0  0  0  0  0  0  0  0  0  0  0  0
    2.1929    0.0000    0.0000 C   0  0  0  0  0  0  0  0  0  0  0  0
    1.6798    1.4095    0.0000 C   0  0  0  0  0  0  0  0  0  0  0  0
    0.3808    2.1595    0.0000 C   0  0  0  0  0  0  0  0  0  0  0  0
   -1.0964    1.8991    0.0000 C   0  0  0  0  0  0  0  0  0  0  0  0
   -2.0606    0.7500    0.0000 C   0  0  0  0  0  0  0  0  0  0  0  0
   -2.0606   -0.7500    0.0000 C   0  0  0  0  0  0  0  0  0  0  0  0
   -1.0964   -1.8991    0.0000 C   0  0  0  0  0  0  0  0  0  0  0  0
    0.3808   -2.1595    0.0000 C   0  0  0  0  0  0  0  0  0  0  0  0
    1.6798   -1.4095    0.0000 C   0  0  0  0  0  0  0  0  0  0  0  0
  1  2  3  0
  2  3  1  0
  3  4  2  0
  4  5  1  0
  5  6  1  0
  6  7  1  0
  7  8  1  0
  8  9  1  0
  9 10  2  0
 10 11  1  0
 11  3  1  0
M  END
>  <Title>  (758) 
idABBFgen9

$$$$

     RDKit          2D

 99 99  0  0  0  0  0  0  0  0999 V2000
   24.4224   -0.0000    0.0000 C   0  0  0  0  0  0  0  0  0  0  0  0
   22.9224    0.0000    0.0000 C   0  0  0  0  0  0  0  0  0  0  0  0
   22.8733   -1.4992    0.0000 C   0  0  0  0  0  0  0  0  0  0  0  0
   22.7263   -2.9920    0.0000 C   0  0  0  0  0  0  0  0  0  0  0  0
   22.4820   -4.4719    0.0000 C   0  0  0  0  0  0  0  0  0  0  0  0
   22.1413   -5.9328    0.0000 C   0  0  0  0  0  0  0  0  0  0  0  0
   21.7059   -7.3682    0.0000 C   0  0  0  0  0  0  0  0  0  0  0  0
   21.1775   -8.7720    0.0000 C   0  0  0  0  0  0  0  0  0  0  0  0
   20.5585  -10.1383    0.0000 C   0  0  0  0  0  0  0  0  0  0  0  0
   19.8514  -11.4612    0.0000 C   0  0  0  0  0  0  0  0  0  0  0  0
   19.0593  -12.7350    0.0000 C   0  0  0  0  0  0  0  0  0  0  0  0
   18.1856  -13.9543    0.0000 C   0  0  0  0  0  0  0  0  0  0  0  0
   17.2340  -15.1138    0.0000 C   0  0  0  0  0  0  0  0  0  0  0  0
   16.2086  -16.2086    0.0000 C   0  0  0  0  0  0  0  0  0  0  0  0
   15.1138  -17.2340    0.0000 C   0  0  0  0  0  0  0  0  0  0  0  0
   13.9543  -18.1856    0.0000 C   0  0  0  0  0  0  0  0  0  0  0  0
   12.7350  -19.0593    0.0000 C   0  0  0  0  0  0  0  0  0  0  0  0
   11.4612  -19.8514    0.0000 C   0  0  0  0  0  0  0  0  0  0  0  0
   10.1383  -20.5585    0.0000 C   0  0  0  0  0  0  0  0  0  0  0  0
    8.7720  -21.1775    0.0000 C   0  0  0  0  0  0  0  0  0  0  0  0
    7.3682  -21.7059    0.0000 C   0  0  0  0  0  0  0  0  0  0  0  0
    5.9328  -22.1413    0.0000 C   0  0  0  0  0  0  0  0  0  0  0  0
    4.4719  -22.4820    0.0000 C   0  0  0  0  0  0  0  0  0  0  0  0
    2.9920  -22.7263    0.0000 C   0  0  0  0  0  0  0  0  0  0  0  0
    1.4992  -22.8733    0.0000 C   0  0  0  0  0  0  0  0  0  0  0  0
   -0.0000  -22.9224    0.0000 C   0  0  0  0  0  0  0  0  0  0  0  0
   -1.4992  -22.8733    0.0000 C   0  0  0  0  0  0  0  0  0  0  0  0
   -2.9920  -22.7263    0.0000 C   0  0  0  0  0  0  0  0  0  0  0  0
   -4.4719  -22.4820    0.0000 C   0  0  0  0  0  0  0  0  0  0  0  0
   -5.9328  -22.1413    0.0000 C   0  0  0  0  0  0  0  0  0  0  0  0
   -7.3682  -21.7059    0.0000 C   0  0  0  0  0  0  0  0  0  0  0  0
   -8.7720  -21.1775    0.0000 C   0  0  0  0  0  0  0  0  0  0  0  0
  -10.1383  -20.5585    0.0000 C   0  0  0  0  0  0  0  0  0  0  0  0
  -11.4612  -19.8514    0.0000 C   0  0  0  0  0  0  0  0  0  0  0  0
  -12.7350  -19.0593    0.0000 C   0  0  0  0  0  0  0  0  0  0  0  0
  -13.9543  -18.1856    0.0000 C   0  0  0  0  0  0  0  0  0  0  0  0
  -15.1138  -17.2340    0.0000 C   0  0  0  0  0  0  0  0  0  0  0  0
  -16.2086  -16.2086    0.0000 C   0  0  0  0  0  0  0  0  0  0  0  0
  -17.2340  -15.1138    0.0000 C   0  0  0  0  0  0  0  0  0  0  0  0
  -18.1856  -13.9543    0.0000 C   0  0  0  0  0  0  0  0  0  0  0  0
  -19.0593  -12.7350    0.0000 C   0  0  0  0  0  0  0  0  0  0  0  0
  -19.8514  -11.4612    0.0000 C   0  0  0  0  0  0  0  0  0  0  0  0
  -20.5585  -10.1383    0.0000 C   0  0  0  0  0  0  0  0  0  0  0  0
  -21.1775   -8.7720    0.0000 C   0  0  0  0  0  0  0  0  0  0  0  0
  -21.7059   -7.3682    0.0000 C   0  0  0  0  0  0  0  0  0  0  0  0
  -22.1413   -5.9328    0.0000 C   0  0  0  0  0  0  0  0  0  0  0  0
  -22.4820   -4.4719    0.0000 C   0  0  0  0  0  0  0  0  0  0  0  0
  -22.7263   -2.9920    0.0000 C   0  0  0  0  0  0  0  0  0  0  0  0
  -22.8733   -1.4992    0.0000 C   0  0  0  0  0  0  0  0  0  0  0  0
  -22.9224    0.0000    0.0000 C   0  0  0  0  0  0  0  0  0  0  0  0
  -22.8733    1.4992    0.0000 C   0  0  0  0  0  0  0  0  0  0  0  0
  -22.7263    2.9920    0.0000 C   0  0  0  0  0  0  0  0  0  0  0  0
  -22.4820    4.4719    0.0000 C   0  0  0  0  0  0  0  0  0  0  0  0
  -22.1413    5.9328    0.0000 C   0  0  0  0  0  0  0  0  0  0  0  0
  -21.7059    7.3682    0.0000 C   0  0  0  0  0  0  0  0  0  0  0  0
  -21.1775    8.7720    0.0000 C   0  0  0  0  0  0  0  0  0  0  0  0
  -20.5585   10.1383    0.0000 C   0  0  0  0  0  0  0  0  0  0  0  0
  -19.8514   11.4612    0.0000 C   0  0  0  0  0  0  0  0  0  0  0  0
  -19.0593   12.7350    0.0000 C   0  0  0  0  0  0  0  0  0  0  0  0
  -18.1856   13.9543    0.0000 C   0  0  0  0  0  0  0  0  0  0  0  0
  -17.2340   15.1138    0.0000 C   0  0  0  0  0  0  0  0  0  0  0  0
  -16.2086   16.2086    0.0000 C   0  0  0  0  0  0  0  0  0  0  0  0
  -15.1138   17.2340    0.0000 C   0  0  0  0  0  0  0  0  0  0  0  0
  -13.9543   18.1856    0.0000 C   0  0  0  0  0  0  0  0  0  0  0  0
  -12.7350   19.0593    0.0000 C   0  0  0  0  0  0  0  0  0  0  0  0
  -11.4612   19.8514    0.0000 C   0  0  0  0  0  0  0  0  0  0  0  0
  -10.1383   20.5585    0.0000 C   0  0  0  0  0  0  0  0  0  0  0  0
   -8.7720   21.1775    0.0000 C   0  0  0  0  0  0  0  0  0  0  0  0
   -7.3682   21.7059    0.0000 C   0  0  0  0  0  0  0  0  0  0  0  0
   -5.9328   22.1413    0.0000 C   0  0  0  0  0  0  0  0  0  0  0  0
   -4.4719   22.4820    0.0000 C   0  0  0  0  0  0  0  0  0  0  0  0
   -2.9920   22.7263    0.0000 C   0  0  0  0  0  0  0  0  0  0  0  0
   -1.4992   22.8733    0.0000 C   0  0  0  0  0  0  0  0  0  0  0  0
    0.0000   22.9224    0.0000 C   0  0  0  0  0  0  0  0  0  0  0  0
    1.4992   22.8733    0.0000 C   0  0  0  0  0  0  0  0  0  0  0  0
    2.9920   22.7263    0.0000 C   0  0  0  0  0  0  0  0  0  0  0  0
    4.4719   22.4820    0.0000 C   0  0  0  0  0  0  0  0  0  0  0  0
    5.9328   22.1413    0.0000 C   0  0  0  0  0  0  0  0  0  0  0  0
    7.3682   21.7059    0.0000 C   0  0  0  0  0  0  0  0  0  0  0  0
    8.7720   21.1775    0.0000 C   0  0  0  0  0  0  0  0  0  0  0  0
   10.1383   20.5585    0.0000 C   0  0  0  0  0  0  0  0  0  0  0  0
   11.4612   19.8514    0.0000 C   0  0  0  0  0  0  0  0  0  0  0  0
   12.7350   19.0593    0.0000 C   0  0  0  0  0  0  0  0  0  0  0  0
   13.9543   18.1856    0.0000 C   0  0  0  0  0  0  0  0  0  0  0  0
   15.1138   17.2340    0.0000 C   0  0  0  0  0  0  0  0  0  0  0  0
   16.2086   16.2086    0.0000 C   0  0  0  0  0  0  0  0  0  0  0  0
   17.2340   15.1138    0.0000 C   0  0  0  0  0  0  0  0  0  0  0  0
   18.1856   13.9543    0.0000 C   0  0  0  0  0  0  0  0  0  0  0  0
   19.0593   12.7350    0.0000 C   0  0  0  0  0  0  0  0  0  0  0  0
   19.8514   11.4612    0.0000 C   0  0  0  0  0  0  0  0  0  0  0  0
   20.5585   10.1383    0.0000 C   0  0  0  0  0  0  0  0  0  0  0  0
   21.1775    8.7720    0.0000 C   0  0  0  0  0  0  0  0  0  0  0  0
   21.7059    7.3682    0.0000 C   0  0  0  0  0  0  0  0  0  0  0  0
   22.1413    5.9328    0.0000 C   0  0  0  0  0  0  0  0  0  0  0  0
   22.4820    4.4719    0.0000 C   0  0  0  0  0  0  0  0  0  0  0  0
   23.9531    4.7646    0.0000 C   0  0  0  0  0  0  0  0  0  0  0  0
   22.7263    2.9920    0.0000 C   0  0  0  0  0  0  0  0  0  0  0  0
   24.2135    3.1878    0.0000 O   0  0  0  0  0  0  0  0  0  0  0  0
   22.8733    1.4992    0.0000 N   0  0  0  0  0  0  0  0  0  0  0  0
  1  2  1  0
  2  3  1  0
  3  4  2  0
  4  5  1  0
  5  6  1  0
  6  7  1  0
  7  8  1  0
  8  9  1  0
  9 10  1  0
 10 11  1  0
 11 12  1  0
 12 13  1  0
 13 14  1  0
 14 15  1  0
 15 16  1  0
 16 17  1  0
 17 18  1  0
 18 19  1  0
 19 20  1  0
 20 21  1  0
 21 22  1  0
 22 23  1  0
 23 24  1  0
 24 25  1  0
 25 26  1  0
 26 27  1  0
 27 28  1  0
 28 29  1  0
 29 30  1  0
 30 31  1  0
 31 32  1  0
 32 33  1  0
 33 34  1  0
 34 35  1  0
 35 36  1  0
 36 37  1  0
 37 38  1  0
 38 39  1  0
 39 40  1  0
 40 41  1  0
 41 42  1  0
 42 43  1  0
 43 44  1  0
 44 45  1  0
 45 46  1  0
 46 47  1  0
 47 48  1  0
 48 49  1  0
 49 50  1  0
 50 51  1  0
 51 52  1  0
 52 53  1  0
 53 54  1  0
 54 55  1  0
 55 56  1  0
 56 57  1  0
 57 58  1  0
 58 59  1  0
 59 60  1  0
 60 61  1  0
 61 62  1  0
 62 63  1  0
 63 64  1  0
 64 65  1  0
 65 66  1  0
 66 67  1  0
 67 68  1  0
 68 69  1  0
 69 70  1  0
 70 71  1  0
 71 72  1  0
 72 73  1  0
 73 74  1  0
 74 75  1  0
 75 76  1  0
 76 77  1  0
 77 78  1  0
 78 79  1  0
 79 80  1  0
 80 81  1  0
 81 82  1  0
 82 83  1  0
 83 84  1  0
 84 85  1  0
 85 86  1  0
 86 87  1  0
 87 88  1  0
 88 89  1  0
 89 90  1  0
 90 91  1  0
 91 92  1  0
 92 93  1  0
 93 94  1  0
 94 95  1  0
 95 96  1  0
 95 97  1  0
 97 98  2  0
 97 99  1  0
 99  2  1  0
M  END
>  <Title>  (759) 
idABBGgen9

$$$$

     RDKit          2D

 12 13  0  0  0  0  0  0  0  0999 V2000
    3.0000    0.0000    0.0000 C   0  0  0  0  0  0  0  0  0  0  0  0
    1.5000    0.0000    0.0000 C   0  0  0  0  0  0  0  0  0  0  0  0
    0.7500   -1.2990    0.0000 C   0  0  0  0  0  0  0  0  0  0  0  0
   -0.7500   -1.2990    0.0000 C   0  0  0  0  0  0  0  0  0  0  0  0
   -1.5000    0.0000    0.0000 C   0  0  0  0  0  0  0  0  0  0  0  0
   -0.7500    1.2990    0.0000 C   0  0  0  0  0  0  0  0  0  0  0  0
    0.7500    1.2990    0.0000 C   0  0  0  0  0  0  0  0  0  0  0  0
    1.5000    2.5981    0.0000 C   0  0  0  0  0  0  0  0  0  0  0  0
    0.8899    3.9684    0.0000 C   0  0  0  0  0  0  0  0  0  0  0  0
    2.0046    4.9721    0.0000 C   0  0  0  0  0  0  0  0  0  0  0  0
    3.3037    4.2221    0.0000 C   0  0  0  0  0  0  0  0  0  0  0  0
    2.9918    2.7549    0.0000 C   0  0  0  0  0  0  0  0  0  0  0  0
  1  2  1  0
  2  3  2  0
  3  4  1  0
  4  5  2  0
  5  6  1  0
  6  7  2  0
  7  8  1  0
  8  9  2  0
  9 10  1  0
 10 11  2  0
 11 12  1  0
  7  2  1  0
 12  8  1  0
M  END
>  <Title>  (760) 
idABBHgen9

$$$$

     RDKit          2D

 15 16  0  0  0  0  0  0  0  0999 V2000
    4.0607   -9.6313    0.0000 C   0  0  0  0  0  0  0  0  0  0  0  0
    3.3107   -8.3323    0.0000 C   0  0  0  0  0  0  0  0  0  0  0  0
    2.5607   -7.0333    0.0000 C   0  0  0  0  0  0  0  0  0  0  0  0
    1.1118   -6.6450    0.0000 C   0  0  0  0  0  0  0  0  0  0  0  0
    1.5000   -5.1962    0.0000 C   0  0  0  0  0  0  0  0  0  0  0  0
    0.7500   -3.8971    0.0000 C   0  0  0  0  0  0  0  0  0  0  0  0
   -0.7500   -3.8971    0.0000 O   0  0  0  0  0  0  0  0  0  0  0  0
    1.5000   -2.5981    0.0000 N   0  0  0  0  0  0  0  0  0  0  0  0
    0.7500   -1.2990    0.0000 C   0  0  0  0  0  0  0  0  0  0  0  0
    1.5000    0.0000    0.0000 N   0  0  0  0  0  0  0  0  0  0  0  0
    0.7500    1.2990    0.0000 N   0  0  0  0  0  0  0  0  0  0  0  0
   -0.7500    1.2990    0.0000 N   0  0  0  0  0  0  0  0  0  0  0  0
   -1.5000    0.0000    0.0000 N   0  0  0  0  0  0  0  0  0  0  0  0
   -0.7500   -1.2990    0.0000 N   0  0  0  0  0  0  0  0  0  0  0  0
    2.9489   -5.5844    0.0000 C   0  0  0  0  0  0  0  0  0  0  0  0
  1  2  3  0
  2  3  1  0
  3  4  2  0
  4  5  1  0
  5  6  1  0
  6  7  2  0
  6  8  1  0
  8  9  1  0
  9 10  2  0
 10 11  1  0
 11 12  2  0
 12 13  1  0
 13 14  2  0
  5 15  1  0
 15  3  1  0
 14  9  1  0
M  END
>  <Title>  (761) 
idABBIgen9

$$$$

     RDKit          2D

 64 68  0  0  0  0  0  0  0  0999 V2000
   -9.7204   -4.2847    0.0000 C   0  0  0  0  0  0  0  0  0  0  0  0
   -8.5749   -5.2531    0.0000 C   0  0  0  0  0  0  0  0  0  0  0  0
   -9.4647   -6.4607    0.0000 C   0  0  0  0  0  0  0  0  0  0  0  0
  -10.1855   -7.7762    0.0000 C   0  0  0  0  0  0  0  0  0  0  0  0
  -10.7246   -9.1759    0.0000 C   0  0  0  0  0  0  0  0  0  0  0  0
  -11.0724  -10.6351    0.0000 C   0  0  0  0  0  0  0  0  0  0  0  0
  -11.2225  -12.1275    0.0000 C   0  0  0  0  0  0  0  0  0  0  0  0
  -11.1724  -13.6267    0.0000 C   0  0  0  0  0  0  0  0  0  0  0  0
  -10.9229  -15.1058    0.0000 C   0  0  0  0  0  0  0  0  0  0  0  0
  -10.4785  -16.5385    0.0000 C   0  0  0  0  0  0  0  0  0  0  0  0
   -9.8471  -17.8991    0.0000 C   0  0  0  0  0  0  0  0  0  0  0  0
   -9.0400  -19.1634    0.0000 C   0  0  0  0  0  0  0  0  0  0  0  0
   -8.0715  -20.3089    0.0000 C   0  0  0  0  0  0  0  0  0  0  0  0
   -6.9590  -21.3151    0.0000 C   0  0  0  0  0  0  0  0  0  0  0  0
   -5.7224  -22.1640    0.0000 C   0  0  0  0  0  0  0  0  0  0  0  0
   -4.3836  -22.8405    0.0000 C   0  0  0  0  0  0  0  0  0  0  0  0
   -2.9666  -23.3326    0.0000 C   0  0  0  0  0  0  0  0  0  0  0  0
   -1.4967  -23.6313    0.0000 C   0  0  0  0  0  0  0  0  0  0  0  0
   -0.0000  -23.7315    0.0000 C   0  0  0  0  0  0  0  0  0  0  0  0
    1.4967  -23.6313    0.0000 C   0  0  0  0  0  0  0  0  0  0  0  0
    2.9666  -23.3326    0.0000 C   0  0  0  0  0  0  0  0  0  0  0  0
    4.3836  -22.8405    0.0000 C   0  0  0  0  0  0  0  0  0  0  0  0
    5.7224  -22.1640    0.0000 C   0  0  0  0  0  0  0  0  0  0  0  0
    6.9590  -21.3151    0.0000 C   0  0  0  0  0  0  0  0  0  0  0  0
    8.0715  -20.3089    0.0000 C   0  0  0  0  0  0  0  0  0  0  0  0
    9.0400  -19.1634    0.0000 C   0  0  0  0  0  0  0  0  0  0  0  0
    9.8471  -17.8991    0.0000 C   0  0  0  0  0  0  0  0  0  0  0  0
   10.4785  -16.5385    0.0000 C   0  0  0  0  0  0  0  0  0  0  0  0
   10.9229  -15.1058    0.0000 C   0  0  0  0  0  0  0  0  0  0  0  0
   11.1724  -13.6267    0.0000 C   0  0  0  0  0  0  0  0  0  0  0  0
   11.2225  -12.1275    0.0000 C   0  0  0  0  0  0  0  0  0  0  0  0
   11.0724  -10.6351    0.0000 C   0  0  0  0  0  0  0  0  0  0  0  0
   10.7246   -9.1759    0.0000 C   0  0  0  0  0  0  0  0  0  0  0  0
   10.1855   -7.7762    0.0000 C   0  0  0  0  0  0  0  0  0  0  0  0
    9.4647   -6.4607    0.0000 C   0  0  0  0  0  0  0  0  0  0  0  0
    8.5749   -5.2531    0.0000 C   0  0  0  0  0  0  0  0  0  0  0  0
    7.5321   -4.1749    0.0000 C   0  0  0  0  0  0  0  0  0  0  0  0
    6.3549   -3.2453    0.0000 C   0  0  0  0  0  0  0  0  0  0  0  0
    5.0643   -2.4808    0.0000 C   0  0  0  0  0  0  0  0  0  0  0  0
    3.6833   -1.8953    0.0000 C   0  0  0  0  0  0  0  0  0  0  0  0
    3.7535   -3.3936    0.0000 C   0  0  0  0  0  0  0  0  0  0  0  0
    2.3501   -3.9234    0.0000 C   0  0  0  0  0  0  0  0  0  0  0  0
    1.4127   -2.7524    0.0000 C   0  0  0  0  0  0  0  0  0  0  0  0
    2.2366   -1.4990    0.0000 C   0  0  0  0  0  0  0  0  0  0  0  0
    0.7500   -1.2990    0.0000 C   0  0  0  0  0  0  0  0  0  0  0  0
    1.5000    0.0000    0.0000 C   0  0  0  0  0  0  0  0  0  0  0  0
    0.7500    1.2990    0.0000 C   0  0  0  0  0  0  0  0  0  0  0  0
   -0.7500    1.2990    0.0000 C   0  0  0  0  0  0  0  0  0  0  0  0
   -1.5000    0.0000    0.0000 C   0  0  0  0  0  0  0  0  0  0  0  0
   -0.7500   -1.2990    0.0000 C   0  0  0  0  0  0  0  0  0  0  0  0
   -2.2366   -1.4990    0.0000 C   0  0  0  0  0  0  0  0  0  0  0  0
   -1.1701   -2.5537    0.0000 C   0  0  0  0  0  0  0  0  0  0  0  0
   -1.5502   -4.0047    0.0000 C   0  0  0  0  0  0  0  0  0  0  0  0
   -2.9969   -4.4010    0.0000 C   0  0  0  0  0  0  0  0  0  0  0  0
   -4.0635   -3.3463    0.0000 C   0  0  0  0  0  0  0  0  0  0  0  0
   -3.6833   -1.8953    0.0000 C   0  0  0  0  0  0  0  0  0  0  0  0
   -5.0643   -2.4808    0.0000 C   0  0  0  0  0  0  0  0  0  0  0  0
   -5.6167   -1.0863    0.0000 C   0  0  0  0  0  0  0  0  0  0  0  0
   -7.0515   -0.6487    0.0000 C   0  0  0  0  0  0  0  0  0  0  0  0
   -8.2882   -1.4976    0.0000 C   0  0  0  0  0  0  0  0  0  0  0  0
   -8.3955   -2.9938    0.0000 C   0  0  0  0  0  0  0  0  0  0  0  0
   -7.5321   -4.1749    0.0000 C   0  0  0  0  0  0  0  0  0  0  0  0
   -6.3549   -3.2453    0.0000 C   0  0  0  0  0  0  0  0  0  0  0  0
   -7.2038   -2.0086    0.0000 O   0  0  0  0  0  0  0  0  0  0  0  0
  1  2  1  0
  2  3  1  0
  3  4  1  0
  4  5  1  0
  5  6  1  0
  6  7  1  0
  7  8  1  0
  8  9  1  0
  9 10  1  0
 10 11  1  0
 11 12  1  0
 12 13  1  0
 13 14  1  0
 14 15  1  0
 15 16  1  0
 16 17  1  0
 17 18  1  0
 18 19  1  0
 19 20  1  0
 20 21  1  0
 21 22  1  0
 22 23  1  0
 23 24  1  0
 24 25  1  0
 25 26  1  0
 26 27  1  0
 27 28  1  0
 28 29  1  0
 29 30  1  0
 30 31  1  0
 31 32  1  0
 32 33  1  0
 33 34  1  0
 34 35  1  0
 35 36  1  0
 36 37  1  0
 37 38  1  0
 38 39  1  0
 39 40  1  0
 40 41  1  0
 41 42  2  0
 42 43  1  0
 43 44  2  0
 44 45  1  0
 45 46  2  0
 46 47  1  0
 47 48  2  0
 48 49  1  0
 49 50  2  0
 50 51  1  0
 51 52  2  0
 52 53  1  0
 53 54  2  0
 54 55  1  0
 55 56  2  0
 56 57  1  0
 57 58  2  0
 58 59  1  0
 59 60  2  0
 60 61  1  0
 61 62  2  0
 62 63  1  0
 63 64  2  0
 62  2  1  0
 44 40  1  0
 50 45  1  0
 56 51  1  0
 63 57  1  0
M  END
>  <Title>  (762) 
idABBJgen9

$$$$

     RDKit          2D

 48 49  0  0  0  0  0  0  0  0999 V2000
   -5.1080   -0.6816    0.0000 O   0  0  0  0  0  0  0  0  0  0  0  0
   -4.0199    0.3509    0.0000 C   0  0  0  0  0  0  0  0  0  0  0  0
   -4.3701    1.8094    0.0000 O   0  0  0  0  0  0  0  0  0  0  0  0
   -2.5817   -0.0751    0.0000 O   0  0  0  0  0  0  0  0  0  0  0  0
   -2.2315   -1.5337    0.0000 C   0  0  0  0  0  0  0  0  0  0  0  0
   -3.6581   -1.9972    0.0000 C   0  0  0  0  0  0  0  0  0  0  0  0
   -4.9946   -2.6782    0.0000 C   0  0  0  0  0  0  0  0  0  0  0  0
   -6.2082   -3.5599    0.0000 C   0  0  0  0  0  0  0  0  0  0  0  0
   -7.2688   -4.6205    0.0000 C   0  0  0  0  0  0  0  0  0  0  0  0
   -8.1505   -5.8341    0.0000 C   0  0  0  0  0  0  0  0  0  0  0  0
   -8.8315   -7.1706    0.0000 C   0  0  0  0  0  0  0  0  0  0  0  0
   -9.2950   -8.5972    0.0000 C   0  0  0  0  0  0  0  0  0  0  0  0
   -9.5297  -10.0787    0.0000 C   0  0  0  0  0  0  0  0  0  0  0  0
   -9.5297  -11.5787    0.0000 C   0  0  0  0  0  0  0  0  0  0  0  0
   -9.2950  -13.0602    0.0000 C   0  0  0  0  0  0  0  0  0  0  0  0
   -8.8315  -14.4868    0.0000 C   0  0  0  0  0  0  0  0  0  0  0  0
   -8.1505  -15.8233    0.0000 C   0  0  0  0  0  0  0  0  0  0  0  0
   -7.2688  -17.0368    0.0000 C   0  0  0  0  0  0  0  0  0  0  0  0
   -6.2082  -18.0975    0.0000 C   0  0  0  0  0  0  0  0  0  0  0  0
   -4.9946  -18.9792    0.0000 C   0  0  0  0  0  0  0  0  0  0  0  0
   -3.6581  -19.6602    0.0000 C   0  0  0  0  0  0  0  0  0  0  0  0
   -2.2315  -20.1237    0.0000 C   0  0  0  0  0  0  0  0  0  0  0  0
   -0.7500  -20.3583    0.0000 C   0  0  0  0  0  0  0  0  0  0  0  0
    0.7500  -20.3583    0.0000 C   0  0  0  0  0  0  0  0  0  0  0  0
    2.2315  -20.1237    0.0000 C   0  0  0  0  0  0  0  0  0  0  0  0
    3.6581  -19.6602    0.0000 C   0  0  0  0  0  0  0  0  0  0  0  0
    4.9946  -18.9792    0.0000 C   0  0  0  0  0  0  0  0  0  0  0  0
    6.2082  -18.0975    0.0000 C   0  0  0  0  0  0  0  0  0  0  0  0
    7.2688  -17.0368    0.0000 C   0  0  0  0  0  0  0  0  0  0  0  0
    8.1505  -15.8233    0.0000 C   0  0  0  0  0  0  0  0  0  0  0  0
    8.8315  -14.4868    0.0000 C   0  0  0  0  0  0  0  0  0  0  0  0
    9.2950  -13.0602    0.0000 C   0  0  0  0  0  0  0  0  0  0  0  0
    9.5297  -11.5787    0.0000 C   0  0  0  0  0  0  0  0  0  0  0  0
    9.5297  -10.0787    0.0000 C   0  0  0  0  0  0  0  0  0  0  0  0
    9.2950   -8.5972    0.0000 C   0  0  0  0  0  0  0  0  0  0  0  0
    8.8315   -7.1706    0.0000 C   0  0  0  0  0  0  0  0  0  0  0  0
    8.1505   -5.8341    0.0000 C   0  0  0  0  0  0  0  0  0  0  0  0
    7.2688   -4.6205    0.0000 C   0  0  0  0  0  0  0  0  0  0  0  0
    6.2082   -3.5599    0.0000 C   0  0  0  0  0  0  0  0  0  0  0  0
    4.9946   -2.6782    0.0000 C   0  0  0  0  0  0  0  0  0  0  0  0
    3.6581   -1.9972    0.0000 C   0  0  0  0  0  0  0  0  0  0  0  0
    2.2315   -1.5337    0.0000 C   0  0  0  0  0  0  0  0  0  0  0  0
    0.7500   -1.2990    0.0000 C   0  0  0  0  0  0  0  0  0  0  0  0
    1.5000    0.0000    0.0000 C   0  0  0  0  0  0  0  0  0  0  0  0
    0.7500    1.2990    0.0000 C   0  0  0  0  0  0  0  0  0  0  0  0
   -0.7500    1.2990    0.0000 C   0  0  0  0  0  0  0  0  0  0  0  0
   -1.5000    0.0000    0.0000 C   0  0  0  0  0  0  0  0  0  0  0  0
   -0.7500   -1.2990    0.0000 C   0  0  0  0  0  0  0  0  0  0  0  0
  1  2  2  0
  2  3  1  0
  2  4  1  0
  4  5  1  0
  5  6  1  0
  6  7  2  0
  7  8  1  0
  8  9  1  0
  9 10  1  0
 10 11  1  0
 11 12  1  0
 12 13  1  0
 13 14  1  0
 14 15  1  0
 15 16  1  0
 16 17  1  0
 17 18  1  0
 18 19  1  0
 19 20  1  0
 20 21  1  0
 21 22  1  0
 22 23  1  0
 23 24  1  0
 24 25  1  0
 25 26  1  0
 26 27  1  0
 27 28  1  0
 28 29  1  0
 29 30  1  0
 30 31  1  0
 31 32  1  0
 32 33  1  0
 33 34  1  0
 34 35  1  0
 35 36  1  0
 36 37  1  0
 37 38  1  0
 38 39  1  0
 39 40  1  0
 40 41  1  0
 41 42  1  0
 42 43  1  0
 43 44  2  0
 44 45  1  0
 45 46  2  0
 46 47  1  0
 47 48  2  0
 48  5  1  0
 48 43  1  0
M  END
>  <Title>  (763) 
idABBKgen9

$$$$

     RDKit          2D

 12 12  0  0  0  0  0  0  0  0999 V2000
   10.0607    0.0000    0.0000 C   0  0  0  0  0  0  0  0  0  0  0  0
    8.5607    0.0000    0.0000 C   0  0  0  0  0  0  0  0  0  0  0  0
    7.0607    0.0000    0.0000 C   0  0  0  0  0  0  0  0  0  0  0  0
    5.5607    0.0000    0.0000 C   0  0  0  0  0  0  0  0  0  0  0  0
    4.0607    0.0000    0.0000 C   0  0  0  0  0  0  0  0  0  0  0  0
    2.5607    0.0000    0.0000 C   0  0  0  0  0  0  0  0  0  0  0  0
    1.0607    0.0000    0.0000 C   0  0  0  0  0  0  0  0  0  0  0  0
   -0.0000   -1.0607    0.0000 C   0  0  0  0  0  0  0  0  0  0  0  0
   -1.0607    0.0000    0.0000 C   0  0  0  0  0  0  0  0  0  0  0  0
   -2.5607    0.0000    0.0000 C   0  0  0  0  0  0  0  0  0  0  0  0
   -4.0607    0.0000    0.0000 C   0  0  0  0  0  0  0  0  0  0  0  0
    0.0000    1.0607    0.0000 C   0  0  0  0  0  0  0  0  0  0  0  0
  1  2  3  0
  2  3  1  0
  3  4  3  0
  4  5  1  0
  5  6  3  0
  6  7  1  0
  7  8  2  0
  8  9  1  0
  9 10  1  0
 10 11  3  0
  9 12  2  0
 12  7  1  0
M  END
>  <Title>  (764) 
idABBLgen9

$$$$

     RDKit          2D

 11 11  0  0  0  0  0  0  0  0999 V2000
    7.2760   -0.0000    0.0000 C   0  0  0  0  0  0  0  0  0  0  0  0
    5.7760   -0.0000    0.0000 C   0  0  0  0  0  0  0  0  0  0  0  0
    4.2760   -0.0000    0.0000 C   0  0  0  0  0  0  0  0  0  0  0  0
    2.7760    0.0000    0.0000 C   0  0  0  0  0  0  0  0  0  0  0  0
    1.2760    0.0000    0.0000 C   0  0  0  0  0  0  0  0  0  0  0  0
    0.3943    1.2135    0.0000 C   0  0  0  0  0  0  0  0  0  0  0  0
   -1.0323    0.7500    0.0000 C   0  0  0  0  0  0  0  0  0  0  0  0
   -2.2458    1.6317    0.0000 C   0  0  0  0  0  0  0  0  0  0  0  0
   -3.4593    2.5134    0.0000 N   0  0  0  0  0  0  0  0  0  0  0  0
   -1.0323   -0.7500    0.0000 C   0  0  0  0  0  0  0  0  0  0  0  0
    0.3943   -1.2135    0.0000 C   0  0  0  0  0  0  0  0  0  0  0  0
  1  2  3  0
  2  3  1  0
  3  4  3  0
  4  5  1  0
  5  6  2  0
  6  7  1  0
  7  8  1  0
  8  9  3  0
  7 10  1  0
 10 11  2  0
 11  5  1  0
M  END
>  <Title>  (765) 
idABBMgen9

$$$$

     RDKit          2D

 22 23  0  0  0  0  0  0  0  0999 V2000
    3.0000    0.0000    0.0000 C   0  0  0  0  0  0  0  0  0  0  0  0
    1.5000    0.0000    0.0000 C   0  0  0  0  0  0  0  0  0  0  0  0
    0.7500   -1.2990    0.0000 C   0  0  0  0  0  0  0  0  0  0  0  0
   -0.7500   -1.2990    0.0000 C   0  0  0  0  0  0  0  0  0  0  0  0
   -1.5000   -2.5981    0.0000 C   0  0  0  0  0  0  0  0  0  0  0  0
   -1.5000    0.0000    0.0000 N   0  0  0  0  0  0  0  0  0  0  0  0
   -0.7500    1.2990    0.0000 C   0  0  0  0  0  0  0  0  0  0  0  0
   -1.5000    2.5981    0.0000 O   0  0  0  0  0  0  0  0  0  0  0  0
    0.7500    1.2990    0.0000 C   0  0  0  0  0  0  0  0  0  0  0  0
    1.5000    2.5981    0.0000 C   0  0  0  0  0  0  0  0  0  0  0  0
    0.7500    3.8971    0.0000 C   0  0  0  0  0  0  0  0  0  0  0  0
    1.5000    5.1962    0.0000 C   0  0  0  0  0  0  0  0  0  0  0  0
    0.7500    6.4952    0.0000 C   0  0  0  0  0  0  0  0  0  0  0  0
    1.5000    7.7942    0.0000 C   0  0  0  0  0  0  0  0  0  0  0  0
    3.0000    7.7942    0.0000 O   0  0  0  0  0  0  0  0  0  0  0  0
    3.7500    9.0933    0.0000 C   0  0  0  0  0  0  0  0  0  0  0  0
    3.0000   10.3923    0.0000 C   0  0  0  0  0  0  0  0  0  0  0  0
    3.7500   11.6913    0.0000 O   0  0  0  0  0  0  0  0  0  0  0  0
    1.5000   10.3923    0.0000 C   0  0  0  0  0  0  0  0  0  0  0  0
    0.7500   11.6913    0.0000 O   0  0  0  0  0  0  0  0  0  0  0  0
    0.7500    9.0933    0.0000 C   0  0  0  0  0  0  0  0  0  0  0  0
   -0.7500    9.0933    0.0000 O   0  0  0  0  0  0  0  0  0  0  0  0
  1  2  1  0
  2  3  2  0
  3  4  1  0
  4  5  1  0
  4  6  1  0
  6  7  1  0
  7  8  2  0
  7  9  1  0
  9 10  2  3
 10 11  1  0
 11 12  2  3
 12 13  1  0
 13 14  2  3
 14 15  1  0
 15 16  1  0
 16 17  1  0
 17 18  1  0
 17 19  1  0
 19 20  1  0
 19 21  1  0
 21 22  1  0
  9  2  1  0
 21 14  1  0
M  END
>  <Title>  (766) 
idABBNgen9

$$$$

     RDKit          2D

 52 59  0  0  0  0  0  0  0  0999 V2000
   -2.6813    1.4571    0.0000 C   0  0  0  0  0  0  0  0  0  0  0  0
   -1.6277    2.5248    0.0000 C   0  0  0  0  0  0  0  0  0  0  0  0
   -2.4836    3.7566    0.0000 C   0  0  0  0  0  0  0  0  0  0  0  0
   -2.8366    5.2145    0.0000 C   0  0  0  0  0  0  0  0  0  0  0  0
   -2.6392    6.7014    0.0000 C   0  0  0  0  0  0  0  0  0  0  0  0
   -1.9179    8.0167    0.0000 C   0  0  0  0  0  0  0  0  0  0  0  0
   -3.0782    8.9673    0.0000 C   0  0  0  0  0  0  0  0  0  0  0  0
   -2.8351   10.4475    0.0000 O   0  0  0  0  0  0  0  0  0  0  0  0
   -4.4817    8.4378    0.0000 N   0  0  0  0  0  0  0  0  0  0  0  0
   -5.6420    9.3884    0.0000 C   0  0  0  0  0  0  0  0  0  0  0  0
   -5.3989   10.8686    0.0000 N   0  0  0  0  0  0  0  0  0  0  0  0
   -6.5592   11.8192    0.0000 N   0  0  0  0  0  0  0  0  0  0  0  0
   -7.9626   11.2897    0.0000 N   0  0  0  0  0  0  0  0  0  0  0  0
   -8.2057    9.8095    0.0000 N   0  0  0  0  0  0  0  0  0  0  0  0
   -7.0454    8.8589    0.0000 N   0  0  0  0  0  0  0  0  0  0  0  0
   -0.7703    8.9825    0.0000 C   0  0  0  0  0  0  0  0  0  0  0  0
   -1.9008    9.9684    0.0000 C   0  0  0  0  0  0  0  0  0  0  0  0
   -1.6122   11.4404    0.0000 C   0  0  0  0  0  0  0  0  0  0  0  0
   -0.1931   11.9265    0.0000 C   0  0  0  0  0  0  0  0  0  0  0  0
    0.9374   10.9406    0.0000 C   0  0  0  0  0  0  0  0  0  0  0  0
    0.6488    9.4686    0.0000 C   0  0  0  0  0  0  0  0  0  0  0  0
    2.1476    9.4092    0.0000 C   0  0  0  0  0  0  0  0  0  0  0  0
    1.9764   10.8994    0.0000 C   0  0  0  0  0  0  0  0  0  0  0  0
    3.1813   11.7928    0.0000 C   0  0  0  0  0  0  0  0  0  0  0  0
    4.5575   11.1960    0.0000 C   0  0  0  0  0  0  0  0  0  0  0  0
    4.7287    9.7058    0.0000 C   0  0  0  0  0  0  0  0  0  0  0  0
    3.5237    8.8124    0.0000 C   0  0  0  0  0  0  0  0  0  0  0  0
    4.5914    7.7588    0.0000 C   0  0  0  0  0  0  0  0  0  0  0  0
    5.4688    8.9754    0.0000 C   0  0  0  0  0  0  0  0  0  0  0  0
    6.9611    8.8238    0.0000 C   0  0  0  0  0  0  0  0  0  0  0  0
    7.5760    7.4557    0.0000 C   0  0  0  0  0  0  0  0  0  0  0  0
    6.6986    6.2391    0.0000 C   0  0  0  0  0  0  0  0  0  0  0  0
    5.2063    6.3906    0.0000 C   0  0  0  0  0  0  0  0  0  0  0  0
    5.2855    4.8927    0.0000 C   0  0  0  0  0  0  0  0  0  0  0  0
    6.7535    5.2007    0.0000 C   0  0  0  0  0  0  0  0  0  0  0  0
    7.7543    4.0833    0.0000 C   0  0  0  0  0  0  0  0  0  0  0  0
    7.2870    2.6580    0.0000 C   0  0  0  0  0  0  0  0  0  0  0  0
    5.8189    2.3500    0.0000 C   0  0  0  0  0  0  0  0  0  0  0  0
    4.8182    3.4673    0.0000 C   0  0  0  0  0  0  0  0  0  0  0  0
    3.8676    2.3070    0.0000 C   0  0  0  0  0  0  0  0  0  0  0  0
    5.1599    1.5456    0.0000 C   0  0  0  0  0  0  0  0  0  0  0  0
    5.1467    0.0457    0.0000 C   0  0  0  0  0  0  0  0  0  0  0  0
    3.8412   -0.6929    0.0000 C   0  0  0  0  0  0  0  0  0  0  0  0
    2.5488    0.0685    0.0000 C   0  0  0  0  0  0  0  0  0  0  0  0
    2.5620    1.5685    0.0000 C   0  0  0  0  0  0  0  0  0  0  0  0
    1.0777    1.3515    0.0000 C   0  0  0  0  0  0  0  0  0  0  0  0
    1.7286    0.0000    0.0000 C   0  0  0  0  0  0  0  0  0  0  0  0
    1.0777   -1.3515    0.0000 C   0  0  0  0  0  0  0  0  0  0  0  0
   -0.3846   -1.6852    0.0000 C   0  0  0  0  0  0  0  0  0  0  0  0
   -1.5574   -0.7500    0.0000 C   0  0  0  0  0  0  0  0  0  0  0  0
   -1.5574    0.7500    0.0000 C   0  0  0  0  0  0  0  0  0  0  0  0
   -0.3846    1.6852    0.0000 C   0  0  0  0  0  0  0  0  0  0  0  0
  1  2  1  0
  2  3  2  0
  3  4  1  0
  4  5  1  0
  5  6  1  0
  6  7  1  0
  7  8  2  0
  7  9  1  0
  9 10  1  0
 10 11  2  0
 11 12  1  0
 12 13  2  0
 13 14  1  0
 14 15  2  0
  6 16  1  0
 16 17  2  0
 17 18  1  0
 18 19  2  0
 19 20  1  0
 20 21  2  0
 21 22  1  0
 22 23  2  0
 23 24  1  0
 24 25  2  0
 25 26  1  0
 26 27  2  0
 27 28  1  0
 28 29  2  0
 29 30  1  0
 30 31  2  0
 31 32  1  0
 32 33  2  0
 33 34  1  0
 34 35  2  0
 35 36  1  0
 36 37  2  0
 37 38  1  0
 38 39  2  0
 39 40  1  0
 40 41  2  0
 41 42  1  0
 42 43  2  0
 43 44  1  0
 44 45  2  0
 45 46  1  0
 46 47  2  0
 47 48  1  0
 48 49  1  0
 49 50  1  0
 50 51  1  0
 51 52  2  0
 52  2  1  0
 15 10  1  0
 21 16  1  0
 27 22  1  0
 33 28  1  0
 39 34  1  0
 45 40  1  0
 52 46  1  0
M  END
>  <Title>  (767) 
idABBOgen9

$$$$

     RDKit          2D

 15 16  0  0  0  0  0  0  0  0999 V2000
    1.8478   -9.0619    0.0000 C   0  0  0  0  0  0  0  0  0  0  0  0
    2.0046   -7.5702    0.0000 C   0  0  0  0  0  0  0  0  0  0  0  0
    3.3037   -6.8202    0.0000 C   0  0  0  0  0  0  0  0  0  0  0  0
    2.9918   -5.3529    0.0000 C   0  0  0  0  0  0  0  0  0  0  0  0
    1.5000   -5.1962    0.0000 C   0  0  0  0  0  0  0  0  0  0  0  0
    0.7500   -3.8971    0.0000 C   0  0  0  0  0  0  0  0  0  0  0  0
   -0.7500   -3.8971    0.0000 O   0  0  0  0  0  0  0  0  0  0  0  0
    1.5000   -2.5981    0.0000 O   0  0  0  0  0  0  0  0  0  0  0  0
    0.7500   -1.2990    0.0000 C   0  0  0  0  0  0  0  0  0  0  0  0
    1.5000    0.0000    0.0000 C   0  0  0  0  0  0  0  0  0  0  0  0
    0.7500    1.2990    0.0000 N   0  0  0  0  0  0  0  0  0  0  0  0
   -0.7500    1.2990    0.0000 N   0  0  0  0  0  0  0  0  0  0  0  0
   -1.5000    0.0000    0.0000 N   0  0  0  0  0  0  0  0  0  0  0  0
   -0.7500   -1.2990    0.0000 N   0  0  0  0  0  0  0  0  0  0  0  0
    0.8899   -6.5665    0.0000 C   0  0  0  0  0  0  0  0  0  0  0  0
  1  2  1  0
  2  3  1  0
  3  4  1  0
  4  5  1  0
  5  6  1  0
  6  7  2  0
  6  8  1  0
  8  9  1  0
  9 10  2  0
 10 11  1  0
 11 12  2  0
 12 13  1  0
 13 14  2  0
  5 15  1  0
 15  2  1  0
 14  9  1  0
M  END
>  <Title>  (768) 
idABBPgen9

$$$$

     RDKit          2D

112112  0  0  0  0  0  0  0  0999 V2000
   28.0028    0.0000    0.0000 C   0  0  0  0  0  0  0  0  0  0  0  0
   26.5028    0.0000    0.0000 C   0  0  0  0  0  0  0  0  0  0  0  0
   26.4604    1.4994    0.0000 C   0  0  0  0  0  0  0  0  0  0  0  0
   26.3332    2.9940    0.0000 C   0  0  0  0  0  0  0  0  0  0  0  0
   26.1216    4.4790    0.0000 C   0  0  0  0  0  0  0  0  0  0  0  0
   25.8264    5.9497    0.0000 C   0  0  0  0  0  0  0  0  0  0  0  0
   25.4484    7.4013    0.0000 C   0  0  0  0  0  0  0  0  0  0  0  0
   24.9889    8.8291    0.0000 C   0  0  0  0  0  0  0  0  0  0  0  0
   24.4494   10.2288    0.0000 C   0  0  0  0  0  0  0  0  0  0  0  0
   23.8315   11.5956    0.0000 C   0  0  0  0  0  0  0  0  0  0  0  0
   23.1374   12.9253    0.0000 C   0  0  0  0  0  0  0  0  0  0  0  0
   22.3690   14.2136    0.0000 C   0  0  0  0  0  0  0  0  0  0  0  0
   21.5291   15.4564    0.0000 C   0  0  0  0  0  0  0  0  0  0  0  0
   20.6202   16.6496    0.0000 C   0  0  0  0  0  0  0  0  0  0  0  0
   19.6452   17.7895    0.0000 C   0  0  0  0  0  0  0  0  0  0  0  0
   18.6073   18.8725    0.0000 C   0  0  0  0  0  0  0  0  0  0  0  0
   17.5098   19.8949    0.0000 C   0  0  0  0  0  0  0  0  0  0  0  0
   16.3562   20.8537    0.0000 C   0  0  0  0  0  0  0  0  0  0  0  0
   15.1502   21.7456    0.0000 C   0  0  0  0  0  0  0  0  0  0  0  0
   13.8956   22.5679    0.0000 C   0  0  0  0  0  0  0  0  0  0  0  0
   12.5966   23.3179    0.0000 C   0  0  0  0  0  0  0  0  0  0  0  0
   11.2572   23.9932    0.0000 C   0  0  0  0  0  0  0  0  0  0  0  0
    9.8818   24.5917    0.0000 C   0  0  0  0  0  0  0  0  0  0  0  0
    8.4747   25.1114    0.0000 C   0  0  0  0  0  0  0  0  0  0  0  0
    7.0404   25.5506    0.0000 C   0  0  0  0  0  0  0  0  0  0  0  0
    5.5836   25.9080    0.0000 C   0  0  0  0  0  0  0  0  0  0  0  0
    4.1089   26.1824    0.0000 C   0  0  0  0  0  0  0  0  0  0  0  0
    2.6211   26.3729    0.0000 C   0  0  0  0  0  0  0  0  0  0  0  0
    1.1248   26.4790    0.0000 C   0  0  0  0  0  0  0  0  0  0  0  0
   -0.3750   26.5002    0.0000 C   0  0  0  0  0  0  0  0  0  0  0  0
   -1.8737   26.4365    0.0000 C   0  0  0  0  0  0  0  0  0  0  0  0
   -3.3663   26.2882    0.0000 C   0  0  0  0  0  0  0  0  0  0  0  0
   -4.8482   26.0556    0.0000 C   0  0  0  0  0  0  0  0  0  0  0  0
   -6.3145   25.7396    0.0000 C   0  0  0  0  0  0  0  0  0  0  0  0
   -7.7606   25.3411    0.0000 C   0  0  0  0  0  0  0  0  0  0  0  0
   -9.1819   24.8615    0.0000 C   0  0  0  0  0  0  0  0  0  0  0  0
  -10.5737   24.3022    0.0000 C   0  0  0  0  0  0  0  0  0  0  0  0
  -11.9317   23.6651    0.0000 C   0  0  0  0  0  0  0  0  0  0  0  0
  -13.2514   22.9521    0.0000 C   0  0  0  0  0  0  0  0  0  0  0  0
  -14.5287   22.1657    0.0000 C   0  0  0  0  0  0  0  0  0  0  0  0
  -15.7595   21.3082    0.0000 C   0  0  0  0  0  0  0  0  0  0  0  0
  -16.9397   20.3825    0.0000 C   0  0  0  0  0  0  0  0  0  0  0  0
  -18.0657   19.3915    0.0000 C   0  0  0  0  0  0  0  0  0  0  0  0
  -19.1339   18.3383    0.0000 C   0  0  0  0  0  0  0  0  0  0  0  0
  -20.1407   17.2265    0.0000 C   0  0  0  0  0  0  0  0  0  0  0  0
  -21.0831   16.0594    0.0000 C   0  0  0  0  0  0  0  0  0  0  0  0
  -21.9579   14.8409    0.0000 C   0  0  0  0  0  0  0  0  0  0  0  0
  -22.7623   13.5749    0.0000 C   0  0  0  0  0  0  0  0  0  0  0  0
  -23.4939   12.2654    0.0000 C   0  0  0  0  0  0  0  0  0  0  0  0
  -24.1501   10.9166    0.0000 C   0  0  0  0  0  0  0  0  0  0  0  0
  -24.7291    9.5328    0.0000 C   0  0  0  0  0  0  0  0  0  0  0  0
  -25.2288    8.1185    0.0000 C   0  0  0  0  0  0  0  0  0  0  0  0
  -25.6477    6.6781    0.0000 C   0  0  0  0  0  0  0  0  0  0  0  0
  -25.9844    5.2164    0.0000 C   0  0  0  0  0  0  0  0  0  0  0  0
  -26.2379    3.7380    0.0000 C   0  0  0  0  0  0  0  0  0  0  0  0
  -26.4074    2.2476    0.0000 C   0  0  0  0  0  0  0  0  0  0  0  0
  -26.4922    0.7500    0.0000 C   0  0  0  0  0  0  0  0  0  0  0  0
  -26.4922   -0.7500    0.0000 C   0  0  0  0  0  0  0  0  0  0  0  0
  -26.4074   -2.2476    0.0000 C   0  0  0  0  0  0  0  0  0  0  0  0
  -26.2379   -3.7380    0.0000 C   0  0  0  0  0  0  0  0  0  0  0  0
  -25.9844   -5.2164    0.0000 C   0  0  0  0  0  0  0  0  0  0  0  0
  -25.6477   -6.6781    0.0000 C   0  0  0  0  0  0  0  0  0  0  0  0
  -25.2288   -8.1185    0.0000 C   0  0  0  0  0  0  0  0  0  0  0  0
  -24.7291   -9.5328    0.0000 C   0  0  0  0  0  0  0  0  0  0  0  0
  -24.1501  -10.9166    0.0000 C   0  0  0  0  0  0  0  0  0  0  0  0
  -23.4939  -12.2654    0.0000 C   0  0  0  0  0  0  0  0  0  0  0  0
  -22.7623  -13.5749    0.0000 C   0  0  0  0  0  0  0  0  0  0  0  0
  -21.9579  -14.8409    0.0000 C   0  0  0  0  0  0  0  0  0  0  0  0
  -21.0831  -16.0594    0.0000 C   0  0  0  0  0  0  0  0  0  0  0  0
  -20.1407  -17.2265    0.0000 C   0  0  0  0  0  0  0  0  0  0  0  0
  -19.1339  -18.3383    0.0000 C   0  0  0  0  0  0  0  0  0  0  0  0
  -18.0657  -19.3915    0.0000 C   0  0  0  0  0  0  0  0  0  0  0  0
  -16.9397  -20.3825    0.0000 C   0  0  0  0  0  0  0  0  0  0  0  0
  -15.7595  -21.3082    0.0000 C   0  0  0  0  0  0  0  0  0  0  0  0
  -14.5287  -22.1657    0.0000 C   0  0  0  0  0  0  0  0  0  0  0  0
  -13.2514  -22.9521    0.0000 C   0  0  0  0  0  0  0  0  0  0  0  0
  -11.9317  -23.6651    0.0000 C   0  0  0  0  0  0  0  0  0  0  0  0
  -10.5737  -24.3022    0.0000 C   0  0  0  0  0  0  0  0  0  0  0  0
   -9.1819  -24.8615    0.0000 C   0  0  0  0  0  0  0  0  0  0  0  0
   -7.7606  -25.3411    0.0000 C   0  0  0  0  0  0  0  0  0  0  0  0
   -6.3145  -25.7396    0.0000 C   0  0  0  0  0  0  0  0  0  0  0  0
   -4.8482  -26.0556    0.0000 C   0  0  0  0  0  0  0  0  0  0  0  0
   -3.3663  -26.2882    0.0000 C   0  0  0  0  0  0  0  0  0  0  0  0
   -1.8737  -26.4365    0.0000 C   0  0  0  0  0  0  0  0  0  0  0  0
   -0.3750  -26.5002    0.0000 C   0  0  0  0  0  0  0  0  0  0  0  0
    1.1248  -26.4790    0.0000 C   0  0  0  0  0  0  0  0  0  0  0  0
    2.6211  -26.3729    0.0000 C   0  0  0  0  0  0  0  0  0  0  0  0
    4.1089  -26.1824    0.0000 C   0  0  0  0  0  0  0  0  0  0  0  0
    5.5836  -25.9080    0.0000 C   0  0  0  0  0  0  0  0  0  0  0  0
    7.0404  -25.5506    0.0000 C   0  0  0  0  0  0  0  0  0  0  0  0
    8.4747  -25.1114    0.0000 C   0  0  0  0  0  0  0  0  0  0  0  0
    9.8818  -24.5917    0.0000 C   0  0  0  0  0  0  0  0  0  0  0  0
   11.2572  -23.9932    0.0000 C   0  0  0  0  0  0  0  0  0  0  0  0
   12.5966  -23.3179    0.0000 C   0  0  0  0  0  0  0  0  0  0  0  0
   13.8956  -22.5679    0.0000 C   0  0  0  0  0  0  0  0  0  0  0  0
   15.1502  -21.7456    0.0000 C   0  0  0  0  0  0  0  0  0  0  0  0
   16.3562  -20.8537    0.0000 C   0  0  0  0  0  0  0  0  0  0  0  0
   17.5098  -19.8949    0.0000 C   0  0  0  0  0  0  0  0  0  0  0  0
   18.6073  -18.8725    0.0000 C   0  0  0  0  0  0  0  0  0  0  0  0
   19.6452  -17.7895    0.0000 C   0  0  0  0  0  0  0  0  0  0  0  0
   20.6202  -16.6496    0.0000 C   0  0  0  0  0  0  0  0  0  0  0  0
   21.5291  -15.4564    0.0000 C   0  0  0  0  0  0  0  0  0  0  0  0
   22.3690  -14.2136    0.0000 C   0  0  0  0  0  0  0  0  0  0  0  0
   23.1374  -12.9253    0.0000 C   0  0  0  0  0  0  0  0  0  0  0  0
   23.8315  -11.5956    0.0000 C   0  0  0  0  0  0  0  0  0  0  0  0
   24.4494  -10.2288    0.0000 C   0  0  0  0  0  0  0  0  0  0  0  0
   24.9889   -8.8291    0.0000 C   0  0  0  0  0  0  0  0  0  0  0  0
   25.4484   -7.4013    0.0000 C   0  0  0  0  0  0  0  0  0  0  0  0
   25.8264   -5.9497    0.0000 C   0  0  0  0  0  0  0  0  0  0  0  0
   26.1216   -4.4790    0.0000 C   0  0  0  0  0  0  0  0  0  0  0  0
   26.3332   -2.9940    0.0000 C   0  0  0  0  0  0  0  0  0  0  0  0
   26.4604   -1.4994    0.0000 C   0  0  0  0  0  0  0  0  0  0  0  0
  1  2  1  0
  2  3  1  0
  3  4  1  0
  4  5  1  0
  5  6  1  0
  6  7  1  0
  7  8  1  0
  8  9  1  0
  9 10  1  0
 10 11  1  0
 11 12  1  0
 12 13  1  0
 13 14  1  0
 14 15  1  0
 15 16  1  0
 16 17  1  0
 17 18  1  0
 18 19  1  0
 19 20  1  0
 20 21  1  0
 21 22  1  0
 22 23  1  0
 23 24  1  0
 24 25  1  0
 25 26  1  0
 26 27  1  0
 27 28  1  0
 28 29  1  0
 29 30  1  0
 30 31  1  0
 31 32  1  0
 32 33  1  0
 33 34  1  0
 34 35  1  0
 35 36  1  0
 36 37  1  0
 37 38  1  0
 38 39  1  0
 39 40  1  0
 40 41  1  0
 41 42  1  0
 42 43  1  0
 43 44  1  0
 44 45  1  0
 45 46  1  0
 46 47  1  0
 47 48  1  0
 48 49  1  0
 49 50  1  0
 50 51  1  0
 51 52  1  0
 52 53  1  0
 53 54  1  0
 54 55  1  0
 55 56  1  0
 56 57  1  0
 57 58  1  0
 58 59  1  0
 59 60  1  0
 60 61  1  0
 61 62  1  0
 62 63  1  0
 63 64  1  0
 64 65  1  0
 65 66  1  0
 66 67  1  0
 67 68  1  0
 68 69  1  0
 69 70  1  0
 70 71  1  0
 71 72  1  0
 72 73  1  0
 73 74  1  0
 74 75  1  0
 75 76  1  0
 76 77  1  0
 77 78  1  0
 78 79  1  0
 79 80  1  0
 80 81  1  0
 81 82  1  0
 82 83  1  0
 83 84  1  0
 84 85  1  0
 85 86  1  0
 86 87  1  0
 87 88  1  0
 88 89  1  0
 89 90  1  0
 90 91  1  0
 91 92  1  0
 92 93  1  0
 93 94  1  0
 94 95  1  0
 95 96  1  0
 96 97  1  0
 97 98  1  0
 98 99  1  0
 99100  1  0
100101  1  0
101102  1  0
102103  1  0
103104  1  0
104105  1  0
105106  1  0
106107  1  0
107108  1  0
108109  1  0
109110  1  0
110111  1  0
111112  1  0
112  2  1  0
M  END
>  <Title>  (769) 
idABBQgen9

$$$$

     RDKit          2D

 71 73  0  0  0  0  0  0  0  0999 V2000
   -7.1844   -1.4752    0.0000 C   0  0  0  0  0  0  0  0  0  0  0  0
   -6.5138   -2.8170    0.0000 C   0  0  0  0  0  0  0  0  0  0  0  0
   -7.8192   -3.5558    0.0000 C   0  0  0  0  0  0  0  0  0  0  0  0
   -9.0417   -4.4249    0.0000 C   0  0  0  0  0  0  0  0  0  0  0  0
  -10.1684   -5.4151    0.0000 C   0  0  0  0  0  0  0  0  0  0  0  0
  -11.1873   -6.5160    0.0000 C   0  0  0  0  0  0  0  0  0  0  0  0
  -12.0877   -7.7157    0.0000 C   0  0  0  0  0  0  0  0  0  0  0  0
  -12.8599   -9.0017    0.0000 C   0  0  0  0  0  0  0  0  0  0  0  0
  -13.4957  -10.3602    0.0000 C   0  0  0  0  0  0  0  0  0  0  0  0
  -13.9885  -11.7770    0.0000 C   0  0  0  0  0  0  0  0  0  0  0  0
  -14.3331  -13.2369    0.0000 C   0  0  0  0  0  0  0  0  0  0  0  0
  -14.5257  -14.7245    0.0000 C   0  0  0  0  0  0  0  0  0  0  0  0
  -14.5643  -16.2240    0.0000 C   0  0  0  0  0  0  0  0  0  0  0  0
  -14.4485  -17.7195    0.0000 C   0  0  0  0  0  0  0  0  0  0  0  0
  -14.1796  -19.1952    0.0000 C   0  0  0  0  0  0  0  0  0  0  0  0
  -13.7604  -20.6354    0.0000 C   0  0  0  0  0  0  0  0  0  0  0  0
  -13.1953  -22.0249    0.0000 C   0  0  0  0  0  0  0  0  0  0  0  0
  -12.4903  -23.3489    0.0000 C   0  0  0  0  0  0  0  0  0  0  0  0
  -11.6530  -24.5934    0.0000 C   0  0  0  0  0  0  0  0  0  0  0  0
  -10.6921  -25.7453    0.0000 C   0  0  0  0  0  0  0  0  0  0  0  0
   -9.6178  -26.7922    0.0000 C   0  0  0  0  0  0  0  0  0  0  0  0
   -8.4417  -27.7231    0.0000 C   0  0  0  0  0  0  0  0  0  0  0  0
   -7.1760  -28.5281    0.0000 C   0  0  0  0  0  0  0  0  0  0  0  0
   -5.8343  -29.1988    0.0000 C   0  0  0  0  0  0  0  0  0  0  0  0
   -4.4307  -29.7279    0.0000 C   0  0  0  0  0  0  0  0  0  0  0  0
   -2.9801  -30.1099    0.0000 C   0  0  0  0  0  0  0  0  0  0  0  0
   -1.4980  -30.3407    0.0000 C   0  0  0  0  0  0  0  0  0  0  0  0
    0.0000  -30.4180    0.0000 C   0  0  0  0  0  0  0  0  0  0  0  0
    1.4980  -30.3407    0.0000 C   0  0  0  0  0  0  0  0  0  0  0  0
    2.9801  -30.1099    0.0000 C   0  0  0  0  0  0  0  0  0  0  0  0
    4.4307  -29.7279    0.0000 C   0  0  0  0  0  0  0  0  0  0  0  0
    5.8343  -29.1988    0.0000 C   0  0  0  0  0  0  0  0  0  0  0  0
    7.1760  -28.5281    0.0000 C   0  0  0  0  0  0  0  0  0  0  0  0
    8.4417  -27.7231    0.0000 C   0  0  0  0  0  0  0  0  0  0  0  0
    9.6178  -26.7922    0.0000 C   0  0  0  0  0  0  0  0  0  0  0  0
   10.6921  -25.7453    0.0000 C   0  0  0  0  0  0  0  0  0  0  0  0
   11.6530  -24.5934    0.0000 C   0  0  0  0  0  0  0  0  0  0  0  0
   12.4903  -23.3489    0.0000 C   0  0  0  0  0  0  0  0  0  0  0  0
   13.1953  -22.0249    0.0000 C   0  0  0  0  0  0  0  0  0  0  0  0
   13.7604  -20.6354    0.0000 C   0  0  0  0  0  0  0  0  0  0  0  0
   14.1796  -19.1952    0.0000 C   0  0  0  0  0  0  0  0  0  0  0  0
   14.4485  -17.7195    0.0000 C   0  0  0  0  0  0  0  0  0  0  0  0
   14.5643  -16.2240    0.0000 C   0  0  0  0  0  0  0  0  0  0  0  0
   14.5257  -14.7245    0.0000 C   0  0  0  0  0  0  0  0  0  0  0  0
   14.3331  -13.2369    0.0000 C   0  0  0  0  0  0  0  0  0  0  0  0
   13.9885  -11.7770    0.0000 C   0  0  0  0  0  0  0  0  0  0  0  0
   13.4957  -10.3602    0.0000 C   0  0  0  0  0  0  0  0  0  0  0  0
   12.8599   -9.0017    0.0000 C   0  0  0  0  0  0  0  0  0  0  0  0
   12.0877   -7.7157    0.0000 C   0  0  0  0  0  0  0  0  0  0  0  0
   11.1873   -6.5160    0.0000 C   0  0  0  0  0  0  0  0  0  0  0  0
   10.1684   -5.4151    0.0000 C   0  0  0  0  0  0  0  0  0  0  0  0
    9.0417   -4.4249    0.0000 C   0  0  0  0  0  0  0  0  0  0  0  0
    7.8192   -3.5558    0.0000 C   0  0  0  0  0  0  0  0  0  0  0  0
    6.5138   -2.8170    0.0000 C   0  0  0  0  0  0  0  0  0  0  0  0
    5.1393   -2.2163    0.0000 C   0  0  0  0  0  0  0  0  0  0  0  0
    3.7103   -1.7601    0.0000 C   0  0  0  0  0  0  0  0  0  0  0  0
    2.2420   -1.4533    0.0000 C   0  0  0  0  0  0  0  0  0  0  0  0
    0.7500   -1.2990    0.0000 C   0  0  0  0  0  0  0  0  0  0  0  0
    1.5000    0.0000    0.0000 C   0  0  0  0  0  0  0  0  0  0  0  0
    0.7500    1.2990    0.0000 C   0  0  0  0  0  0  0  0  0  0  0  0
   -0.7500    1.2990    0.0000 C   0  0  0  0  0  0  0  0  0  0  0  0
   -1.5000    0.0000    0.0000 C   0  0  0  0  0  0  0  0  0  0  0  0
   -0.7500   -1.2990    0.0000 C   0  0  0  0  0  0  0  0  0  0  0  0
   -2.2420   -1.4533    0.0000 C   0  0  0  0  0  0  0  0  0  0  0  0
   -2.2917    0.0459    0.0000 C   0  0  0  0  0  0  0  0  0  0  0  0
   -3.4948    0.9418    0.0000 C   0  0  0  0  0  0  0  0  0  0  0  0
   -4.9453    0.5598    0.0000 C   0  0  0  0  0  0  0  0  0  0  0  0
   -5.5510   -0.8125    0.0000 C   0  0  0  0  0  0  0  0  0  0  0  0
   -5.1393   -2.2163    0.0000 C   0  0  0  0  0  0  0  0  0  0  0  0
   -3.7103   -1.7601    0.0000 C   0  0  0  0  0  0  0  0  0  0  0  0
   -4.0923   -0.3096    0.0000 O   0  0  0  0  0  0  0  0  0  0  0  0
  1  2  1  0
  2  3  1  0
  3  4  1  0
  4  5  1  0
  5  6  1  0
  6  7  1  0
  7  8  1  0
  8  9  1  0
  9 10  1  0
 10 11  1  0
 11 12  1  0
 12 13  1  0
 13 14  1  0
 14 15  1  0
 15 16  1  0
 16 17  1  0
 17 18  1  0
 18 19  1  0
 19 20  1  0
 20 21  1  0
 21 22  1  0
 22 23  1  0
 23 24  1  0
 24 25  1  0
 25 26  1  0
 26 27  1  0
 27 28  1  0
 28 29  1  0
 29 30  1  0
 30 31  1  0
 31 32  1  0
 32 33  1  0
 33 34  1  0
 34 35  1  0
 35 36  1  0
 36 37  1  0
 37 38  1  0
 38 39  1  0
 39 40  1  0
 40 41  1  0
 41 42  1  0
 42 43  1  0
 43 44  1  0
 44 45  1  0
 45 46  1  0
 46 47  1  0
 47 48  1  0
 48 49  1  0
 49 50  1  0
 50 51  1  0
 51 52  1  0
 52 53  1  0
 53 54  1  0
 54 55  1  0
 55 56  1  0
 56 57  1  0
 57 58  1  0
 58 59  2  0
 59 60  1  0
 60 61  2  0
 61 62  1  0
 62 63  2  0
 63 64  1  0
 64 65  2  0
 65 66  1  0
 66 67  2  0
 67 68  1  0
 68 69  2  0
 69 70  1  0
 70 71  2  0
 69  2  1  0
 63 58  1  0
 70 64  1  0
M  END
>  <Title>  (770) 
idABBRgen9

$$$$

     RDKit          2D

 69 79  0  0  0  0  0  0  0  0999 V2000
    6.9916   -6.2775    0.0000 C   0  0  0  0  0  0  0  0  0  0  0  0
    5.4951   -6.3798    0.0000 C   0  0  0  0  0  0  0  0  0  0  0  0
    5.1899   -4.9112    0.0000 C   0  0  0  0  0  0  0  0  0  0  0  0
    4.4998   -3.5794    0.0000 C   0  0  0  0  0  0  0  0  0  0  0  0
    3.4760   -2.4831    0.0000 C   0  0  0  0  0  0  0  0  0  0  0  0
    2.1944   -1.7037    0.0000 C   0  0  0  0  0  0  0  0  0  0  0  0
    2.7920   -0.3279    0.0000 C   0  0  0  0  0  0  0  0  0  0  0  0
    1.8993    0.8775    0.0000 O   0  0  0  0  0  0  0  0  0  0  0  0
    4.2823   -0.1575    0.0000 N   0  0  0  0  0  0  0  0  0  0  0  0
    4.8799    1.2183    0.0000 C   0  0  0  0  0  0  0  0  0  0  0  0
    6.3702    1.3886    0.0000 N   0  0  0  0  0  0  0  0  0  0  0  0
    6.9678    2.7645    0.0000 N   0  0  0  0  0  0  0  0  0  0  0  0
    6.0751    3.9699    0.0000 N   0  0  0  0  0  0  0  0  0  0  0  0
    4.5848    3.7995    0.0000 N   0  0  0  0  0  0  0  0  0  0  0  0
    3.9872    2.4237    0.0000 N   0  0  0  0  0  0  0  0  0  0  0  0
    0.7500   -1.2990    0.0000 C   0  0  0  0  0  0  0  0  0  0  0  0
    1.5000    0.0000    0.0000 C   0  0  0  0  0  0  0  0  0  0  0  0
    0.7500    1.2990    0.0000 C   0  0  0  0  0  0  0  0  0  0  0  0
   -0.7500    1.2990    0.0000 C   0  0  0  0  0  0  0  0  0  0  0  0
   -1.5000    0.0000    0.0000 C   0  0  0  0  0  0  0  0  0  0  0  0
   -0.7500   -1.2990    0.0000 C   0  0  0  0  0  0  0  0  0  0  0  0
   -2.1944   -1.7037    0.0000 C   0  0  0  0  0  0  0  0  0  0  0  0
   -2.2285   -0.2041    0.0000 C   0  0  0  0  0  0  0  0  0  0  0  0
   -3.5443    0.5161    0.0000 C   0  0  0  0  0  0  0  0  0  0  0  0
   -4.8259   -0.2633    0.0000 C   0  0  0  0  0  0  0  0  0  0  0  0
   -4.7918   -1.7629    0.0000 C   0  0  0  0  0  0  0  0  0  0  0  0
   -3.4760   -2.4831    0.0000 C   0  0  0  0  0  0  0  0  0  0  0  0
   -4.4998   -3.5794    0.0000 C   0  0  0  0  0  0  0  0  0  0  0  0
   -5.3082   -2.3158    0.0000 C   0  0  0  0  0  0  0  0  0  0  0  0
   -6.8066   -2.3841    0.0000 C   0  0  0  0  0  0  0  0  0  0  0  0
   -7.4967   -3.7159    0.0000 C   0  0  0  0  0  0  0  0  0  0  0  0
   -6.6884   -4.9795    0.0000 C   0  0  0  0  0  0  0  0  0  0  0  0
   -5.1899   -4.9112    0.0000 C   0  0  0  0  0  0  0  0  0  0  0  0
   -5.4951   -6.3798    0.0000 C   0  0  0  0  0  0  0  0  0  0  0  0
   -6.8423   -5.7202    0.0000 C   0  0  0  0  0  0  0  0  0  0  0  0
   -8.0871   -6.5571    0.0000 C   0  0  0  0  0  0  0  0  0  0  0  0
   -7.9848   -8.0536    0.0000 C   0  0  0  0  0  0  0  0  0  0  0  0
   -6.6376   -8.7132    0.0000 C   0  0  0  0  0  0  0  0  0  0  0  0
   -5.3928   -7.8763    0.0000 C   0  0  0  0  0  0  0  0  0  0  0  0
   -4.8904   -9.2897    0.0000 C   0  0  0  0  0  0  0  0  0  0  0  0
   -6.3842   -9.4261    0.0000 C   0  0  0  0  0  0  0  0  0  0  0  0
   -7.0130  -10.7880    0.0000 C   0  0  0  0  0  0  0  0  0  0  0  0
   -6.1480  -12.0134    0.0000 C   0  0  0  0  0  0  0  0  0  0  0  0
   -4.6542  -11.8770    0.0000 C   0  0  0  0  0  0  0  0  0  0  0  0
   -4.0254  -10.5152    0.0000 C   0  0  0  0  0  0  0  0  0  0  0  0
   -2.8618  -11.4618    0.0000 C   0  0  0  0  0  0  0  0  0  0  0  0
   -4.0673  -12.3545    0.0000 C   0  0  0  0  0  0  0  0  0  0  0  0
   -3.8969  -13.8448    0.0000 C   0  0  0  0  0  0  0  0  0  0  0  0
   -2.5211  -14.4424    0.0000 C   0  0  0  0  0  0  0  0  0  0  0  0
   -1.3157  -13.5497    0.0000 C   0  0  0  0  0  0  0  0  0  0  0  0
   -1.4860  -12.0594    0.0000 C   0  0  0  0  0  0  0  0  0  0  0  0
    0.0000  -12.2636    0.0000 C   0  0  0  0  0  0  0  0  0  0  0  0
   -0.5661  -13.6527    0.0000 C   0  0  0  0  0  0  0  0  0  0  0  0
    0.3538  -14.8375    0.0000 C   0  0  0  0  0  0  0  0  0  0  0  0
    1.8398  -14.6333    0.0000 C   0  0  0  0  0  0  0  0  0  0  0  0
    2.4059  -13.2442    0.0000 C   0  0  0  0  0  0  0  0  0  0  0  0
    1.4860  -12.0594    0.0000 C   0  0  0  0  0  0  0  0  0  0  0  0
    2.8618  -11.4618    0.0000 C   0  0  0  0  0  0  0  0  0  0  0  0
    3.0999  -12.9428    0.0000 C   0  0  0  0  0  0  0  0  0  0  0  0
    4.5015  -13.4772    0.0000 C   0  0  0  0  0  0  0  0  0  0  0  0
    5.6650  -12.5305    0.0000 C   0  0  0  0  0  0  0  0  0  0  0  0
    5.4270  -11.0495    0.0000 C   0  0  0  0  0  0  0  0  0  0  0  0
    4.0254  -10.5152    0.0000 C   0  0  0  0  0  0  0  0  0  0  0  0
    4.8904   -9.2897    0.0000 C   0  0  0  0  0  0  0  0  0  0  0  0
    5.8633  -10.4314    0.0000 C   0  0  0  0  0  0  0  0  0  0  0  0
    7.3385  -10.1598    0.0000 C   0  0  0  0  0  0  0  0  0  0  0  0
    7.8408   -8.7464    0.0000 C   0  0  0  0  0  0  0  0  0  0  0  0
    6.8679   -7.6046    0.0000 C   0  0  0  0  0  0  0  0  0  0  0  0
    5.3928   -7.8763    0.0000 C   0  0  0  0  0  0  0  0  0  0  0  0
  1  2  1  0
  2  3  1  0
  3  4  2  0
  4  5  1  0
  5  6  1  0
  6  7  1  0
  7  8  2  0
  7  9  1  0
  9 10  1  0
 10 11  2  0
 11 12  1  0
 12 13  2  0
 13 14  1  0
 14 15  2  0
  6 16  1  0
 16 17  2  0
 17 18  1  0
 18 19  2  0
 19 20  1  0
 20 21  2  0
 21 22  1  0
 22 23  2  0
 23 24  1  0
 24 25  2  0
 25 26  1  0
 26 27  2  0
 27 28  1  0
 28 29  2  0
 29 30  1  0
 30 31  2  0
 31 32  1  0
 32 33  2  0
 33 34  1  0
 34 35  2  0
 35 36  1  0
 36 37  2  0
 37 38  1  0
 38 39  2  0
 39 40  1  0
 40 41  2  0
 41 42  1  0
 42 43  2  0
 43 44  1  0
 44 45  2  0
 45 46  1  0
 46 47  2  0
 47 48  1  0
 48 49  2  0
 49 50  1  0
 50 51  2  0
 51 52  1  0
 52 53  2  0
 53 54  1  0
 54 55  2  0
 55 56  1  0
 56 57  2  0
 57 58  1  0
 58 59  2  0
 59 60  1  0
 60 61  2  0
 61 62  1  0
 62 63  2  0
 63 64  1  0
 64 65  2  0
 65 66  1  0
 66 67  2  0
 67 68  1  0
 68 69  2  0
 69  2  1  0
 15 10  1  0
 21 16  1  0
 27 22  1  0
 33 28  1  0
 39 34  1  0
 45 40  1  0
 51 46  1  0
 57 52  1  0
 63 58  1  0
 69 64  1  0
M  END
>  <Title>  (771) 
idABBSgen9

$$$$

     RDKit          2D

  7  6  0  0  0  0  0  0  0  0999 V2000
    0.0000    0.0000    0.0000 C   0  0  0  0  0  0  0  0  0  0  0  0
    1.2990    0.7500    0.0000 C   0  0  0  0  0  0  0  0  0  0  0  0
    2.5981    1.5000    0.0000 C   0  0  0  0  0  0  0  0  0  0  0  0
    3.8971    2.2500    0.0000 C   0  0  0  0  0  0  0  0  0  0  0  0
    5.1962    1.5000    0.0000 C   0  0  0  0  0  0  0  0  0  0  0  0
    6.4952    2.2500    0.0000 C   0  0  0  0  0  0  0  0  0  0  0  0
    7.7942    1.5000    0.0000 C   0  0  0  0  0  0  0  0  0  0  0  0
  1  2  1  0
  2  3  3  0
  3  4  1  0
  4  5  1  0
  5  6  2  3
  6  7  1  0
M  END
>  <Title>  (772) 
idABBTgen9

$$$$

     RDKit          2D

 27 30  0  0  0  0  0  0  0  0999 V2000
    3.0000    0.0000    0.0000 C   0  0  0  0  0  0  0  0  0  0  0  0
    1.5000    0.0000    0.0000 C   0  0  0  0  0  0  0  0  0  0  0  0
    0.7500   -1.2990    0.0000 C   0  0  0  0  0  0  0  0  0  0  0  0
   -0.7500   -1.2990    0.0000 C   0  0  0  0  0  0  0  0  0  0  0  0
   -1.5000    0.0000    0.0000 C   0  0  0  0  0  0  0  0  0  0  0  0
   -3.0000    0.0000    0.0000 C   0  0  0  0  0  0  0  0  0  0  0  0
   -3.7500   -1.2990    0.0000 O   0  0  0  0  0  0  0  0  0  0  0  0
   -3.7500    1.2990    0.0000 N   0  0  0  0  0  0  0  0  0  0  0  0
   -5.2500    1.2990    0.0000 C   0  0  0  0  0  0  0  0  0  0  0  0
   -6.1317    0.0855    0.0000 N   0  0  0  0  0  0  0  0  0  0  0  0
   -7.5583    0.5490    0.0000 N   0  0  0  0  0  0  0  0  0  0  0  0
   -7.5583    2.0490    0.0000 N   0  0  0  0  0  0  0  0  0  0  0  0
   -6.1317    2.5126    0.0000 N   0  0  0  0  0  0  0  0  0  0  0  0
   -5.6682    3.9391    0.0000 N   0  0  0  0  0  0  0  0  0  0  0  0
   -4.2009    4.2510    0.0000 C   0  0  0  0  0  0  0  0  0  0  0  0
   -3.7374    5.6776    0.0000 C   0  0  0  0  0  0  0  0  0  0  0  0
   -4.7411    6.7923    0.0000 N   0  0  0  0  0  0  0  0  0  0  0  0
   -4.2776    8.2189    0.0000 C   0  0  0  0  0  0  0  0  0  0  0  0
   -2.8104    8.5308    0.0000 C   0  0  0  0  0  0  0  0  0  0  0  0
   -2.3468    9.9574    0.0000 C   0  0  0  0  0  0  0  0  0  0  0  0
   -3.3505   11.0721    0.0000 C   0  0  0  0  0  0  0  0  0  0  0  0
   -4.8177   10.7602    0.0000 C   0  0  0  0  0  0  0  0  0  0  0  0
   -5.2813    9.3336    0.0000 C   0  0  0  0  0  0  0  0  0  0  0  0
   -6.2083    6.4805    0.0000 C   0  0  0  0  0  0  0  0  0  0  0  0
   -6.6718    5.0539    0.0000 C   0  0  0  0  0  0  0  0  0  0  0  0
   -0.7500    1.2990    0.0000 C   0  0  0  0  0  0  0  0  0  0  0  0
    0.7500    1.2990    0.0000 C   0  0  0  0  0  0  0  0  0  0  0  0
  1  2  1  0
  2  3  1  0
  3  4  2  0
  4  5  1  0
  5  6  1  0
  6  7  2  0
  6  8  1  0
  8  9  1  0
  9 10  2  0
 10 11  1  0
 11 12  2  0
 12 13  1  0
 13 14  1  0
 14 15  1  0
 15 16  2  0
 16 17  1  0
 17 18  1  0
 18 19  2  0
 19 20  1  0
 20 21  2  0
 21 22  1  0
 22 23  2  0
 17 24  1  0
 24 25  1  0
  5 26  1  0
 26 27  1  0
 27  2  1  0
 13  9  1  0
 25 14  1  0
 23 18  1  0
M  END
>  <Title>  (773) 
idABBUgen9

$$$$

     RDKit          2D

 20 22  0  0  0  0  0  0  0  0999 V2000
   10.0355    0.6881    0.0000 C   0  0  0  0  0  0  0  0  0  0  0  0
    8.5683    0.3762    0.0000 C   0  0  0  0  0  0  0  0  0  0  0  0
    7.4536    1.3799    0.0000 C   0  0  0  0  0  0  0  0  0  0  0  0
    6.1545    0.6299    0.0000 C   0  0  0  0  0  0  0  0  0  0  0  0
    6.4664   -0.8373    0.0000 C   0  0  0  0  0  0  0  0  0  0  0  0
    5.4627   -1.9520    0.0000 C   0  0  0  0  0  0  0  0  0  0  0  0
    5.9262   -3.3786    0.0000 O   0  0  0  0  0  0  0  0  0  0  0  0
    3.9955   -1.6402    0.0000 N   0  0  0  0  0  0  0  0  0  0  0  0
    2.9918   -2.7549    0.0000 C   0  0  0  0  0  0  0  0  0  0  0  0
    3.3037   -4.2221    0.0000 N   0  0  0  0  0  0  0  0  0  0  0  0
    2.0046   -4.9721    0.0000 N   0  0  0  0  0  0  0  0  0  0  0  0
    0.8899   -3.9684    0.0000 N   0  0  0  0  0  0  0  0  0  0  0  0
    1.5000   -2.5981    0.0000 N   0  0  0  0  0  0  0  0  0  0  0  0
    0.7500   -1.2990    0.0000 C   0  0  0  0  0  0  0  0  0  0  0  0
    1.5000    0.0000    0.0000 C   0  0  0  0  0  0  0  0  0  0  0  0
    0.7500    1.2990    0.0000 C   0  0  0  0  0  0  0  0  0  0  0  0
   -0.7500    1.2990    0.0000 C   0  0  0  0  0  0  0  0  0  0  0  0
   -1.5000    0.0000    0.0000 C   0  0  0  0  0  0  0  0  0  0  0  0
   -0.7500   -1.2990    0.0000 C   0  0  0  0  0  0  0  0  0  0  0  0
    7.9582   -0.9941    0.0000 C   0  0  0  0  0  0  0  0  0  0  0  0
  1  2  1  0
  2  3  1  0
  3  4  2  0
  4  5  1  0
  5  6  1  0
  6  7  2  0
  6  8  1  0
  8  9  1  0
  9 10  2  0
 10 11  1  0
 11 12  2  0
 12 13  1  0
 13 14  1  0
 14 15  2  0
 15 16  1  0
 16 17  2  0
 17 18  1  0
 18 19  2  0
  5 20  2  0
 20  2  1  0
 13  9  1  0
 19 14  1  0
M  END
>  <Title>  (774) 
idABBVgen9

$$$$

     RDKit          2D

 11 12  0  0  0  0  0  0  0  0999 V2000
    5.7990   -3.3481    0.0000 N   0  0  0  0  0  0  0  0  0  0  0  0
    4.2990   -3.3481    0.0000 C   0  0  0  0  0  0  0  0  0  0  0  0
    2.7990   -3.3481    0.0000 C   0  0  0  0  0  0  0  0  0  0  0  0
    1.5000   -2.5981    0.0000 C   0  0  0  0  0  0  0  0  0  0  0  0
    0.7500   -1.2990    0.0000 C   0  0  0  0  0  0  0  0  0  0  0  0
    1.5000    0.0000    0.0000 C   0  0  0  0  0  0  0  0  0  0  0  0
    0.7500    1.2990    0.0000 C   0  0  0  0  0  0  0  0  0  0  0  0
   -0.7500    1.2990    0.0000 C   0  0  0  0  0  0  0  0  0  0  0  0
   -1.5000    0.0000    0.0000 C   0  0  0  0  0  0  0  0  0  0  0  0
   -0.7500   -1.2990    0.0000 C   0  0  0  0  0  0  0  0  0  0  0  0
    1.5000   -4.0981    0.0000 C   0  0  0  0  0  0  0  0  0  0  0  0
  1  2  3  0
  2  3  1  0
  3  4  2  0
  4  5  1  0
  5  6  2  0
  6  7  1  0
  7  8  2  0
  8  9  1  0
  9 10  2  0
  4 11  1  0
 11  3  1  0
 10  5  1  0
M  END
>  <Title>  (775) 
idABBWgen9

$$$$

     RDKit          2D

103104  0  0  0  0  0  0  0  0999 V2000
   -2.3910    0.0979    0.0000 C   0  0  0  0  0  0  0  0  0  0  0  0
   -2.2469   -1.3951    0.0000 C   0  0  0  0  0  0  0  0  0  0  0  0
   -3.7346   -1.5870    0.0000 C   0  0  0  0  0  0  0  0  0  0  0  0
   -5.2069   -1.8737    0.0000 C   0  0  0  0  0  0  0  0  0  0  0  0
   -6.6579   -2.2542    0.0000 C   0  0  0  0  0  0  0  0  0  0  0  0
   -8.0815   -2.7268    0.0000 C   0  0  0  0  0  0  0  0  0  0  0  0
   -9.4718   -3.2897    0.0000 C   0  0  0  0  0  0  0  0  0  0  0  0
  -10.8233   -3.9406    0.0000 C   0  0  0  0  0  0  0  0  0  0  0  0
  -12.1303   -4.6766    0.0000 C   0  0  0  0  0  0  0  0  0  0  0  0
  -13.3874   -5.4949    0.0000 C   0  0  0  0  0  0  0  0  0  0  0  0
  -14.5895   -6.3921    0.0000 C   0  0  0  0  0  0  0  0  0  0  0  0
  -15.7317   -7.3645    0.0000 C   0  0  0  0  0  0  0  0  0  0  0  0
  -16.8092   -8.4080    0.0000 C   0  0  0  0  0  0  0  0  0  0  0  0
  -17.8177   -9.5184    0.0000 C   0  0  0  0  0  0  0  0  0  0  0  0
  -18.7529  -10.6911    0.0000 C   0  0  0  0  0  0  0  0  0  0  0  0
  -19.6111  -11.9214    0.0000 C   0  0  0  0  0  0  0  0  0  0  0  0
  -20.3887  -13.2041    0.0000 C   0  0  0  0  0  0  0  0  0  0  0  0
  -21.0825  -14.5340    0.0000 C   0  0  0  0  0  0  0  0  0  0  0  0
  -21.6897  -15.9056    0.0000 C   0  0  0  0  0  0  0  0  0  0  0  0
  -22.2077  -17.3133    0.0000 C   0  0  0  0  0  0  0  0  0  0  0  0
  -22.6345  -18.7513    0.0000 C   0  0  0  0  0  0  0  0  0  0  0  0
  -22.9683  -20.2137    0.0000 C   0  0  0  0  0  0  0  0  0  0  0  0
  -23.2077  -21.6945    0.0000 C   0  0  0  0  0  0  0  0  0  0  0  0
  -23.3517  -23.1876    0.0000 C   0  0  0  0  0  0  0  0  0  0  0  0
  -23.3998  -24.6868    0.0000 C   0  0  0  0  0  0  0  0  0  0  0  0
  -23.3517  -26.1860    0.0000 C   0  0  0  0  0  0  0  0  0  0  0  0
  -23.2077  -27.6791    0.0000 C   0  0  0  0  0  0  0  0  0  0  0  0
  -22.9683  -29.1599    0.0000 C   0  0  0  0  0  0  0  0  0  0  0  0
  -22.6345  -30.6223    0.0000 C   0  0  0  0  0  0  0  0  0  0  0  0
  -22.2077  -32.0603    0.0000 C   0  0  0  0  0  0  0  0  0  0  0  0
  -21.6897  -33.4680    0.0000 C   0  0  0  0  0  0  0  0  0  0  0  0
  -21.0825  -34.8396    0.0000 C   0  0  0  0  0  0  0  0  0  0  0  0
  -20.3887  -36.1695    0.0000 C   0  0  0  0  0  0  0  0  0  0  0  0
  -19.6111  -37.4522    0.0000 C   0  0  0  0  0  0  0  0  0  0  0  0
  -18.7529  -38.6825    0.0000 C   0  0  0  0  0  0  0  0  0  0  0  0
  -17.8177  -39.8552    0.0000 C   0  0  0  0  0  0  0  0  0  0  0  0
  -16.8092  -40.9656    0.0000 C   0  0  0  0  0  0  0  0  0  0  0  0
  -15.7317  -42.0091    0.0000 C   0  0  0  0  0  0  0  0  0  0  0  0
  -14.5895  -42.9815    0.0000 C   0  0  0  0  0  0  0  0  0  0  0  0
  -13.3874  -43.8787    0.0000 C   0  0  0  0  0  0  0  0  0  0  0  0
  -12.1303  -44.6970    0.0000 C   0  0  0  0  0  0  0  0  0  0  0  0
  -10.8233  -45.4330    0.0000 C   0  0  0  0  0  0  0  0  0  0  0  0
   -9.4718  -46.0839    0.0000 C   0  0  0  0  0  0  0  0  0  0  0  0
   -8.0815  -46.6468    0.0000 C   0  0  0  0  0  0  0  0  0  0  0  0
   -6.6579  -47.1194    0.0000 C   0  0  0  0  0  0  0  0  0  0  0  0
   -5.2069  -47.4999    0.0000 C   0  0  0  0  0  0  0  0  0  0  0  0
   -3.7346  -47.7866    0.0000 C   0  0  0  0  0  0  0  0  0  0  0  0
   -2.2469  -47.9785    0.0000 C   0  0  0  0  0  0  0  0  0  0  0  0
   -0.7500  -48.0746    0.0000 C   0  0  0  0  0  0  0  0  0  0  0  0
    0.7500  -48.0746    0.0000 C   0  0  0  0  0  0  0  0  0  0  0  0
    2.2469  -47.9785    0.0000 C   0  0  0  0  0  0  0  0  0  0  0  0
    3.7346  -47.7866    0.0000 C   0  0  0  0  0  0  0  0  0  0  0  0
    5.2069  -47.4999    0.0000 C   0  0  0  0  0  0  0  0  0  0  0  0
    6.6579  -47.1194    0.0000 C   0  0  0  0  0  0  0  0  0  0  0  0
    8.0815  -46.6468    0.0000 C   0  0  0  0  0  0  0  0  0  0  0  0
    9.4718  -46.0839    0.0000 C   0  0  0  0  0  0  0  0  0  0  0  0
   10.8233  -45.4330    0.0000 C   0  0  0  0  0  0  0  0  0  0  0  0
   12.1303  -44.6970    0.0000 C   0  0  0  0  0  0  0  0  0  0  0  0
   13.3874  -43.8787    0.0000 C   0  0  0  0  0  0  0  0  0  0  0  0
   14.5895  -42.9815    0.0000 C   0  0  0  0  0  0  0  0  0  0  0  0
   15.7317  -42.0091    0.0000 C   0  0  0  0  0  0  0  0  0  0  0  0
   16.8092  -40.9656    0.0000 C   0  0  0  0  0  0  0  0  0  0  0  0
   17.8177  -39.8552    0.0000 C   0  0  0  0  0  0  0  0  0  0  0  0
   18.7529  -38.6825    0.0000 C   0  0  0  0  0  0  0  0  0  0  0  0
   19.6111  -37.4522    0.0000 C   0  0  0  0  0  0  0  0  0  0  0  0
   20.3887  -36.1695    0.0000 C   0  0  0  0  0  0  0  0  0  0  0  0
   21.0825  -34.8396    0.0000 C   0  0  0  0  0  0  0  0  0  0  0  0
   21.6897  -33.4680    0.0000 C   0  0  0  0  0  0  0  0  0  0  0  0
   22.2077  -32.0603    0.0000 C   0  0  0  0  0  0  0  0  0  0  0  0
   22.6345  -30.6223    0.0000 C   0  0  0  0  0  0  0  0  0  0  0  0
   22.9683  -29.1599    0.0000 C   0  0  0  0  0  0  0  0  0  0  0  0
   23.2077  -27.6791    0.0000 C   0  0  0  0  0  0  0  0  0  0  0  0
   23.3517  -26.1860    0.0000 C   0  0  0  0  0  0  0  0  0  0  0  0
   23.3998  -24.6868    0.0000 C   0  0  0  0  0  0  0  0  0  0  0  0
   23.3517  -23.1876    0.0000 C   0  0  0  0  0  0  0  0  0  0  0  0
   23.2077  -21.6945    0.0000 C   0  0  0  0  0  0  0  0  0  0  0  0
   22.9683  -20.2137    0.0000 C   0  0  0  0  0  0  0  0  0  0  0  0
   22.6345  -18.7513    0.0000 C   0  0  0  0  0  0  0  0  0  0  0  0
   22.2077  -17.3133    0.0000 C   0  0  0  0  0  0  0  0  0  0  0  0
   21.6897  -15.9056    0.0000 C   0  0  0  0  0  0  0  0  0  0  0  0
   21.0825  -14.5340    0.0000 C   0  0  0  0  0  0  0  0  0  0  0  0
   20.3887  -13.2041    0.0000 C   0  0  0  0  0  0  0  0  0  0  0  0
   19.6111  -11.9214    0.0000 C   0  0  0  0  0  0  0  0  0  0  0  0
   18.7529  -10.6911    0.0000 C   0  0  0  0  0  0  0  0  0  0  0  0
   17.8177   -9.5184    0.0000 C   0  0  0  0  0  0  0  0  0  0  0  0
   16.8092   -8.4080    0.0000 C   0  0  0  0  0  0  0  0  0  0  0  0
   15.7317   -7.3645    0.0000 C   0  0  0  0  0  0  0  0  0  0  0  0
   14.5895   -6.3921    0.0000 C   0  0  0  0  0  0  0  0  0  0  0  0
   13.3874   -5.4949    0.0000 C   0  0  0  0  0  0  0  0  0  0  0  0
   12.1303   -4.6766    0.0000 C   0  0  0  0  0  0  0  0  0  0  0  0
   10.8233   -3.9406    0.0000 C   0  0  0  0  0  0  0  0  0  0  0  0
    9.4718   -3.2897    0.0000 C   0  0  0  0  0  0  0  0  0  0  0  0
    8.0815   -2.7268    0.0000 C   0  0  0  0  0  0  0  0  0  0  0  0
    6.6579   -2.2542    0.0000 C   0  0  0  0  0  0  0  0  0  0  0  0
    5.2069   -1.8737    0.0000 C   0  0  0  0  0  0  0  0  0  0  0  0
    3.7346   -1.5870    0.0000 C   0  0  0  0  0  0  0  0  0  0  0  0
    2.2469   -1.3951    0.0000 C   0  0  0  0  0  0  0  0  0  0  0  0
    0.7500   -1.2990    0.0000 C   0  0  0  0  0  0  0  0  0  0  0  0
    1.5000    0.0000    0.0000 C   0  0  0  0  0  0  0  0  0  0  0  0
    0.7500    1.2990    0.0000 C   0  0  0  0  0  0  0  0  0  0  0  0
   -0.7500    1.2990    0.0000 C   0  0  0  0  0  0  0  0  0  0  0  0
   -1.5000    0.0000    0.0000 C   0  0  0  0  0  0  0  0  0  0  0  0
   -0.7500   -1.2990    0.0000 C   0  0  0  0  0  0  0  0  0  0  0  0
  1  2  1  0
  2  3  1  0
  3  4  1  0
  4  5  1  0
  5  6  1  0
  6  7  1  0
  7  8  1  0
  8  9  1  0
  9 10  1  0
 10 11  1  0
 11 12  1  0
 12 13  1  0
 13 14  1  0
 14 15  1  0
 15 16  1  0
 16 17  1  0
 17 18  1  0
 18 19  1  0
 19 20  1  0
 20 21  1  0
 21 22  1  0
 22 23  1  0
 23 24  1  0
 24 25  1  0
 25 26  1  0
 26 27  1  0
 27 28  1  0
 28 29  1  0
 29 30  1  0
 30 31  1  0
 31 32  1  0
 32 33  1  0
 33 34  1  0
 34 35  1  0
 35 36  1  0
 36 37  1  0
 37 38  1  0
 38 39  1  0
 39 40  1  0
 40 41  1  0
 41 42  1  0
 42 43  1  0
 43 44  1  0
 44 45  1  0
 45 46  1  0
 46 47  1  0
 47 48  1  0
 48 49  1  0
 49 50  1  0
 50 51  1  0
 51 52  1  0
 52 53  1  0
 53 54  1  0
 54 55  1  0
 55 56  1  0
 56 57  1  0
 57 58  1  0
 58 59  1  0
 59 60  1  0
 60 61  1  0
 61 62  1  0
 62 63  1  0
 63 64  1  0
 64 65  1  0
 65 66  1  0
 66 67  1  0
 67 68  1  0
 68 69  1  0
 69 70  1  0
 70 71  1  0
 71 72  1  0
 72 73  1  0
 73 74  1  0
 74 75  1  0
 75 76  1  0
 76 77  1  0
 77 78  1  0
 78 79  1  0
 79 80  1  0
 80 81  1  0
 81 82  1  0
 82 83  1  0
 83 84  1  0
 84 85  1  0
 85 86  1  0
 86 87  1  0
 87 88  1  0
 88 89  1  0
 89 90  1  0
 90 91  1  0
 91 92  1  0
 92 93  1  0
 93 94  1  0
 94 95  1  0
 95 96  1  0
 96 97  1  0
 97 98  1  0
 98 99  1  0
 99100  1  0
100101  1  0
101102  1  0
102103  2  0
103  2  1  0
103 98  1  0
M  END
>  <Title>  (776) 
idABBXgen9

$$$$

     RDKit          2D

 25 27  0  0  0  0  0  0  0  0999 V2000
   -6.8176    1.3460    0.0000 C   0  0  0  0  0  0  0  0  0  0  0  0
   -6.9744   -0.1458    0.0000 C   0  0  0  0  0  0  0  0  0  0  0  0
   -5.7609   -1.0275    0.0000 C   0  0  0  0  0  0  0  0  0  0  0  0
   -6.6426   -2.2410    0.0000 C   0  0  0  0  0  0  0  0  0  0  0  0
   -4.8792    0.1861    0.0000 C   0  0  0  0  0  0  0  0  0  0  0  0
   -4.5474   -1.9091    0.0000 C   0  0  0  0  0  0  0  0  0  0  0  0
   -3.1771   -1.2990    0.0000 C   0  0  0  0  0  0  0  0  0  0  0  0
   -3.0203    0.1927    0.0000 O   0  0  0  0  0  0  0  0  0  0  0  0
   -1.9635   -2.1807    0.0000 N   0  0  0  0  0  0  0  0  0  0  0  0
   -2.4271   -3.6073    0.0000 C   0  0  0  0  0  0  0  0  0  0  0  0
   -1.9635   -5.0339    0.0000 C   0  0  0  0  0  0  0  0  0  0  0  0
   -0.7500   -5.9156    0.0000 C   0  0  0  0  0  0  0  0  0  0  0  0
    0.7500   -5.9156    0.0000 C   0  0  0  0  0  0  0  0  0  0  0  0
    1.9635   -5.0339    0.0000 C   0  0  0  0  0  0  0  0  0  0  0  0
    2.4271   -3.6073    0.0000 C   0  0  0  0  0  0  0  0  0  0  0  0
    3.9271   -3.6073    0.0000 C   0  0  0  0  0  0  0  0  0  0  0  0
    4.3906   -2.1807    0.0000 C   0  0  0  0  0  0  0  0  0  0  0  0
    3.1771   -1.2990    0.0000 C   0  0  0  0  0  0  0  0  0  0  0  0
    1.9635   -2.1807    0.0000 C   0  0  0  0  0  0  0  0  0  0  0  0
    0.7500   -1.2990    0.0000 C   0  0  0  0  0  0  0  0  0  0  0  0
    1.5000    0.0000    0.0000 C   0  0  0  0  0  0  0  0  0  0  0  0
    0.7500    1.2990    0.0000 C   0  0  0  0  0  0  0  0  0  0  0  0
   -0.7500    1.2990    0.0000 C   0  0  0  0  0  0  0  0  0  0  0  0
   -1.5000    0.0000    0.0000 C   0  0  0  0  0  0  0  0  0  0  0  0
   -0.7500   -1.2990    0.0000 C   0  0  0  0  0  0  0  0  0  0  0  0
  1  2  1  0
  2  3  1  0
  3  4  1  0
  3  5  1  0
  3  6  1  0
  6  7  1  0
  7  8  2  0
  7  9  1  0
  9 10  1  0
 10 11  1  0
 11 12  1  0
 12 13  1  0
 13 14  1  0
 14 15  1  0
 15 16  1  0
 16 17  2  0
 17 18  1  0
 18 19  1  0
 19 20  1  0
 20 21  2  0
 21 22  1  0
 22 23  2  0
 23 24  1  0
 24 25  2  0
 25  9  1  0
 19 15  1  0
 25 20  1  0
M  END
>  <Title>  (777) 
idABBYgen9

$$$$

     RDKit          2D

 74 74  0  0  0  0  0  0  0  0999 V2000
   18.9328    0.0000    0.0000 C   0  0  0  0  0  0  0  0  0  0  0  0
   17.4328    0.0000    0.0000 C   0  0  0  0  0  0  0  0  0  0  0  0
   17.3683    1.4986    0.0000 C   0  0  0  0  0  0  0  0  0  0  0  0
   17.1752    2.9861    0.0000 C   0  0  0  0  0  0  0  0  0  0  0  0
   16.8549    4.4515    0.0000 C   0  0  0  0  0  0  0  0  0  0  0  0
   16.4098    5.8840    0.0000 C   0  0  0  0  0  0  0  0  0  0  0  0
   15.8433    7.2729    0.0000 C   0  0  0  0  0  0  0  0  0  0  0  0
   15.1594    8.6079    0.0000 C   0  0  0  0  0  0  0  0  0  0  0  0
   14.3633    9.8792    0.0000 C   0  0  0  0  0  0  0  0  0  0  0  0
   13.4609   11.0774    0.0000 C   0  0  0  0  0  0  0  0  0  0  0  0
   12.4588   12.1935    0.0000 C   0  0  0  0  0  0  0  0  0  0  0  0
   11.3645   13.2194    0.0000 C   0  0  0  0  0  0  0  0  0  0  0  0
   10.1860   14.1474    0.0000 C   0  0  0  0  0  0  0  0  0  0  0  0
    8.9321   14.9707    0.0000 C   0  0  0  0  0  0  0  0  0  0  0  0
    7.6121   15.6831    0.0000 C   0  0  0  0  0  0  0  0  0  0  0  0
    6.2357   16.2794    0.0000 C   0  0  0  0  0  0  0  0  0  0  0  0
    4.8132   16.7552    0.0000 C   0  0  0  0  0  0  0  0  0  0  0  0
    3.3550   17.1070    0.0000 C   0  0  0  0  0  0  0  0  0  0  0  0
    1.8720   17.3320    0.0000 C   0  0  0  0  0  0  0  0  0  0  0  0
    0.3751   17.4288    0.0000 C   0  0  0  0  0  0  0  0  0  0  0  0
   -1.1246   17.3965    0.0000 C   0  0  0  0  0  0  0  0  0  0  0  0
   -2.6159   17.2355    0.0000 C   0  0  0  0  0  0  0  0  0  0  0  0
   -4.0879   16.9468    0.0000 C   0  0  0  0  0  0  0  0  0  0  0  0
   -5.5295   16.5326    0.0000 C   0  0  0  0  0  0  0  0  0  0  0  0
   -6.9303   15.9961    0.0000 C   0  0  0  0  0  0  0  0  0  0  0  0
   -8.2797   15.3411    0.0000 C   0  0  0  0  0  0  0  0  0  0  0  0
   -9.5679   14.5726    0.0000 C   0  0  0  0  0  0  0  0  0  0  0  0
  -10.7852   13.6961    0.0000 C   0  0  0  0  0  0  0  0  0  0  0  0
  -11.9227   12.7183    0.0000 C   0  0  0  0  0  0  0  0  0  0  0  0
  -12.9719   11.6463    0.0000 C   0  0  0  0  0  0  0  0  0  0  0  0
  -13.9250   10.4880    0.0000 C   0  0  0  0  0  0  0  0  0  0  0  0
  -14.7751    9.2521    0.0000 C   0  0  0  0  0  0  0  0  0  0  0  0
  -15.5157    7.9478    0.0000 C   0  0  0  0  0  0  0  0  0  0  0  0
  -16.1415    6.5845    0.0000 C   0  0  0  0  0  0  0  0  0  0  0  0
  -16.6478    5.1725    0.0000 C   0  0  0  0  0  0  0  0  0  0  0  0
  -17.0308    3.7223    0.0000 C   0  0  0  0  0  0  0  0  0  0  0  0
  -17.2878    2.2444    0.0000 C   0  0  0  0  0  0  0  0  0  0  0  0
  -17.4167    0.7500    0.0000 C   0  0  0  0  0  0  0  0  0  0  0  0
  -17.4167   -0.7500    0.0000 C   0  0  0  0  0  0  0  0  0  0  0  0
  -17.2878   -2.2444    0.0000 C   0  0  0  0  0  0  0  0  0  0  0  0
  -17.0308   -3.7223    0.0000 C   0  0  0  0  0  0  0  0  0  0  0  0
  -16.6478   -5.1725    0.0000 C   0  0  0  0  0  0  0  0  0  0  0  0
  -16.1415   -6.5845    0.0000 C   0  0  0  0  0  0  0  0  0  0  0  0
  -15.5157   -7.9478    0.0000 C   0  0  0  0  0  0  0  0  0  0  0  0
  -14.7751   -9.2521    0.0000 C   0  0  0  0  0  0  0  0  0  0  0  0
  -13.9250  -10.4880    0.0000 C   0  0  0  0  0  0  0  0  0  0  0  0
  -12.9719  -11.6463    0.0000 C   0  0  0  0  0  0  0  0  0  0  0  0
  -11.9227  -12.7183    0.0000 C   0  0  0  0  0  0  0  0  0  0  0  0
  -10.7852  -13.6961    0.0000 C   0  0  0  0  0  0  0  0  0  0  0  0
   -9.5679  -14.5726    0.0000 C   0  0  0  0  0  0  0  0  0  0  0  0
   -8.2797  -15.3411    0.0000 C   0  0  0  0  0  0  0  0  0  0  0  0
   -6.9303  -15.9961    0.0000 C   0  0  0  0  0  0  0  0  0  0  0  0
   -5.5295  -16.5326    0.0000 C   0  0  0  0  0  0  0  0  0  0  0  0
   -4.0879  -16.9468    0.0000 C   0  0  0  0  0  0  0  0  0  0  0  0
   -2.6159  -17.2355    0.0000 C   0  0  0  0  0  0  0  0  0  0  0  0
   -1.1246  -17.3965    0.0000 C   0  0  0  0  0  0  0  0  0  0  0  0
    0.3751  -17.4288    0.0000 C   0  0  0  0  0  0  0  0  0  0  0  0
    1.8720  -17.3320    0.0000 C   0  0  0  0  0  0  0  0  0  0  0  0
    3.3550  -17.1070    0.0000 C   0  0  0  0  0  0  0  0  0  0  0  0
    4.8132  -16.7552    0.0000 C   0  0  0  0  0  0  0  0  0  0  0  0
    6.2357  -16.2794    0.0000 C   0  0  0  0  0  0  0  0  0  0  0  0
    7.6121  -15.6831    0.0000 C   0  0  0  0  0  0  0  0  0  0  0  0
    8.9321  -14.9707    0.0000 C   0  0  0  0  0  0  0  0  0  0  0  0
   10.1860  -14.1474    0.0000 C   0  0  0  0  0  0  0  0  0  0  0  0
   11.3645  -13.2194    0.0000 C   0  0  0  0  0  0  0  0  0  0  0  0
   12.4588  -12.1935    0.0000 C   0  0  0  0  0  0  0  0  0  0  0  0
   13.4609  -11.0774    0.0000 C   0  0  0  0  0  0  0  0  0  0  0  0
   14.3633   -9.8792    0.0000 C   0  0  0  0  0  0  0  0  0  0  0  0
   15.1594   -8.6079    0.0000 C   0  0  0  0  0  0  0  0  0  0  0  0
   15.8433   -7.2729    0.0000 C   0  0  0  0  0  0  0  0  0  0  0  0
   16.4098   -5.8840    0.0000 C   0  0  0  0  0  0  0  0  0  0  0  0
   16.8549   -4.4515    0.0000 C   0  0  0  0  0  0  0  0  0  0  0  0
   17.1752   -2.9861    0.0000 C   0  0  0  0  0  0  0  0  0  0  0  0
   17.3683   -1.4986    0.0000 C   0  0  0  0  0  0  0  0  0  0  0  0
  1  2  1  0
  2  3  1  0
  3  4  1  0
  4  5  1  0
  5  6  1  0
  6  7  1  0
  7  8  1  0
  8  9  1  0
  9 10  1  0
 10 11  1  0
 11 12  1  0
 12 13  1  0
 13 14  1  0
 14 15  1  0
 15 16  1  0
 16 17  1  0
 17 18  1  0
 18 19  1  0
 19 20  1  0
 20 21  1  0
 21 22  1  0
 22 23  1  0
 23 24  1  0
 24 25  1  0
 25 26  1  0
 26 27  1  0
 27 28  1  0
 28 29  1  0
 29 30  1  0
 30 31  1  0
 31 32  1  0
 32 33  1  0
 33 34  1  0
 34 35  1  0
 35 36  1  0
 36 37  1  0
 37 38  1  0
 38 39  1  0
 39 40  1  0
 40 41  1  0
 41 42  1  0
 42 43  1  0
 43 44  1  0
 44 45  1  0
 45 46  1  0
 46 47  1  0
 47 48  1  0
 48 49  1  0
 49 50  1  0
 50 51  1  0
 51 52  1  0
 52 53  1  0
 53 54  1  0
 54 55  1  0
 55 56  1  0
 56 57  1  0
 57 58  1  0
 58 59  1  0
 59 60  1  0
 60 61  1  0
 61 62  1  0
 62 63  1  0
 63 64  1  0
 64 65  1  0
 65 66  1  0
 66 67  1  0
 67 68  1  0
 68 69  1  0
 69 70  1  0
 70 71  1  0
 71 72  1  0
 72 73  1  0
 73 74  1  0
 74  2  1  0
M  END
>  <Title>  (778) 
idABBZgen9

$$$$

     RDKit          2D

 18 18  0  0  0  0  0  0  0  0999 V2000
   19.5000    0.0000    0.0000 C   0  0  0  0  0  0  0  0  0  0  0  0
   18.0000    0.0000    0.0000 C   0  0  0  0  0  0  0  0  0  0  0  0
   16.5000    0.0000    0.0000 C   0  0  0  0  0  0  0  0  0  0  0  0
   15.0000    0.0000    0.0000 C   0  0  0  0  0  0  0  0  0  0  0  0
   13.5000    0.0000    0.0000 C   0  0  0  0  0  0  0  0  0  0  0  0
   12.0000    0.0000    0.0000 C   0  0  0  0  0  0  0  0  0  0  0  0
   10.5000    0.0000    0.0000 C   0  0  0  0  0  0  0  0  0  0  0  0
    9.0000    0.0000    0.0000 C   0  0  0  0  0  0  0  0  0  0  0  0
    7.5000    0.0000    0.0000 C   0  0  0  0  0  0  0  0  0  0  0  0
    6.0000    0.0000    0.0000 C   0  0  0  0  0  0  0  0  0  0  0  0
    4.5000    0.0000    0.0000 C   0  0  0  0  0  0  0  0  0  0  0  0
    3.0000    0.0000    0.0000 C   0  0  0  0  0  0  0  0  0  0  0  0
    1.5000    0.0000    0.0000 C   0  0  0  0  0  0  0  0  0  0  0  0
    0.7500   -1.2990    0.0000 C   0  0  0  0  0  0  0  0  0  0  0  0
   -0.7500   -1.2990    0.0000 C   0  0  0  0  0  0  0  0  0  0  0  0
   -1.5000    0.0000    0.0000 C   0  0  0  0  0  0  0  0  0  0  0  0
   -0.7500    1.2990    0.0000 C   0  0  0  0  0  0  0  0  0  0  0  0
    0.7500    1.2990    0.0000 C   0  0  0  0  0  0  0  0  0  0  0  0
  1  2  3  0
  2  3  1  0
  3  4  3  0
  4  5  1  0
  5  6  3  0
  6  7  1  0
  7  8  3  0
  8  9  1  0
  9 10  3  0
 10 11  1  0
 11 12  3  0
 12 13  1  0
 13 14  2  0
 14 15  1  0
 15 16  1  0
 16 17  1  0
 17 18  1  0
 18 13  1  0
M  END
>  <Title>  (779) 
idABCAgen9

$$$$

     RDKit          2D

  8  7  0  0  0  0  0  0  0  0999 V2000
    0.0000    0.0000    0.0000 C   0  0  0  0  0  0  0  0  0  0  0  0
    1.2990    0.7500    0.0000 C   0  0  0  0  0  0  0  0  0  0  0  0
    1.2990    2.2500    0.0000 O   0  0  0  0  0  0  0  0  0  0  0  0
    2.5981   -0.0000    0.0000 C   0  0  0  0  0  0  0  0  0  0  0  0
    3.8971    0.7500    0.0000 C   0  0  0  0  0  0  0  0  0  0  0  0
    5.1962    1.5000    0.0000 C   0  0  0  0  0  0  0  0  0  0  0  0
    3.1471    2.0490    0.0000 F   0  0  0  0  0  0  0  0  0  0  0  0
    4.6471   -0.5490    0.0000 F   0  0  0  0  0  0  0  0  0  0  0  0
  1  2  1  0
  2  3  2  0
  2  4  1  0
  4  5  1  0
  5  6  1  0
  5  7  1  0
  5  8  1  0
M  END
>  <Title>  (780) 
idABCBgen9

$$$$

     RDKit          2D

 21 21  0  0  0  0  0  0  0  0999 V2000
   25.2760   -0.0000    0.0000 C   0  0  0  0  0  0  0  0  0  0  0  0
   23.7760   -0.0000    0.0000 C   0  0  0  0  0  0  0  0  0  0  0  0
   22.2760   -0.0000    0.0000 C   0  0  0  0  0  0  0  0  0  0  0  0
   20.7760   -0.0000    0.0000 C   0  0  0  0  0  0  0  0  0  0  0  0
   19.2760   -0.0000    0.0000 C   0  0  0  0  0  0  0  0  0  0  0  0
   17.7760   -0.0000    0.0000 C   0  0  0  0  0  0  0  0  0  0  0  0
   16.2760   -0.0000    0.0000 C   0  0  0  0  0  0  0  0  0  0  0  0
   14.7760   -0.0000    0.0000 C   0  0  0  0  0  0  0  0  0  0  0  0
   13.2760   -0.0000    0.0000 C   0  0  0  0  0  0  0  0  0  0  0  0
   11.7760   -0.0000    0.0000 C   0  0  0  0  0  0  0  0  0  0  0  0
   10.2760   -0.0000    0.0000 C   0  0  0  0  0  0  0  0  0  0  0  0
    8.7760   -0.0000    0.0000 C   0  0  0  0  0  0  0  0  0  0  0  0
    7.2760   -0.0000    0.0000 C   0  0  0  0  0  0  0  0  0  0  0  0
    5.7760   -0.0000    0.0000 C   0  0  0  0  0  0  0  0  0  0  0  0
    4.2760   -0.0000    0.0000 C   0  0  0  0  0  0  0  0  0  0  0  0
    2.7760    0.0000    0.0000 C   0  0  0  0  0  0  0  0  0  0  0  0
    1.2760    0.0000    0.0000 C   0  0  0  0  0  0  0  0  0  0  0  0
    0.3943    1.2135    0.0000 N   0  0  0  0  0  0  0  0  0  0  0  0
   -1.0323    0.7500    0.0000 N   0  0  0  0  0  0  0  0  0  0  0  0
   -1.0323   -0.7500    0.0000 C   0  0  0  0  0  0  0  0  0  0  0  0
    0.3943   -1.2135    0.0000 C   0  0  0  0  0  0  0  0  0  0  0  0
  1  2  3  0
  2  3  1  0
  3  4  3  0
  4  5  1  0
  5  6  3  0
  6  7  1  0
  7  8  3  0
  8  9  1  0
  9 10  3  0
 10 11  1  0
 11 12  3  0
 12 13  1  0
 13 14  3  0
 14 15  1  0
 15 16  3  0
 16 17  1  0
 17 18  2  0
 18 19  1  0
 19 20  2  0
 20 21  1  0
 21 17  1  0
M  END
>  <Title>  (781) 
idABCCgen9

$$$$

     RDKit          2D

 75 81  0  0  0  0  0  0  0  0999 V2000
  -12.0271   -8.8938    0.0000 C   0  0  0  0  0  0  0  0  0  0  0  0
  -10.5827   -9.2985    0.0000 C   0  0  0  0  0  0  0  0  0  0  0  0
  -10.8879  -10.7671    0.0000 C   0  0  0  0  0  0  0  0  0  0  0  0
  -10.9902  -12.2636    0.0000 C   0  0  0  0  0  0  0  0  0  0  0  0
  -10.8879  -13.7602    0.0000 C   0  0  0  0  0  0  0  0  0  0  0  0
  -10.5827  -15.2288    0.0000 C   0  0  0  0  0  0  0  0  0  0  0  0
  -10.0804  -16.6422    0.0000 C   0  0  0  0  0  0  0  0  0  0  0  0
   -9.3903  -17.9740    0.0000 C   0  0  0  0  0  0  0  0  0  0  0  0
   -8.5252  -19.1995    0.0000 C   0  0  0  0  0  0  0  0  0  0  0  0
   -7.5014  -20.2957    0.0000 C   0  0  0  0  0  0  0  0  0  0  0  0
   -6.3379  -21.2423    0.0000 C   0  0  0  0  0  0  0  0  0  0  0  0
   -5.0562  -22.0217    0.0000 C   0  0  0  0  0  0  0  0  0  0  0  0
   -3.6804  -22.6193    0.0000 C   0  0  0  0  0  0  0  0  0  0  0  0
   -2.2360  -23.0240    0.0000 C   0  0  0  0  0  0  0  0  0  0  0  0
   -0.7500  -23.2283    0.0000 C   0  0  0  0  0  0  0  0  0  0  0  0
    0.7500  -23.2283    0.0000 C   0  0  0  0  0  0  0  0  0  0  0  0
    2.2360  -23.0240    0.0000 C   0  0  0  0  0  0  0  0  0  0  0  0
    3.6804  -22.6193    0.0000 C   0  0  0  0  0  0  0  0  0  0  0  0
    5.0562  -22.0217    0.0000 C   0  0  0  0  0  0  0  0  0  0  0  0
    6.3379  -21.2423    0.0000 C   0  0  0  0  0  0  0  0  0  0  0  0
    7.5014  -20.2957    0.0000 C   0  0  0  0  0  0  0  0  0  0  0  0
    8.5252  -19.1995    0.0000 C   0  0  0  0  0  0  0  0  0  0  0  0
    9.3903  -17.9740    0.0000 C   0  0  0  0  0  0  0  0  0  0  0  0
   10.0804  -16.6422    0.0000 C   0  0  0  0  0  0  0  0  0  0  0  0
   10.5827  -15.2288    0.0000 C   0  0  0  0  0  0  0  0  0  0  0  0
   10.8879  -13.7602    0.0000 C   0  0  0  0  0  0  0  0  0  0  0  0
   10.9902  -12.2636    0.0000 C   0  0  0  0  0  0  0  0  0  0  0  0
   10.8879  -10.7671    0.0000 C   0  0  0  0  0  0  0  0  0  0  0  0
   10.5827   -9.2985    0.0000 C   0  0  0  0  0  0  0  0  0  0  0  0
   10.0804   -7.8851    0.0000 C   0  0  0  0  0  0  0  0  0  0  0  0
    9.3903   -6.5533    0.0000 C   0  0  0  0  0  0  0  0  0  0  0  0
    8.5252   -5.3278    0.0000 C   0  0  0  0  0  0  0  0  0  0  0  0
    7.5014   -4.2316    0.0000 C   0  0  0  0  0  0  0  0  0  0  0  0
    6.3379   -3.2850    0.0000 C   0  0  0  0  0  0  0  0  0  0  0  0
    5.0562   -2.5056    0.0000 C   0  0  0  0  0  0  0  0  0  0  0  0
    3.6804   -1.9080    0.0000 C   0  0  0  0  0  0  0  0  0  0  0  0
    2.2360   -1.5033    0.0000 C   0  0  0  0  0  0  0  0  0  0  0  0
    2.5412   -0.0347    0.0000 C   0  0  0  0  0  0  0  0  0  0  0  0
    3.9657    0.4354    0.0000 C   0  0  0  0  0  0  0  0  0  0  0  0
    4.2709    1.9040    0.0000 C   0  0  0  0  0  0  0  0  0  0  0  0
    5.6953    2.3740    0.0000 C   0  0  0  0  0  0  0  0  0  0  0  0
    6.0005    3.8426    0.0000 C   0  0  0  0  0  0  0  0  0  0  0  0
    4.8812    4.8412    0.0000 C   0  0  0  0  0  0  0  0  0  0  0  0
    3.4568    4.3712    0.0000 C   0  0  0  0  0  0  0  0  0  0  0  0
    3.1516    2.9026    0.0000 C   0  0  0  0  0  0  0  0  0  0  0  0
    0.7500   -1.2990    0.0000 C   0  0  0  0  0  0  0  0  0  0  0  0
    1.5000    0.0000    0.0000 C   0  0  0  0  0  0  0  0  0  0  0  0
    0.7500    1.2990    0.0000 C   0  0  0  0  0  0  0  0  0  0  0  0
   -0.7500    1.2990    0.0000 C   0  0  0  0  0  0  0  0  0  0  0  0
   -1.5000    0.0000    0.0000 C   0  0  0  0  0  0  0  0  0  0  0  0
   -0.7500   -1.2990    0.0000 C   0  0  0  0  0  0  0  0  0  0  0  0
   -2.2360   -1.5033    0.0000 C   0  0  0  0  0  0  0  0  0  0  0  0
   -1.1634   -2.5518    0.0000 C   0  0  0  0  0  0  0  0  0  0  0  0
   -1.5351   -4.0050    0.0000 C   0  0  0  0  0  0  0  0  0  0  0  0
   -2.9795   -4.4097    0.0000 C   0  0  0  0  0  0  0  0  0  0  0  0
   -4.0521   -3.3612    0.0000 C   0  0  0  0  0  0  0  0  0  0  0  0
   -3.6804   -1.9080    0.0000 C   0  0  0  0  0  0  0  0  0  0  0  0
   -5.0562   -2.5056    0.0000 C   0  0  0  0  0  0  0  0  0  0  0  0
   -5.0904   -1.0060    0.0000 C   0  0  0  0  0  0  0  0  0  0  0  0
   -6.4061   -0.2857    0.0000 C   0  0  0  0  0  0  0  0  0  0  0  0
   -7.6878   -1.0651    0.0000 C   0  0  0  0  0  0  0  0  0  0  0  0
   -7.6536   -2.5647    0.0000 C   0  0  0  0  0  0  0  0  0  0  0  0
   -6.3379   -3.2850    0.0000 C   0  0  0  0  0  0  0  0  0  0  0  0
   -7.5014   -4.2316    0.0000 C   0  0  0  0  0  0  0  0  0  0  0  0
   -8.4167   -3.3084    0.0000 C   0  0  0  0  0  0  0  0  0  0  0  0
   -9.1960   -3.1278    0.0000 C   0  0  0  0  0  0  0  0  0  0  0  0
   -9.7421   -3.7125    0.0000 C   0  0  0  0  0  0  0  0  0  0  0  0
   -9.5088   -4.4777    0.0000 C   0  0  0  0  0  0  0  0  0  0  0  0
   -8.5252   -5.3278    0.0000 C   0  0  0  0  0  0  0  0  0  0  0  0
   -9.3903   -6.5533    0.0000 C   0  0  0  0  0  0  0  0  0  0  0  0
   -7.8918   -6.4850    0.0000 C   0  0  0  0  0  0  0  0  0  0  0  0
   -7.0835   -7.7486    0.0000 C   0  0  0  0  0  0  0  0  0  0  0  0
   -7.7736   -9.0804    0.0000 C   0  0  0  0  0  0  0  0  0  0  0  0
   -9.2720   -9.1487    0.0000 C   0  0  0  0  0  0  0  0  0  0  0  0
  -10.0804   -7.8851    0.0000 C   0  0  0  0  0  0  0  0  0  0  0  0
  1  2  1  0
  2  3  1  0
  3  4  1  0
  4  5  1  0
  5  6  1  0
  6  7  1  0
  7  8  1  0
  8  9  1  0
  9 10  1  0
 10 11  1  0
 11 12  1  0
 12 13  1  0
 13 14  1  0
 14 15  1  0
 15 16  1  0
 16 17  1  0
 17 18  1  0
 18 19  1  0
 19 20  1  0
 20 21  1  0
 21 22  1  0
 22 23  1  0
 23 24  1  0
 24 25  1  0
 25 26  1  0
 26 27  1  0
 27 28  1  0
 28 29  1  0
 29 30  1  0
 30 31  1  0
 31 32  1  0
 32 33  1  0
 33 34  1  0
 34 35  1  0
 35 36  1  0
 36 37  1  0
 37 38  1  0
 38 39  1  0
 39 40  1  0
 40 41  2  0
 41 42  1  0
 42 43  2  0
 43 44  1  0
 44 45  2  0
 37 46  1  0
 46 47  2  0
 47 48  1  0
 48 49  2  0
 49 50  1  0
 50 51  2  0
 51 52  1  0
 52 53  2  0
 53 54  1  0
 54 55  2  0
 55 56  1  0
 56 57  2  0
 57 58  1  0
 58 59  2  0
 59 60  1  0
 60 61  2  0
 61 62  1  0
 62 63  2  0
 63 64  1  0
 64 65  2  0
 65 66  1  0
 66 67  2  0
 67 68  1  0
 68 69  2  0
 69 70  1  0
 70 71  2  0
 71 72  1  0
 72 73  2  0
 73 74  1  0
 74 75  2  0
 75  2  1  0
 45 40  1  0
 51 46  1  0
 57 52  1  0
 63 58  1  0
 69 64  1  0
 75 70  1  0
M  END
>  <Title>  (782) 
idABCDgen9

$$$$

     RDKit          2D

 80 82  0  0  0  0  0  0  0  0999 V2000
   -5.6254   -0.6607    0.0000 C   0  0  0  0  0  0  0  0  0  0  0  0
   -5.1681   -2.0893    0.0000 C   0  0  0  0  0  0  0  0  0  0  0  0
   -6.5751   -2.6092    0.0000 C   0  0  0  0  0  0  0  0  0  0  0  0
   -7.9307   -3.2515    0.0000 C   0  0  0  0  0  0  0  0  0  0  0  0
   -9.2242   -4.0111    0.0000 C   0  0  0  0  0  0  0  0  0  0  0  0
  -10.4454   -4.8820    0.0000 C   0  0  0  0  0  0  0  0  0  0  0  0
  -11.5850   -5.8574    0.0000 C   0  0  0  0  0  0  0  0  0  0  0  0
  -12.6338   -6.9297    0.0000 C   0  0  0  0  0  0  0  0  0  0  0  0
  -13.5838   -8.0906    0.0000 C   0  0  0  0  0  0  0  0  0  0  0  0
  -14.4275   -9.3308    0.0000 C   0  0  0  0  0  0  0  0  0  0  0  0
  -15.1582  -10.6408    0.0000 C   0  0  0  0  0  0  0  0  0  0  0  0
  -15.7704  -12.0102    0.0000 C   0  0  0  0  0  0  0  0  0  0  0  0
  -16.2591  -13.4283    0.0000 C   0  0  0  0  0  0  0  0  0  0  0  0
  -16.6205  -14.8841    0.0000 C   0  0  0  0  0  0  0  0  0  0  0  0
  -16.8519  -16.3662    0.0000 C   0  0  0  0  0  0  0  0  0  0  0  0
  -16.9514  -17.8629    0.0000 C   0  0  0  0  0  0  0  0  0  0  0  0
  -16.9182  -19.3625    0.0000 C   0  0  0  0  0  0  0  0  0  0  0  0
  -16.7526  -20.8533    0.0000 C   0  0  0  0  0  0  0  0  0  0  0  0
  -16.4559  -22.3237    0.0000 C   0  0  0  0  0  0  0  0  0  0  0  0
  -16.0304  -23.7621    0.0000 C   0  0  0  0  0  0  0  0  0  0  0  0
  -15.4795  -25.1573    0.0000 C   0  0  0  0  0  0  0  0  0  0  0  0
  -14.8074  -26.4983    0.0000 C   0  0  0  0  0  0  0  0  0  0  0  0
  -14.0194  -27.7746    0.0000 C   0  0  0  0  0  0  0  0  0  0  0  0
  -13.1217  -28.9763    0.0000 C   0  0  0  0  0  0  0  0  0  0  0  0
  -12.1213  -30.0940    0.0000 C   0  0  0  0  0  0  0  0  0  0  0  0
  -11.0260  -31.1189    0.0000 C   0  0  0  0  0  0  0  0  0  0  0  0
   -9.8444  -32.0429    0.0000 C   0  0  0  0  0  0  0  0  0  0  0  0
   -8.5858  -32.8590    0.0000 C   0  0  0  0  0  0  0  0  0  0  0  0
   -7.2600  -33.5606    0.0000 C   0  0  0  0  0  0  0  0  0  0  0  0
   -5.8774  -34.1423    0.0000 C   0  0  0  0  0  0  0  0  0  0  0  0
   -4.4488  -34.5995    0.0000 C   0  0  0  0  0  0  0  0  0  0  0  0
   -2.9853  -34.9286    0.0000 C   0  0  0  0  0  0  0  0  0  0  0  0
   -1.4985  -35.1272    0.0000 C   0  0  0  0  0  0  0  0  0  0  0  0
    0.0000  -35.1935    0.0000 C   0  0  0  0  0  0  0  0  0  0  0  0
    1.4985  -35.1272    0.0000 C   0  0  0  0  0  0  0  0  0  0  0  0
    2.9853  -34.9286    0.0000 C   0  0  0  0  0  0  0  0  0  0  0  0
    4.4488  -34.5995    0.0000 C   0  0  0  0  0  0  0  0  0  0  0  0
    5.8774  -34.1423    0.0000 C   0  0  0  0  0  0  0  0  0  0  0  0
    7.2600  -33.5606    0.0000 C   0  0  0  0  0  0  0  0  0  0  0  0
    8.5858  -32.8590    0.0000 C   0  0  0  0  0  0  0  0  0  0  0  0
    9.8444  -32.0429    0.0000 C   0  0  0  0  0  0  0  0  0  0  0  0
   11.0260  -31.1189    0.0000 C   0  0  0  0  0  0  0  0  0  0  0  0
   12.1213  -30.0940    0.0000 C   0  0  0  0  0  0  0  0  0  0  0  0
   13.1217  -28.9763    0.0000 C   0  0  0  0  0  0  0  0  0  0  0  0
   14.0194  -27.7746    0.0000 C   0  0  0  0  0  0  0  0  0  0  0  0
   14.8074  -26.4983    0.0000 C   0  0  0  0  0  0  0  0  0  0  0  0
   15.4795  -25.1573    0.0000 C   0  0  0  0  0  0  0  0  0  0  0  0
   16.0304  -23.7621    0.0000 C   0  0  0  0  0  0  0  0  0  0  0  0
   16.4559  -22.3237    0.0000 C   0  0  0  0  0  0  0  0  0  0  0  0
   16.7526  -20.8533    0.0000 C   0  0  0  0  0  0  0  0  0  0  0  0
   16.9182  -19.3625    0.0000 C   0  0  0  0  0  0  0  0  0  0  0  0
   16.9514  -17.8629    0.0000 C   0  0  0  0  0  0  0  0  0  0  0  0
   16.8519  -16.3662    0.0000 C   0  0  0  0  0  0  0  0  0  0  0  0
   16.6205  -14.8841    0.0000 C   0  0  0  0  0  0  0  0  0  0  0  0
   16.2591  -13.4283    0.0000 C   0  0  0  0  0  0  0  0  0  0  0  0
   15.7704  -12.0102    0.0000 C   0  0  0  0  0  0  0  0  0  0  0  0
   15.1582  -10.6408    0.0000 C   0  0  0  0  0  0  0  0  0  0  0  0
   14.4275   -9.3308    0.0000 C   0  0  0  0  0  0  0  0  0  0  0  0
   13.5838   -8.0906    0.0000 C   0  0  0  0  0  0  0  0  0  0  0  0
   12.6338   -6.9297    0.0000 C   0  0  0  0  0  0  0  0  0  0  0  0
   11.5850   -5.8574    0.0000 C   0  0  0  0  0  0  0  0  0  0  0  0
   10.4454   -4.8820    0.0000 C   0  0  0  0  0  0  0  0  0  0  0  0
    9.2242   -4.0111    0.0000 C   0  0  0  0  0  0  0  0  0  0  0  0
    7.9307   -3.2515    0.0000 C   0  0  0  0  0  0  0  0  0  0  0  0
    6.5751   -2.6092    0.0000 C   0  0  0  0  0  0  0  0  0  0  0  0
    5.1681   -2.0893    0.0000 C   0  0  0  0  0  0  0  0  0  0  0  0
    3.7207   -1.6957    0.0000 C   0  0  0  0  0  0  0  0  0  0  0  0
    2.2441   -1.4316    0.0000 C   0  0  0  0  0  0  0  0  0  0  0  0
    0.7500   -1.2990    0.0000 C   0  0  0  0  0  0  0  0  0  0  0  0
    1.5000    0.0000    0.0000 C   0  0  0  0  0  0  0  0  0  0  0  0
    0.7500    1.2990    0.0000 C   0  0  0  0  0  0  0  0  0  0  0  0
   -0.7500    1.2990    0.0000 C   0  0  0  0  0  0  0  0  0  0  0  0
   -1.5000    0.0000    0.0000 C   0  0  0  0  0  0  0  0  0  0  0  0
   -0.7500   -1.2990    0.0000 C   0  0  0  0  0  0  0  0  0  0  0  0
   -2.2441   -1.4316    0.0000 C   0  0  0  0  0  0  0  0  0  0  0  0
   -1.2771   -2.5783    0.0000 C   0  0  0  0  0  0  0  0  0  0  0  0
   -1.7867   -3.9891    0.0000 C   0  0  0  0  0  0  0  0  0  0  0  0
   -3.2633   -4.2532    0.0000 C   0  0  0  0  0  0  0  0  0  0  0  0
   -4.2303   -3.1065    0.0000 C   0  0  0  0  0  0  0  0  0  0  0  0
   -3.7207   -1.6957    0.0000 C   0  0  0  0  0  0  0  0  0  0  0  0
  1  2  1  0
  2  3  2  0
  3  4  1  0
  4  5  1  0
  5  6  1  0
  6  7  1  0
  7  8  1  0
  8  9  1  0
  9 10  1  0
 10 11  1  0
 11 12  1  0
 12 13  1  0
 13 14  1  0
 14 15  1  0
 15 16  1  0
 16 17  1  0
 17 18  1  0
 18 19  1  0
 19 20  1  0
 20 21  1  0
 21 22  1  0
 22 23  1  0
 23 24  1  0
 24 25  1  0
 25 26  1  0
 26 27  1  0
 27 28  1  0
 28 29  1  0
 29 30  1  0
 30 31  1  0
 31 32  1  0
 32 33  1  0
 33 34  1  0
 34 35  1  0
 35 36  1  0
 36 37  1  0
 37 38  1  0
 38 39  1  0
 39 40  1  0
 40 41  1  0
 41 42  1  0
 42 43  1  0
 43 44  1  0
 44 45  1  0
 45 46  1  0
 46 47  1  0
 47 48  1  0
 48 49  1  0
 49 50  1  0
 50 51  1  0
 51 52  1  0
 52 53  1  0
 53 54  1  0
 54 55  1  0
 55 56  1  0
 56 57  1  0
 57 58  1  0
 58 59  1  0
 59 60  1  0
 60 61  1  0
 61 62  1  0
 62 63  1  0
 63 64  1  0
 64 65  1  0
 65 66  1  0
 66 67  1  0
 67 68  1  0
 68 69  1  0
 69 70  1  0
 70 71  1  0
 71 72  1  0
 72 73  1  0
 73 74  1  0
 74 75  1  0
 75 76  2  0
 76 77  1  0
 77 78  2  0
 78 79  1  0
 79 80  2  0
 80  2  1  0
 74 69  1  0
 80 75  1  0
M  END
>  <Title>  (783) 
idABCEgen9

$$$$

     RDKit          2D

 36 40  0  0  0  0  0  0  0  0999 V2000
    7.1946  -11.9339    0.0000 C   0  0  0  0  0  0  0  0  0  0  0  0
    6.2304  -10.7848    0.0000 C   0  0  0  0  0  0  0  0  0  0  0  0
    5.2663   -9.6357    0.0000 C   0  0  0  0  0  0  0  0  0  0  0  0
    4.3021   -8.4867    0.0000 C   0  0  0  0  0  0  0  0  0  0  0  0
    3.3379   -7.3376    0.0000 C   0  0  0  0  0  0  0  0  0  0  0  0
    2.3737   -6.1885    0.0000 C   0  0  0  0  0  0  0  0  0  0  0  0
    1.4095   -5.0395    0.0000 C   0  0  0  0  0  0  0  0  0  0  0  0
    2.1595   -3.7404    0.0000 C   0  0  0  0  0  0  0  0  0  0  0  0
    1.8991   -2.2632    0.0000 C   0  0  0  0  0  0  0  0  0  0  0  0
    3.1981   -1.5132    0.0000 C   0  0  0  0  0  0  0  0  0  0  0  0
    3.1981   -0.0132    0.0000 O   0  0  0  0  0  0  0  0  0  0  0  0
    4.4971   -2.2632    0.0000 N   0  0  0  0  0  0  0  0  0  0  0  0
    5.7962   -1.5132    0.0000 C   0  0  0  0  0  0  0  0  0  0  0  0
    7.0952   -2.2632    0.0000 N   0  0  0  0  0  0  0  0  0  0  0  0
    8.3943   -1.5132    0.0000 N   0  0  0  0  0  0  0  0  0  0  0  0
    8.3943   -0.0132    0.0000 N   0  0  0  0  0  0  0  0  0  0  0  0
    7.0952    0.7368    0.0000 N   0  0  0  0  0  0  0  0  0  0  0  0
    5.7962   -0.0132    0.0000 N   0  0  0  0  0  0  0  0  0  0  0  0
    0.7500   -1.2990    0.0000 C   0  0  0  0  0  0  0  0  0  0  0  0
    1.5000    0.0000    0.0000 C   0  0  0  0  0  0  0  0  0  0  0  0
    0.7500    1.2990    0.0000 C   0  0  0  0  0  0  0  0  0  0  0  0
   -0.7500    1.2990    0.0000 C   0  0  0  0  0  0  0  0  0  0  0  0
   -1.5000    0.0000    0.0000 C   0  0  0  0  0  0  0  0  0  0  0  0
   -0.7500   -1.2990    0.0000 C   0  0  0  0  0  0  0  0  0  0  0  0
   -1.8991   -2.2632    0.0000 C   0  0  0  0  0  0  0  0  0  0  0  0
   -3.0481   -1.2990    0.0000 C   0  0  0  0  0  0  0  0  0  0  0  0
   -4.4577   -1.8121    0.0000 C   0  0  0  0  0  0  0  0  0  0  0  0
   -4.7181   -3.2893    0.0000 C   0  0  0  0  0  0  0  0  0  0  0  0
   -3.5691   -4.2535    0.0000 C   0  0  0  0  0  0  0  0  0  0  0  0
   -2.1595   -3.7404    0.0000 C   0  0  0  0  0  0  0  0  0  0  0  0
   -1.4095   -5.0395    0.0000 C   0  0  0  0  0  0  0  0  0  0  0  0
   -2.5586   -6.0037    0.0000 C   0  0  0  0  0  0  0  0  0  0  0  0
   -2.2981   -7.4809    0.0000 C   0  0  0  0  0  0  0  0  0  0  0  0
   -0.8886   -7.9939    0.0000 C   0  0  0  0  0  0  0  0  0  0  0  0
    0.2605   -7.0297    0.0000 C   0  0  0  0  0  0  0  0  0  0  0  0
   -0.0000   -5.5525    0.0000 C   0  0  0  0  0  0  0  0  0  0  0  0
  1  2  3  0
  2  3  1  0
  3  4  3  0
  4  5  1  0
  5  6  3  0
  6  7  1  0
  7  8  2  0
  8  9  1  0
  9 10  1  0
 10 11  2  0
 10 12  1  0
 12 13  1  0
 13 14  2  0
 14 15  1  0
 15 16  2  0
 16 17  1  0
 17 18  2  0
  9 19  1  0
 19 20  2  0
 20 21  1  0
 21 22  2  0
 22 23  1  0
 23 24  2  0
 24 25  1  0
 25 26  2  0
 26 27  1  0
 27 28  2  0
 28 29  1  0
 29 30  2  0
 30 31  1  0
 31 32  2  0
 32 33  1  0
 33 34  2  0
 34 35  1  0
 35 36  2  0
 36  7  1  0
 18 13  1  0
 24 19  1  0
 30 25  1  0
 36 31  1  0
M  END
>  <Title>  (784) 
idABCFgen9

$$$$

     RDKit          2D

  9  9  0  0  0  0  0  0  0  0999 V2000
    3.0000    0.0000    0.0000 C   0  0  0  0  0  0  0  0  0  0  0  0
    1.5000    0.0000    0.0000 C   0  0  0  0  0  0  0  0  0  0  0  0
    0.7500   -1.2990    0.0000 C   0  0  0  0  0  0  0  0  0  0  0  0
   -0.7500   -1.2990    0.0000 C   0  0  0  0  0  0  0  0  0  0  0  0
   -1.5000    0.0000    0.0000 C   0  0  0  0  0  0  0  0  0  0  0  0
   -3.0000    0.0000    0.0000 C   0  0  0  0  0  0  0  0  0  0  0  0
   -4.5000    0.0000    0.0000 N   0  0  0  0  0  0  0  0  0  0  0  0
   -0.7500    1.2990    0.0000 C   0  0  0  0  0  0  0  0  0  0  0  0
    0.7500    1.2990    0.0000 C   0  0  0  0  0  0  0  0  0  0  0  0
  1  2  1  0
  2  3  2  0
  3  4  1  0
  4  5  1  0
  5  6  1  0
  6  7  3  0
  5  8  2  0
  8  9  1  0
  9  2  1  0
M  END
>  <Title>  (785) 
idABCGgen9

$$$$

     RDKit          2D

  7  7  0  0  0  0  0  0  0  0999 V2000
    3.0000    0.0000    0.0000 O   0  0  0  0  0  0  0  0  0  0  0  0
    1.5000    0.0000    0.0000 C   0  0  0  0  0  0  0  0  0  0  0  0
    0.7500   -1.2990    0.0000 C   0  0  0  0  0  0  0  0  0  0  0  0
   -0.7500   -1.2990    0.0000 C   0  0  0  0  0  0  0  0  0  0  0  0
   -1.5000    0.0000    0.0000 C   0  0  0  0  0  0  0  0  0  0  0  0
   -0.7500    1.2990    0.0000 C   0  0  0  0  0  0  0  0  0  0  0  0
    0.7500    1.2990    0.0000 N   0  0  0  0  0  0  0  0  0  0  0  0
  1  2  1  0
  2  3  2  0
  3  4  1  0
  4  5  2  0
  5  6  1  0
  6  7  2  0
  7  2  1  0
M  END
>  <Title>  (786) 
idABCHgen9

$$$$

     RDKit          2D

  8  8  0  0  0  0  0  0  0  0999 V2000
    5.0260   -1.2990    0.0000 C   0  0  0  0  0  0  0  0  0  0  0  0
    3.5260   -1.2990    0.0000 N   0  0  0  0  0  0  0  0  0  0  0  0
    2.7760    0.0000    0.0000 C   0  0  0  0  0  0  0  0  0  0  0  0
    1.2760    0.0000    0.0000 C   0  0  0  0  0  0  0  0  0  0  0  0
    0.3943    1.2135    0.0000 C   0  0  0  0  0  0  0  0  0  0  0  0
   -1.0323    0.7500    0.0000 C   0  0  0  0  0  0  0  0  0  0  0  0
   -1.0323   -0.7500    0.0000 C   0  0  0  0  0  0  0  0  0  0  0  0
    0.3943   -1.2135    0.0000 C   0  0  0  0  0  0  0  0  0  0  0  0
  1  2  1  0
  2  3  1  0
  3  4  1  0
  4  5  2  0
  5  6  1  0
  6  7  2  0
  7  8  1  0
  8  4  1  0
M  END
>  <Title>  (787) 
idABCIgen9

$$$$

     RDKit          2D

 35 39  0  0  0  0  0  0  0  0999 V2000
   12.1761    2.1552    0.0000 C   0  0  0  0  0  0  0  0  0  0  0  0
   10.8058    1.5451    0.0000 C   0  0  0  0  0  0  0  0  0  0  0  0
    9.4354    0.9350    0.0000 C   0  0  0  0  0  0  0  0  0  0  0  0
    8.0651    0.3249    0.0000 C   0  0  0  0  0  0  0  0  0  0  0  0
    6.6948   -0.2852    0.0000 C   0  0  0  0  0  0  0  0  0  0  0  0
    5.3245   -0.8953    0.0000 C   0  0  0  0  0  0  0  0  0  0  0  0
    3.9542   -1.5054    0.0000 C   0  0  0  0  0  0  0  0  0  0  0  0
    2.5838   -2.1155    0.0000 C   0  0  0  0  0  0  0  0  0  0  0  0
    1.2135   -2.7256    0.0000 C   0  0  0  0  0  0  0  0  0  0  0  0
    1.9635   -4.0247    0.0000 C   0  0  0  0  0  0  0  0  0  0  0  0
    1.2135   -5.3237    0.0000 O   0  0  0  0  0  0  0  0  0  0  0  0
    3.4635   -4.0247    0.0000 N   0  0  0  0  0  0  0  0  0  0  0  0
    4.2135   -5.3237    0.0000 C   0  0  0  0  0  0  0  0  0  0  0  0
    3.6034   -6.6940    0.0000 N   0  0  0  0  0  0  0  0  0  0  0  0
    4.7181   -7.6977    0.0000 N   0  0  0  0  0  0  0  0  0  0  0  0
    6.0172   -6.9477    0.0000 N   0  0  0  0  0  0  0  0  0  0  0  0
    5.7053   -5.4805    0.0000 N   0  0  0  0  0  0  0  0  0  0  0  0
    6.7090   -4.3658    0.0000 C   0  0  0  0  0  0  0  0  0  0  0  0
    8.1762   -4.6776    0.0000 C   0  0  0  0  0  0  0  0  0  0  0  0
    9.1799   -3.5629    0.0000 C   0  0  0  0  0  0  0  0  0  0  0  0
    8.7164   -2.1363    0.0000 C   0  0  0  0  0  0  0  0  0  0  0  0
    7.2492   -1.8245    0.0000 C   0  0  0  0  0  0  0  0  0  0  0  0
    6.2455   -2.9392    0.0000 C   0  0  0  0  0  0  0  0  0  0  0  0
    0.7500   -1.2990    0.0000 C   0  0  0  0  0  0  0  0  0  0  0  0
    1.5000    0.0000    0.0000 C   0  0  0  0  0  0  0  0  0  0  0  0
    0.7500    1.2990    0.0000 C   0  0  0  0  0  0  0  0  0  0  0  0
   -0.7500    1.2990    0.0000 C   0  0  0  0  0  0  0  0  0  0  0  0
   -1.5000    0.0000    0.0000 C   0  0  0  0  0  0  0  0  0  0  0  0
   -0.7500   -1.2990    0.0000 C   0  0  0  0  0  0  0  0  0  0  0  0
   -1.2135   -2.7256    0.0000 C   0  0  0  0  0  0  0  0  0  0  0  0
   -2.5838   -3.3357    0.0000 C   0  0  0  0  0  0  0  0  0  0  0  0
   -2.7406   -4.8275    0.0000 C   0  0  0  0  0  0  0  0  0  0  0  0
   -1.5271   -5.7092    0.0000 C   0  0  0  0  0  0  0  0  0  0  0  0
   -0.1568   -5.0991    0.0000 C   0  0  0  0  0  0  0  0  0  0  0  0
   -0.0000   -3.6073    0.0000 C   0  0  0  0  0  0  0  0  0  0  0  0
  1  2  3  0
  2  3  1  0
  3  4  3  0
  4  5  1  0
  5  6  3  0
  6  7  1  0
  7  8  3  0
  8  9  1  0
  9 10  1  0
 10 11  2  0
 10 12  1  0
 12 13  1  0
 13 14  2  0
 14 15  1  0
 15 16  2  0
 16 17  1  0
 17 18  1  0
 18 19  2  0
 19 20  1  0
 20 21  2  0
 21 22  1  0
 22 23  2  0
  9 24  1  0
 24 25  2  0
 25 26  1  0
 26 27  2  0
 27 28  1  0
 28 29  2  0
 29 30  1  0
 30 31  2  0
 31 32  1  0
 32 33  2  0
 33 34  1  0
 34 35  2  0
 35  9  1  0
 17 13  1  0
 23 18  1  0
 29 24  1  0
 35 30  1  0
M  END
>  <Title>  (788) 
idABCJgen9

$$$$

     RDKit          2D

100100  0  0  0  0  0  0  0  0999 V2000
   25.1385    0.0000    0.0000 C   0  0  0  0  0  0  0  0  0  0  0  0
   23.6385    0.0000    0.0000 C   0  0  0  0  0  0  0  0  0  0  0  0
   23.5909    1.4992    0.0000 C   0  0  0  0  0  0  0  0  0  0  0  0
   23.4483    2.9925    0.0000 C   0  0  0  0  0  0  0  0  0  0  0  0
   23.2113    4.4736    0.0000 C   0  0  0  0  0  0  0  0  0  0  0  0
   22.8808    5.9368    0.0000 C   0  0  0  0  0  0  0  0  0  0  0  0
   22.4582    7.3760    0.0000 C   0  0  0  0  0  0  0  0  0  0  0  0
   21.9452    8.7855    0.0000 C   0  0  0  0  0  0  0  0  0  0  0  0
   21.3438   10.1597    0.0000 C   0  0  0  0  0  0  0  0  0  0  0  0
   20.6565   11.4929    0.0000 C   0  0  0  0  0  0  0  0  0  0  0  0
   19.8860   12.7799    0.0000 C   0  0  0  0  0  0  0  0  0  0  0  0
   19.0354   14.0154    0.0000 C   0  0  0  0  0  0  0  0  0  0  0  0
   18.1081   15.1945    0.0000 C   0  0  0  0  0  0  0  0  0  0  0  0
   17.1080   16.3124    0.0000 C   0  0  0  0  0  0  0  0  0  0  0  0
   16.0389   17.3646    0.0000 C   0  0  0  0  0  0  0  0  0  0  0  0
   14.9053   18.3469    0.0000 C   0  0  0  0  0  0  0  0  0  0  0  0
   13.7117   19.2553    0.0000 C   0  0  0  0  0  0  0  0  0  0  0  0
   12.4628   20.0862    0.0000 C   0  0  0  0  0  0  0  0  0  0  0  0
   11.1638   20.8362    0.0000 C   0  0  0  0  0  0  0  0  0  0  0  0
    9.8198   21.5023    0.0000 C   0  0  0  0  0  0  0  0  0  0  0  0
    8.4362   22.0818    0.0000 C   0  0  0  0  0  0  0  0  0  0  0  0
    7.0187   22.5724    0.0000 C   0  0  0  0  0  0  0  0  0  0  0  0
    5.5730   22.9721    0.0000 C   0  0  0  0  0  0  0  0  0  0  0  0
    4.1048   23.2794    0.0000 C   0  0  0  0  0  0  0  0  0  0  0  0
    2.6200   23.4928    0.0000 C   0  0  0  0  0  0  0  0  0  0  0  0
    1.1248   23.6117    0.0000 C   0  0  0  0  0  0  0  0  0  0  0  0
   -0.3750   23.6355    0.0000 C   0  0  0  0  0  0  0  0  0  0  0  0
   -1.8733   23.5641    0.0000 C   0  0  0  0  0  0  0  0  0  0  0  0
   -3.3641   23.3979    0.0000 C   0  0  0  0  0  0  0  0  0  0  0  0
   -4.8413   23.1374    0.0000 C   0  0  0  0  0  0  0  0  0  0  0  0
   -6.2990   22.7838    0.0000 C   0  0  0  0  0  0  0  0  0  0  0  0
   -7.7314   22.3384    0.0000 C   0  0  0  0  0  0  0  0  0  0  0  0
   -9.1326   21.8031    0.0000 C   0  0  0  0  0  0  0  0  0  0  0  0
  -10.4971   21.1799    0.0000 C   0  0  0  0  0  0  0  0  0  0  0  0
  -11.8192   20.4715    0.0000 C   0  0  0  0  0  0  0  0  0  0  0  0
  -13.0938   19.6807    0.0000 C   0  0  0  0  0  0  0  0  0  0  0  0
  -14.3157   18.8106    0.0000 C   0  0  0  0  0  0  0  0  0  0  0  0
  -15.4799   17.8648    0.0000 C   0  0  0  0  0  0  0  0  0  0  0  0
  -16.5818   16.8470    0.0000 C   0  0  0  0  0  0  0  0  0  0  0  0
  -17.6169   15.7614    0.0000 C   0  0  0  0  0  0  0  0  0  0  0  0
  -18.5811   14.6123    0.0000 C   0  0  0  0  0  0  0  0  0  0  0  0
  -19.4705   13.4044    0.0000 C   0  0  0  0  0  0  0  0  0  0  0  0
  -20.2814   12.1426    0.0000 C   0  0  0  0  0  0  0  0  0  0  0  0
  -21.0107   10.8318    0.0000 C   0  0  0  0  0  0  0  0  0  0  0  0
  -21.6554    9.4774    0.0000 C   0  0  0  0  0  0  0  0  0  0  0  0
  -22.2129    8.0848    0.0000 C   0  0  0  0  0  0  0  0  0  0  0  0
  -22.6810    6.6597    0.0000 C   0  0  0  0  0  0  0  0  0  0  0  0
  -23.0577    5.2078    0.0000 C   0  0  0  0  0  0  0  0  0  0  0  0
  -23.3416    3.7349    0.0000 C   0  0  0  0  0  0  0  0  0  0  0  0
  -23.5314    2.2470    0.0000 C   0  0  0  0  0  0  0  0  0  0  0  0
  -23.6266    0.7500    0.0000 C   0  0  0  0  0  0  0  0  0  0  0  0
  -23.6266   -0.7500    0.0000 C   0  0  0  0  0  0  0  0  0  0  0  0
  -23.5314   -2.2470    0.0000 C   0  0  0  0  0  0  0  0  0  0  0  0
  -23.3416   -3.7349    0.0000 C   0  0  0  0  0  0  0  0  0  0  0  0
  -23.0577   -5.2078    0.0000 C   0  0  0  0  0  0  0  0  0  0  0  0
  -22.6810   -6.6597    0.0000 C   0  0  0  0  0  0  0  0  0  0  0  0
  -22.2129   -8.0848    0.0000 C   0  0  0  0  0  0  0  0  0  0  0  0
  -21.6554   -9.4774    0.0000 C   0  0  0  0  0  0  0  0  0  0  0  0
  -21.0107  -10.8318    0.0000 C   0  0  0  0  0  0  0  0  0  0  0  0
  -20.2814  -12.1426    0.0000 C   0  0  0  0  0  0  0  0  0  0  0  0
  -19.4705  -13.4044    0.0000 C   0  0  0  0  0  0  0  0  0  0  0  0
  -18.5811  -14.6123    0.0000 C   0  0  0  0  0  0  0  0  0  0  0  0
  -17.6169  -15.7614    0.0000 C   0  0  0  0  0  0  0  0  0  0  0  0
  -16.5818  -16.8470    0.0000 C   0  0  0  0  0  0  0  0  0  0  0  0
  -15.4799  -17.8648    0.0000 C   0  0  0  0  0  0  0  0  0  0  0  0
  -14.3157  -18.8106    0.0000 C   0  0  0  0  0  0  0  0  0  0  0  0
  -13.0938  -19.6807    0.0000 C   0  0  0  0  0  0  0  0  0  0  0  0
  -11.8192  -20.4715    0.0000 C   0  0  0  0  0  0  0  0  0  0  0  0
  -10.4971  -21.1799    0.0000 C   0  0  0  0  0  0  0  0  0  0  0  0
   -9.1326  -21.8031    0.0000 C   0  0  0  0  0  0  0  0  0  0  0  0
   -7.7314  -22.3384    0.0000 C   0  0  0  0  0  0  0  0  0  0  0  0
   -6.2990  -22.7838    0.0000 C   0  0  0  0  0  0  0  0  0  0  0  0
   -4.8413  -23.1374    0.0000 C   0  0  0  0  0  0  0  0  0  0  0  0
   -3.3641  -23.3979    0.0000 C   0  0  0  0  0  0  0  0  0  0  0  0
   -1.8733  -23.5641    0.0000 C   0  0  0  0  0  0  0  0  0  0  0  0
   -0.3750  -23.6355    0.0000 C   0  0  0  0  0  0  0  0  0  0  0  0
    1.1248  -23.6117    0.0000 C   0  0  0  0  0  0  0  0  0  0  0  0
    2.6200  -23.4928    0.0000 C   0  0  0  0  0  0  0  0  0  0  0  0
    4.1048  -23.2794    0.0000 C   0  0  0  0  0  0  0  0  0  0  0  0
    5.5730  -22.9721    0.0000 C   0  0  0  0  0  0  0  0  0  0  0  0
    7.0187  -22.5724    0.0000 C   0  0  0  0  0  0  0  0  0  0  0  0
    8.4362  -22.0818    0.0000 C   0  0  0  0  0  0  0  0  0  0  0  0
    9.8198  -21.5023    0.0000 C   0  0  0  0  0  0  0  0  0  0  0  0
   11.1638  -20.8362    0.0000 C   0  0  0  0  0  0  0  0  0  0  0  0
   12.4628  -20.0862    0.0000 C   0  0  0  0  0  0  0  0  0  0  0  0
   13.7117  -19.2553    0.0000 C   0  0  0  0  0  0  0  0  0  0  0  0
   14.9053  -18.3469    0.0000 C   0  0  0  0  0  0  0  0  0  0  0  0
   16.0389  -17.3646    0.0000 C   0  0  0  0  0  0  0  0  0  0  0  0
   17.1080  -16.3124    0.0000 C   0  0  0  0  0  0  0  0  0  0  0  0
   18.1081  -15.1945    0.0000 C   0  0  0  0  0  0  0  0  0  0  0  0
   19.0354  -14.0154    0.0000 C   0  0  0  0  0  0  0  0  0  0  0  0
   19.8860  -12.7799    0.0000 C   0  0  0  0  0  0  0  0  0  0  0  0
   20.6565  -11.4929    0.0000 C   0  0  0  0  0  0  0  0  0  0  0  0
   21.3438  -10.1597    0.0000 C   0  0  0  0  0  0  0  0  0  0  0  0
   21.9452   -8.7855    0.0000 C   0  0  0  0  0  0  0  0  0  0  0  0
   22.4582   -7.3760    0.0000 C   0  0  0  0  0  0  0  0  0  0  0  0
   22.8808   -5.9368    0.0000 C   0  0  0  0  0  0  0  0  0  0  0  0
   23.2113   -4.4736    0.0000 C   0  0  0  0  0  0  0  0  0  0  0  0
   23.4483   -2.9925    0.0000 C   0  0  0  0  0  0  0  0  0  0  0  0
   23.5909   -1.4992    0.0000 C   0  0  0  0  0  0  0  0  0  0  0  0
  1  2  1  0
  2  3  1  0
  3  4  1  0
  4  5  1  0
  5  6  1  0
  6  7  1  0
  7  8  1  0
  8  9  1  0
  9 10  1  0
 10 11  1  0
 11 12  1  0
 12 13  1  0
 13 14  1  0
 14 15  1  0
 15 16  1  0
 16 17  1  0
 17 18  1  0
 18 19  1  0
 19 20  1  0
 20 21  1  0
 21 22  1  0
 22 23  1  0
 23 24  1  0
 24 25  1  0
 25 26  1  0
 26 27  1  0
 27 28  1  0
 28 29  1  0
 29 30  1  0
 30 31  1  0
 31 32  1  0
 32 33  1  0
 33 34  1  0
 34 35  1  0
 35 36  1  0
 36 37  1  0
 37 38  1  0
 38 39  1  0
 39 40  1  0
 40 41  1  0
 41 42  1  0
 42 43  1  0
 43 44  1  0
 44 45  1  0
 45 46  1  0
 46 47  1  0
 47 48  1  0
 48 49  1  0
 49 50  1  0
 50 51  1  0
 51 52  1  0
 52 53  1  0
 53 54  1  0
 54 55  1  0
 55 56  1  0
 56 57  1  0
 57 58  1  0
 58 59  1  0
 59 60  1  0
 60 61  1  0
 61 62  1  0
 62 63  1  0
 63 64  1  0
 64 65  1  0
 65 66  1  0
 66 67  1  0
 67 68  1  0
 68 69  1  0
 69 70  1  0
 70 71  1  0
 71 72  1  0
 72 73  1  0
 73 74  1  0
 74 75  1  0
 75 76  1  0
 76 77  1  0
 77 78  1  0
 78 79  1  0
 79 80  1  0
 80 81  1  0
 81 82  1  0
 82 83  1  0
 83 84  1  0
 84 85  1  0
 85 86  1  0
 86 87  1  0
 87 88  1  0
 88 89  1  0
 89 90  1  0
 90 91  1  0
 91 92  1  0
 92 93  1  0
 93 94  1  0
 94 95  1  0
 95 96  1  0
 96 97  1  0
 97 98  1  0
 98 99  1  0
 99100  1  0
100  2  1  0
M  END
>  <Title>  (789) 
idABCKgen9

$$$$

     RDKit          2D

 14 15  0  0  0  0  0  0  0  0999 V2000
    3.0000   -2.5981    0.0000 O   0  0  0  0  0  0  0  0  0  0  0  0
    1.5000   -2.5981    0.0000 C   0  0  0  0  0  0  0  0  0  0  0  0
    0.7500   -3.8971    0.0000 C   0  0  0  0  0  0  0  0  0  0  0  0
    1.5000   -5.1962    0.0000 C   0  0  0  0  0  0  0  0  0  0  0  0
    2.9918   -5.3529    0.0000 C   0  0  0  0  0  0  0  0  0  0  0  0
    3.3037   -6.8202    0.0000 C   0  0  0  0  0  0  0  0  0  0  0  0
    2.0046   -7.5702    0.0000 C   0  0  0  0  0  0  0  0  0  0  0  0
    0.8899   -6.5665    0.0000 C   0  0  0  0  0  0  0  0  0  0  0  0
    0.7500   -1.2990    0.0000 N   0  0  0  0  0  0  0  0  0  0  0  0
    1.5000    0.0000    0.0000 C   0  0  0  0  0  0  0  0  0  0  0  0
    0.7500    1.2990    0.0000 C   0  0  0  0  0  0  0  0  0  0  0  0
   -0.7500    1.2990    0.0000 C   0  0  0  0  0  0  0  0  0  0  0  0
   -1.5000    0.0000    0.0000 C   0  0  0  0  0  0  0  0  0  0  0  0
   -0.7500   -1.2990    0.0000 C   0  0  0  0  0  0  0  0  0  0  0  0
  1  2  2  0
  2  3  1  0
  3  4  1  0
  4  5  2  0
  5  6  1  0
  6  7  1  0
  7  8  2  0
  2  9  1  0
  9 10  1  0
 10 11  1  0
 11 12  1  0
 12 13  1  0
 13 14  1  0
  8  4  1  0
 14  9  1  0
M  END
>  <Title>  (790) 
idABCLgen9

$$$$

     RDKit          2D

 17 18  0  0  0  0  0  0  0  0999 V2000
   -0.7500   -3.8971    0.0000 O   0  0  0  0  0  0  0  0  0  0  0  0
    0.7500   -3.8971    0.0000 C   0  0  0  0  0  0  0  0  0  0  0  0
    1.5000   -2.5981    0.0000 C   0  0  0  0  0  0  0  0  0  0  0  0
    0.7500   -1.2990    0.0000 C   0  0  0  0  0  0  0  0  0  0  0  0
    1.5000    0.0000    0.0000 C   0  0  0  0  0  0  0  0  0  0  0  0
    0.7500    1.2990    0.0000 C   0  0  0  0  0  0  0  0  0  0  0  0
   -0.7500    1.2990    0.0000 C   0  0  0  0  0  0  0  0  0  0  0  0
   -1.5000    0.0000    0.0000 C   0  0  0  0  0  0  0  0  0  0  0  0
   -0.7500   -1.2990    0.0000 N   0  0  0  0  0  0  0  0  0  0  0  0
    1.5000   -5.1962    0.0000 N   0  0  0  0  0  0  0  0  0  0  0  0
    0.7500   -6.4952    0.0000 C   0  0  0  0  0  0  0  0  0  0  0  0
    1.5000   -7.7942    0.0000 C   0  0  0  0  0  0  0  0  0  0  0  0
    3.0000   -7.7942    0.0000 C   0  0  0  0  0  0  0  0  0  0  0  0
    3.7500   -6.4952    0.0000 C   0  0  0  0  0  0  0  0  0  0  0  0
    5.2500   -6.4952    0.0000 O   0  0  0  0  0  0  0  0  0  0  0  0
    3.0000   -5.1962    0.0000 C   0  0  0  0  0  0  0  0  0  0  0  0
    3.7500   -3.8971    0.0000 O   0  0  0  0  0  0  0  0  0  0  0  0
  1  2  2  0
  2  3  1  0
  3  4  1  0
  4  5  2  0
  5  6  1  0
  6  7  2  0
  7  8  1  0
  8  9  2  0
  2 10  1  0
 10 11  1  0
 11 12  1  0
 12 13  1  0
 13 14  1  0
 14 15  1  0
 14 16  1  0
 16 17  1  0
  9  4  1  0
 16 10  1  0
M  END
>  <Title>  (791) 
idABCMgen9

$$$$

     RDKit          2D

 65 74  0  0  0  0  0  0  0  0999 V2000
    8.2359   -3.4147    0.0000 C   0  0  0  0  0  0  0  0  0  0  0  0
    6.7544   -3.6493    0.0000 C   0  0  0  0  0  0  0  0  0  0  0  0
    5.8104   -2.4836    0.0000 O   0  0  0  0  0  0  0  0  0  0  0  0
    6.2168   -5.0497    0.0000 N   0  0  0  0  0  0  0  0  0  0  0  0
    4.7353   -5.2844    0.0000 C   0  0  0  0  0  0  0  0  0  0  0  0
    4.2718   -3.8578    0.0000 C   0  0  0  0  0  0  0  0  0  0  0  0
    3.3901   -2.6442    0.0000 C   0  0  0  0  0  0  0  0  0  0  0  0
    2.1766   -1.7626    0.0000 C   0  0  0  0  0  0  0  0  0  0  0  0
    2.8576   -0.4261    0.0000 C   0  0  0  0  0  0  0  0  0  0  0  0
    2.0406    0.8320    0.0000 O   0  0  0  0  0  0  0  0  0  0  0  0
    4.3555   -0.3475    0.0000 N   0  0  0  0  0  0  0  0  0  0  0  0
    5.0365    0.9890    0.0000 C   0  0  0  0  0  0  0  0  0  0  0  0
    6.5344    1.0675    0.0000 N   0  0  0  0  0  0  0  0  0  0  0  0
    7.2154    2.4040    0.0000 N   0  0  0  0  0  0  0  0  0  0  0  0
    6.3985    3.6620    0.0000 N   0  0  0  0  0  0  0  0  0  0  0  0
    4.9005    3.5835    0.0000 N   0  0  0  0  0  0  0  0  0  0  0  0
    4.2195    2.2470    0.0000 N   0  0  0  0  0  0  0  0  0  0  0  0
    0.7500   -1.2990    0.0000 C   0  0  0  0  0  0  0  0  0  0  0  0
    1.5000    0.0000    0.0000 C   0  0  0  0  0  0  0  0  0  0  0  0
    0.7500    1.2990    0.0000 C   0  0  0  0  0  0  0  0  0  0  0  0
   -0.7500    1.2990    0.0000 C   0  0  0  0  0  0  0  0  0  0  0  0
   -1.5000    0.0000    0.0000 C   0  0  0  0  0  0  0  0  0  0  0  0
   -0.7500   -1.2990    0.0000 C   0  0  0  0  0  0  0  0  0  0  0  0
   -2.1766   -1.7626    0.0000 C   0  0  0  0  0  0  0  0  0  0  0  0
   -2.3334   -0.2708    0.0000 C   0  0  0  0  0  0  0  0  0  0  0  0
   -3.7037    0.3393    0.0000 C   0  0  0  0  0  0  0  0  0  0  0  0
   -4.9172   -0.5424    0.0000 C   0  0  0  0  0  0  0  0  0  0  0  0
   -4.7604   -2.0341    0.0000 C   0  0  0  0  0  0  0  0  0  0  0  0
   -3.3901   -2.6442    0.0000 C   0  0  0  0  0  0  0  0  0  0  0  0
   -4.2718   -3.8578    0.0000 C   0  0  0  0  0  0  0  0  0  0  0  0
   -5.2755   -2.7430    0.0000 C   0  0  0  0  0  0  0  0  0  0  0  0
   -6.7427   -3.0549    0.0000 C   0  0  0  0  0  0  0  0  0  0  0  0
   -7.2062   -4.4815    0.0000 C   0  0  0  0  0  0  0  0  0  0  0  0
   -6.2025   -5.5962    0.0000 C   0  0  0  0  0  0  0  0  0  0  0  0
   -4.7353   -5.2844    0.0000 C   0  0  0  0  0  0  0  0  0  0  0  0
   -4.7353   -6.7844    0.0000 C   0  0  0  0  0  0  0  0  0  0  0  0
   -6.2025   -6.4725    0.0000 C   0  0  0  0  0  0  0  0  0  0  0  0
   -7.2062   -7.5872    0.0000 C   0  0  0  0  0  0  0  0  0  0  0  0
   -6.7427   -9.0138    0.0000 C   0  0  0  0  0  0  0  0  0  0  0  0
   -5.2755   -9.3257    0.0000 C   0  0  0  0  0  0  0  0  0  0  0  0
   -4.2718   -8.2109    0.0000 C   0  0  0  0  0  0  0  0  0  0  0  0
   -3.3901   -9.4245    0.0000 C   0  0  0  0  0  0  0  0  0  0  0  0
   -4.7604  -10.0346    0.0000 C   0  0  0  0  0  0  0  0  0  0  0  0
   -4.9172  -11.5263    0.0000 C   0  0  0  0  0  0  0  0  0  0  0  0
   -3.7037  -12.4080    0.0000 C   0  0  0  0  0  0  0  0  0  0  0  0
   -2.3334  -11.7979    0.0000 C   0  0  0  0  0  0  0  0  0  0  0  0
   -2.1766  -10.3061    0.0000 C   0  0  0  0  0  0  0  0  0  0  0  0
   -0.7500  -10.7697    0.0000 C   0  0  0  0  0  0  0  0  0  0  0  0
   -1.5000  -12.0687    0.0000 C   0  0  0  0  0  0  0  0  0  0  0  0
   -0.7500  -13.3677    0.0000 C   0  0  0  0  0  0  0  0  0  0  0  0
    0.7500  -13.3677    0.0000 C   0  0  0  0  0  0  0  0  0  0  0  0
    1.5000  -12.0687    0.0000 C   0  0  0  0  0  0  0  0  0  0  0  0
    0.7500  -10.7697    0.0000 C   0  0  0  0  0  0  0  0  0  0  0  0
    2.1766  -10.3061    0.0000 C   0  0  0  0  0  0  0  0  0  0  0  0
    2.3334  -11.7979    0.0000 C   0  0  0  0  0  0  0  0  0  0  0  0
    3.7037  -12.4080    0.0000 C   0  0  0  0  0  0  0  0  0  0  0  0
    4.9172  -11.5263    0.0000 C   0  0  0  0  0  0  0  0  0  0  0  0
    4.7604  -10.0346    0.0000 C   0  0  0  0  0  0  0  0  0  0  0  0
    3.3901   -9.4245    0.0000 C   0  0  0  0  0  0  0  0  0  0  0  0
    4.2718   -8.2109    0.0000 C   0  0  0  0  0  0  0  0  0  0  0  0
    5.2755   -9.3257    0.0000 C   0  0  0  0  0  0  0  0  0  0  0  0
    6.7427   -9.0138    0.0000 C   0  0  0  0  0  0  0  0  0  0  0  0
    7.2062   -7.5872    0.0000 C   0  0  0  0  0  0  0  0  0  0  0  0
    6.2025   -6.4725    0.0000 C   0  0  0  0  0  0  0  0  0  0  0  0
    4.7353   -6.7844    0.0000 C   0  0  0  0  0  0  0  0  0  0  0  0
  1  2  1  0
  2  3  2  0
  2  4  1  0
  4  5  1  0
  5  6  1  0
  6  7  1  0
  7  8  1  0
  8  9  1  0
  9 10  2  0
  9 11  1  0
 11 12  1  0
 12 13  2  0
 13 14  1  0
 14 15  2  0
 15 16  1  0
 16 17  2  0
  8 18  1  0
 18 19  2  0
 19 20  1  0
 20 21  2  0
 21 22  1  0
 22 23  2  0
 23 24  1  0
 24 25  2  0
 25 26  1  0
 26 27  2  0
 27 28  1  0
 28 29  2  0
 29 30  1  0
 30 31  2  0
 31 32  1  0
 32 33  2  0
 33 34  1  0
 34 35  2  0
 35 36  1  0
 36 37  2  0
 37 38  1  0
 38 39  2  0
 39 40  1  0
 40 41  2  0
 41 42  1  0
 42 43  2  0
 43 44  1  0
 44 45  2  0
 45 46  1  0
 46 47  2  0
 47 48  1  0
 48 49  2  0
 49 50  1  0
 50 51  2  0
 51 52  1  0
 52 53  2  0
 53 54  1  0
 54 55  2  0
 55 56  1  0
 56 57  2  0
 57 58  1  0
 58 59  2  0
 59 60  1  0
 60 61  2  0
 61 62  1  0
 62 63  2  0
 63 64  1  0
 64 65  2  0
 65  5  1  0
 17 12  1  0
 23 18  1  0
 29 24  1  0
 35 30  1  0
 41 36  1  0
 47 42  1  0
 53 48  1  0
 59 54  1  0
 65 60  1  0
M  END
>  <Title>  (792) 
idABCNgen9

$$$$

     RDKit          2D

 34 38  0  0  0  0  0  0  0  0999 V2000
   -1.1382   -8.3460    0.0000 C   0  0  0  0  0  0  0  0  0  0  0  0
   -0.7500   -6.8971    0.0000 C   0  0  0  0  0  0  0  0  0  0  0  0
    0.7500   -6.8971    0.0000 C   0  0  0  0  0  0  0  0  0  0  0  0
    2.0490   -6.1471    0.0000 C   0  0  0  0  0  0  0  0  0  0  0  0
    2.7990   -4.8481    0.0000 C   0  0  0  0  0  0  0  0  0  0  0  0
    2.7990   -3.3481    0.0000 C   0  0  0  0  0  0  0  0  0  0  0  0
    2.0490   -2.0490    0.0000 C   0  0  0  0  0  0  0  0  0  0  0  0
    3.1097   -0.9884    0.0000 C   0  0  0  0  0  0  0  0  0  0  0  0
    2.7215    0.4605    0.0000 O   0  0  0  0  0  0  0  0  0  0  0  0
    4.5586   -1.3766    0.0000 N   0  0  0  0  0  0  0  0  0  0  0  0
    5.6192   -0.3159    0.0000 C   0  0  0  0  0  0  0  0  0  0  0  0
    7.0681   -0.7042    0.0000 N   0  0  0  0  0  0  0  0  0  0  0  0
    8.1288    0.3565    0.0000 N   0  0  0  0  0  0  0  0  0  0  0  0
    7.7406    1.8054    0.0000 N   0  0  0  0  0  0  0  0  0  0  0  0
    6.2917    2.1936    0.0000 N   0  0  0  0  0  0  0  0  0  0  0  0
    5.2310    1.1329    0.0000 N   0  0  0  0  0  0  0  0  0  0  0  0
    0.7500   -1.2990    0.0000 C   0  0  0  0  0  0  0  0  0  0  0  0
    1.5000    0.0000    0.0000 C   0  0  0  0  0  0  0  0  0  0  0  0
    0.7500    1.2990    0.0000 C   0  0  0  0  0  0  0  0  0  0  0  0
   -0.7500    1.2990    0.0000 C   0  0  0  0  0  0  0  0  0  0  0  0
   -1.5000    0.0000    0.0000 C   0  0  0  0  0  0  0  0  0  0  0  0
   -0.7500   -1.2990    0.0000 C   0  0  0  0  0  0  0  0  0  0  0  0
   -2.0490   -2.0490    0.0000 C   0  0  0  0  0  0  0  0  0  0  0  0
   -2.7990   -0.7500    0.0000 C   0  0  0  0  0  0  0  0  0  0  0  0
   -4.2990   -0.7500    0.0000 C   0  0  0  0  0  0  0  0  0  0  0  0
   -5.0490   -2.0490    0.0000 C   0  0  0  0  0  0  0  0  0  0  0  0
   -4.2990   -3.3481    0.0000 C   0  0  0  0  0  0  0  0  0  0  0  0
   -2.7990   -3.3481    0.0000 C   0  0  0  0  0  0  0  0  0  0  0  0
   -2.7990   -4.8481    0.0000 C   0  0  0  0  0  0  0  0  0  0  0  0
   -4.2990   -4.8481    0.0000 C   0  0  0  0  0  0  0  0  0  0  0  0
   -5.0490   -6.1471    0.0000 C   0  0  0  0  0  0  0  0  0  0  0  0
   -4.2990   -7.4462    0.0000 C   0  0  0  0  0  0  0  0  0  0  0  0
   -2.7990   -7.4462    0.0000 C   0  0  0  0  0  0  0  0  0  0  0  0
   -2.0490   -6.1471    0.0000 C   0  0  0  0  0  0  0  0  0  0  0  0
  1  2  1  0
  2  3  2  0
  3  4  1  0
  4  5  1  0
  5  6  1  0
  6  7  1  0
  7  8  1  0
  8  9  2  0
  8 10  1  0
 10 11  1  0
 11 12  2  0
 12 13  1  0
 13 14  2  0
 14 15  1  0
 15 16  2  0
  7 17  1  0
 17 18  2  0
 18 19  1  0
 19 20  2  0
 20 21  1  0
 21 22  2  0
 22 23  1  0
 23 24  2  0
 24 25  1  0
 25 26  2  0
 26 27  1  0
 27 28  2  0
 28 29  1  0
 29 30  2  0
 30 31  1  0
 31 32  2  0
 32 33  1  0
 33 34  2  0
 34  2  1  0
 16 11  1  0
 22 17  1  0
 28 23  1  0
 34 29  1  0
M  END
>  <Title>  (793) 
idABCOgen9

$$$$

     RDKit          2D

 17 18  0  0  0  0  0  0  0  0999 V2000
    7.2760    2.5981    0.0000 C   0  0  0  0  0  0  0  0  0  0  0  0
    5.7760    2.5981    0.0000 C   0  0  0  0  0  0  0  0  0  0  0  0
    5.0260    3.8971    0.0000 C   0  0  0  0  0  0  0  0  0  0  0  0
    5.0260    1.2990    0.0000 C   0  0  0  0  0  0  0  0  0  0  0  0
    3.5260    1.2990    0.0000 C   0  0  0  0  0  0  0  0  0  0  0  0
    2.7760    2.5981    0.0000 O   0  0  0  0  0  0  0  0  0  0  0  0
    2.7760    0.0000    0.0000 N   0  0  0  0  0  0  0  0  0  0  0  0
    1.2760    0.0000    0.0000 C   0  0  0  0  0  0  0  0  0  0  0  0
    0.3943    1.2135    0.0000 N   0  0  0  0  0  0  0  0  0  0  0  0
   -1.0323    0.7500    0.0000 N   0  0  0  0  0  0  0  0  0  0  0  0
   -1.0323   -0.7500    0.0000 N   0  0  0  0  0  0  0  0  0  0  0  0
    0.3943   -1.2135    0.0000 N   0  0  0  0  0  0  0  0  0  0  0  0
    0.8578   -2.6401    0.0000 C   0  0  0  0  0  0  0  0  0  0  0  0
   -0.0239   -3.8536    0.0000 C   0  0  0  0  0  0  0  0  0  0  0  0
    0.8578   -5.0672    0.0000 C   0  0  0  0  0  0  0  0  0  0  0  0
    2.2844   -4.6036    0.0000 C   0  0  0  0  0  0  0  0  0  0  0  0
    2.2844   -3.1036    0.0000 C   0  0  0  0  0  0  0  0  0  0  0  0
  1  2  1  0
  2  3  1  0
  2  4  1  0
  4  5  1  0
  5  6  2  0
  5  7  1  0
  7  8  1  0
  8  9  2  0
  9 10  1  0
 10 11  2  0
 11 12  1  0
 12 13  1  0
 13 14  2  0
 14 15  1  0
 15 16  2  0
 16 17  1  0
 12  8  1  0
 17 13  1  0
M  END
>  <Title>  (794) 
idABCPgen9

$$$$

     RDKit          2D

 15 15  0  0  0  0  0  0  0  0999 V2000
   16.2760   -0.0000    0.0000 C   0  0  0  0  0  0  0  0  0  0  0  0
   14.7760   -0.0000    0.0000 C   0  0  0  0  0  0  0  0  0  0  0  0
   13.2760   -0.0000    0.0000 C   0  0  0  0  0  0  0  0  0  0  0  0
   11.7760   -0.0000    0.0000 C   0  0  0  0  0  0  0  0  0  0  0  0
   10.2760   -0.0000    0.0000 C   0  0  0  0  0  0  0  0  0  0  0  0
    8.7760   -0.0000    0.0000 C   0  0  0  0  0  0  0  0  0  0  0  0
    7.2760   -0.0000    0.0000 C   0  0  0  0  0  0  0  0  0  0  0  0
    5.7760   -0.0000    0.0000 C   0  0  0  0  0  0  0  0  0  0  0  0
    4.2760   -0.0000    0.0000 C   0  0  0  0  0  0  0  0  0  0  0  0
    2.7760    0.0000    0.0000 C   0  0  0  0  0  0  0  0  0  0  0  0
    1.2760    0.0000    0.0000 C   0  0  0  0  0  0  0  0  0  0  0  0
    0.3943    1.2135    0.0000 C   0  0  0  0  0  0  0  0  0  0  0  0
   -1.0323    0.7500    0.0000 C   0  0  0  0  0  0  0  0  0  0  0  0
   -1.0323   -0.7500    0.0000 C   0  0  0  0  0  0  0  0  0  0  0  0
    0.3943   -1.2135    0.0000 C   0  0  0  0  0  0  0  0  0  0  0  0
  1  2  3  0
  2  3  1  0
  3  4  3  0
  4  5  1  0
  5  6  3  0
  6  7  1  0
  7  8  3  0
  8  9  1  0
  9 10  3  0
 10 11  1  0
 11 12  2  0
 12 13  1  0
 13 14  1  0
 14 15  2  0
 15 11  1  0
M  END
>  <Title>  (795) 
idABCQgen9

$$$$

     RDKit          2D

  8  8  0  0  0  0  0  0  0  0999 V2000
    3.0000    0.0000    0.0000 C   0  0  0  0  0  0  0  0  0  0  0  0
    1.5000    0.0000    0.0000 C   0  0  0  0  0  0  0  0  0  0  0  0
    0.7500   -1.2990    0.0000 C   0  0  0  0  0  0  0  0  0  0  0  0
   -0.7500   -1.2990    0.0000 C   0  0  0  0  0  0  0  0  0  0  0  0
   -1.5000    0.0000    0.0000 C   0  0  0  0  0  0  0  0  0  0  0  0
   -0.7500    1.2990    0.0000 C   0  0  0  0  0  0  0  0  0  0  0  0
    0.7500    1.2990    0.0000 C   0  0  0  0  0  0  0  0  0  0  0  0
    1.5000    2.5981    0.0000 C   0  0  0  0  0  0  0  0  0  0  0  0
  1  2  1  0
  2  3  2  0
  3  4  1  0
  4  5  2  0
  5  6  1  0
  6  7  2  0
  7  8  1  0
  7  2  1  0
M  END
>  <Title>  (796) 
idABCRgen9

$$$$

     RDKit          2D

116117  0  0  0  0  0  0  0  0999 V2000
   -2.1406   -1.0933    0.0000 C   0  0  0  0  0  0  0  0  0  0  0  0
   -2.4826    0.3672    0.0000 C   0  0  0  0  0  0  0  0  0  0  0  0
   -3.9521    0.0663    0.0000 C   0  0  0  0  0  0  0  0  0  0  0  0
   -5.4362   -0.1517    0.0000 C   0  0  0  0  0  0  0  0  0  0  0  0
   -6.9302   -0.2862    0.0000 C   0  0  0  0  0  0  0  0  0  0  0  0
   -8.4293   -0.3366    0.0000 C   0  0  0  0  0  0  0  0  0  0  0  0
   -9.9289   -0.3030    0.0000 C   0  0  0  0  0  0  0  0  0  0  0  0
  -11.4243   -0.1853    0.0000 C   0  0  0  0  0  0  0  0  0  0  0  0
  -12.9107    0.0161    0.0000 C   0  0  0  0  0  0  0  0  0  0  0  0
  -14.3835    0.3004    0.0000 C   0  0  0  0  0  0  0  0  0  0  0  0
  -15.8381    0.6669    0.0000 C   0  0  0  0  0  0  0  0  0  0  0  0
  -17.2698    1.1144    0.0000 C   0  0  0  0  0  0  0  0  0  0  0  0
  -18.6741    1.6415    0.0000 C   0  0  0  0  0  0  0  0  0  0  0  0
  -20.0467    2.2465    0.0000 C   0  0  0  0  0  0  0  0  0  0  0  0
  -21.3832    2.9275    0.0000 C   0  0  0  0  0  0  0  0  0  0  0  0
  -22.6794    3.6823    0.0000 C   0  0  0  0  0  0  0  0  0  0  0  0
  -23.9313    4.5087    0.0000 C   0  0  0  0  0  0  0  0  0  0  0  0
  -25.1349    5.4039    0.0000 C   0  0  0  0  0  0  0  0  0  0  0  0
  -26.2863    6.3652    0.0000 C   0  0  0  0  0  0  0  0  0  0  0  0
  -27.3821    7.3896    0.0000 C   0  0  0  0  0  0  0  0  0  0  0  0
  -28.4187    8.4738    0.0000 C   0  0  0  0  0  0  0  0  0  0  0  0
  -29.3928    9.6144    0.0000 C   0  0  0  0  0  0  0  0  0  0  0  0
  -30.3015   10.8078    0.0000 C   0  0  0  0  0  0  0  0  0  0  0  0
  -31.1419   12.0503    0.0000 C   0  0  0  0  0  0  0  0  0  0  0  0
  -31.9112   13.3380    0.0000 C   0  0  0  0  0  0  0  0  0  0  0  0
  -32.6072   14.6668    0.0000 C   0  0  0  0  0  0  0  0  0  0  0  0
  -33.2275   16.0325    0.0000 C   0  0  0  0  0  0  0  0  0  0  0  0
  -33.7703   17.4308    0.0000 C   0  0  0  0  0  0  0  0  0  0  0  0
  -34.2338   18.8574    0.0000 C   0  0  0  0  0  0  0  0  0  0  0  0
  -34.6166   20.3078    0.0000 C   0  0  0  0  0  0  0  0  0  0  0  0
  -34.9175   21.7773    0.0000 C   0  0  0  0  0  0  0  0  0  0  0  0
  -35.1355   23.2613    0.0000 C   0  0  0  0  0  0  0  0  0  0  0  0
  -35.2700   24.7553    0.0000 C   0  0  0  0  0  0  0  0  0  0  0  0
  -35.3204   26.2545    0.0000 C   0  0  0  0  0  0  0  0  0  0  0  0
  -35.2868   27.7541    0.0000 C   0  0  0  0  0  0  0  0  0  0  0  0
  -35.1691   29.2495    0.0000 C   0  0  0  0  0  0  0  0  0  0  0  0
  -34.9678   30.7359    0.0000 C   0  0  0  0  0  0  0  0  0  0  0  0
  -34.6834   32.2087    0.0000 C   0  0  0  0  0  0  0  0  0  0  0  0
  -34.3169   33.6632    0.0000 C   0  0  0  0  0  0  0  0  0  0  0  0
  -33.8694   35.0949    0.0000 C   0  0  0  0  0  0  0  0  0  0  0  0
  -33.3423   36.4993    0.0000 C   0  0  0  0  0  0  0  0  0  0  0  0
  -32.7373   37.8718    0.0000 C   0  0  0  0  0  0  0  0  0  0  0  0
  -32.0564   39.2084    0.0000 C   0  0  0  0  0  0  0  0  0  0  0  0
  -31.3015   40.5046    0.0000 C   0  0  0  0  0  0  0  0  0  0  0  0
  -30.4752   41.7564    0.0000 C   0  0  0  0  0  0  0  0  0  0  0  0
  -29.5799   42.9600    0.0000 C   0  0  0  0  0  0  0  0  0  0  0  0
  -28.6186   44.1115    0.0000 C   0  0  0  0  0  0  0  0  0  0  0  0
  -27.5942   45.2072    0.0000 C   0  0  0  0  0  0  0  0  0  0  0  0
  -26.5100   46.2438    0.0000 C   0  0  0  0  0  0  0  0  0  0  0  0
  -25.3694   47.2180    0.0000 C   0  0  0  0  0  0  0  0  0  0  0  0
  -24.1760   48.1267    0.0000 C   0  0  0  0  0  0  0  0  0  0  0  0
  -22.9335   48.9670    0.0000 C   0  0  0  0  0  0  0  0  0  0  0  0
  -21.6458   49.7364    0.0000 C   0  0  0  0  0  0  0  0  0  0  0  0
  -20.3170   50.4323    0.0000 C   0  0  0  0  0  0  0  0  0  0  0  0
  -18.9513   51.0526    0.0000 C   0  0  0  0  0  0  0  0  0  0  0  0
  -17.5530   51.5954    0.0000 C   0  0  0  0  0  0  0  0  0  0  0  0
  -16.1264   52.0589    0.0000 C   0  0  0  0  0  0  0  0  0  0  0  0
  -14.6760   52.4417    0.0000 C   0  0  0  0  0  0  0  0  0  0  0  0
  -13.2065   52.7426    0.0000 C   0  0  0  0  0  0  0  0  0  0  0  0
  -11.7225   52.9606    0.0000 C   0  0  0  0  0  0  0  0  0  0  0  0
  -10.2285   53.0951    0.0000 C   0  0  0  0  0  0  0  0  0  0  0  0
   -8.7294   53.1456    0.0000 C   0  0  0  0  0  0  0  0  0  0  0  0
   -7.2297   53.1119    0.0000 C   0  0  0  0  0  0  0  0  0  0  0  0
   -5.7344   52.9942    0.0000 C   0  0  0  0  0  0  0  0  0  0  0  0
   -4.2479   52.7929    0.0000 C   0  0  0  0  0  0  0  0  0  0  0  0
   -2.7751   52.5085    0.0000 C   0  0  0  0  0  0  0  0  0  0  0  0
   -1.3206   52.1420    0.0000 C   0  0  0  0  0  0  0  0  0  0  0  0
    0.1111   51.6945    0.0000 C   0  0  0  0  0  0  0  0  0  0  0  0
    1.5154   51.1675    0.0000 C   0  0  0  0  0  0  0  0  0  0  0  0
    2.8880   50.5625    0.0000 C   0  0  0  0  0  0  0  0  0  0  0  0
    4.2246   49.8815    0.0000 C   0  0  0  0  0  0  0  0  0  0  0  0
    5.5208   49.1266    0.0000 C   0  0  0  0  0  0  0  0  0  0  0  0
    6.7726   48.3003    0.0000 C   0  0  0  0  0  0  0  0  0  0  0  0
    7.9762   47.4051    0.0000 C   0  0  0  0  0  0  0  0  0  0  0  0
    9.1277   46.4437    0.0000 C   0  0  0  0  0  0  0  0  0  0  0  0
   10.2234   45.4194    0.0000 C   0  0  0  0  0  0  0  0  0  0  0  0
   11.2600   44.3352    0.0000 C   0  0  0  0  0  0  0  0  0  0  0  0
   12.2342   43.1946    0.0000 C   0  0  0  0  0  0  0  0  0  0  0  0
   13.1429   42.0011    0.0000 C   0  0  0  0  0  0  0  0  0  0  0  0
   13.9832   40.7586    0.0000 C   0  0  0  0  0  0  0  0  0  0  0  0
   14.7526   39.4710    0.0000 C   0  0  0  0  0  0  0  0  0  0  0  0
   15.4485   38.1422    0.0000 C   0  0  0  0  0  0  0  0  0  0  0  0
   16.0688   36.7765    0.0000 C   0  0  0  0  0  0  0  0  0  0  0  0
   16.6116   35.3781    0.0000 C   0  0  0  0  0  0  0  0  0  0  0  0
   17.0751   33.9515    0.0000 C   0  0  0  0  0  0  0  0  0  0  0  0
   17.4579   32.5012    0.0000 C   0  0  0  0  0  0  0  0  0  0  0  0
   17.7588   31.0317    0.0000 C   0  0  0  0  0  0  0  0  0  0  0  0
   17.9768   29.5476    0.0000 C   0  0  0  0  0  0  0  0  0  0  0  0
   18.1113   28.0536    0.0000 C   0  0  0  0  0  0  0  0  0  0  0  0
   18.1618   26.5545    0.0000 C   0  0  0  0  0  0  0  0  0  0  0  0
   18.1281   25.0549    0.0000 C   0  0  0  0  0  0  0  0  0  0  0  0
   18.0104   23.5595    0.0000 C   0  0  0  0  0  0  0  0  0  0  0  0
   17.8091   22.0731    0.0000 C   0  0  0  0  0  0  0  0  0  0  0  0
   17.5247   20.6003    0.0000 C   0  0  0  0  0  0  0  0  0  0  0  0
   17.1582   19.1457    0.0000 C   0  0  0  0  0  0  0  0  0  0  0  0
   16.7107   17.7140    0.0000 C   0  0  0  0  0  0  0  0  0  0  0  0
   16.1836   16.3097    0.0000 C   0  0  0  0  0  0  0  0  0  0  0  0
   15.5787   14.9371    0.0000 C   0  0  0  0  0  0  0  0  0  0  0  0
   14.8977   13.6006    0.0000 C   0  0  0  0  0  0  0  0  0  0  0  0
   14.1428   12.3044    0.0000 C   0  0  0  0  0  0  0  0  0  0  0  0
   13.3165   11.0525    0.0000 C   0  0  0  0  0  0  0  0  0  0  0  0
   12.4212    9.8489    0.0000 C   0  0  0  0  0  0  0  0  0  0  0  0
   11.4599    8.6975    0.0000 C   0  0  0  0  0  0  0  0  0  0  0  0
   10.4356    7.6017    0.0000 C   0  0  0  0  0  0  0  0  0  0  0  0
    9.3514    6.5651    0.0000 C   0  0  0  0  0  0  0  0  0  0  0  0
    8.2108    5.5910    0.0000 C   0  0  0  0  0  0  0  0  0  0  0  0
    7.0173    4.6823    0.0000 C   0  0  0  0  0  0  0  0  0  0  0  0
    5.7748    3.8419    0.0000 C   0  0  0  0  0  0  0  0  0  0  0  0
    4.4872    3.0726    0.0000 C   0  0  0  0  0  0  0  0  0  0  0  0
    3.1584    2.3766    0.0000 C   0  0  0  0  0  0  0  0  0  0  0  0
    1.7926    1.7563    0.0000 C   0  0  0  0  0  0  0  0  0  0  0  0
    0.3943    1.2135    0.0000 C   0  0  0  0  0  0  0  0  0  0  0  0
    1.2760    0.0000    0.0000 C   0  0  0  0  0  0  0  0  0  0  0  0
    0.3943   -1.2135    0.0000 C   0  0  0  0  0  0  0  0  0  0  0  0
   -1.0323   -0.7500    0.0000 C   0  0  0  0  0  0  0  0  0  0  0  0
   -1.0323    0.7500    0.0000 C   0  0  0  0  0  0  0  0  0  0  0  0
  1  2  1  0
  2  3  1  0
  3  4  1  0
  4  5  1  0
  5  6  1  0
  6  7  1  0
  7  8  1  0
  8  9  1  0
  9 10  1  0
 10 11  1  0
 11 12  1  0
 12 13  1  0
 13 14  1  0
 14 15  1  0
 15 16  1  0
 16 17  1  0
 17 18  1  0
 18 19  1  0
 19 20  1  0
 20 21  1  0
 21 22  1  0
 22 23  1  0
 23 24  1  0
 24 25  1  0
 25 26  1  0
 26 27  1  0
 27 28  1  0
 28 29  1  0
 29 30  1  0
 30 31  1  0
 31 32  1  0
 32 33  1  0
 33 34  1  0
 34 35  1  0
 35 36  1  0
 36 37  1  0
 37 38  1  0
 38 39  1  0
 39 40  1  0
 40 41  1  0
 41 42  1  0
 42 43  1  0
 43 44  1  0
 44 45  1  0
 45 46  1  0
 46 47  1  0
 47 48  1  0
 48 49  1  0
 49 50  1  0
 50 51  1  0
 51 52  1  0
 52 53  1  0
 53 54  1  0
 54 55  1  0
 55 56  1  0
 56 57  1  0
 57 58  1  0
 58 59  1  0
 59 60  1  0
 60 61  1  0
 61 62  1  0
 62 63  1  0
 63 64  1  0
 64 65  1  0
 65 66  1  0
 66 67  1  0
 67 68  1  0
 68 69  1  0
 69 70  1  0
 70 71  1  0
 71 72  1  0
 72 73  1  0
 73 74  1  0
 74 75  1  0
 75 76  1  0
 76 77  1  0
 77 78  1  0
 78 79  1  0
 79 80  1  0
 80 81  1  0
 81 82  1  0
 82 83  1  0
 83 84  1  0
 84 85  1  0
 85 86  1  0
 86 87  1  0
 87 88  1  0
 88 89  1  0
 89 90  1  0
 90 91  1  0
 91 92  1  0
 92 93  1  0
 93 94  1  0
 94 95  1  0
 95 96  1  0
 96 97  1  0
 97 98  1  0
 98 99  1  0
 99100  1  0
100101  1  0
101102  1  0
102103  1  0
103104  1  0
104105  1  0
105106  1  0
106107  1  0
107108  1  0
108109  1  0
109110  1  0
110111  1  0
111112  1  0
112113  1  0
113114  2  0
114115  1  0
115116  2  0
116  2  1  0
116112  1  0
M  END
>  <Title>  (797) 
idABCSgen9

$$$$

     RDKit          2D

 39 44  0  0  0  0  0  0  0  0999 V2000
    2.1535   -8.4451    0.0000 C   0  0  0  0  0  0  0  0  0  0  0  0
    1.4564   -7.1169    0.0000 C   0  0  0  0  0  0  0  0  0  0  0  0
    2.5792   -6.1222    0.0000 C   0  0  0  0  0  0  0  0  0  0  0  0
    3.1111   -4.7197    0.0000 C   0  0  0  0  0  0  0  0  0  0  0  0
    2.9303   -3.2306    0.0000 C   0  0  0  0  0  0  0  0  0  0  0  0
    2.0782   -1.9961    0.0000 C   0  0  0  0  0  0  0  0  0  0  0  0
    3.0729   -0.8734    0.0000 C   0  0  0  0  0  0  0  0  0  0  0  0
    2.5979    0.5494    0.0000 O   0  0  0  0  0  0  0  0  0  0  0  0
    4.5426   -1.1734    0.0000 O   0  0  0  0  0  0  0  0  0  0  0  0
    5.5372   -0.0506    0.0000 C   0  0  0  0  0  0  0  0  0  0  0  0
    7.0069   -0.3507    0.0000 N   0  0  0  0  0  0  0  0  0  0  0  0
    8.0016    0.7721    0.0000 N   0  0  0  0  0  0  0  0  0  0  0  0
    7.5266    2.1949    0.0000 N   0  0  0  0  0  0  0  0  0  0  0  0
    6.0569    2.4949    0.0000 N   0  0  0  0  0  0  0  0  0  0  0  0
    5.0622    1.3722    0.0000 N   0  0  0  0  0  0  0  0  0  0  0  0
    0.7500   -1.2990    0.0000 C   0  0  0  0  0  0  0  0  0  0  0  0
    1.5000    0.0000    0.0000 C   0  0  0  0  0  0  0  0  0  0  0  0
    0.7500    1.2990    0.0000 C   0  0  0  0  0  0  0  0  0  0  0  0
   -0.7500    1.2990    0.0000 C   0  0  0  0  0  0  0  0  0  0  0  0
   -1.5000    0.0000    0.0000 C   0  0  0  0  0  0  0  0  0  0  0  0
   -0.7500   -1.2990    0.0000 C   0  0  0  0  0  0  0  0  0  0  0  0
   -2.0782   -1.9961    0.0000 C   0  0  0  0  0  0  0  0  0  0  0  0
   -2.7212   -0.6409    0.0000 C   0  0  0  0  0  0  0  0  0  0  0  0
   -4.2164   -0.5202    0.0000 C   0  0  0  0  0  0  0  0  0  0  0  0
   -5.0685   -1.7547    0.0000 C   0  0  0  0  0  0  0  0  0  0  0  0
   -4.4254   -3.1099    0.0000 C   0  0  0  0  0  0  0  0  0  0  0  0
   -2.9303   -3.2306    0.0000 C   0  0  0  0  0  0  0  0  0  0  0  0
   -3.1111   -4.7197    0.0000 C   0  0  0  0  0  0  0  0  0  0  0  0
   -4.5917   -4.4790    0.0000 C   0  0  0  0  0  0  0  0  0  0  0  0
   -5.5403   -5.6410    0.0000 C   0  0  0  0  0  0  0  0  0  0  0  0
   -5.0084   -7.0435    0.0000 C   0  0  0  0  0  0  0  0  0  0  0  0
   -3.5278   -7.2841    0.0000 C   0  0  0  0  0  0  0  0  0  0  0  0
   -2.5792   -6.1222    0.0000 C   0  0  0  0  0  0  0  0  0  0  0  0
   -1.4564   -7.1169    0.0000 C   0  0  0  0  0  0  0  0  0  0  0  0
   -2.4955   -8.1987    0.0000 C   0  0  0  0  0  0  0  0  0  0  0  0
   -2.0782   -9.6395    0.0000 C   0  0  0  0  0  0  0  0  0  0  0  0
   -0.6218   -9.9984    0.0000 C   0  0  0  0  0  0  0  0  0  0  0  0
    0.4173   -8.9166    0.0000 C   0  0  0  0  0  0  0  0  0  0  0  0
   -0.0000   -7.4758    0.0000 C   0  0  0  0  0  0  0  0  0  0  0  0
  1  2  1  0
  2  3  2  0
  3  4  1  0
  4  5  1  0
  5  6  1  0
  6  7  1  0
  7  8  2  0
  7  9  1  0
  9 10  1  0
 10 11  2  0
 11 12  1  0
 12 13  2  0
 13 14  1  0
 14 15  2  0
  6 16  1  0
 16 17  2  0
 17 18  1  0
 18 19  2  0
 19 20  1  0
 20 21  2  0
 21 22  1  0
 22 23  2  0
 23 24  1  0
 24 25  2  0
 25 26  1  0
 26 27  2  0
 27 28  1  0
 28 29  2  0
 29 30  1  0
 30 31  2  0
 31 32  1  0
 32 33  2  0
 33 34  1  0
 34 35  2  0
 35 36  1  0
 36 37  2  0
 37 38  1  0
 38 39  2  0
 39  2  1  0
 15 10  1  0
 21 16  1  0
 27 22  1  0
 33 28  1  0
 39 34  1  0
M  END
>  <Title>  (798) 
idABCTgen9

$$$$

     RDKit          2D

 64 73  0  0  0  0  0  0  0  0999 V2000
    5.8191   -5.5525    0.0000 C   0  0  0  0  0  0  0  0  0  0  0  0
    4.3191   -5.5525    0.0000 C   0  0  0  0  0  0  0  0  0  0  0  0
    4.0586   -4.0753    0.0000 C   0  0  0  0  0  0  0  0  0  0  0  0
    3.3086   -2.7762    0.0000 C   0  0  0  0  0  0  0  0  0  0  0  0
    2.1595   -1.8121    0.0000 C   0  0  0  0  0  0  0  0  0  0  0  0
    2.9095   -0.5130    0.0000 C   0  0  0  0  0  0  0  0  0  0  0  0
    2.1595    0.7860    0.0000 O   0  0  0  0  0  0  0  0  0  0  0  0
    4.4095   -0.5130    0.0000 N   0  0  0  0  0  0  0  0  0  0  0  0
    5.1595    0.7860    0.0000 C   0  0  0  0  0  0  0  0  0  0  0  0
    4.5494    2.1563    0.0000 N   0  0  0  0  0  0  0  0  0  0  0  0
    5.6642    3.1600    0.0000 N   0  0  0  0  0  0  0  0  0  0  0  0
    6.9632    2.4100    0.0000 N   0  0  0  0  0  0  0  0  0  0  0  0
    6.6513    0.9428    0.0000 N   0  0  0  0  0  0  0  0  0  0  0  0
    7.6550   -0.1719    0.0000 N   0  0  0  0  0  0  0  0  0  0  0  0
    9.1468   -0.0151    0.0000 C   0  0  0  0  0  0  0  0  0  0  0  0
    9.7569   -1.3854    0.0000 C   0  0  0  0  0  0  0  0  0  0  0  0
    8.6422   -2.3891    0.0000 C   0  0  0  0  0  0  0  0  0  0  0  0
    8.7990   -3.8809    0.0000 C   0  0  0  0  0  0  0  0  0  0  0  0
    7.5855   -4.7626    0.0000 O   0  0  0  0  0  0  0  0  0  0  0  0
   10.1693   -4.4910    0.0000 O   0  0  0  0  0  0  0  0  0  0  0  0
    7.3432   -1.6391    0.0000 C   0  0  0  0  0  0  0  0  0  0  0  0
    5.9728   -2.2492    0.0000 O   0  0  0  0  0  0  0  0  0  0  0  0
    0.7500   -1.2990    0.0000 C   0  0  0  0  0  0  0  0  0  0  0  0
    1.5000    0.0000    0.0000 C   0  0  0  0  0  0  0  0  0  0  0  0
    0.7500    1.2990    0.0000 C   0  0  0  0  0  0  0  0  0  0  0  0
   -0.7500    1.2990    0.0000 C   0  0  0  0  0  0  0  0  0  0  0  0
   -1.5000    0.0000    0.0000 C   0  0  0  0  0  0  0  0  0  0  0  0
   -0.7500   -1.2990    0.0000 C   0  0  0  0  0  0  0  0  0  0  0  0
   -2.1595   -1.8121    0.0000 C   0  0  0  0  0  0  0  0  0  0  0  0
   -2.4200   -0.3349    0.0000 C   0  0  0  0  0  0  0  0  0  0  0  0
   -3.8296    0.1782    0.0000 C   0  0  0  0  0  0  0  0  0  0  0  0
   -4.9786   -0.7860    0.0000 C   0  0  0  0  0  0  0  0  0  0  0  0
   -4.7181   -2.2632    0.0000 C   0  0  0  0  0  0  0  0  0  0  0  0
   -3.3086   -2.7762    0.0000 C   0  0  0  0  0  0  0  0  0  0  0  0
   -4.0586   -4.0753    0.0000 C   0  0  0  0  0  0  0  0  0  0  0  0
   -5.2077   -3.1111    0.0000 C   0  0  0  0  0  0  0  0  0  0  0  0
   -6.6172   -3.6241    0.0000 C   0  0  0  0  0  0  0  0  0  0  0  0
   -6.8777   -5.1013    0.0000 C   0  0  0  0  0  0  0  0  0  0  0  0
   -5.7286   -6.0655    0.0000 C   0  0  0  0  0  0  0  0  0  0  0  0
   -4.3191   -5.5525    0.0000 C   0  0  0  0  0  0  0  0  0  0  0  0
   -4.0586   -7.0297    0.0000 C   0  0  0  0  0  0  0  0  0  0  0  0
   -5.5586   -7.0297    0.0000 C   0  0  0  0  0  0  0  0  0  0  0  0
   -6.3086   -8.3287    0.0000 C   0  0  0  0  0  0  0  0  0  0  0  0
   -5.5586   -9.6278    0.0000 C   0  0  0  0  0  0  0  0  0  0  0  0
   -4.0586   -9.6278    0.0000 C   0  0  0  0  0  0  0  0  0  0  0  0
   -3.3086   -8.3287    0.0000 C   0  0  0  0  0  0  0  0  0  0  0  0
   -2.1595   -9.2929    0.0000 C   0  0  0  0  0  0  0  0  0  0  0  0
   -3.3086  -10.2571    0.0000 C   0  0  0  0  0  0  0  0  0  0  0  0
   -3.0481  -11.7343    0.0000 C   0  0  0  0  0  0  0  0  0  0  0  0
   -1.6386  -12.2474    0.0000 C   0  0  0  0  0  0  0  0  0  0  0  0
   -0.4895  -11.2832    0.0000 C   0  0  0  0  0  0  0  0  0  0  0  0
   -0.7500   -9.8060    0.0000 C   0  0  0  0  0  0  0  0  0  0  0  0
    0.7500   -9.8060    0.0000 C   0  0  0  0  0  0  0  0  0  0  0  0
    0.4895  -11.2832    0.0000 C   0  0  0  0  0  0  0  0  0  0  0  0
    1.6386  -12.2474    0.0000 C   0  0  0  0  0  0  0  0  0  0  0  0
    3.0481  -11.7343    0.0000 C   0  0  0  0  0  0  0  0  0  0  0  0
    3.3086  -10.2571    0.0000 C   0  0  0  0  0  0  0  0  0  0  0  0
    2.1595   -9.2929    0.0000 C   0  0  0  0  0  0  0  0  0  0  0  0
    3.3086   -8.3287    0.0000 C   0  0  0  0  0  0  0  0  0  0  0  0
    4.0586   -9.6278    0.0000 C   0  0  0  0  0  0  0  0  0  0  0  0
    5.5586   -9.6278    0.0000 C   0  0  0  0  0  0  0  0  0  0  0  0
    6.3086   -8.3287    0.0000 C   0  0  0  0  0  0  0  0  0  0  0  0
    5.5586   -7.0297    0.0000 C   0  0  0  0  0  0  0  0  0  0  0  0
    4.0586   -7.0297    0.0000 C   0  0  0  0  0  0  0  0  0  0  0  0
  1  2  1  0
  2  3  1  0
  3  4  1  0
  4  5  1  0
  5  6  1  0
  6  7  2  0
  6  8  1  0
  8  9  1  0
  9 10  2  0
 10 11  1  0
 11 12  2  0
 12 13  1  0
 13 14  1  0
 14 15  1  0
 15 16  1  0
 16 17  1  0
 17 18  1  0
 18 19  2  0
 18 20  1  0
 17 21  1  0
 21 22  2  0
  5 23  1  0
 23 24  2  0
 24 25  1  0
 25 26  2  0
 26 27  1  0
 27 28  2  0
 28 29  1  0
 29 30  2  0
 30 31  1  0
 31 32  2  0
 32 33  1  0
 33 34  2  0
 34 35  1  0
 35 36  2  0
 36 37  1  0
 37 38  2  0
 38 39  1  0
 39 40  2  0
 40 41  1  0
 41 42  2  0
 42 43  1  0
 43 44  2  0
 44 45  1  0
 45 46  2  0
 46 47  1  0
 47 48  2  0
 48 49  1  0
 49 50  2  0
 50 51  1  0
 51 52  2  0
 52 53  1  0
 53 54  2  0
 54 55  1  0
 55 56  2  0
 56 57  1  0
 57 58  2  0
 58 59  1  0
 59 60  2  0
 60 61  1  0
 61 62  2  0
 62 63  1  0
 63 64  2  0
 64  2  1  0
 13  9  1  0
 21 14  1  0
 28 23  1  0
 34 29  1  0
 40 35  1  0
 46 41  1  0
 52 47  1  0
 58 53  1  0
 64 59  1  0
M  END
>  <Title>  (799) 
idABCUgen9

$$$$

     RDKit          2D

 10  9  0  0  0  0  0  0  0  0999 V2000
    0.0000    0.0000    0.0000 C   0  0  0  0  0  0  0  0  0  0  0  0
   -0.0000   -1.5000    0.0000 C   0  0  0  0  0  0  0  0  0  0  0  0
   -0.0000   -3.0000    0.0000 C   0  0  0  0  0  0  0  0  0  0  0  0
   -0.0000   -4.5000    0.0000 C   0  0  0  0  0  0  0  0  0  0  0  0
   -0.0000   -6.0000    0.0000 C   0  0  0  0  0  0  0  0  0  0  0  0
   -0.0000   -7.5000    0.0000 C   0  0  0  0  0  0  0  0  0  0  0  0
   -0.0000   -9.0000    0.0000 C   0  0  0  0  0  0  0  0  0  0  0  0
   -0.0000  -10.5000    0.0000 C   0  0  0  0  0  0  0  0  0  0  0  0
   -0.0000  -12.0000    0.0000 C   0  0  0  0  0  0  0  0  0  0  0  0
    1.2990  -12.7500    0.0000 O   0  0  0  0  0  0  0  0  0  0  0  0
  1  2  3  0
  2  3  1  0
  3  4  3  0
  4  5  1  0
  5  6  3  0
  6  7  1  0
  7  8  3  0
  8  9  1  0
  9 10  1  0
M  END
>  <Title>  (800) 
idABCVgen9

$$$$

     RDKit          2D

 84 84  0  0  0  0  0  0  0  0999 V2000
   21.0808    0.0000    0.0000 C   0  0  0  0  0  0  0  0  0  0  0  0
   19.5808    0.0000    0.0000 C   0  0  0  0  0  0  0  0  0  0  0  0
   19.5234   -1.4989    0.0000 C   0  0  0  0  0  0  0  0  0  0  0  0
   19.3514   -2.9890    0.0000 C   0  0  0  0  0  0  0  0  0  0  0  0
   19.0658   -4.4616    0.0000 C   0  0  0  0  0  0  0  0  0  0  0  0
   18.6683   -5.9079    0.0000 C   0  0  0  0  0  0  0  0  0  0  0  0
   18.1613   -7.3197    0.0000 C   0  0  0  0  0  0  0  0  0  0  0  0
   17.5477   -8.6884    0.0000 C   0  0  0  0  0  0  0  0  0  0  0  0
   16.8311  -10.0062    0.0000 C   0  0  0  0  0  0  0  0  0  0  0  0
   16.0158  -11.2652    0.0000 C   0  0  0  0  0  0  0  0  0  0  0  0
   15.1064  -12.4582    0.0000 C   0  0  0  0  0  0  0  0  0  0  0  0
   14.1084  -13.5780    0.0000 C   0  0  0  0  0  0  0  0  0  0  0  0
   13.0276  -14.6181    0.0000 C   0  0  0  0  0  0  0  0  0  0  0  0
   11.8704  -15.5725    0.0000 C   0  0  0  0  0  0  0  0  0  0  0  0
   10.6435  -16.4355    0.0000 C   0  0  0  0  0  0  0  0  0  0  0  0
    9.3542  -17.2020    0.0000 C   0  0  0  0  0  0  0  0  0  0  0  0
    8.0099  -17.8676    0.0000 C   0  0  0  0  0  0  0  0  0  0  0  0
    6.6187  -18.4283    0.0000 C   0  0  0  0  0  0  0  0  0  0  0  0
    5.1886  -18.8809    0.0000 C   0  0  0  0  0  0  0  0  0  0  0  0
    3.7280  -19.2227    0.0000 C   0  0  0  0  0  0  0  0  0  0  0  0
    2.2456  -19.4517    0.0000 C   0  0  0  0  0  0  0  0  0  0  0  0
    0.7500  -19.5665    0.0000 C   0  0  0  0  0  0  0  0  0  0  0  0
   -0.7500  -19.5665    0.0000 C   0  0  0  0  0  0  0  0  0  0  0  0
   -2.2456  -19.4517    0.0000 C   0  0  0  0  0  0  0  0  0  0  0  0
   -3.7280  -19.2227    0.0000 C   0  0  0  0  0  0  0  0  0  0  0  0
   -5.1886  -18.8809    0.0000 C   0  0  0  0  0  0  0  0  0  0  0  0
   -6.6187  -18.4283    0.0000 C   0  0  0  0  0  0  0  0  0  0  0  0
   -8.0099  -17.8676    0.0000 C   0  0  0  0  0  0  0  0  0  0  0  0
   -9.3542  -17.2020    0.0000 C   0  0  0  0  0  0  0  0  0  0  0  0
  -10.6435  -16.4355    0.0000 C   0  0  0  0  0  0  0  0  0  0  0  0
  -11.8704  -15.5725    0.0000 C   0  0  0  0  0  0  0  0  0  0  0  0
  -13.0276  -14.6181    0.0000 C   0  0  0  0  0  0  0  0  0  0  0  0
  -14.1084  -13.5780    0.0000 C   0  0  0  0  0  0  0  0  0  0  0  0
  -15.1064  -12.4582    0.0000 C   0  0  0  0  0  0  0  0  0  0  0  0
  -16.0158  -11.2652    0.0000 C   0  0  0  0  0  0  0  0  0  0  0  0
  -16.8311  -10.0062    0.0000 C   0  0  0  0  0  0  0  0  0  0  0  0
  -17.5477   -8.6884    0.0000 C   0  0  0  0  0  0  0  0  0  0  0  0
  -18.1613   -7.3197    0.0000 C   0  0  0  0  0  0  0  0  0  0  0  0
  -18.6683   -5.9079    0.0000 C   0  0  0  0  0  0  0  0  0  0  0  0
  -19.0658   -4.4616    0.0000 C   0  0  0  0  0  0  0  0  0  0  0  0
  -19.3514   -2.9890    0.0000 C   0  0  0  0  0  0  0  0  0  0  0  0
  -19.5234   -1.4989    0.0000 C   0  0  0  0  0  0  0  0  0  0  0  0
  -19.5808   -0.0000    0.0000 C   0  0  0  0  0  0  0  0  0  0  0  0
  -19.5234    1.4989    0.0000 C   0  0  0  0  0  0  0  0  0  0  0  0
  -19.3514    2.9890    0.0000 C   0  0  0  0  0  0  0  0  0  0  0  0
  -19.0658    4.4616    0.0000 C   0  0  0  0  0  0  0  0  0  0  0  0
  -18.6683    5.9079    0.0000 C   0  0  0  0  0  0  0  0  0  0  0  0
  -18.1613    7.3197    0.0000 C   0  0  0  0  0  0  0  0  0  0  0  0
  -17.5477    8.6884    0.0000 C   0  0  0  0  0  0  0  0  0  0  0  0
  -16.8311   10.0062    0.0000 C   0  0  0  0  0  0  0  0  0  0  0  0
  -16.0158   11.2652    0.0000 C   0  0  0  0  0  0  0  0  0  0  0  0
  -15.1064   12.4582    0.0000 C   0  0  0  0  0  0  0  0  0  0  0  0
  -14.1084   13.5780    0.0000 C   0  0  0  0  0  0  0  0  0  0  0  0
  -13.0276   14.6181    0.0000 C   0  0  0  0  0  0  0  0  0  0  0  0
  -11.8704   15.5725    0.0000 C   0  0  0  0  0  0  0  0  0  0  0  0
  -10.6435   16.4355    0.0000 C   0  0  0  0  0  0  0  0  0  0  0  0
   -9.3542   17.2020    0.0000 C   0  0  0  0  0  0  0  0  0  0  0  0
   -8.0099   17.8676    0.0000 C   0  0  0  0  0  0  0  0  0  0  0  0
   -6.6187   18.4283    0.0000 C   0  0  0  0  0  0  0  0  0  0  0  0
   -5.1886   18.8809    0.0000 C   0  0  0  0  0  0  0  0  0  0  0  0
   -3.7280   19.2227    0.0000 C   0  0  0  0  0  0  0  0  0  0  0  0
   -2.2456   19.4517    0.0000 C   0  0  0  0  0  0  0  0  0  0  0  0
   -0.7500   19.5665    0.0000 C   0  0  0  0  0  0  0  0  0  0  0  0
    0.7500   19.5665    0.0000 C   0  0  0  0  0  0  0  0  0  0  0  0
    2.2456   19.4517    0.0000 C   0  0  0  0  0  0  0  0  0  0  0  0
    3.7280   19.2227    0.0000 C   0  0  0  0  0  0  0  0  0  0  0  0
    5.1886   18.8809    0.0000 C   0  0  0  0  0  0  0  0  0  0  0  0
    6.6187   18.4283    0.0000 C   0  0  0  0  0  0  0  0  0  0  0  0
    8.0099   17.8676    0.0000 C   0  0  0  0  0  0  0  0  0  0  0  0
    9.3542   17.2020    0.0000 C   0  0  0  0  0  0  0  0  0  0  0  0
   10.6435   16.4355    0.0000 C   0  0  0  0  0  0  0  0  0  0  0  0
   11.8704   15.5725    0.0000 C   0  0  0  0  0  0  0  0  0  0  0  0
   13.0276   14.6181    0.0000 C   0  0  0  0  0  0  0  0  0  0  0  0
   14.1084   13.5780    0.0000 C   0  0  0  0  0  0  0  0  0  0  0  0
   15.1064   12.4582    0.0000 C   0  0  0  0  0  0  0  0  0  0  0  0
   16.0158   11.2652    0.0000 C   0  0  0  0  0  0  0  0  0  0  0  0
   16.8311   10.0062    0.0000 C   0  0  0  0  0  0  0  0  0  0  0  0
   17.5477    8.6884    0.0000 C   0  0  0  0  0  0  0  0  0  0  0  0
   18.1613    7.3197    0.0000 C   0  0  0  0  0  0  0  0  0  0  0  0
   18.6683    5.9079    0.0000 C   0  0  0  0  0  0  0  0  0  0  0  0
   19.0658    4.4616    0.0000 C   0  0  0  0  0  0  0  0  0  0  0  0
   19.3514    2.9890    0.0000 C   0  0  0  0  0  0  0  0  0  0  0  0
   20.8338    3.2180    0.0000 C   0  0  0  0  0  0  0  0  0  0  0  0
   19.5234    1.4989    0.0000 C   0  0  0  0  0  0  0  0  0  0  0  0
  1  2  1  0
  2  3  2  0
  3  4  1  0
  4  5  1  0
  5  6  1  0
  6  7  1  0
  7  8  1  0
  8  9  1  0
  9 10  1  0
 10 11  1  0
 11 12  1  0
 12 13  1  0
 13 14  1  0
 14 15  1  0
 15 16  1  0
 16 17  1  0
 17 18  1  0
 18 19  1  0
 19 20  1  0
 20 21  1  0
 21 22  1  0
 22 23  1  0
 23 24  1  0
 24 25  1  0
 25 26  1  0
 26 27  1  0
 27 28  1  0
 28 29  1  0
 29 30  1  0
 30 31  1  0
 31 32  1  0
 32 33  1  0
 33 34  1  0
 34 35  1  0
 35 36  1  0
 36 37  1  0
 37 38  1  0
 38 39  1  0
 39 40  1  0
 40 41  1  0
 41 42  1  0
 42 43  1  0
 43 44  1  0
 44 45  1  0
 45 46  1  0
 46 47  1  0
 47 48  1  0
 48 49  1  0
 49 50  1  0
 50 51  1  0
 51 52  1  0
 52 53  1  0
 53 54  1  0
 54 55  1  0
 55 56  1  0
 56 57  1  0
 57 58  1  0
 58 59  1  0
 59 60  1  0
 60 61  1  0
 61 62  1  0
 62 63  1  0
 63 64  1  0
 64 65  1  0
 65 66  1  0
 66 67  1  0
 67 68  1  0
 68 69  1  0
 69 70  1  0
 70 71  1  0
 71 72  1  0
 72 73  1  0
 73 74  1  0
 74 75  1  0
 75 76  1  0
 76 77  1  0
 77 78  1  0
 78 79  1  0
 79 80  1  0
 80 81  1  0
 81 82  1  0
 82 83  1  0
 82 84  1  0
 84  2  1  0
M  END
>  <Title>  (801) 
idABCWgen9

$$$$

     RDKit          2D

 56 64  0  0  0  0  0  0  0  0999 V2000
    5.8191   -5.5525    0.0000 C   0  0  0  0  0  0  0  0  0  0  0  0
    4.3191   -5.5525    0.0000 C   0  0  0  0  0  0  0  0  0  0  0  0
    4.0586   -4.0753    0.0000 C   0  0  0  0  0  0  0  0  0  0  0  0
    3.3086   -2.7762    0.0000 C   0  0  0  0  0  0  0  0  0  0  0  0
    2.1595   -1.8121    0.0000 C   0  0  0  0  0  0  0  0  0  0  0  0
    2.9095   -0.5130    0.0000 C   0  0  0  0  0  0  0  0  0  0  0  0
    2.1595    0.7860    0.0000 O   0  0  0  0  0  0  0  0  0  0  0  0
    4.4095   -0.5130    0.0000 O   0  0  0  0  0  0  0  0  0  0  0  0
    5.1595    0.7860    0.0000 C   0  0  0  0  0  0  0  0  0  0  0  0
    6.6595    0.7860    0.0000 N   0  0  0  0  0  0  0  0  0  0  0  0
    7.4095    2.0850    0.0000 N   0  0  0  0  0  0  0  0  0  0  0  0
    6.6595    3.3841    0.0000 N   0  0  0  0  0  0  0  0  0  0  0  0
    5.1595    3.3841    0.0000 N   0  0  0  0  0  0  0  0  0  0  0  0
    4.4095    2.0850    0.0000 N   0  0  0  0  0  0  0  0  0  0  0  0
    0.7500   -1.2990    0.0000 C   0  0  0  0  0  0  0  0  0  0  0  0
    1.5000    0.0000    0.0000 C   0  0  0  0  0  0  0  0  0  0  0  0
    0.7500    1.2990    0.0000 C   0  0  0  0  0  0  0  0  0  0  0  0
   -0.7500    1.2990    0.0000 C   0  0  0  0  0  0  0  0  0  0  0  0
   -1.5000    0.0000    0.0000 C   0  0  0  0  0  0  0  0  0  0  0  0
   -0.7500   -1.2990    0.0000 C   0  0  0  0  0  0  0  0  0  0  0  0
   -2.1595   -1.8121    0.0000 C   0  0  0  0  0  0  0  0  0  0  0  0
   -2.4200   -0.3349    0.0000 C   0  0  0  0  0  0  0  0  0  0  0  0
   -3.8296    0.1782    0.0000 C   0  0  0  0  0  0  0  0  0  0  0  0
   -4.9786   -0.7860    0.0000 C   0  0  0  0  0  0  0  0  0  0  0  0
   -4.7181   -2.2632    0.0000 C   0  0  0  0  0  0  0  0  0  0  0  0
   -3.3086   -2.7762    0.0000 C   0  0  0  0  0  0  0  0  0  0  0  0
   -4.0586   -4.0753    0.0000 C   0  0  0  0  0  0  0  0  0  0  0  0
   -5.2077   -3.1111    0.0000 C   0  0  0  0  0  0  0  0  0  0  0  0
   -6.6172   -3.6241    0.0000 C   0  0  0  0  0  0  0  0  0  0  0  0
   -6.8777   -5.1013    0.0000 C   0  0  0  0  0  0  0  0  0  0  0  0
   -5.7286   -6.0655    0.0000 C   0  0  0  0  0  0  0  0  0  0  0  0
   -4.3191   -5.5525    0.0000 C   0  0  0  0  0  0  0  0  0  0  0  0
   -4.0586   -7.0297    0.0000 C   0  0  0  0  0  0  0  0  0  0  0  0
   -5.5586   -7.0297    0.0000 C   0  0  0  0  0  0  0  0  0  0  0  0
   -6.3086   -8.3287    0.0000 C   0  0  0  0  0  0  0  0  0  0  0  0
   -5.5586   -9.6278    0.0000 C   0  0  0  0  0  0  0  0  0  0  0  0
   -4.0586   -9.6278    0.0000 C   0  0  0  0  0  0  0  0  0  0  0  0
   -3.3086   -8.3287    0.0000 C   0  0  0  0  0  0  0  0  0  0  0  0
   -2.1595   -9.2929    0.0000 C   0  0  0  0  0  0  0  0  0  0  0  0
   -3.3086  -10.2571    0.0000 C   0  0  0  0  0  0  0  0  0  0  0  0
   -3.0481  -11.7343    0.0000 C   0  0  0  0  0  0  0  0  0  0  0  0
   -1.6386  -12.2474    0.0000 C   0  0  0  0  0  0  0  0  0  0  0  0
   -0.4895  -11.2832    0.0000 C   0  0  0  0  0  0  0  0  0  0  0  0
   -0.7500   -9.8060    0.0000 C   0  0  0  0  0  0  0  0  0  0  0  0
    0.7500   -9.8060    0.0000 C   0  0  0  0  0  0  0  0  0  0  0  0
    0.4895  -11.2832    0.0000 C   0  0  0  0  0  0  0  0  0  0  0  0
    1.6386  -12.2474    0.0000 C   0  0  0  0  0  0  0  0  0  0  0  0
    3.0481  -11.7343    0.0000 C   0  0  0  0  0  0  0  0  0  0  0  0
    3.3086  -10.2571    0.0000 C   0  0  0  0  0  0  0  0  0  0  0  0
    2.1595   -9.2929    0.0000 C   0  0  0  0  0  0  0  0  0  0  0  0
    3.3086   -8.3287    0.0000 C   0  0  0  0  0  0  0  0  0  0  0  0
    4.0586   -9.6278    0.0000 C   0  0  0  0  0  0  0  0  0  0  0  0
    5.5586   -9.6278    0.0000 C   0  0  0  0  0  0  0  0  0  0  0  0
    6.3086   -8.3287    0.0000 C   0  0  0  0  0  0  0  0  0  0  0  0
    5.5586   -7.0297    0.0000 C   0  0  0  0  0  0  0  0  0  0  0  0
    4.0586   -7.0297    0.0000 C   0  0  0  0  0  0  0  0  0  0  0  0
  1  2  1  0
  2  3  1  0
  3  4  1  0
  4  5  1  0
  5  6  1  0
  6  7  2  0
  6  8  1  0
  8  9  1  0
  9 10  2  0
 10 11  1  0
 11 12  2  0
 12 13  1  0
 13 14  2  0
  5 15  1  0
 15 16  2  0
 16 17  1  0
 17 18  2  0
 18 19  1  0
 19 20  2  0
 20 21  1  0
 21 22  2  0
 22 23  1  0
 23 24  2  0
 24 25  1  0
 25 26  2  0
 26 27  1  0
 27 28  2  0
 28 29  1  0
 29 30  2  0
 30 31  1  0
 31 32  2  0
 32 33  1  0
 33 34  2  0
 34 35  1  0
 35 36  2  0
 36 37  1  0
 37 38  2  0
 38 39  1  0
 39 40  2  0
 40 41  1  0
 41 42  2  0
 42 43  1  0
 43 44  2  0
 44 45  1  0
 45 46  2  0
 46 47  1  0
 47 48  2  0
 48 49  1  0
 49 50  2  0
 50 51  1  0
 51 52  2  0
 52 53  1  0
 53 54  2  0
 54 55  1  0
 55 56  2  0
 56  2  1  0
 14  9  1  0
 20 15  1  0
 26 21  1  0
 32 27  1  0
 38 33  1  0
 44 39  1  0
 50 45  1  0
 56 51  1  0
M  END
>  <Title>  (802) 
idABCXgen9

$$$$

     RDKit          2D

114114  0  0  0  0  0  0  0  0999 V2000
   34.0367   -1.2990    0.0000 C   0  0  0  0  0  0  0  0  0  0  0  0
   32.5367   -1.2990    0.0000 C   0  0  0  0  0  0  0  0  0  0  0  0
   31.0367   -1.2990    0.0000 C   0  0  0  0  0  0  0  0  0  0  0  0
   29.5367   -1.2990    0.0000 C   0  0  0  0  0  0  0  0  0  0  0  0
   28.0367   -1.2990    0.0000 C   0  0  0  0  0  0  0  0  0  0  0  0
   27.2867    0.0000    0.0000 C   0  0  0  0  0  0  0  0  0  0  0  0
   25.7867    0.0000    0.0000 C   0  0  0  0  0  0  0  0  0  0  0  0
   25.7431   -1.4994    0.0000 C   0  0  0  0  0  0  0  0  0  0  0  0
   25.6124   -2.9937    0.0000 C   0  0  0  0  0  0  0  0  0  0  0  0
   25.3950   -4.4778    0.0000 C   0  0  0  0  0  0  0  0  0  0  0  0
   25.0917   -5.9468    0.0000 C   0  0  0  0  0  0  0  0  0  0  0  0
   24.7034   -7.3957    0.0000 C   0  0  0  0  0  0  0  0  0  0  0  0
   24.2316   -8.8196    0.0000 C   0  0  0  0  0  0  0  0  0  0  0  0
   23.6778  -10.2136    0.0000 C   0  0  0  0  0  0  0  0  0  0  0  0
   23.0439  -11.5731    0.0000 C   0  0  0  0  0  0  0  0  0  0  0  0
   22.3320  -12.8934    0.0000 C   0  0  0  0  0  0  0  0  0  0  0  0
   21.5445  -14.1700    0.0000 C   0  0  0  0  0  0  0  0  0  0  0  0
   20.6841  -15.3988    0.0000 C   0  0  0  0  0  0  0  0  0  0  0  0
   19.7538  -16.5754    0.0000 C   0  0  0  0  0  0  0  0  0  0  0  0
   18.7566  -17.6959    0.0000 C   0  0  0  0  0  0  0  0  0  0  0  0
   17.6959  -18.7566    0.0000 C   0  0  0  0  0  0  0  0  0  0  0  0
   16.5754  -19.7538    0.0000 C   0  0  0  0  0  0  0  0  0  0  0  0
   15.3988  -20.6841    0.0000 C   0  0  0  0  0  0  0  0  0  0  0  0
   14.1700  -21.5445    0.0000 C   0  0  0  0  0  0  0  0  0  0  0  0
   12.8934  -22.3320    0.0000 C   0  0  0  0  0  0  0  0  0  0  0  0
   11.5731  -23.0439    0.0000 C   0  0  0  0  0  0  0  0  0  0  0  0
   10.2136  -23.6778    0.0000 C   0  0  0  0  0  0  0  0  0  0  0  0
    8.8196  -24.2316    0.0000 C   0  0  0  0  0  0  0  0  0  0  0  0
    7.3957  -24.7034    0.0000 C   0  0  0  0  0  0  0  0  0  0  0  0
    5.9468  -25.0917    0.0000 C   0  0  0  0  0  0  0  0  0  0  0  0
    4.4778  -25.3950    0.0000 C   0  0  0  0  0  0  0  0  0  0  0  0
    2.9937  -25.6124    0.0000 C   0  0  0  0  0  0  0  0  0  0  0  0
    1.4994  -25.7431    0.0000 C   0  0  0  0  0  0  0  0  0  0  0  0
   -0.0000  -25.7867    0.0000 C   0  0  0  0  0  0  0  0  0  0  0  0
   -1.4994  -25.7431    0.0000 C   0  0  0  0  0  0  0  0  0  0  0  0
   -2.9937  -25.6124    0.0000 C   0  0  0  0  0  0  0  0  0  0  0  0
   -4.4778  -25.3950    0.0000 C   0  0  0  0  0  0  0  0  0  0  0  0
   -5.9468  -25.0917    0.0000 C   0  0  0  0  0  0  0  0  0  0  0  0
   -7.3957  -24.7034    0.0000 C   0  0  0  0  0  0  0  0  0  0  0  0
   -8.8196  -24.2316    0.0000 C   0  0  0  0  0  0  0  0  0  0  0  0
  -10.2136  -23.6778    0.0000 C   0  0  0  0  0  0  0  0  0  0  0  0
  -11.5731  -23.0439    0.0000 C   0  0  0  0  0  0  0  0  0  0  0  0
  -12.8934  -22.3320    0.0000 C   0  0  0  0  0  0  0  0  0  0  0  0
  -14.1700  -21.5445    0.0000 C   0  0  0  0  0  0  0  0  0  0  0  0
  -15.3988  -20.6841    0.0000 C   0  0  0  0  0  0  0  0  0  0  0  0
  -16.5754  -19.7538    0.0000 C   0  0  0  0  0  0  0  0  0  0  0  0
  -17.6959  -18.7566    0.0000 C   0  0  0  0  0  0  0  0  0  0  0  0
  -18.7566  -17.6959    0.0000 C   0  0  0  0  0  0  0  0  0  0  0  0
  -19.7538  -16.5754    0.0000 C   0  0  0  0  0  0  0  0  0  0  0  0
  -20.6841  -15.3988    0.0000 C   0  0  0  0  0  0  0  0  0  0  0  0
  -21.5445  -14.1700    0.0000 C   0  0  0  0  0  0  0  0  0  0  0  0
  -22.3320  -12.8934    0.0000 C   0  0  0  0  0  0  0  0  0  0  0  0
  -23.0439  -11.5731    0.0000 C   0  0  0  0  0  0  0  0  0  0  0  0
  -23.6778  -10.2136    0.0000 C   0  0  0  0  0  0  0  0  0  0  0  0
  -24.2316   -8.8196    0.0000 C   0  0  0  0  0  0  0  0  0  0  0  0
  -24.7034   -7.3957    0.0000 C   0  0  0  0  0  0  0  0  0  0  0  0
  -25.0917   -5.9468    0.0000 C   0  0  0  0  0  0  0  0  0  0  0  0
  -25.3950   -4.4778    0.0000 C   0  0  0  0  0  0  0  0  0  0  0  0
  -25.6124   -2.9937    0.0000 C   0  0  0  0  0  0  0  0  0  0  0  0
  -25.7431   -1.4994    0.0000 C   0  0  0  0  0  0  0  0  0  0  0  0
  -25.7867    0.0000    0.0000 C   0  0  0  0  0  0  0  0  0  0  0  0
  -25.7431    1.4994    0.0000 C   0  0  0  0  0  0  0  0  0  0  0  0
  -25.6124    2.9937    0.0000 C   0  0  0  0  0  0  0  0  0  0  0  0
  -25.3950    4.4778    0.0000 C   0  0  0  0  0  0  0  0  0  0  0  0
  -25.0917    5.9468    0.0000 C   0  0  0  0  0  0  0  0  0  0  0  0
  -24.7034    7.3957    0.0000 C   0  0  0  0  0  0  0  0  0  0  0  0
  -24.2316    8.8196    0.0000 C   0  0  0  0  0  0  0  0  0  0  0  0
  -23.6778   10.2136    0.0000 C   0  0  0  0  0  0  0  0  0  0  0  0
  -23.0439   11.5731    0.0000 C   0  0  0  0  0  0  0  0  0  0  0  0
  -22.3320   12.8934    0.0000 C   0  0  0  0  0  0  0  0  0  0  0  0
  -21.5445   14.1700    0.0000 C   0  0  0  0  0  0  0  0  0  0  0  0
  -20.6841   15.3988    0.0000 C   0  0  0  0  0  0  0  0  0  0  0  0
  -19.7538   16.5754    0.0000 C   0  0  0  0  0  0  0  0  0  0  0  0
  -18.7566   17.6959    0.0000 C   0  0  0  0  0  0  0  0  0  0  0  0
  -17.6959   18.7566    0.0000 C   0  0  0  0  0  0  0  0  0  0  0  0
  -16.5754   19.7538    0.0000 C   0  0  0  0  0  0  0  0  0  0  0  0
  -15.3988   20.6841    0.0000 C   0  0  0  0  0  0  0  0  0  0  0  0
  -14.1700   21.5445    0.0000 C   0  0  0  0  0  0  0  0  0  0  0  0
  -12.8934   22.3320    0.0000 C   0  0  0  0  0  0  0  0  0  0  0  0
  -11.5731   23.0439    0.0000 C   0  0  0  0  0  0  0  0  0  0  0  0
  -10.2136   23.6778    0.0000 C   0  0  0  0  0  0  0  0  0  0  0  0
   -8.8196   24.2316    0.0000 C   0  0  0  0  0  0  0  0  0  0  0  0
   -7.3957   24.7034    0.0000 C   0  0  0  0  0  0  0  0  0  0  0  0
   -5.9468   25.0917    0.0000 C   0  0  0  0  0  0  0  0  0  0  0  0
   -4.4778   25.3950    0.0000 C   0  0  0  0  0  0  0  0  0  0  0  0
   -2.9937   25.6124    0.0000 C   0  0  0  0  0  0  0  0  0  0  0  0
   -1.4994   25.7431    0.0000 C   0  0  0  0  0  0  0  0  0  0  0  0
    0.0000   25.7867    0.0000 C   0  0  0  0  0  0  0  0  0  0  0  0
    1.4994   25.7431    0.0000 C   0  0  0  0  0  0  0  0  0  0  0  0
    2.9937   25.6124    0.0000 C   0  0  0  0  0  0  0  0  0  0  0  0
    4.4778   25.3950    0.0000 C   0  0  0  0  0  0  0  0  0  0  0  0
    5.9468   25.0917    0.0000 C   0  0  0  0  0  0  0  0  0  0  0  0
    7.3957   24.7034    0.0000 C   0  0  0  0  0  0  0  0  0  0  0  0
    8.8196   24.2316    0.0000 C   0  0  0  0  0  0  0  0  0  0  0  0
   10.2136   23.6778    0.0000 C   0  0  0  0  0  0  0  0  0  0  0  0
   11.5731   23.0439    0.0000 C   0  0  0  0  0  0  0  0  0  0  0  0
   12.8934   22.3320    0.0000 C   0  0  0  0  0  0  0  0  0  0  0  0
   14.1700   21.5445    0.0000 C   0  0  0  0  0  0  0  0  0  0  0  0
   15.3988   20.6841    0.0000 C   0  0  0  0  0  0  0  0  0  0  0  0
   16.5754   19.7538    0.0000 C   0  0  0  0  0  0  0  0  0  0  0  0
   17.6959   18.7566    0.0000 C   0  0  0  0  0  0  0  0  0  0  0  0
   18.7566   17.6959    0.0000 C   0  0  0  0  0  0  0  0  0  0  0  0
   19.7538   16.5754    0.0000 C   0  0  0  0  0  0  0  0  0  0  0  0
   20.6841   15.3988    0.0000 C   0  0  0  0  0  0  0  0  0  0  0  0
   21.5445   14.1700    0.0000 C   0  0  0  0  0  0  0  0  0  0  0  0
   22.3320   12.8934    0.0000 C   0  0  0  0  0  0  0  0  0  0  0  0
   23.0439   11.5731    0.0000 C   0  0  0  0  0  0  0  0  0  0  0  0
   23.6778   10.2136    0.0000 C   0  0  0  0  0  0  0  0  0  0  0  0
   24.2316    8.8196    0.0000 C   0  0  0  0  0  0  0  0  0  0  0  0
   24.7034    7.3957    0.0000 C   0  0  0  0  0  0  0  0  0  0  0  0
   25.0917    5.9468    0.0000 C   0  0  0  0  0  0  0  0  0  0  0  0
   25.3950    4.4778    0.0000 C   0  0  0  0  0  0  0  0  0  0  0  0
   25.6124    2.9937    0.0000 C   0  0  0  0  0  0  0  0  0  0  0  0
   25.7431    1.4994    0.0000 C   0  0  0  0  0  0  0  0  0  0  0  0
  1  2  3  0
  2  3  1  0
  3  4  3  0
  4  5  1  0
  5  6  2  3
  6  7  1  0
  7  8  1  0
  8  9  1  0
  9 10  1  0
 10 11  1  0
 11 12  1  0
 12 13  1  0
 13 14  1  0
 14 15  1  0
 15 16  1  0
 16 17  1  0
 17 18  1  0
 18 19  1  0
 19 20  1  0
 20 21  1  0
 21 22  1  0
 22 23  1  0
 23 24  1  0
 24 25  1  0
 25 26  1  0
 26 27  1  0
 27 28  1  0
 28 29  1  0
 29 30  1  0
 30 31  1  0
 31 32  1  0
 32 33  1  0
 33 34  1  0
 34 35  1  0
 35 36  1  0
 36 37  1  0
 37 38  1  0
 38 39  1  0
 39 40  1  0
 40 41  1  0
 41 42  1  0
 42 43  1  0
 43 44  1  0
 44 45  1  0
 45 46  1  0
 46 47  1  0
 47 48  1  0
 48 49  1  0
 49 50  1  0
 50 51  1  0
 51 52  1  0
 52 53  1  0
 53 54  1  0
 54 55  1  0
 55 56  1  0
 56 57  1  0
 57 58  1  0
 58 59  1  0
 59 60  1  0
 60 61  1  0
 61 62  1  0
 62 63  1  0
 63 64  1  0
 64 65  1  0
 65 66  1  0
 66 67  1  0
 67 68  1  0
 68 69  1  0
 69 70  1  0
 70 71  1  0
 71 72  1  0
 72 73  1  0
 73 74  1  0
 74 75  1  0
 75 76  1  0
 76 77  1  0
 77 78  1  0
 78 79  1  0
 79 80  1  0
 80 81  1  0
 81 82  1  0
 82 83  1  0
 83 84  1  0
 84 85  1  0
 85 86  1  0
 86 87  1  0
 87 88  1  0
 88 89  1  0
 89 90  1  0
 90 91  1  0
 91 92  1  0
 92 93  1  0
 93 94  1  0
 94 95  1  0
 95 96  1  0
 96 97  1  0
 97 98  1  0
 98 99  1  0
 99100  1  0
100101  1  0
101102  1  0
102103  1  0
103104  1  0
104105  1  0
105106  1  0
106107  1  0
107108  1  0
108109  1  0
109110  1  0
110111  1  0
111112  1  0
112113  1  0
113114  1  0
114  7  1  0
M  END
>  <Title>  (803) 
idABCYgen9

$$$$

     RDKit          2D

 94 95  0  0  0  0  0  0  0  0999 V2000
   -2.1759   -1.0801    0.0000 C   0  0  0  0  0  0  0  0  0  0  0  0
   -2.4877    0.3871    0.0000 C   0  0  0  0  0  0  0  0  0  0  0  0
   -3.9649    0.1266    0.0000 C   0  0  0  0  0  0  0  0  0  0  0  0
   -5.4567   -0.0301    0.0000 C   0  0  0  0  0  0  0  0  0  0  0  0
   -6.9558   -0.0825    0.0000 C   0  0  0  0  0  0  0  0  0  0  0  0
   -8.4549   -0.0301    0.0000 C   0  0  0  0  0  0  0  0  0  0  0  0
   -9.9467    0.1266    0.0000 C   0  0  0  0  0  0  0  0  0  0  0  0
  -11.4239    0.3871    0.0000 C   0  0  0  0  0  0  0  0  0  0  0  0
  -12.8793    0.7500    0.0000 C   0  0  0  0  0  0  0  0  0  0  0  0
  -14.3059    1.2135    0.0000 C   0  0  0  0  0  0  0  0  0  0  0  0
  -15.6967    1.7754    0.0000 C   0  0  0  0  0  0  0  0  0  0  0  0
  -17.0449    2.4330    0.0000 C   0  0  0  0  0  0  0  0  0  0  0  0
  -18.3439    3.1830    0.0000 C   0  0  0  0  0  0  0  0  0  0  0  0
  -19.5875    4.0218    0.0000 C   0  0  0  0  0  0  0  0  0  0  0  0
  -20.7695    4.9453    0.0000 C   0  0  0  0  0  0  0  0  0  0  0  0
  -21.8842    5.9490    0.0000 C   0  0  0  0  0  0  0  0  0  0  0  0
  -22.9262    7.0280    0.0000 C   0  0  0  0  0  0  0  0  0  0  0  0
  -23.8904    8.1770    0.0000 C   0  0  0  0  0  0  0  0  0  0  0  0
  -24.7721    9.3906    0.0000 C   0  0  0  0  0  0  0  0  0  0  0  0
  -25.5669   10.6626    0.0000 C   0  0  0  0  0  0  0  0  0  0  0  0
  -26.2711   11.9871    0.0000 C   0  0  0  0  0  0  0  0  0  0  0  0
  -26.8813   13.3574    0.0000 C   0  0  0  0  0  0  0  0  0  0  0  0
  -27.3943   14.7669    0.0000 C   0  0  0  0  0  0  0  0  0  0  0  0
  -27.8077   16.2088    0.0000 C   0  0  0  0  0  0  0  0  0  0  0  0
  -28.1196   17.6760    0.0000 C   0  0  0  0  0  0  0  0  0  0  0  0
  -28.3284   19.1614    0.0000 C   0  0  0  0  0  0  0  0  0  0  0  0
  -28.4330   20.6578    0.0000 C   0  0  0  0  0  0  0  0  0  0  0  0
  -28.4330   22.1578    0.0000 C   0  0  0  0  0  0  0  0  0  0  0  0
  -28.3284   23.6541    0.0000 C   0  0  0  0  0  0  0  0  0  0  0  0
  -28.1196   25.1395    0.0000 C   0  0  0  0  0  0  0  0  0  0  0  0
  -27.8077   26.6068    0.0000 C   0  0  0  0  0  0  0  0  0  0  0  0
  -27.3943   28.0486    0.0000 C   0  0  0  0  0  0  0  0  0  0  0  0
  -26.8813   29.4582    0.0000 C   0  0  0  0  0  0  0  0  0  0  0  0
  -26.2711   30.8285    0.0000 C   0  0  0  0  0  0  0  0  0  0  0  0
  -25.5669   32.1529    0.0000 C   0  0  0  0  0  0  0  0  0  0  0  0
  -24.7721   33.4250    0.0000 C   0  0  0  0  0  0  0  0  0  0  0  0
  -23.8904   34.6385    0.0000 C   0  0  0  0  0  0  0  0  0  0  0  0
  -22.9262   35.7876    0.0000 C   0  0  0  0  0  0  0  0  0  0  0  0
  -21.8842   36.8666    0.0000 C   0  0  0  0  0  0  0  0  0  0  0  0
  -20.7695   37.8703    0.0000 C   0  0  0  0  0  0  0  0  0  0  0  0
  -19.5875   38.7938    0.0000 C   0  0  0  0  0  0  0  0  0  0  0  0
  -18.3439   39.6326    0.0000 C   0  0  0  0  0  0  0  0  0  0  0  0
  -17.0449   40.3826    0.0000 C   0  0  0  0  0  0  0  0  0  0  0  0
  -15.6967   41.0401    0.0000 C   0  0  0  0  0  0  0  0  0  0  0  0
  -14.3059   41.6020    0.0000 C   0  0  0  0  0  0  0  0  0  0  0  0
  -12.8793   42.0656    0.0000 C   0  0  0  0  0  0  0  0  0  0  0  0
  -11.4239   42.4285    0.0000 C   0  0  0  0  0  0  0  0  0  0  0  0
   -9.9467   42.6889    0.0000 C   0  0  0  0  0  0  0  0  0  0  0  0
   -8.4549   42.8457    0.0000 C   0  0  0  0  0  0  0  0  0  0  0  0
   -6.9558   42.8981    0.0000 C   0  0  0  0  0  0  0  0  0  0  0  0
   -5.4567   42.8457    0.0000 C   0  0  0  0  0  0  0  0  0  0  0  0
   -3.9649   42.6889    0.0000 C   0  0  0  0  0  0  0  0  0  0  0  0
   -2.4877   42.4285    0.0000 C   0  0  0  0  0  0  0  0  0  0  0  0
   -1.0323   42.0656    0.0000 C   0  0  0  0  0  0  0  0  0  0  0  0
    0.3943   41.6020    0.0000 C   0  0  0  0  0  0  0  0  0  0  0  0
    1.7851   41.0401    0.0000 C   0  0  0  0  0  0  0  0  0  0  0  0
    3.1333   40.3826    0.0000 C   0  0  0  0  0  0  0  0  0  0  0  0
    4.4323   39.6326    0.0000 C   0  0  0  0  0  0  0  0  0  0  0  0
    5.6759   38.7938    0.0000 C   0  0  0  0  0  0  0  0  0  0  0  0
    6.8579   37.8703    0.0000 C   0  0  0  0  0  0  0  0  0  0  0  0
    7.9726   36.8666    0.0000 C   0  0  0  0  0  0  0  0  0  0  0  0
    9.0146   35.7876    0.0000 C   0  0  0  0  0  0  0  0  0  0  0  0
    9.9788   34.6385    0.0000 C   0  0  0  0  0  0  0  0  0  0  0  0
   10.8604   33.4250    0.0000 C   0  0  0  0  0  0  0  0  0  0  0  0
   11.6553   32.1529    0.0000 C   0  0  0  0  0  0  0  0  0  0  0  0
   12.3595   30.8285    0.0000 C   0  0  0  0  0  0  0  0  0  0  0  0
   12.9696   29.4582    0.0000 C   0  0  0  0  0  0  0  0  0  0  0  0
   13.4827   28.0486    0.0000 C   0  0  0  0  0  0  0  0  0  0  0  0
   13.8961   26.6068    0.0000 C   0  0  0  0  0  0  0  0  0  0  0  0
   14.2080   25.1395    0.0000 C   0  0  0  0  0  0  0  0  0  0  0  0
   14.4167   23.6541    0.0000 C   0  0  0  0  0  0  0  0  0  0  0  0
   14.5214   22.1578    0.0000 C   0  0  0  0  0  0  0  0  0  0  0  0
   14.5214   20.6578    0.0000 C   0  0  0  0  0  0  0  0  0  0  0  0
   14.4167   19.1614    0.0000 C   0  0  0  0  0  0  0  0  0  0  0  0
   14.2080   17.6760    0.0000 C   0  0  0  0  0  0  0  0  0  0  0  0
   13.8961   16.2088    0.0000 C   0  0  0  0  0  0  0  0  0  0  0  0
   13.4827   14.7669    0.0000 C   0  0  0  0  0  0  0  0  0  0  0  0
   12.9696   13.3574    0.0000 C   0  0  0  0  0  0  0  0  0  0  0  0
   12.3595   11.9871    0.0000 C   0  0  0  0  0  0  0  0  0  0  0  0
   11.6553   10.6626    0.0000 C   0  0  0  0  0  0  0  0  0  0  0  0
   10.8604    9.3906    0.0000 C   0  0  0  0  0  0  0  0  0  0  0  0
    9.9788    8.1770    0.0000 C   0  0  0  0  0  0  0  0  0  0  0  0
    9.0146    7.0280    0.0000 C   0  0  0  0  0  0  0  0  0  0  0  0
    7.9726    5.9490    0.0000 C   0  0  0  0  0  0  0  0  0  0  0  0
    6.8579    4.9453    0.0000 C   0  0  0  0  0  0  0  0  0  0  0  0
    5.6759    4.0218    0.0000 C   0  0  0  0  0  0  0  0  0  0  0  0
    4.4323    3.1830    0.0000 C   0  0  0  0  0  0  0  0  0  0  0  0
    3.1333    2.4330    0.0000 C   0  0  0  0  0  0  0  0  0  0  0  0
    1.7851    1.7754    0.0000 C   0  0  0  0  0  0  0  0  0  0  0  0
    0.3943    1.2135    0.0000 C   0  0  0  0  0  0  0  0  0  0  0  0
    1.2760    0.0000    0.0000 C   0  0  0  0  0  0  0  0  0  0  0  0
    0.3943   -1.2135    0.0000 C   0  0  0  0  0  0  0  0  0  0  0  0
   -1.0323   -0.7500    0.0000 C   0  0  0  0  0  0  0  0  0  0  0  0
   -1.0323    0.7500    0.0000 C   0  0  0  0  0  0  0  0  0  0  0  0
  1  2  1  0
  2  3  1  0
  3  4  2  0
  4  5  1  0
  5  6  1  0
  6  7  1  0
  7  8  1  0
  8  9  1  0
  9 10  1  0
 10 11  1  0
 11 12  1  0
 12 13  1  0
 13 14  1  0
 14 15  1  0
 15 16  1  0
 16 17  1  0
 17 18  1  0
 18 19  1  0
 19 20  1  0
 20 21  1  0
 21 22  1  0
 22 23  1  0
 23 24  1  0
 24 25  1  0
 25 26  1  0
 26 27  1  0
 27 28  1  0
 28 29  1  0
 29 30  1  0
 30 31  1  0
 31 32  1  0
 32 33  1  0
 33 34  1  0
 34 35  1  0
 35 36  1  0
 36 37  1  0
 37 38  1  0
 38 39  1  0
 39 40  1  0
 40 41  1  0
 41 42  1  0
 42 43  1  0
 43 44  1  0
 44 45  1  0
 45 46  1  0
 46 47  1  0
 47 48  1  0
 48 49  1  0
 49 50  1  0
 50 51  1  0
 51 52  1  0
 52 53  1  0
 53 54  1  0
 54 55  1  0
 55 56  1  0
 56 57  1  0
 57 58  1  0
 58 59  1  0
 59 60  1  0
 60 61  1  0
 61 62  1  0
 62 63  1  0
 63 64  1  0
 64 65  1  0
 65 66  1  0
 66 67  1  0
 67 68  1  0
 68 69  1  0
 69 70  1  0
 70 71  1  0
 71 72  1  0
 72 73  1  0
 73 74  2  0
 74 75  1  0
 75 76  2  0
 76 77  1  0
 77 78  2  0
 78 79  1  0
 79 80  2  0
 80 81  1  0
 81 82  2  0
 82 83  1  0
 83 84  2  0
 84 85  1  0
 85 86  2  0
 86 87  1  0
 87 88  2  0
 88 89  1  0
 89 90  2  0
 90 91  1  0
 91 92  2  0
 92 93  1  0
 93 94  2  0
 94  2  1  0
 94 90  1  0
M  END
>  <Title>  (804) 
idABCZgen9

$$$$

     RDKit          2D

 20 22  0  0  0  0  0  0  0  0999 V2000
   10.0355    0.6881    0.0000 C   0  0  0  0  0  0  0  0  0  0  0  0
    8.5683    0.3762    0.0000 C   0  0  0  0  0  0  0  0  0  0  0  0
    7.4536    1.3799    0.0000 C   0  0  0  0  0  0  0  0  0  0  0  0
    6.1545    0.6299    0.0000 C   0  0  0  0  0  0  0  0  0  0  0  0
    6.4664   -0.8373    0.0000 C   0  0  0  0  0  0  0  0  0  0  0  0
    5.4627   -1.9520    0.0000 C   0  0  0  0  0  0  0  0  0  0  0  0
    5.9262   -3.3786    0.0000 O   0  0  0  0  0  0  0  0  0  0  0  0
    3.9955   -1.6402    0.0000 C   0  0  0  0  0  0  0  0  0  0  0  0
    2.9918   -2.7549    0.0000 C   0  0  0  0  0  0  0  0  0  0  0  0
    3.3037   -4.2221    0.0000 N   0  0  0  0  0  0  0  0  0  0  0  0
    2.0046   -4.9721    0.0000 N   0  0  0  0  0  0  0  0  0  0  0  0
    0.8899   -3.9684    0.0000 N   0  0  0  0  0  0  0  0  0  0  0  0
    1.5000   -2.5981    0.0000 N   0  0  0  0  0  0  0  0  0  0  0  0
    0.7500   -1.2990    0.0000 C   0  0  0  0  0  0  0  0  0  0  0  0
    1.5000    0.0000    0.0000 C   0  0  0  0  0  0  0  0  0  0  0  0
    0.7500    1.2990    0.0000 C   0  0  0  0  0  0  0  0  0  0  0  0
   -0.7500    1.2990    0.0000 C   0  0  0  0  0  0  0  0  0  0  0  0
   -1.5000    0.0000    0.0000 C   0  0  0  0  0  0  0  0  0  0  0  0
   -0.7500   -1.2990    0.0000 C   0  0  0  0  0  0  0  0  0  0  0  0
    7.9582   -0.9941    0.0000 C   0  0  0  0  0  0  0  0  0  0  0  0
  1  2  1  0
  2  3  1  0
  3  4  1  0
  4  5  1  0
  5  6  1  0
  6  7  2  0
  6  8  1  0
  8  9  1  0
  9 10  2  0
 10 11  1  0
 11 12  2  0
 12 13  1  0
 13 14  1  0
 14 15  2  0
 15 16  1  0
 16 17  2  0
 17 18  1  0
 18 19  2  0
  5 20  1  0
 20  2  1  0
 13  9  1  0
 19 14  1  0
M  END
>  <Title>  (805) 
idABDAgen9

$$$$

     RDKit          2D

 44 50  0  0  0  0  0  0  0  0999 V2000
    4.3881   -6.6982    0.0000 C   0  0  0  0  0  0  0  0  0  0  0  0
    3.0367   -6.0474    0.0000 C   0  0  0  0  0  0  0  0  0  0  0  0
    3.3705   -4.5850    0.0000 C   0  0  0  0  0  0  0  0  0  0  0  0
    3.0367   -3.1226    0.0000 C   0  0  0  0  0  0  0  0  0  0  0  0
    2.1015   -1.9499    0.0000 C   0  0  0  0  0  0  0  0  0  0  0  0
    3.0367   -0.7771    0.0000 C   0  0  0  0  0  0  0  0  0  0  0  0
    2.4887    0.6192    0.0000 O   0  0  0  0  0  0  0  0  0  0  0  0
    4.5199   -1.0007    0.0000 O   0  0  0  0  0  0  0  0  0  0  0  0
    5.4552    0.1721    0.0000 C   0  0  0  0  0  0  0  0  0  0  0  0
    6.9384   -0.0515    0.0000 N   0  0  0  0  0  0  0  0  0  0  0  0
    7.8736    1.1213    0.0000 N   0  0  0  0  0  0  0  0  0  0  0  0
    7.3256    2.5176    0.0000 N   0  0  0  0  0  0  0  0  0  0  0  0
    5.8424    2.7411    0.0000 N   0  0  0  0  0  0  0  0  0  0  0  0
    4.9072    1.5684    0.0000 N   0  0  0  0  0  0  0  0  0  0  0  0
    0.7500   -1.2990    0.0000 C   0  0  0  0  0  0  0  0  0  0  0  0
    1.5000    0.0000    0.0000 C   0  0  0  0  0  0  0  0  0  0  0  0
    0.7500    1.2990    0.0000 C   0  0  0  0  0  0  0  0  0  0  0  0
   -0.7500    1.2990    0.0000 C   0  0  0  0  0  0  0  0  0  0  0  0
   -1.5000    0.0000    0.0000 C   0  0  0  0  0  0  0  0  0  0  0  0
   -0.7500   -1.2990    0.0000 C   0  0  0  0  0  0  0  0  0  0  0  0
   -2.1015   -1.9499    0.0000 C   0  0  0  0  0  0  0  0  0  0  0  0
   -2.6495   -0.5536    0.0000 C   0  0  0  0  0  0  0  0  0  0  0  0
   -4.1327   -0.3300    0.0000 C   0  0  0  0  0  0  0  0  0  0  0  0
   -5.0679   -1.5027    0.0000 C   0  0  0  0  0  0  0  0  0  0  0  0
   -4.5199   -2.8990    0.0000 C   0  0  0  0  0  0  0  0  0  0  0  0
   -3.0367   -3.1226    0.0000 C   0  0  0  0  0  0  0  0  0  0  0  0
   -3.3705   -4.5850    0.0000 C   0  0  0  0  0  0  0  0  0  0  0  0
   -4.8038   -4.1429    0.0000 C   0  0  0  0  0  0  0  0  0  0  0  0
   -5.9034   -5.1631    0.0000 C   0  0  0  0  0  0  0  0  0  0  0  0
   -5.5696   -6.6255    0.0000 C   0  0  0  0  0  0  0  0  0  0  0  0
   -4.1363   -7.0677    0.0000 C   0  0  0  0  0  0  0  0  0  0  0  0
   -3.0367   -6.0474    0.0000 C   0  0  0  0  0  0  0  0  0  0  0  0
   -2.1015   -7.2201    0.0000 C   0  0  0  0  0  0  0  0  0  0  0  0
   -3.3408   -8.0651    0.0000 C   0  0  0  0  0  0  0  0  0  0  0  0
   -3.2287   -9.5609    0.0000 C   0  0  0  0  0  0  0  0  0  0  0  0
   -1.8773  -10.2118    0.0000 C   0  0  0  0  0  0  0  0  0  0  0  0
   -0.6379   -9.3668    0.0000 C   0  0  0  0  0  0  0  0  0  0  0  0
   -0.7500   -7.8710    0.0000 C   0  0  0  0  0  0  0  0  0  0  0  0
    0.7500   -7.8710    0.0000 C   0  0  0  0  0  0  0  0  0  0  0  0
    0.6379   -9.3668    0.0000 C   0  0  0  0  0  0  0  0  0  0  0  0
    1.8773  -10.2118    0.0000 C   0  0  0  0  0  0  0  0  0  0  0  0
    3.2287   -9.5609    0.0000 C   0  0  0  0  0  0  0  0  0  0  0  0
    3.3408   -8.0651    0.0000 C   0  0  0  0  0  0  0  0  0  0  0  0
    2.1015   -7.2201    0.0000 C   0  0  0  0  0  0  0  0  0  0  0  0
  1  2  1  0
  2  3  1  0
  3  4  1  0
  4  5  1  0
  5  6  1  0
  6  7  2  0
  6  8  1  0
  8  9  1  0
  9 10  2  0
 10 11  1  0
 11 12  2  0
 12 13  1  0
 13 14  2  0
  5 15  1  0
 15 16  2  0
 16 17  1  0
 17 18  2  0
 18 19  1  0
 19 20  2  0
 20 21  1  0
 21 22  2  0
 22 23  1  0
 23 24  2  0
 24 25  1  0
 25 26  2  0
 26 27  1  0
 27 28  2  0
 28 29  1  0
 29 30  2  0
 30 31  1  0
 31 32  2  0
 32 33  1  0
 33 34  2  0
 34 35  1  0
 35 36  2  0
 36 37  1  0
 37 38  2  0
 38 39  1  0
 39 40  2  0
 40 41  1  0
 41 42  2  0
 42 43  1  0
 43 44  2  0
 44  2  1  0
 14  9  1  0
 20 15  1  0
 26 21  1  0
 32 27  1  0
 38 33  1  0
 44 39  1  0
M  END
>  <Title>  (806) 
idABDBgen9

$$$$

     RDKit          2D

 11 10  0  0  0  0  0  0  0  0999 V2000
    0.0000    0.0000    0.0000 C   0  0  0  0  0  0  0  0  0  0  0  0
   -0.0000   -1.5000    0.0000 C   0  0  0  0  0  0  0  0  0  0  0  0
   -0.0000   -3.0000    0.0000 C   0  0  0  0  0  0  0  0  0  0  0  0
   -0.0000   -4.5000    0.0000 C   0  0  0  0  0  0  0  0  0  0  0  0
   -0.0000   -6.0000    0.0000 C   0  0  0  0  0  0  0  0  0  0  0  0
   -0.0000   -7.5000    0.0000 C   0  0  0  0  0  0  0  0  0  0  0  0
   -0.0000   -9.0000    0.0000 C   0  0  0  0  0  0  0  0  0  0  0  0
   -0.0000  -10.5000    0.0000 C   0  0  0  0  0  0  0  0  0  0  0  0
   -0.0000  -12.0000    0.0000 C   0  0  0  0  0  0  0  0  0  0  0  0
    1.2990  -12.7500    0.0000 C   0  0  0  0  0  0  0  0  0  0  0  0
    1.2990  -14.2500    0.0000 C   0  0  0  0  0  0  0  0  0  0  0  0
  1  2  3  0
  2  3  1  0
  3  4  3  0
  4  5  1  0
  5  6  3  0
  6  7  1  0
  7  8  3  0
  8  9  1  0
  9 10  2  3
 10 11  1  0
M  END
>  <Title>  (807) 
idABDCgen9

$$$$

     RDKit          2D

 98 98  0  0  0  0  0  0  0  0999 V2000
   24.6611    0.0000    0.0000 C   0  0  0  0  0  0  0  0  0  0  0  0
   23.1611    0.0000    0.0000 C   0  0  0  0  0  0  0  0  0  0  0  0
   23.1125    1.4992    0.0000 C   0  0  0  0  0  0  0  0  0  0  0  0
   22.9670    2.9921    0.0000 C   0  0  0  0  0  0  0  0  0  0  0  0
   22.7252    4.4725    0.0000 C   0  0  0  0  0  0  0  0  0  0  0  0
   22.3880    5.9341    0.0000 C   0  0  0  0  0  0  0  0  0  0  0  0
   21.9569    7.3709    0.0000 C   0  0  0  0  0  0  0  0  0  0  0  0
   21.4338    8.7767    0.0000 C   0  0  0  0  0  0  0  0  0  0  0  0
   20.8207   10.1457    0.0000 C   0  0  0  0  0  0  0  0  0  0  0  0
   20.1203   11.4721    0.0000 C   0  0  0  0  0  0  0  0  0  0  0  0
   19.3355   12.7504    0.0000 C   0  0  0  0  0  0  0  0  0  0  0  0
   18.4696   13.9753    0.0000 C   0  0  0  0  0  0  0  0  0  0  0  0
   17.5263   15.1415    0.0000 C   0  0  0  0  0  0  0  0  0  0  0  0
   16.5094   16.2442    0.0000 C   0  0  0  0  0  0  0  0  0  0  0  0
   15.4233   17.2788    0.0000 C   0  0  0  0  0  0  0  0  0  0  0  0
   14.2725   18.2409    0.0000 C   0  0  0  0  0  0  0  0  0  0  0  0
   13.0619   19.1265    0.0000 C   0  0  0  0  0  0  0  0  0  0  0  0
   11.7964   19.9319    0.0000 C   0  0  0  0  0  0  0  0  0  0  0  0
   10.4815   20.6537    0.0000 C   0  0  0  0  0  0  0  0  0  0  0  0
    9.1226   21.2888    0.0000 C   0  0  0  0  0  0  0  0  0  0  0  0
    7.7254   21.8347    0.0000 C   0  0  0  0  0  0  0  0  0  0  0  0
    6.2959   22.2890    0.0000 C   0  0  0  0  0  0  0  0  0  0  0  0
    4.8399   22.6498    0.0000 C   0  0  0  0  0  0  0  0  0  0  0  0
    3.3637   22.9155    0.0000 C   0  0  0  0  0  0  0  0  0  0  0  0
    1.8733   23.0852    0.0000 C   0  0  0  0  0  0  0  0  0  0  0  0
    0.3750   23.1581    0.0000 C   0  0  0  0  0  0  0  0  0  0  0  0
   -1.1248   23.1338    0.0000 C   0  0  0  0  0  0  0  0  0  0  0  0
   -2.6198   23.0124    0.0000 C   0  0  0  0  0  0  0  0  0  0  0  0
   -4.1039   22.7946    0.0000 C   0  0  0  0  0  0  0  0  0  0  0  0
   -5.5708   22.4812    0.0000 C   0  0  0  0  0  0  0  0  0  0  0  0
   -7.0143   22.0734    0.0000 C   0  0  0  0  0  0  0  0  0  0  0  0
   -8.4284   21.5731    0.0000 C   0  0  0  0  0  0  0  0  0  0  0  0
   -9.8072   20.9823    0.0000 C   0  0  0  0  0  0  0  0  0  0  0  0
  -11.1448   20.3034    0.0000 C   0  0  0  0  0  0  0  0  0  0  0  0
  -12.4357   19.5395    0.0000 C   0  0  0  0  0  0  0  0  0  0  0  0
  -13.6744   18.6935    0.0000 C   0  0  0  0  0  0  0  0  0  0  0  0
  -14.8557   17.7692    0.0000 C   0  0  0  0  0  0  0  0  0  0  0  0
  -15.9748   16.7703    0.0000 C   0  0  0  0  0  0  0  0  0  0  0  0
  -17.0268   15.7011    0.0000 C   0  0  0  0  0  0  0  0  0  0  0  0
  -18.0074   14.5660    0.0000 C   0  0  0  0  0  0  0  0  0  0  0  0
  -18.9125   13.3699    0.0000 C   0  0  0  0  0  0  0  0  0  0  0  0
  -19.7383   12.1176    0.0000 C   0  0  0  0  0  0  0  0  0  0  0  0
  -20.4813   10.8146    0.0000 C   0  0  0  0  0  0  0  0  0  0  0  0
  -21.1383    9.4661    0.0000 C   0  0  0  0  0  0  0  0  0  0  0  0
  -21.7067    8.0780    0.0000 C   0  0  0  0  0  0  0  0  0  0  0  0
  -22.1841    6.6560    0.0000 C   0  0  0  0  0  0  0  0  0  0  0  0
  -22.5684    5.2061    0.0000 C   0  0  0  0  0  0  0  0  0  0  0  0
  -22.8581    3.7343    0.0000 C   0  0  0  0  0  0  0  0  0  0  0  0
  -23.0519    2.2469    0.0000 C   0  0  0  0  0  0  0  0  0  0  0  0
  -23.1489    0.7500    0.0000 C   0  0  0  0  0  0  0  0  0  0  0  0
  -23.1489   -0.7500    0.0000 C   0  0  0  0  0  0  0  0  0  0  0  0
  -23.0519   -2.2469    0.0000 C   0  0  0  0  0  0  0  0  0  0  0  0
  -22.8581   -3.7343    0.0000 C   0  0  0  0  0  0  0  0  0  0  0  0
  -22.5684   -5.2061    0.0000 C   0  0  0  0  0  0  0  0  0  0  0  0
  -22.1841   -6.6560    0.0000 C   0  0  0  0  0  0  0  0  0  0  0  0
  -21.7067   -8.0780    0.0000 C   0  0  0  0  0  0  0  0  0  0  0  0
  -21.1383   -9.4661    0.0000 C   0  0  0  0  0  0  0  0  0  0  0  0
  -20.4813  -10.8146    0.0000 C   0  0  0  0  0  0  0  0  0  0  0  0
  -19.7383  -12.1176    0.0000 C   0  0  0  0  0  0  0  0  0  0  0  0
  -18.9125  -13.3699    0.0000 C   0  0  0  0  0  0  0  0  0  0  0  0
  -18.0074  -14.5660    0.0000 C   0  0  0  0  0  0  0  0  0  0  0  0
  -17.0268  -15.7011    0.0000 C   0  0  0  0  0  0  0  0  0  0  0  0
  -15.9748  -16.7703    0.0000 C   0  0  0  0  0  0  0  0  0  0  0  0
  -14.8557  -17.7692    0.0000 C   0  0  0  0  0  0  0  0  0  0  0  0
  -13.6744  -18.6935    0.0000 C   0  0  0  0  0  0  0  0  0  0  0  0
  -12.4357  -19.5395    0.0000 C   0  0  0  0  0  0  0  0  0  0  0  0
  -11.1448  -20.3034    0.0000 C   0  0  0  0  0  0  0  0  0  0  0  0
   -9.8072  -20.9823    0.0000 C   0  0  0  0  0  0  0  0  0  0  0  0
   -8.4284  -21.5731    0.0000 C   0  0  0  0  0  0  0  0  0  0  0  0
   -7.0143  -22.0734    0.0000 C   0  0  0  0  0  0  0  0  0  0  0  0
   -5.5708  -22.4812    0.0000 C   0  0  0  0  0  0  0  0  0  0  0  0
   -4.1039  -22.7946    0.0000 C   0  0  0  0  0  0  0  0  0  0  0  0
   -2.6198  -23.0124    0.0000 C   0  0  0  0  0  0  0  0  0  0  0  0
   -1.1248  -23.1338    0.0000 C   0  0  0  0  0  0  0  0  0  0  0  0
    0.3750  -23.1581    0.0000 C   0  0  0  0  0  0  0  0  0  0  0  0
    1.8733  -23.0852    0.0000 C   0  0  0  0  0  0  0  0  0  0  0  0
    3.3637  -22.9155    0.0000 C   0  0  0  0  0  0  0  0  0  0  0  0
    4.8399  -22.6498    0.0000 C   0  0  0  0  0  0  0  0  0  0  0  0
    6.2959  -22.2890    0.0000 C   0  0  0  0  0  0  0  0  0  0  0  0
    7.7254  -21.8347    0.0000 C   0  0  0  0  0  0  0  0  0  0  0  0
    9.1226  -21.2888    0.0000 C   0  0  0  0  0  0  0  0  0  0  0  0
   10.4815  -20.6537    0.0000 C   0  0  0  0  0  0  0  0  0  0  0  0
   11.7964  -19.9319    0.0000 C   0  0  0  0  0  0  0  0  0  0  0  0
   13.0619  -19.1265    0.0000 C   0  0  0  0  0  0  0  0  0  0  0  0
   14.2725  -18.2409    0.0000 C   0  0  0  0  0  0  0  0  0  0  0  0
   15.4233  -17.2788    0.0000 C   0  0  0  0  0  0  0  0  0  0  0  0
   16.5094  -16.2442    0.0000 C   0  0  0  0  0  0  0  0  0  0  0  0
   17.5263  -15.1415    0.0000 C   0  0  0  0  0  0  0  0  0  0  0  0
   18.4696  -13.9753    0.0000 C   0  0  0  0  0  0  0  0  0  0  0  0
   19.3355  -12.7504    0.0000 C   0  0  0  0  0  0  0  0  0  0  0  0
   20.1203  -11.4721    0.0000 C   0  0  0  0  0  0  0  0  0  0  0  0
   20.8207  -10.1457    0.0000 C   0  0  0  0  0  0  0  0  0  0  0  0
   21.4338   -8.7767    0.0000 C   0  0  0  0  0  0  0  0  0  0  0  0
   21.9569   -7.3709    0.0000 C   0  0  0  0  0  0  0  0  0  0  0  0
   22.3880   -5.9341    0.0000 C   0  0  0  0  0  0  0  0  0  0  0  0
   22.7252   -4.4725    0.0000 C   0  0  0  0  0  0  0  0  0  0  0  0
   22.9670   -2.9921    0.0000 C   0  0  0  0  0  0  0  0  0  0  0  0
   23.1125   -1.4992    0.0000 C   0  0  0  0  0  0  0  0  0  0  0  0
  1  2  1  0
  2  3  1  0
  3  4  1  0
  4  5  1  0
  5  6  1  0
  6  7  1  0
  7  8  1  0
  8  9  1  0
  9 10  1  0
 10 11  1  0
 11 12  1  0
 12 13  1  0
 13 14  1  0
 14 15  1  0
 15 16  1  0
 16 17  1  0
 17 18  1  0
 18 19  1  0
 19 20  1  0
 20 21  1  0
 21 22  1  0
 22 23  1  0
 23 24  1  0
 24 25  1  0
 25 26  1  0
 26 27  1  0
 27 28  1  0
 28 29  1  0
 29 30  1  0
 30 31  1  0
 31 32  1  0
 32 33  1  0
 33 34  1  0
 34 35  1  0
 35 36  1  0
 36 37  1  0
 37 38  1  0
 38 39  1  0
 39 40  1  0
 40 41  1  0
 41 42  1  0
 42 43  1  0
 43 44  1  0
 44 45  1  0
 45 46  1  0
 46 47  1  0
 47 48  1  0
 48 49  1  0
 49 50  1  0
 50 51  1  0
 51 52  1  0
 52 53  1  0
 53 54  1  0
 54 55  1  0
 55 56  1  0
 56 57  1  0
 57 58  1  0
 58 59  1  0
 59 60  1  0
 60 61  1  0
 61 62  1  0
 62 63  1  0
 63 64  1  0
 64 65  1  0
 65 66  1  0
 66 67  1  0
 67 68  1  0
 68 69  1  0
 69 70  1  0
 70 71  1  0
 71 72  1  0
 72 73  1  0
 73 74  1  0
 74 75  1  0
 75 76  1  0
 76 77  1  0
 77 78  1  0
 78 79  1  0
 79 80  1  0
 80 81  1  0
 81 82  1  0
 82 83  1  0
 83 84  1  0
 84 85  1  0
 85 86  1  0
 86 87  1  0
 87 88  1  0
 88 89  1  0
 89 90  1  0
 90 91  1  0
 91 92  1  0
 92 93  1  0
 93 94  1  0
 94 95  1  0
 95 96  1  0
 96 97  1  0
 97 98  1  0
 98  2  1  0
M  END
>  <Title>  (808) 
idABDDgen9

$$$$

     RDKit          2D

 89 92  0  0  0  0  0  0  0  0999 V2000
   -5.6254   -0.6607    0.0000 C   0  0  0  0  0  0  0  0  0  0  0  0
   -5.1681   -2.0893    0.0000 C   0  0  0  0  0  0  0  0  0  0  0  0
   -6.5751   -2.6092    0.0000 C   0  0  0  0  0  0  0  0  0  0  0  0
   -7.9307   -3.2515    0.0000 C   0  0  0  0  0  0  0  0  0  0  0  0
   -9.2242   -4.0111    0.0000 C   0  0  0  0  0  0  0  0  0  0  0  0
  -10.4454   -4.8820    0.0000 C   0  0  0  0  0  0  0  0  0  0  0  0
  -11.5850   -5.8574    0.0000 C   0  0  0  0  0  0  0  0  0  0  0  0
  -12.6338   -6.9297    0.0000 C   0  0  0  0  0  0  0  0  0  0  0  0
  -13.5838   -8.0906    0.0000 C   0  0  0  0  0  0  0  0  0  0  0  0
  -14.4275   -9.3308    0.0000 C   0  0  0  0  0  0  0  0  0  0  0  0
  -15.1582  -10.6408    0.0000 C   0  0  0  0  0  0  0  0  0  0  0  0
  -15.7704  -12.0102    0.0000 C   0  0  0  0  0  0  0  0  0  0  0  0
  -16.2591  -13.4283    0.0000 C   0  0  0  0  0  0  0  0  0  0  0  0
  -16.6205  -14.8841    0.0000 C   0  0  0  0  0  0  0  0  0  0  0  0
  -16.8519  -16.3662    0.0000 C   0  0  0  0  0  0  0  0  0  0  0  0
  -16.9514  -17.8629    0.0000 C   0  0  0  0  0  0  0  0  0  0  0  0
  -16.9182  -19.3625    0.0000 C   0  0  0  0  0  0  0  0  0  0  0  0
  -16.7526  -20.8533    0.0000 C   0  0  0  0  0  0  0  0  0  0  0  0
  -16.4559  -22.3237    0.0000 C   0  0  0  0  0  0  0  0  0  0  0  0
  -16.0304  -23.7621    0.0000 C   0  0  0  0  0  0  0  0  0  0  0  0
  -15.4795  -25.1573    0.0000 C   0  0  0  0  0  0  0  0  0  0  0  0
  -14.8074  -26.4983    0.0000 C   0  0  0  0  0  0  0  0  0  0  0  0
  -14.0194  -27.7746    0.0000 C   0  0  0  0  0  0  0  0  0  0  0  0
  -13.1217  -28.9763    0.0000 C   0  0  0  0  0  0  0  0  0  0  0  0
  -12.1213  -30.0940    0.0000 C   0  0  0  0  0  0  0  0  0  0  0  0
  -11.0260  -31.1189    0.0000 C   0  0  0  0  0  0  0  0  0  0  0  0
   -9.8444  -32.0429    0.0000 C   0  0  0  0  0  0  0  0  0  0  0  0
   -8.5858  -32.8590    0.0000 C   0  0  0  0  0  0  0  0  0  0  0  0
   -7.2600  -33.5606    0.0000 C   0  0  0  0  0  0  0  0  0  0  0  0
   -5.8774  -34.1423    0.0000 C   0  0  0  0  0  0  0  0  0  0  0  0
   -4.4488  -34.5995    0.0000 C   0  0  0  0  0  0  0  0  0  0  0  0
   -2.9853  -34.9286    0.0000 C   0  0  0  0  0  0  0  0  0  0  0  0
   -1.4985  -35.1272    0.0000 C   0  0  0  0  0  0  0  0  0  0  0  0
    0.0000  -35.1935    0.0000 C   0  0  0  0  0  0  0  0  0  0  0  0
    1.4985  -35.1272    0.0000 C   0  0  0  0  0  0  0  0  0  0  0  0
    2.9853  -34.9286    0.0000 C   0  0  0  0  0  0  0  0  0  0  0  0
    4.4488  -34.5995    0.0000 C   0  0  0  0  0  0  0  0  0  0  0  0
    5.8774  -34.1423    0.0000 C   0  0  0  0  0  0  0  0  0  0  0  0
    7.2600  -33.5606    0.0000 C   0  0  0  0  0  0  0  0  0  0  0  0
    8.5858  -32.8590    0.0000 C   0  0  0  0  0  0  0  0  0  0  0  0
    9.8444  -32.0429    0.0000 C   0  0  0  0  0  0  0  0  0  0  0  0
   11.0260  -31.1189    0.0000 C   0  0  0  0  0  0  0  0  0  0  0  0
   12.1213  -30.0940    0.0000 C   0  0  0  0  0  0  0  0  0  0  0  0
   13.1217  -28.9763    0.0000 C   0  0  0  0  0  0  0  0  0  0  0  0
   14.0194  -27.7746    0.0000 C   0  0  0  0  0  0  0  0  0  0  0  0
   14.8074  -26.4983    0.0000 C   0  0  0  0  0  0  0  0  0  0  0  0
   15.4795  -25.1573    0.0000 C   0  0  0  0  0  0  0  0  0  0  0  0
   16.0304  -23.7621    0.0000 C   0  0  0  0  0  0  0  0  0  0  0  0
   16.4559  -22.3237    0.0000 C   0  0  0  0  0  0  0  0  0  0  0  0
   16.7526  -20.8533    0.0000 C   0  0  0  0  0  0  0  0  0  0  0  0
   16.9182  -19.3625    0.0000 C   0  0  0  0  0  0  0  0  0  0  0  0
   16.9514  -17.8629    0.0000 C   0  0  0  0  0  0  0  0  0  0  0  0
   16.8519  -16.3662    0.0000 C   0  0  0  0  0  0  0  0  0  0  0  0
   16.6205  -14.8841    0.0000 C   0  0  0  0  0  0  0  0  0  0  0  0
   16.2591  -13.4283    0.0000 C   0  0  0  0  0  0  0  0  0  0  0  0
   15.7704  -12.0102    0.0000 C   0  0  0  0  0  0  0  0  0  0  0  0
   15.1582  -10.6408    0.0000 C   0  0  0  0  0  0  0  0  0  0  0  0
   14.4275   -9.3308    0.0000 C   0  0  0  0  0  0  0  0  0  0  0  0
   13.5838   -8.0906    0.0000 C   0  0  0  0  0  0  0  0  0  0  0  0
   12.6338   -6.9297    0.0000 C   0  0  0  0  0  0  0  0  0  0  0  0
   11.5850   -5.8574    0.0000 C   0  0  0  0  0  0  0  0  0  0  0  0
   10.4454   -4.8820    0.0000 C   0  0  0  0  0  0  0  0  0  0  0  0
    9.2242   -4.0111    0.0000 C   0  0  0  0  0  0  0  0  0  0  0  0
    7.9307   -3.2515    0.0000 C   0  0  0  0  0  0  0  0  0  0  0  0
    6.5751   -2.6092    0.0000 C   0  0  0  0  0  0  0  0  0  0  0  0
    5.1681   -2.0893    0.0000 C   0  0  0  0  0  0  0  0  0  0  0  0
    3.7207   -1.6957    0.0000 C   0  0  0  0  0  0  0  0  0  0  0  0
    4.7600   -2.7773    0.0000 C   0  0  0  0  0  0  0  0  0  0  0  0
    5.5402   -2.6135    0.0000 O   0  0  0  0  0  0  0  0  0  0  0  0
    4.9651   -4.2632    0.0000 N   0  0  0  0  0  0  0  0  0  0  0  0
    4.2577   -5.5859    0.0000 C   0  0  0  0  0  0  0  0  0  0  0  0
    2.9079   -6.2401    0.0000 C   0  0  0  0  0  0  0  0  0  0  0  0
    1.4313   -5.9760    0.0000 C   0  0  0  0  0  0  0  0  0  0  0  0
    0.3920   -4.8944    0.0000 C   0  0  0  0  0  0  0  0  0  0  0  0
    0.1869   -3.4085    0.0000 C   0  0  0  0  0  0  0  0  0  0  0  0
    0.8943   -2.0858    0.0000 C   0  0  0  0  0  0  0  0  0  0  0  0
    2.2441   -1.4316    0.0000 C   0  0  0  0  0  0  0  0  0  0  0  0
    0.7500   -1.2990    0.0000 C   0  0  0  0  0  0  0  0  0  0  0  0
    1.5000    0.0000    0.0000 C   0  0  0  0  0  0  0  0  0  0  0  0
    0.7500    1.2990    0.0000 C   0  0  0  0  0  0  0  0  0  0  0  0
   -0.7500    1.2990    0.0000 C   0  0  0  0  0  0  0  0  0  0  0  0
   -1.5000    0.0000    0.0000 C   0  0  0  0  0  0  0  0  0  0  0  0
   -0.7500   -1.2990    0.0000 C   0  0  0  0  0  0  0  0  0  0  0  0
   -2.2441   -1.4316    0.0000 C   0  0  0  0  0  0  0  0  0  0  0  0
   -1.2771   -2.5783    0.0000 C   0  0  0  0  0  0  0  0  0  0  0  0
   -1.7867   -3.9891    0.0000 C   0  0  0  0  0  0  0  0  0  0  0  0
   -3.2633   -4.2532    0.0000 C   0  0  0  0  0  0  0  0  0  0  0  0
   -4.2303   -3.1065    0.0000 C   0  0  0  0  0  0  0  0  0  0  0  0
   -3.7207   -1.6957    0.0000 C   0  0  0  0  0  0  0  0  0  0  0  0
  1  2  1  0
  2  3  1  0
  3  4  1  0
  4  5  1  0
  5  6  1  0
  6  7  1  0
  7  8  1  0
  8  9  1  0
  9 10  1  0
 10 11  1  0
 11 12  1  0
 12 13  1  0
 13 14  1  0
 14 15  1  0
 15 16  1  0
 16 17  1  0
 17 18  1  0
 18 19  1  0
 19 20  1  0
 20 21  1  0
 21 22  1  0
 22 23  1  0
 23 24  1  0
 24 25  1  0
 25 26  1  0
 26 27  1  0
 27 28  1  0
 28 29  1  0
 29 30  1  0
 30 31  1  0
 31 32  1  0
 32 33  1  0
 33 34  1  0
 34 35  1  0
 35 36  1  0
 36 37  1  0
 37 38  1  0
 38 39  1  0
 39 40  1  0
 40 41  1  0
 41 42  1  0
 42 43  1  0
 43 44  1  0
 44 45  1  0
 45 46  1  0
 46 47  1  0
 47 48  1  0
 48 49  1  0
 49 50  1  0
 50 51  1  0
 51 52  1  0
 52 53  1  0
 53 54  1  0
 54 55  1  0
 55 56  1  0
 56 57  1  0
 57 58  1  0
 58 59  1  0
 59 60  1  0
 60 61  1  0
 61 62  1  0
 62 63  1  0
 63 64  1  0
 64 65  1  0
 65 66  1  0
 66 67  1  0
 67 68  1  0
 68 69  2  0
 68 70  1  0
 70 71  1  0
 71 72  1  0
 72 73  2  0
 73 74  1  0
 74 75  2  0
 75 76  1  0
 76 77  2  0
 77 78  1  0
 78 79  2  0
 79 80  1  0
 80 81  2  0
 81 82  1  0
 82 83  2  0
 83 84  1  0
 84 85  2  0
 85 86  1  0
 86 87  2  0
 87 88  1  0
 88 89  2  0
 89  2  1  0
 77 67  1  0
 83 78  1  0
 89 84  1  0
M  END
>  <Title>  (809) 
idABDEgen9

$$$$

     RDKit          2D

 56 64  0  0  0  0  0  0  0  0999 V2000
    5.8191   -5.5525    0.0000 C   0  0  0  0  0  0  0  0  0  0  0  0
    4.3191   -5.5525    0.0000 C   0  0  0  0  0  0  0  0  0  0  0  0
    4.0586   -4.0753    0.0000 C   0  0  0  0  0  0  0  0  0  0  0  0
    3.3086   -2.7762    0.0000 C   0  0  0  0  0  0  0  0  0  0  0  0
    2.1595   -1.8121    0.0000 C   0  0  0  0  0  0  0  0  0  0  0  0
    2.9095   -0.5130    0.0000 C   0  0  0  0  0  0  0  0  0  0  0  0
    2.1595    0.7860    0.0000 O   0  0  0  0  0  0  0  0  0  0  0  0
    4.4095   -0.5130    0.0000 N   0  0  0  0  0  0  0  0  0  0  0  0
    5.1595    0.7860    0.0000 C   0  0  0  0  0  0  0  0  0  0  0  0
    6.6595    0.7860    0.0000 N   0  0  0  0  0  0  0  0  0  0  0  0
    7.4095    2.0850    0.0000 N   0  0  0  0  0  0  0  0  0  0  0  0
    6.6595    3.3841    0.0000 N   0  0  0  0  0  0  0  0  0  0  0  0
    5.1595    3.3841    0.0000 N   0  0  0  0  0  0  0  0  0  0  0  0
    4.4095    2.0850    0.0000 N   0  0  0  0  0  0  0  0  0  0  0  0
    0.7500   -1.2990    0.0000 C   0  0  0  0  0  0  0  0  0  0  0  0
    1.5000    0.0000    0.0000 C   0  0  0  0  0  0  0  0  0  0  0  0
    0.7500    1.2990    0.0000 C   0  0  0  0  0  0  0  0  0  0  0  0
   -0.7500    1.2990    0.0000 C   0  0  0  0  0  0  0  0  0  0  0  0
   -1.5000    0.0000    0.0000 C   0  0  0  0  0  0  0  0  0  0  0  0
   -0.7500   -1.2990    0.0000 C   0  0  0  0  0  0  0  0  0  0  0  0
   -2.1595   -1.8121    0.0000 C   0  0  0  0  0  0  0  0  0  0  0  0
   -2.4200   -0.3349    0.0000 C   0  0  0  0  0  0  0  0  0  0  0  0
   -3.8296    0.1782    0.0000 C   0  0  0  0  0  0  0  0  0  0  0  0
   -4.9786   -0.7860    0.0000 C   0  0  0  0  0  0  0  0  0  0  0  0
   -4.7181   -2.2632    0.0000 C   0  0  0  0  0  0  0  0  0  0  0  0
   -3.3086   -2.7762    0.0000 C   0  0  0  0  0  0  0  0  0  0  0  0
   -4.0586   -4.0753    0.0000 C   0  0  0  0  0  0  0  0  0  0  0  0
   -5.2077   -3.1111    0.0000 C   0  0  0  0  0  0  0  0  0  0  0  0
   -6.6172   -3.6241    0.0000 C   0  0  0  0  0  0  0  0  0  0  0  0
   -6.8777   -5.1013    0.0000 C   0  0  0  0  0  0  0  0  0  0  0  0
   -5.7286   -6.0655    0.0000 C   0  0  0  0  0  0  0  0  0  0  0  0
   -4.3191   -5.5525    0.0000 C   0  0  0  0  0  0  0  0  0  0  0  0
   -4.0586   -7.0297    0.0000 C   0  0  0  0  0  0  0  0  0  0  0  0
   -5.5586   -7.0297    0.0000 C   0  0  0  0  0  0  0  0  0  0  0  0
   -6.3086   -8.3287    0.0000 C   0  0  0  0  0  0  0  0  0  0  0  0
   -5.5586   -9.6278    0.0000 C   0  0  0  0  0  0  0  0  0  0  0  0
   -4.0586   -9.6278    0.0000 C   0  0  0  0  0  0  0  0  0  0  0  0
   -3.3086   -8.3287    0.0000 C   0  0  0  0  0  0  0  0  0  0  0  0
   -2.1595   -9.2929    0.0000 C   0  0  0  0  0  0  0  0  0  0  0  0
   -3.3086  -10.2571    0.0000 C   0  0  0  0  0  0  0  0  0  0  0  0
   -3.0481  -11.7343    0.0000 C   0  0  0  0  0  0  0  0  0  0  0  0
   -1.6386  -12.2474    0.0000 C   0  0  0  0  0  0  0  0  0  0  0  0
   -0.4895  -11.2832    0.0000 C   0  0  0  0  0  0  0  0  0  0  0  0
   -0.7500   -9.8060    0.0000 C   0  0  0  0  0  0  0  0  0  0  0  0
    0.7500   -9.8060    0.0000 C   0  0  0  0  0  0  0  0  0  0  0  0
    0.4895  -11.2832    0.0000 C   0  0  0  0  0  0  0  0  0  0  0  0
    1.6386  -12.2474    0.0000 C   0  0  0  0  0  0  0  0  0  0  0  0
    3.0481  -11.7343    0.0000 C   0  0  0  0  0  0  0  0  0  0  0  0
    3.3086  -10.2571    0.0000 C   0  0  0  0  0  0  0  0  0  0  0  0
    2.1595   -9.2929    0.0000 C   0  0  0  0  0  0  0  0  0  0  0  0
    3.3086   -8.3287    0.0000 C   0  0  0  0  0  0  0  0  0  0  0  0
    4.0586   -9.6278    0.0000 C   0  0  0  0  0  0  0  0  0  0  0  0
    5.5586   -9.6278    0.0000 C   0  0  0  0  0  0  0  0  0  0  0  0
    6.3086   -8.3287    0.0000 C   0  0  0  0  0  0  0  0  0  0  0  0
    5.5586   -7.0297    0.0000 C   0  0  0  0  0  0  0  0  0  0  0  0
    4.0586   -7.0297    0.0000 C   0  0  0  0  0  0  0  0  0  0  0  0
  1  2  1  0
  2  3  2  0
  3  4  1  0
  4  5  2  0
  5  6  1  0
  6  7  2  0
  6  8  1  0
  8  9  1  0
  9 10  2  0
 10 11  1  0
 11 12  2  0
 12 13  1  0
 13 14  2  0
  5 15  1  0
 15 16  2  0
 16 17  1  0
 17 18  2  0
 18 19  1  0
 19 20  2  0
 20 21  1  0
 21 22  2  0
 22 23  1  0
 23 24  2  0
 24 25  1  0
 25 26  2  0
 26 27  1  0
 27 28  2  0
 28 29  1  0
 29 30  2  0
 30 31  1  0
 31 32  2  0
 32 33  1  0
 33 34  2  0
 34 35  1  0
 35 36  2  0
 36 37  1  0
 37 38  2  0
 38 39  1  0
 39 40  2  0
 40 41  1  0
 41 42  2  0
 42 43  1  0
 43 44  2  0
 44 45  1  0
 45 46  2  0
 46 47  1  0
 47 48  2  0
 48 49  1  0
 49 50  2  0
 50 51  1  0
 51 52  2  0
 52 53  1  0
 53 54  2  0
 54 55  1  0
 55 56  2  0
 56  2  1  0
 14  9  1  0
 20 15  1  0
 26 21  1  0
 32 27  1  0
 38 33  1  0
 44 39  1  0
 50 45  1  0
 56 51  1  0
M  END
>  <Title>  (810) 
idABDFgen9

$$$$

     RDKit          2D

 70 80  0  0  0  0  0  0  0  0999 V2000
    7.1840   -7.9416    0.0000 C   0  0  0  0  0  0  0  0  0  0  0  0
    5.6968   -7.7459    0.0000 C   0  0  0  0  0  0  0  0  0  0  0  0
    5.6968   -6.2459    0.0000 C   0  0  0  0  0  0  0  0  0  0  0  0
    5.3086   -4.7970    0.0000 C   0  0  0  0  0  0  0  0  0  0  0  0
    4.5586   -3.4979    0.0000 C   0  0  0  0  0  0  0  0  0  0  0  0
    3.4979   -2.4373    0.0000 C   0  0  0  0  0  0  0  0  0  0  0  0
    2.1989   -1.6873    0.0000 C   0  0  0  0  0  0  0  0  0  0  0  0
    2.7729   -0.3014    0.0000 C   0  0  0  0  0  0  0  0  0  0  0  0
    1.8598    0.8886    0.0000 O   0  0  0  0  0  0  0  0  0  0  0  0
    4.2601   -0.1057    0.0000 N   0  0  0  0  0  0  0  0  0  0  0  0
    4.8341    1.2802    0.0000 C   0  0  0  0  0  0  0  0  0  0  0  0
    6.3213    1.4760    0.0000 N   0  0  0  0  0  0  0  0  0  0  0  0
    6.8953    2.8618    0.0000 N   0  0  0  0  0  0  0  0  0  0  0  0
    5.9822    4.0518    0.0000 N   0  0  0  0  0  0  0  0  0  0  0  0
    4.4950    3.8560    0.0000 N   0  0  0  0  0  0  0  0  0  0  0  0
    3.9210    2.4702    0.0000 N   0  0  0  0  0  0  0  0  0  0  0  0
    0.7500   -1.2990    0.0000 C   0  0  0  0  0  0  0  0  0  0  0  0
    1.5000    0.0000    0.0000 C   0  0  0  0  0  0  0  0  0  0  0  0
    0.7500    1.2990    0.0000 C   0  0  0  0  0  0  0  0  0  0  0  0
   -0.7500    1.2990    0.0000 C   0  0  0  0  0  0  0  0  0  0  0  0
   -1.5000    0.0000    0.0000 C   0  0  0  0  0  0  0  0  0  0  0  0
   -0.7500   -1.2990    0.0000 C   0  0  0  0  0  0  0  0  0  0  0  0
   -2.1989   -1.6873    0.0000 C   0  0  0  0  0  0  0  0  0  0  0  0
   -2.1989   -0.1873    0.0000 C   0  0  0  0  0  0  0  0  0  0  0  0
   -3.4979    0.5627    0.0000 C   0  0  0  0  0  0  0  0  0  0  0  0
   -4.7970   -0.1873    0.0000 C   0  0  0  0  0  0  0  0  0  0  0  0
   -4.7970   -1.6873    0.0000 C   0  0  0  0  0  0  0  0  0  0  0  0
   -3.4979   -2.4373    0.0000 C   0  0  0  0  0  0  0  0  0  0  0  0
   -4.5586   -3.4979    0.0000 C   0  0  0  0  0  0  0  0  0  0  0  0
   -5.3086   -2.1989    0.0000 C   0  0  0  0  0  0  0  0  0  0  0  0
   -6.8086   -2.1989    0.0000 C   0  0  0  0  0  0  0  0  0  0  0  0
   -7.5586   -3.4979    0.0000 C   0  0  0  0  0  0  0  0  0  0  0  0
   -6.8086   -4.7970    0.0000 C   0  0  0  0  0  0  0  0  0  0  0  0
   -5.3086   -4.7970    0.0000 C   0  0  0  0  0  0  0  0  0  0  0  0
   -5.6968   -6.2459    0.0000 C   0  0  0  0  0  0  0  0  0  0  0  0
   -6.9959   -5.4959    0.0000 C   0  0  0  0  0  0  0  0  0  0  0  0
   -8.2949   -6.2459    0.0000 C   0  0  0  0  0  0  0  0  0  0  0  0
   -8.2949   -7.7459    0.0000 C   0  0  0  0  0  0  0  0  0  0  0  0
   -6.9959   -8.4959    0.0000 C   0  0  0  0  0  0  0  0  0  0  0  0
   -5.6968   -7.7459    0.0000 C   0  0  0  0  0  0  0  0  0  0  0  0
   -5.3086   -9.1947    0.0000 C   0  0  0  0  0  0  0  0  0  0  0  0
   -6.8086   -9.1947    0.0000 C   0  0  0  0  0  0  0  0  0  0  0  0
   -7.5586  -10.4938    0.0000 C   0  0  0  0  0  0  0  0  0  0  0  0
   -6.8086  -11.7928    0.0000 C   0  0  0  0  0  0  0  0  0  0  0  0
   -5.3086  -11.7928    0.0000 C   0  0  0  0  0  0  0  0  0  0  0  0
   -4.5586  -10.4938    0.0000 C   0  0  0  0  0  0  0  0  0  0  0  0
   -3.4979  -11.5544    0.0000 C   0  0  0  0  0  0  0  0  0  0  0  0
   -4.7970  -12.3044    0.0000 C   0  0  0  0  0  0  0  0  0  0  0  0
   -4.7970  -13.8044    0.0000 C   0  0  0  0  0  0  0  0  0  0  0  0
   -3.4979  -14.5544    0.0000 C   0  0  0  0  0  0  0  0  0  0  0  0
   -2.1989  -13.8044    0.0000 C   0  0  0  0  0  0  0  0  0  0  0  0
   -2.1989  -12.3044    0.0000 C   0  0  0  0  0  0  0  0  0  0  0  0
   -0.7500  -12.6927    0.0000 C   0  0  0  0  0  0  0  0  0  0  0  0
   -1.5000  -13.9917    0.0000 C   0  0  0  0  0  0  0  0  0  0  0  0
   -0.7500  -15.2907    0.0000 C   0  0  0  0  0  0  0  0  0  0  0  0
    0.7500  -15.2907    0.0000 C   0  0  0  0  0  0  0  0  0  0  0  0
    1.5000  -13.9917    0.0000 C   0  0  0  0  0  0  0  0  0  0  0  0
    0.7500  -12.6927    0.0000 C   0  0  0  0  0  0  0  0  0  0  0  0
    2.1989  -12.3044    0.0000 C   0  0  0  0  0  0  0  0  0  0  0  0
    2.1989  -13.8044    0.0000 C   0  0  0  0  0  0  0  0  0  0  0  0
    3.4979  -14.5544    0.0000 C   0  0  0  0  0  0  0  0  0  0  0  0
    4.7970  -13.8044    0.0000 C   0  0  0  0  0  0  0  0  0  0  0  0
    4.7970  -12.3044    0.0000 C   0  0  0  0  0  0  0  0  0  0  0  0
    3.4979  -11.5544    0.0000 C   0  0  0  0  0  0  0  0  0  0  0  0
    4.5586  -10.4938    0.0000 C   0  0  0  0  0  0  0  0  0  0  0  0
    5.3086  -11.7928    0.0000 C   0  0  0  0  0  0  0  0  0  0  0  0
    6.8086  -11.7928    0.0000 C   0  0  0  0  0  0  0  0  0  0  0  0
    7.5586  -10.4938    0.0000 C   0  0  0  0  0  0  0  0  0  0  0  0
    6.8086   -9.1947    0.0000 C   0  0  0  0  0  0  0  0  0  0  0  0
    5.3086   -9.1947    0.0000 C   0  0  0  0  0  0  0  0  0  0  0  0
  1  2  1  0
  2  3  2  0
  3  4  1  0
  4  5  1  0
  5  6  1  0
  6  7  1  0
  7  8  1  0
  8  9  2  0
  8 10  1  0
 10 11  1  0
 11 12  2  0
 12 13  1  0
 13 14  2  0
 14 15  1  0
 15 16  2  0
  7 17  1  0
 17 18  2  0
 18 19  1  0
 19 20  2  0
 20 21  1  0
 21 22  2  0
 22 23  1  0
 23 24  2  0
 24 25  1  0
 25 26  2  0
 26 27  1  0
 27 28  2  0
 28 29  1  0
 29 30  2  0
 30 31  1  0
 31 32  2  0
 32 33  1  0
 33 34  2  0
 34 35  1  0
 35 36  2  0
 36 37  1  0
 37 38  2  0
 38 39  1  0
 39 40  2  0
 40 41  1  0
 41 42  2  0
 42 43  1  0
 43 44  2  0
 44 45  1  0
 45 46  2  0
 46 47  1  0
 47 48  2  0
 48 49  1  0
 49 50  2  0
 50 51  1  0
 51 52  2  0
 52 53  1  0
 53 54  2  0
 54 55  1  0
 55 56  2  0
 56 57  1  0
 57 58  2  0
 58 59  1  0
 59 60  2  0
 60 61  1  0
 61 62  2  0
 62 63  1  0
 63 64  2  0
 64 65  1  0
 65 66  2  0
 66 67  1  0
 67 68  2  0
 68 69  1  0
 69 70  2  0
 70  2  1  0
 16 11  1  0
 22 17  1  0
 28 23  1  0
 34 29  1  0
 40 35  1  0
 46 41  1  0
 52 47  1  0
 58 53  1  0
 64 59  1  0
 70 65  1  0
M  END
>  <Title>  (811) 
idABDGgen9

$$$$

     RDKit          2D

 11 11  0  0  0  0  0  0  0  0999 V2000
    5.0260    1.2990    0.0000 C   0  0  0  0  0  0  0  0  0  0  0  0
    3.5260    1.2990    0.0000 C   0  0  0  0  0  0  0  0  0  0  0  0
    2.7760    0.0000    0.0000 C   0  0  0  0  0  0  0  0  0  0  0  0
    1.2760    0.0000    0.0000 C   0  0  0  0  0  0  0  0  0  0  0  0
    0.3943    1.2135    0.0000 C   0  0  0  0  0  0  0  0  0  0  0  0
   -1.0323    0.7500    0.0000 C   0  0  0  0  0  0  0  0  0  0  0  0
   -2.2458    1.6317    0.0000 C   0  0  0  0  0  0  0  0  0  0  0  0
   -3.4593    2.5134    0.0000 N   0  0  0  0  0  0  0  0  0  0  0  0
   -1.0323   -0.7500    0.0000 C   0  0  0  0  0  0  0  0  0  0  0  0
    0.3943   -1.2135    0.0000 C   0  0  0  0  0  0  0  0  0  0  0  0
    0.8578   -2.6401    0.0000 C   0  0  0  0  0  0  0  0  0  0  0  0
  1  2  1  0
  2  3  2  3
  3  4  1  0
  4  5  2  0
  5  6  1  0
  6  7  1  0
  7  8  3  0
  6  9  1  0
  9 10  2  0
 10 11  1  0
 10  4  1  0
M  END
>  <Title>  (812) 
idABDHgen9

$$$$

     RDKit          2D

  6  6  0  0  0  0  0  0  0  0999 V2000
    2.7760    0.0000    0.0000 O   0  0  0  0  0  0  0  0  0  0  0  0
    1.2760    0.0000    0.0000 C   0  0  0  0  0  0  0  0  0  0  0  0
    0.3943    1.2135    0.0000 C   0  0  0  0  0  0  0  0  0  0  0  0
   -1.0323    0.7500    0.0000 C   0  0  0  0  0  0  0  0  0  0  0  0
   -1.0323   -0.7500    0.0000 C   0  0  0  0  0  0  0  0  0  0  0  0
    0.3943   -1.2135    0.0000 C   0  0  0  0  0  0  0  0  0  0  0  0
  1  2  1  0
  2  3  2  0
  3  4  1  0
  4  5  2  0
  5  6  1  0
  6  2  1  0
M  END
>  <Title>  (813) 
idABDIgen9

$$$$

     RDKit          2D

 13 13  0  0  0  0  0  0  0  0999 V2000
   10.2760   -0.0000    0.0000 C   0  0  0  0  0  0  0  0  0  0  0  0
    8.7760   -0.0000    0.0000 C   0  0  0  0  0  0  0  0  0  0  0  0
    7.2760   -0.0000    0.0000 C   0  0  0  0  0  0  0  0  0  0  0  0
    5.7760   -0.0000    0.0000 C   0  0  0  0  0  0  0  0  0  0  0  0
    4.2760   -0.0000    0.0000 C   0  0  0  0  0  0  0  0  0  0  0  0
    2.7760    0.0000    0.0000 C   0  0  0  0  0  0  0  0  0  0  0  0
    1.2760    0.0000    0.0000 C   0  0  0  0  0  0  0  0  0  0  0  0
    0.3943    1.2135    0.0000 C   0  0  0  0  0  0  0  0  0  0  0  0
   -1.0323    0.7500    0.0000 C   0  0  0  0  0  0  0  0  0  0  0  0
   -1.0323   -0.7500    0.0000 C   0  0  0  0  0  0  0  0  0  0  0  0
   -2.2458   -1.6317    0.0000 O   0  0  0  0  0  0  0  0  0  0  0  0
    0.3943   -1.2135    0.0000 C   0  0  0  0  0  0  0  0  0  0  0  0
    0.8578   -2.6401    0.0000 O   0  0  0  0  0  0  0  0  0  0  0  0
  1  2  3  0
  2  3  1  0
  3  4  3  0
  4  5  1  0
  5  6  3  0
  6  7  1  0
  7  8  2  0
  8  9  1  0
  9 10  2  0
 10 11  1  0
 10 12  1  0
 12 13  1  0
 12  7  1  0
M  END
>  <Title>  (814) 
idABDJgen9

$$$$

     RDKit          2D

  9  9  0  0  0  0  0  0  0  0999 V2000
    4.2760   -2.5981    0.0000 C   0  0  0  0  0  0  0  0  0  0  0  0
    3.5260   -1.2990    0.0000 C   0  0  0  0  0  0  0  0  0  0  0  0
    2.7760    0.0000    0.0000 C   0  0  0  0  0  0  0  0  0  0  0  0
    3.5260    1.2990    0.0000 O   0  0  0  0  0  0  0  0  0  0  0  0
    1.2760    0.0000    0.0000 C   0  0  0  0  0  0  0  0  0  0  0  0
    0.3943    1.2135    0.0000 C   0  0  0  0  0  0  0  0  0  0  0  0
   -1.0323    0.7500    0.0000 C   0  0  0  0  0  0  0  0  0  0  0  0
   -1.0323   -0.7500    0.0000 C   0  0  0  0  0  0  0  0  0  0  0  0
    0.3943   -1.2135    0.0000 C   0  0  0  0  0  0  0  0  0  0  0  0
  1  2  3  0
  2  3  1  0
  3  4  2  0
  3  5  1  0
  5  6  2  0
  6  7  1  0
  7  8  2  0
  8  9  1  0
  9  5  1  0
M  END
>  <Title>  (815) 
idABDKgen9

$$$$

     RDKit          2D

103103  0  0  0  0  0  0  0  0999 V2000
   25.6159   -0.0000    0.0000 C   0  0  0  0  0  0  0  0  0  0  0  0
   24.1159    0.0000    0.0000 C   0  0  0  0  0  0  0  0  0  0  0  0
   24.0692    1.4993    0.0000 C   0  0  0  0  0  0  0  0  0  0  0  0
   23.9294    2.9927    0.0000 C   0  0  0  0  0  0  0  0  0  0  0  0
   23.6971    4.4746    0.0000 C   0  0  0  0  0  0  0  0  0  0  0  0
   23.3731    5.9392    0.0000 C   0  0  0  0  0  0  0  0  0  0  0  0
   22.9586    7.3808    0.0000 C   0  0  0  0  0  0  0  0  0  0  0  0
   22.4553    8.7939    0.0000 C   0  0  0  0  0  0  0  0  0  0  0  0
   21.8652   10.1729    0.0000 C   0  0  0  0  0  0  0  0  0  0  0  0
   21.1904   11.5126    0.0000 C   0  0  0  0  0  0  0  0  0  0  0  0
   20.4337   12.8077    0.0000 C   0  0  0  0  0  0  0  0  0  0  0  0
   19.5979   14.0533    0.0000 C   0  0  0  0  0  0  0  0  0  0  0  0
   18.6863   15.2445    0.0000 C   0  0  0  0  0  0  0  0  0  0  0  0
   17.7025   16.3767    0.0000 C   0  0  0  0  0  0  0  0  0  0  0  0
   16.6501   17.4456    0.0000 C   0  0  0  0  0  0  0  0  0  0  0  0
   15.5333   18.4470    0.0000 C   0  0  0  0  0  0  0  0  0  0  0  0
   14.3564   19.3770    0.0000 C   0  0  0  0  0  0  0  0  0  0  0  0
   13.1240   20.2321    0.0000 C   0  0  0  0  0  0  0  0  0  0  0  0
   11.8407   21.0088    0.0000 C   0  0  0  0  0  0  0  0  0  0  0  0
   10.5117   21.7043    0.0000 C   0  0  0  0  0  0  0  0  0  0  0  0
    9.1420   22.3159    0.0000 C   0  0  0  0  0  0  0  0  0  0  0  0
    7.7370   22.8411    0.0000 C   0  0  0  0  0  0  0  0  0  0  0  0
    6.3020   23.2779    0.0000 C   0  0  0  0  0  0  0  0  0  0  0  0
    4.8426   23.6246    0.0000 C   0  0  0  0  0  0  0  0  0  0  0  0
    3.3645   23.8800    0.0000 C   0  0  0  0  0  0  0  0  0  0  0  0
    1.8734   24.0430    0.0000 C   0  0  0  0  0  0  0  0  0  0  0  0
    0.3750   24.1129    0.0000 C   0  0  0  0  0  0  0  0  0  0  0  0
   -1.1248   24.0896    0.0000 C   0  0  0  0  0  0  0  0  0  0  0  0
   -2.6202   23.9731    0.0000 C   0  0  0  0  0  0  0  0  0  0  0  0
   -4.1056   23.7638    0.0000 C   0  0  0  0  0  0  0  0  0  0  0  0
   -5.5750   23.4626    0.0000 C   0  0  0  0  0  0  0  0  0  0  0  0
   -7.0229   23.0706    0.0000 C   0  0  0  0  0  0  0  0  0  0  0  0
   -8.4436   22.5894    0.0000 C   0  0  0  0  0  0  0  0  0  0  0  0
   -9.8316   22.0208    0.0000 C   0  0  0  0  0  0  0  0  0  0  0  0
  -11.1816   21.3669    0.0000 C   0  0  0  0  0  0  0  0  0  0  0  0
  -12.4884   20.6304    0.0000 C   0  0  0  0  0  0  0  0  0  0  0  0
  -13.7468   19.8141    0.0000 C   0  0  0  0  0  0  0  0  0  0  0  0
  -14.9521   18.9212    0.0000 C   0  0  0  0  0  0  0  0  0  0  0  0
  -16.0995   17.9550    0.0000 C   0  0  0  0  0  0  0  0  0  0  0  0
  -17.1846   16.9194    0.0000 C   0  0  0  0  0  0  0  0  0  0  0  0
  -18.2032   15.8183    0.0000 C   0  0  0  0  0  0  0  0  0  0  0  0
  -19.1514   14.6560    0.0000 C   0  0  0  0  0  0  0  0  0  0  0  0
  -20.0255   13.4370    0.0000 C   0  0  0  0  0  0  0  0  0  0  0  0
  -20.8222   12.1660    0.0000 C   0  0  0  0  0  0  0  0  0  0  0  0
  -21.5382   10.8480    0.0000 C   0  0  0  0  0  0  0  0  0  0  0  0
  -22.1710    9.4880    0.0000 C   0  0  0  0  0  0  0  0  0  0  0  0
  -22.7180    8.0913    0.0000 C   0  0  0  0  0  0  0  0  0  0  0  0
  -23.1771    6.6633    0.0000 C   0  0  0  0  0  0  0  0  0  0  0  0
  -23.5465    5.2095    0.0000 C   0  0  0  0  0  0  0  0  0  0  0  0
  -23.8248    3.7355    0.0000 C   0  0  0  0  0  0  0  0  0  0  0  0
  -24.0109    2.2471    0.0000 C   0  0  0  0  0  0  0  0  0  0  0  0
  -24.1042    0.7500    0.0000 C   0  0  0  0  0  0  0  0  0  0  0  0
  -24.1042   -0.7500    0.0000 C   0  0  0  0  0  0  0  0  0  0  0  0
  -24.0109   -2.2471    0.0000 C   0  0  0  0  0  0  0  0  0  0  0  0
  -23.8248   -3.7355    0.0000 C   0  0  0  0  0  0  0  0  0  0  0  0
  -23.5465   -5.2095    0.0000 C   0  0  0  0  0  0  0  0  0  0  0  0
  -23.1771   -6.6633    0.0000 C   0  0  0  0  0  0  0  0  0  0  0  0
  -22.7180   -8.0913    0.0000 C   0  0  0  0  0  0  0  0  0  0  0  0
  -22.1710   -9.4880    0.0000 C   0  0  0  0  0  0  0  0  0  0  0  0
  -21.5382  -10.8480    0.0000 C   0  0  0  0  0  0  0  0  0  0  0  0
  -20.8222  -12.1660    0.0000 C   0  0  0  0  0  0  0  0  0  0  0  0
  -20.0255  -13.4370    0.0000 C   0  0  0  0  0  0  0  0  0  0  0  0
  -19.1514  -14.6560    0.0000 C   0  0  0  0  0  0  0  0  0  0  0  0
  -18.2032  -15.8183    0.0000 C   0  0  0  0  0  0  0  0  0  0  0  0
  -17.1846  -16.9194    0.0000 C   0  0  0  0  0  0  0  0  0  0  0  0
  -16.0995  -17.9550    0.0000 C   0  0  0  0  0  0  0  0  0  0  0  0
  -14.9521  -18.9212    0.0000 C   0  0  0  0  0  0  0  0  0  0  0  0
  -13.7468  -19.8141    0.0000 C   0  0  0  0  0  0  0  0  0  0  0  0
  -12.4884  -20.6304    0.0000 C   0  0  0  0  0  0  0  0  0  0  0  0
  -11.1816  -21.3669    0.0000 C   0  0  0  0  0  0  0  0  0  0  0  0
   -9.8316  -22.0208    0.0000 C   0  0  0  0  0  0  0  0  0  0  0  0
   -8.4436  -22.5894    0.0000 C   0  0  0  0  0  0  0  0  0  0  0  0
   -7.0229  -23.0706    0.0000 C   0  0  0  0  0  0  0  0  0  0  0  0
   -5.5750  -23.4626    0.0000 C   0  0  0  0  0  0  0  0  0  0  0  0
   -4.1056  -23.7638    0.0000 C   0  0  0  0  0  0  0  0  0  0  0  0
   -2.6202  -23.9731    0.0000 C   0  0  0  0  0  0  0  0  0  0  0  0
   -1.1248  -24.0896    0.0000 C   0  0  0  0  0  0  0  0  0  0  0  0
    0.3750  -24.1129    0.0000 C   0  0  0  0  0  0  0  0  0  0  0  0
    1.8734  -24.0430    0.0000 C   0  0  0  0  0  0  0  0  0  0  0  0
    3.3645  -23.8800    0.0000 C   0  0  0  0  0  0  0  0  0  0  0  0
    4.8426  -23.6246    0.0000 C   0  0  0  0  0  0  0  0  0  0  0  0
    6.3020  -23.2779    0.0000 C   0  0  0  0  0  0  0  0  0  0  0  0
    7.7370  -22.8411    0.0000 C   0  0  0  0  0  0  0  0  0  0  0  0
    9.1420  -22.3159    0.0000 C   0  0  0  0  0  0  0  0  0  0  0  0
   10.5117  -21.7043    0.0000 C   0  0  0  0  0  0  0  0  0  0  0  0
   11.8407  -21.0088    0.0000 C   0  0  0  0  0  0  0  0  0  0  0  0
   13.1240  -20.2321    0.0000 C   0  0  0  0  0  0  0  0  0  0  0  0
   14.3564  -19.3770    0.0000 C   0  0  0  0  0  0  0  0  0  0  0  0
   15.5333  -18.4470    0.0000 C   0  0  0  0  0  0  0  0  0  0  0  0
   16.6501  -17.4456    0.0000 C   0  0  0  0  0  0  0  0  0  0  0  0
   17.7025  -16.3767    0.0000 C   0  0  0  0  0  0  0  0  0  0  0  0
   18.6863  -15.2445    0.0000 C   0  0  0  0  0  0  0  0  0  0  0  0
   19.5979  -14.0533    0.0000 C   0  0  0  0  0  0  0  0  0  0  0  0
   20.4337  -12.8077    0.0000 C   0  0  0  0  0  0  0  0  0  0  0  0
   21.1904  -11.5126    0.0000 C   0  0  0  0  0  0  0  0  0  0  0  0
   21.8652  -10.1729    0.0000 C   0  0  0  0  0  0  0  0  0  0  0  0
   22.4553   -8.7939    0.0000 C   0  0  0  0  0  0  0  0  0  0  0  0
   22.9586   -7.3808    0.0000 C   0  0  0  0  0  0  0  0  0  0  0  0
   23.3731   -5.9392    0.0000 C   0  0  0  0  0  0  0  0  0  0  0  0
   23.6971   -4.4746    0.0000 C   0  0  0  0  0  0  0  0  0  0  0  0
   23.9294   -2.9927    0.0000 C   0  0  0  0  0  0  0  0  0  0  0  0
   24.0692   -1.4993    0.0000 C   0  0  0  0  0  0  0  0  0  0  0  0
   25.5663   -1.5925    0.0000 C   0  0  0  0  0  0  0  0  0  0  0  0
  1  2  1  0
  2  3  2  0
  3  4  1  0
  4  5  2  0
  5  6  1  0
  6  7  2  0
  7  8  1  0
  8  9  2  0
  9 10  1  0
 10 11  2  0
 11 12  1  0
 12 13  1  0
 13 14  1  0
 14 15  1  0
 15 16  1  0
 16 17  1  0
 17 18  1  0
 18 19  1  0
 19 20  1  0
 20 21  1  0
 21 22  1  0
 22 23  1  0
 23 24  1  0
 24 25  1  0
 25 26  1  0
 26 27  1  0
 27 28  1  0
 28 29  1  0
 29 30  1  0
 30 31  1  0
 31 32  1  0
 32 33  1  0
 33 34  1  0
 34 35  1  0
 35 36  1  0
 36 37  1  0
 37 38  1  0
 38 39  1  0
 39 40  1  0
 40 41  1  0
 41 42  1  0
 42 43  1  0
 43 44  1  0
 44 45  1  0
 45 46  1  0
 46 47  1  0
 47 48  1  0
 48 49  1  0
 49 50  1  0
 50 51  1  0
 51 52  1  0
 52 53  1  0
 53 54  1  0
 54 55  1  0
 55 56  1  0
 56 57  1  0
 57 58  1  0
 58 59  1  0
 59 60  1  0
 60 61  1  0
 61 62  1  0
 62 63  1  0
 63 64  1  0
 64 65  1  0
 65 66  1  0
 66 67  1  0
 67 68  1  0
 68 69  1  0
 69 70  1  0
 70 71  1  0
 71 72  1  0
 72 73  1  0
 73 74  1  0
 74 75  1  0
 75 76  1  0
 76 77  1  0
 77 78  1  0
 78 79  1  0
 79 80  1  0
 80 81  1  0
 81 82  1  0
 82 83  1  0
 83 84  1  0
 84 85  1  0
 85 86  1  0
 86 87  1  0
 87 88  1  0
 88 89  1  0
 89 90  1  0
 90 91  1  0
 91 92  1  0
 92 93  1  0
 93 94  1  0
 94 95  1  0
 95 96  1  0
 96 97  1  0
 97 98  1  0
 98 99  1  0
 99100  1  0
100101  2  0
101102  1  0
102103  1  0
102  2  1  0
M  END
>  <Title>  (816) 
idABDLgen9

$$$$

     RDKit          2D

 13 13  0  0  0  0  0  0  0  0999 V2000
    3.6929   -2.5981    0.0000 O   0  0  0  0  0  0  0  0  0  0  0  0
    4.4429   -1.2990    0.0000 C   0  0  0  0  0  0  0  0  0  0  0  0
    5.9429   -1.2990    0.0000 O   0  0  0  0  0  0  0  0  0  0  0  0
    3.6929    0.0000    0.0000 O   0  0  0  0  0  0  0  0  0  0  0  0
    2.1929    0.0000    0.0000 C   0  0  0  0  0  0  0  0  0  0  0  0
    1.6798    1.4095    0.0000 C   0  0  0  0  0  0  0  0  0  0  0  0
    0.3808    2.1595    0.0000 C   0  0  0  0  0  0  0  0  0  0  0  0
   -1.0964    1.8991    0.0000 C   0  0  0  0  0  0  0  0  0  0  0  0
   -2.0606    0.7500    0.0000 C   0  0  0  0  0  0  0  0  0  0  0  0
   -2.0606   -0.7500    0.0000 C   0  0  0  0  0  0  0  0  0  0  0  0
   -1.0964   -1.8991    0.0000 C   0  0  0  0  0  0  0  0  0  0  0  0
    0.3808   -2.1595    0.0000 C   0  0  0  0  0  0  0  0  0  0  0  0
    1.6798   -1.4095    0.0000 C   0  0  0  0  0  0  0  0  0  0  0  0
  1  2  2  0
  2  3  1  0
  2  4  1  0
  4  5  1  0
  5  6  1  0
  6  7  2  0
  7  8  1  0
  8  9  1  0
  9 10  1  0
 10 11  1  0
 11 12  1  0
 12 13  1  0
 13  5  1  0
M  END
>  <Title>  (817) 
idABDMgen9

$$$$

     RDKit          2D

 11 11  0  0  0  0  0  0  0  0999 V2000
   10.2760   -0.0000    0.0000 C   0  0  0  0  0  0  0  0  0  0  0  0
    8.7760   -0.0000    0.0000 C   0  0  0  0  0  0  0  0  0  0  0  0
    7.2760   -0.0000    0.0000 C   0  0  0  0  0  0  0  0  0  0  0  0
    5.7760   -0.0000    0.0000 C   0  0  0  0  0  0  0  0  0  0  0  0
    4.2760   -0.0000    0.0000 C   0  0  0  0  0  0  0  0  0  0  0  0
    2.7760    0.0000    0.0000 C   0  0  0  0  0  0  0  0  0  0  0  0
    1.2760    0.0000    0.0000 C   0  0  0  0  0  0  0  0  0  0  0  0
    0.3943    1.2135    0.0000 C   0  0  0  0  0  0  0  0  0  0  0  0
   -1.0323    0.7500    0.0000 C   0  0  0  0  0  0  0  0  0  0  0  0
   -1.0323   -0.7500    0.0000 C   0  0  0  0  0  0  0  0  0  0  0  0
    0.3943   -1.2135    0.0000 C   0  0  0  0  0  0  0  0  0  0  0  0
  1  2  3  0
  2  3  1  0
  3  4  3  0
  4  5  1  0
  5  6  3  0
  6  7  1  0
  7  8  2  0
  8  9  1  0
  9 10  1  0
 10 11  2  0
 11  7  1  0
M  END
>  <Title>  (818) 
idABDNgen9

$$$$

     RDKit          2D

  9  9  0  0  0  0  0  0  0  0999 V2000
    7.2760   -0.0000    0.0000 C   0  0  0  0  0  0  0  0  0  0  0  0
    5.7760   -0.0000    0.0000 C   0  0  0  0  0  0  0  0  0  0  0  0
    4.2760   -0.0000    0.0000 C   0  0  0  0  0  0  0  0  0  0  0  0
    2.7760    0.0000    0.0000 C   0  0  0  0  0  0  0  0  0  0  0  0
    1.2760    0.0000    0.0000 C   0  0  0  0  0  0  0  0  0  0  0  0
    0.3943    1.2135    0.0000 C   0  0  0  0  0  0  0  0  0  0  0  0
   -1.0323    0.7500    0.0000 C   0  0  0  0  0  0  0  0  0  0  0  0
   -1.0323   -0.7500    0.0000 C   0  0  0  0  0  0  0  0  0  0  0  0
    0.3943   -1.2135    0.0000 C   0  0  0  0  0  0  0  0  0  0  0  0
  1  2  3  0
  2  3  1  0
  3  4  3  0
  4  5  1  0
  5  6  2  0
  6  7  1  0
  7  8  1  0
  8  9  2  0
  9  5  1  0
M  END
>  <Title>  (819) 
idABDOgen9

$$$$

     RDKit          2D

  8  8  0  0  0  0  0  0  0  0999 V2000
    3.5260    1.2990    0.0000 O   0  0  0  0  0  0  0  0  0  0  0  0
    2.7760    0.0000    0.0000 C   0  0  0  0  0  0  0  0  0  0  0  0
    3.5260   -1.2990    0.0000 O   0  0  0  0  0  0  0  0  0  0  0  0
    1.2760    0.0000    0.0000 C   0  0  0  0  0  0  0  0  0  0  0  0
    0.3943    1.2135    0.0000 C   0  0  0  0  0  0  0  0  0  0  0  0
   -1.0323    0.7500    0.0000 C   0  0  0  0  0  0  0  0  0  0  0  0
   -1.0323   -0.7500    0.0000 C   0  0  0  0  0  0  0  0  0  0  0  0
    0.3943   -1.2135    0.0000 C   0  0  0  0  0  0  0  0  0  0  0  0
  1  2  2  0
  2  3  1  0
  2  4  1  0
  4  5  2  0
  5  6  1  0
  6  7  2  0
  7  8  1  0
  8  4  1  0
M  END
>  <Title>  (820) 
idABDPgen9

$$$$

     RDKit          2D

  8  8  0  0  0  0  0  0  0  0999 V2000
    3.0000    0.0000    0.0000 O   0  0  0  0  0  0  0  0  0  0  0  0
    1.5000    0.0000    0.0000 C   0  0  0  0  0  0  0  0  0  0  0  0
    0.7500   -1.2990    0.0000 C   0  0  0  0  0  0  0  0  0  0  0  0
   -0.7500   -1.2990    0.0000 C   0  0  0  0  0  0  0  0  0  0  0  0
   -1.5000    0.0000    0.0000 C   0  0  0  0  0  0  0  0  0  0  0  0
   -3.0000    0.0000    0.0000 O   0  0  0  0  0  0  0  0  0  0  0  0
   -0.7500    1.2990    0.0000 C   0  0  0  0  0  0  0  0  0  0  0  0
    0.7500    1.2990    0.0000 O   0  0  0  0  0  0  0  0  0  0  0  0
  1  2  2  0
  2  3  1  0
  3  4  2  0
  4  5  1  0
  5  6  1  0
  5  7  2  0
  7  8  1  0
  8  2  1  0
M  END
>  <Title>  (821) 
idABDQgen9

$$$$

     RDKit          2D

 83 83  0  0  0  0  0  0  0  0999 V2000
   20.8422    0.0000    0.0000 C   0  0  0  0  0  0  0  0  0  0  0  0
   19.3422    0.0000    0.0000 C   0  0  0  0  0  0  0  0  0  0  0  0
   19.2840    1.4989    0.0000 C   0  0  0  0  0  0  0  0  0  0  0  0
   19.1099    2.9887    0.0000 C   0  0  0  0  0  0  0  0  0  0  0  0
   18.8208    4.4606    0.0000 C   0  0  0  0  0  0  0  0  0  0  0  0
   18.4185    5.9057    0.0000 C   0  0  0  0  0  0  0  0  0  0  0  0
   17.9055    7.3152    0.0000 C   0  0  0  0  0  0  0  0  0  0  0  0
   17.2848    8.6808    0.0000 C   0  0  0  0  0  0  0  0  0  0  0  0
   16.5601    9.9941    0.0000 C   0  0  0  0  0  0  0  0  0  0  0  0
   15.7359   11.2473    0.0000 C   0  0  0  0  0  0  0  0  0  0  0  0
   14.8170   12.4329    0.0000 C   0  0  0  0  0  0  0  0  0  0  0  0
   13.8090   13.5437    0.0000 C   0  0  0  0  0  0  0  0  0  0  0  0
   12.7179   14.5731    0.0000 C   0  0  0  0  0  0  0  0  0  0  0  0
   11.5503   15.5148    0.0000 C   0  0  0  0  0  0  0  0  0  0  0  0
   10.3133   16.3632    0.0000 C   0  0  0  0  0  0  0  0  0  0  0  0
    9.0143   17.1132    0.0000 C   0  0  0  0  0  0  0  0  0  0  0  0
    7.6610   17.7603    0.0000 C   0  0  0  0  0  0  0  0  0  0  0  0
    6.2617   18.3006    0.0000 C   0  0  0  0  0  0  0  0  0  0  0  0
    4.8247   18.7308    0.0000 C   0  0  0  0  0  0  0  0  0  0  0  0
    3.3587   19.0483    0.0000 C   0  0  0  0  0  0  0  0  0  0  0  0
    1.8725   19.2513    0.0000 C   0  0  0  0  0  0  0  0  0  0  0  0
    0.3751   19.3385    0.0000 C   0  0  0  0  0  0  0  0  0  0  0  0
   -1.1246   19.3095    0.0000 C   0  0  0  0  0  0  0  0  0  0  0  0
   -2.6176   19.1642    0.0000 C   0  0  0  0  0  0  0  0  0  0  0  0
   -4.0948   18.9038    0.0000 C   0  0  0  0  0  0  0  0  0  0  0  0
   -5.5474   18.5296    0.0000 C   0  0  0  0  0  0  0  0  0  0  0  0
   -6.9666   18.0440    0.0000 C   0  0  0  0  0  0  0  0  0  0  0  0
   -8.3439   17.4499    0.0000 C   0  0  0  0  0  0  0  0  0  0  0  0
   -9.6711   16.7508    0.0000 C   0  0  0  0  0  0  0  0  0  0  0  0
  -10.9401   15.9510    0.0000 C   0  0  0  0  0  0  0  0  0  0  0  0
  -12.1433   15.0553    0.0000 C   0  0  0  0  0  0  0  0  0  0  0  0
  -13.2734   14.0690    0.0000 C   0  0  0  0  0  0  0  0  0  0  0  0
  -14.3237   12.9981    0.0000 C   0  0  0  0  0  0  0  0  0  0  0  0
  -15.2879   11.8490    0.0000 C   0  0  0  0  0  0  0  0  0  0  0  0
  -16.1602   10.6287    0.0000 C   0  0  0  0  0  0  0  0  0  0  0  0
  -16.9352    9.3444    0.0000 C   0  0  0  0  0  0  0  0  0  0  0  0
  -17.6084    8.0040    0.0000 C   0  0  0  0  0  0  0  0  0  0  0  0
  -18.1757    6.6154    0.0000 C   0  0  0  0  0  0  0  0  0  0  0  0
  -18.6337    5.1870    0.0000 C   0  0  0  0  0  0  0  0  0  0  0  0
  -18.9796    3.7275    0.0000 C   0  0  0  0  0  0  0  0  0  0  0  0
  -19.2114    2.2455    0.0000 C   0  0  0  0  0  0  0  0  0  0  0  0
  -19.3276    0.7500    0.0000 C   0  0  0  0  0  0  0  0  0  0  0  0
  -19.3276   -0.7500    0.0000 C   0  0  0  0  0  0  0  0  0  0  0  0
  -19.2114   -2.2455    0.0000 C   0  0  0  0  0  0  0  0  0  0  0  0
  -18.9796   -3.7275    0.0000 C   0  0  0  0  0  0  0  0  0  0  0  0
  -18.6337   -5.1870    0.0000 C   0  0  0  0  0  0  0  0  0  0  0  0
  -18.1757   -6.6154    0.0000 C   0  0  0  0  0  0  0  0  0  0  0  0
  -17.6084   -8.0040    0.0000 C   0  0  0  0  0  0  0  0  0  0  0  0
  -16.9352   -9.3444    0.0000 C   0  0  0  0  0  0  0  0  0  0  0  0
  -16.1602  -10.6287    0.0000 C   0  0  0  0  0  0  0  0  0  0  0  0
  -15.2879  -11.8490    0.0000 C   0  0  0  0  0  0  0  0  0  0  0  0
  -14.3237  -12.9981    0.0000 C   0  0  0  0  0  0  0  0  0  0  0  0
  -13.2734  -14.0690    0.0000 C   0  0  0  0  0  0  0  0  0  0  0  0
  -12.1433  -15.0553    0.0000 C   0  0  0  0  0  0  0  0  0  0  0  0
  -10.9401  -15.9510    0.0000 C   0  0  0  0  0  0  0  0  0  0  0  0
   -9.6711  -16.7508    0.0000 C   0  0  0  0  0  0  0  0  0  0  0  0
   -8.3439  -17.4499    0.0000 C   0  0  0  0  0  0  0  0  0  0  0  0
   -6.9666  -18.0440    0.0000 C   0  0  0  0  0  0  0  0  0  0  0  0
   -5.5474  -18.5296    0.0000 C   0  0  0  0  0  0  0  0  0  0  0  0
   -4.0948  -18.9038    0.0000 C   0  0  0  0  0  0  0  0  0  0  0  0
   -2.6176  -19.1642    0.0000 C   0  0  0  0  0  0  0  0  0  0  0  0
   -1.1246  -19.3095    0.0000 C   0  0  0  0  0  0  0  0  0  0  0  0
    0.3751  -19.3385    0.0000 C   0  0  0  0  0  0  0  0  0  0  0  0
    1.8725  -19.2513    0.0000 C   0  0  0  0  0  0  0  0  0  0  0  0
    3.3587  -19.0483    0.0000 C   0  0  0  0  0  0  0  0  0  0  0  0
    4.8247  -18.7308    0.0000 C   0  0  0  0  0  0  0  0  0  0  0  0
    6.2617  -18.3006    0.0000 C   0  0  0  0  0  0  0  0  0  0  0  0
    7.6610  -17.7603    0.0000 C   0  0  0  0  0  0  0  0  0  0  0  0
    9.0143  -17.1132    0.0000 C   0  0  0  0  0  0  0  0  0  0  0  0
   10.3133  -16.3632    0.0000 C   0  0  0  0  0  0  0  0  0  0  0  0
   11.5503  -15.5148    0.0000 C   0  0  0  0  0  0  0  0  0  0  0  0
   12.7179  -14.5731    0.0000 C   0  0  0  0  0  0  0  0  0  0  0  0
   13.8090  -13.5437    0.0000 C   0  0  0  0  0  0  0  0  0  0  0  0
   14.8170  -12.4329    0.0000 C   0  0  0  0  0  0  0  0  0  0  0  0
   15.7359  -11.2473    0.0000 C   0  0  0  0  0  0  0  0  0  0  0  0
   16.5601   -9.9941    0.0000 C   0  0  0  0  0  0  0  0  0  0  0  0
   17.2848   -8.6808    0.0000 C   0  0  0  0  0  0  0  0  0  0  0  0
   17.9055   -7.3152    0.0000 C   0  0  0  0  0  0  0  0  0  0  0  0
   18.4185   -5.9057    0.0000 C   0  0  0  0  0  0  0  0  0  0  0  0
   18.8208   -4.4606    0.0000 C   0  0  0  0  0  0  0  0  0  0  0  0
   20.2804   -4.8065    0.0000 C   0  0  0  0  0  0  0  0  0  0  0  0
   19.1099   -2.9887    0.0000 C   0  0  0  0  0  0  0  0  0  0  0  0
   19.2840   -1.4989    0.0000 C   0  0  0  0  0  0  0  0  0  0  0  0
  1  2  1  0
  2  3  1  0
  3  4  1  0
  4  5  1  0
  5  6  1  0
  6  7  1  0
  7  8  1  0
  8  9  1  0
  9 10  1  0
 10 11  1  0
 11 12  1  0
 12 13  1  0
 13 14  1  0
 14 15  1  0
 15 16  1  0
 16 17  1  0
 17 18  1  0
 18 19  1  0
 19 20  1  0
 20 21  1  0
 21 22  1  0
 22 23  1  0
 23 24  1  0
 24 25  1  0
 25 26  1  0
 26 27  1  0
 27 28  1  0
 28 29  1  0
 29 30  1  0
 30 31  1  0
 31 32  1  0
 32 33  1  0
 33 34  1  0
 34 35  1  0
 35 36  1  0
 36 37  1  0
 37 38  1  0
 38 39  1  0
 39 40  1  0
 40 41  1  0
 41 42  1  0
 42 43  1  0
 43 44  1  0
 44 45  1  0
 45 46  1  0
 46 47  1  0
 47 48  1  0
 48 49  1  0
 49 50  1  0
 50 51  1  0
 51 52  1  0
 52 53  1  0
 53 54  1  0
 54 55  1  0
 55 56  1  0
 56 57  1  0
 57 58  1  0
 58 59  1  0
 59 60  1  0
 60 61  1  0
 61 62  1  0
 62 63  1  0
 63 64  1  0
 64 65  1  0
 65 66  1  0
 66 67  1  0
 67 68  1  0
 68 69  1  0
 69 70  1  0
 70 71  1  0
 71 72  1  0
 72 73  1  0
 73 74  1  0
 74 75  1  0
 75 76  1  0
 76 77  1  0
 77 78  1  0
 78 79  1  0
 79 80  1  0
 80 81  1  0
 80 82  1  0
 82 83  1  0
 83  2  1  0
M  END
>  <Title>  (822) 
idABDRgen9

$$$$

     RDKit          2D

 62 71  0  0  0  0  0  0  0  0999 V2000
    6.2168   -5.0497    0.0000 C   0  0  0  0  0  0  0  0  0  0  0  0
    4.7353   -5.2844    0.0000 C   0  0  0  0  0  0  0  0  0  0  0  0
    4.2718   -3.8578    0.0000 C   0  0  0  0  0  0  0  0  0  0  0  0
    3.3901   -2.6442    0.0000 C   0  0  0  0  0  0  0  0  0  0  0  0
    2.1766   -1.7626    0.0000 C   0  0  0  0  0  0  0  0  0  0  0  0
    2.8576   -0.4261    0.0000 C   0  0  0  0  0  0  0  0  0  0  0  0
    4.3555   -0.3475    0.0000 C   0  0  0  0  0  0  0  0  0  0  0  0
    2.0406    0.8320    0.0000 N   0  0  0  0  0  0  0  0  0  0  0  0
    2.7216    2.1685    0.0000 C   0  0  0  0  0  0  0  0  0  0  0  0
    4.2195    2.2470    0.0000 N   0  0  0  0  0  0  0  0  0  0  0  0
    4.9005    3.5835    0.0000 N   0  0  0  0  0  0  0  0  0  0  0  0
    4.0836    4.8415    0.0000 N   0  0  0  0  0  0  0  0  0  0  0  0
    2.5856    4.7630    0.0000 N   0  0  0  0  0  0  0  0  0  0  0  0
    1.9046    3.4265    0.0000 N   0  0  0  0  0  0  0  0  0  0  0  0
    0.7500   -1.2990    0.0000 C   0  0  0  0  0  0  0  0  0  0  0  0
    1.5000    0.0000    0.0000 C   0  0  0  0  0  0  0  0  0  0  0  0
    0.7500    1.2990    0.0000 C   0  0  0  0  0  0  0  0  0  0  0  0
   -0.7500    1.2990    0.0000 C   0  0  0  0  0  0  0  0  0  0  0  0
   -1.5000    0.0000    0.0000 C   0  0  0  0  0  0  0  0  0  0  0  0
   -0.7500   -1.2990    0.0000 C   0  0  0  0  0  0  0  0  0  0  0  0
   -2.1766   -1.7626    0.0000 C   0  0  0  0  0  0  0  0  0  0  0  0
   -2.3334   -0.2708    0.0000 C   0  0  0  0  0  0  0  0  0  0  0  0
   -3.7037    0.3393    0.0000 C   0  0  0  0  0  0  0  0  0  0  0  0
   -4.9172   -0.5424    0.0000 C   0  0  0  0  0  0  0  0  0  0  0  0
   -4.7604   -2.0341    0.0000 C   0  0  0  0  0  0  0  0  0  0  0  0
   -3.3901   -2.6442    0.0000 C   0  0  0  0  0  0  0  0  0  0  0  0
   -4.2718   -3.8578    0.0000 C   0  0  0  0  0  0  0  0  0  0  0  0
   -5.2755   -2.7430    0.0000 C   0  0  0  0  0  0  0  0  0  0  0  0
   -6.7427   -3.0549    0.0000 C   0  0  0  0  0  0  0  0  0  0  0  0
   -7.2062   -4.4815    0.0000 C   0  0  0  0  0  0  0  0  0  0  0  0
   -6.2025   -5.5962    0.0000 C   0  0  0  0  0  0  0  0  0  0  0  0
   -4.7353   -5.2844    0.0000 C   0  0  0  0  0  0  0  0  0  0  0  0
   -4.7353   -6.7844    0.0000 C   0  0  0  0  0  0  0  0  0  0  0  0
   -6.2025   -6.4725    0.0000 C   0  0  0  0  0  0  0  0  0  0  0  0
   -7.2062   -7.5872    0.0000 C   0  0  0  0  0  0  0  0  0  0  0  0
   -6.7427   -9.0138    0.0000 C   0  0  0  0  0  0  0  0  0  0  0  0
   -5.2755   -9.3257    0.0000 C   0  0  0  0  0  0  0  0  0  0  0  0
   -4.2718   -8.2109    0.0000 C   0  0  0  0  0  0  0  0  0  0  0  0
   -3.3901   -9.4245    0.0000 C   0  0  0  0  0  0  0  0  0  0  0  0
   -4.7604  -10.0346    0.0000 C   0  0  0  0  0  0  0  0  0  0  0  0
   -4.9172  -11.5263    0.0000 C   0  0  0  0  0  0  0  0  0  0  0  0
   -3.7037  -12.4080    0.0000 C   0  0  0  0  0  0  0  0  0  0  0  0
   -2.3334  -11.7979    0.0000 C   0  0  0  0  0  0  0  0  0  0  0  0
   -2.1766  -10.3061    0.0000 C   0  0  0  0  0  0  0  0  0  0  0  0
   -0.7500  -10.7697    0.0000 C   0  0  0  0  0  0  0  0  0  0  0  0
   -1.5000  -12.0687    0.0000 C   0  0  0  0  0  0  0  0  0  0  0  0
   -0.7500  -13.3677    0.0000 C   0  0  0  0  0  0  0  0  0  0  0  0
    0.7500  -13.3677    0.0000 C   0  0  0  0  0  0  0  0  0  0  0  0
    1.5000  -12.0687    0.0000 C   0  0  0  0  0  0  0  0  0  0  0  0
    0.7500  -10.7697    0.0000 C   0  0  0  0  0  0  0  0  0  0  0  0
    2.1766  -10.3061    0.0000 C   0  0  0  0  0  0  0  0  0  0  0  0
    2.3334  -11.7979    0.0000 C   0  0  0  0  0  0  0  0  0  0  0  0
    3.7037  -12.4080    0.0000 C   0  0  0  0  0  0  0  0  0  0  0  0
    4.9172  -11.5263    0.0000 C   0  0  0  0  0  0  0  0  0  0  0  0
    4.7604  -10.0346    0.0000 C   0  0  0  0  0  0  0  0  0  0  0  0
    3.3901   -9.4245    0.0000 C   0  0  0  0  0  0  0  0  0  0  0  0
    4.2718   -8.2109    0.0000 C   0  0  0  0  0  0  0  0  0  0  0  0
    5.2755   -9.3257    0.0000 C   0  0  0  0  0  0  0  0  0  0  0  0
    6.7427   -9.0138    0.0000 C   0  0  0  0  0  0  0  0  0  0  0  0
    7.2062   -7.5872    0.0000 C   0  0  0  0  0  0  0  0  0  0  0  0
    6.2025   -6.4725    0.0000 C   0  0  0  0  0  0  0  0  0  0  0  0
    4.7353   -6.7844    0.0000 C   0  0  0  0  0  0  0  0  0  0  0  0
  1  2  1  0
  2  3  2  0
  3  4  1  0
  4  5  2  0
  5  6  1  0
  6  7  1  0
  6  8  1  0
  8  9  1  0
  9 10  2  0
 10 11  1  0
 11 12  2  0
 12 13  1  0
 13 14  2  0
  5 15  1  0
 15 16  2  0
 16 17  1  0
 17 18  2  0
 18 19  1  0
 19 20  2  0
 20 21  1  0
 21 22  2  0
 22 23  1  0
 23 24  2  0
 24 25  1  0
 25 26  2  0
 26 27  1  0
 27 28  2  0
 28 29  1  0
 29 30  2  0
 30 31  1  0
 31 32  2  0
 32 33  1  0
 33 34  2  0
 34 35  1  0
 35 36  2  0
 36 37  1  0
 37 38  2  0
 38 39  1  0
 39 40  2  0
 40 41  1  0
 41 42  2  0
 42 43  1  0
 43 44  2  0
 44 45  1  0
 45 46  2  0
 46 47  1  0
 47 48  2  0
 48 49  1  0
 49 50  2  0
 50 51  1  0
 51 52  2  0
 52 53  1  0
 53 54  2  0
 54 55  1  0
 55 56  2  0
 56 57  1  0
 57 58  2  0
 58 59  1  0
 59 60  2  0
 60 61  1  0
 61 62  2  0
 62  2  1  0
 14  9  1  0
 20 15  1  0
 26 21  1  0
 32 27  1  0
 38 33  1  0
 44 39  1  0
 50 45  1  0
 56 51  1  0
 62 57  1  0
M  END
>  <Title>  (823) 
idABDSgen9

$$$$

     RDKit          2D

 90 93  0  0  0  0  0  0  0  0999 V2000
   -4.4607    8.0335    0.0000 C   0  0  0  0  0  0  0  0  0  0  0  0
   -3.0660    8.5855    0.0000 C   0  0  0  0  0  0  0  0  0  0  0  0
   -3.5566   10.0030    0.0000 C   0  0  0  0  0  0  0  0  0  0  0  0
   -3.9218   11.4578    0.0000 C   0  0  0  0  0  0  0  0  0  0  0  0
   -4.1588   12.9390    0.0000 C   0  0  0  0  0  0  0  0  0  0  0  0
   -4.2658   14.4352    0.0000 C   0  0  0  0  0  0  0  0  0  0  0  0
   -4.2420   15.9350    0.0000 C   0  0  0  0  0  0  0  0  0  0  0  0
   -4.0876   17.4270    0.0000 C   0  0  0  0  0  0  0  0  0  0  0  0
   -3.8037   18.8999    0.0000 C   0  0  0  0  0  0  0  0  0  0  0  0
   -3.3925   20.3424    0.0000 C   0  0  0  0  0  0  0  0  0  0  0  0
   -2.8572   21.7437    0.0000 C   0  0  0  0  0  0  0  0  0  0  0  0
   -2.2018   23.0929    0.0000 C   0  0  0  0  0  0  0  0  0  0  0  0
   -1.4313   24.3799    0.0000 C   0  0  0  0  0  0  0  0  0  0  0  0
   -0.5515   25.5948    0.0000 C   0  0  0  0  0  0  0  0  0  0  0  0
    0.4308   26.7284    0.0000 C   0  0  0  0  0  0  0  0  0  0  0  0
    1.5081   27.7721    0.0000 C   0  0  0  0  0  0  0  0  0  0  0  0
    2.6724   28.7179    0.0000 C   0  0  0  0  0  0  0  0  0  0  0  0
    3.9146   29.5587    0.0000 C   0  0  0  0  0  0  0  0  0  0  0  0
    5.2254   30.2880    0.0000 C   0  0  0  0  0  0  0  0  0  0  0  0
    6.5947   30.9003    0.0000 C   0  0  0  0  0  0  0  0  0  0  0  0
    8.0122   31.3909    0.0000 C   0  0  0  0  0  0  0  0  0  0  0  0
    9.4671   31.7561    0.0000 C   0  0  0  0  0  0  0  0  0  0  0  0
   10.9482   31.9931    0.0000 C   0  0  0  0  0  0  0  0  0  0  0  0
   12.4444   32.1001    0.0000 C   0  0  0  0  0  0  0  0  0  0  0  0
   13.9442   32.0763    0.0000 C   0  0  0  0  0  0  0  0  0  0  0  0
   15.4362   31.9219    0.0000 C   0  0  0  0  0  0  0  0  0  0  0  0
   16.9091   31.6380    0.0000 C   0  0  0  0  0  0  0  0  0  0  0  0
   18.3517   31.2268    0.0000 C   0  0  0  0  0  0  0  0  0  0  0  0
   19.7529   30.6915    0.0000 C   0  0  0  0  0  0  0  0  0  0  0  0
   21.1021   30.0361    0.0000 C   0  0  0  0  0  0  0  0  0  0  0  0
   22.3891   29.2655    0.0000 C   0  0  0  0  0  0  0  0  0  0  0  0
   23.6040   28.3858    0.0000 C   0  0  0  0  0  0  0  0  0  0  0  0
   24.7377   27.4035    0.0000 C   0  0  0  0  0  0  0  0  0  0  0  0
   25.7814   26.3262    0.0000 C   0  0  0  0  0  0  0  0  0  0  0  0
   26.7272   25.1619    0.0000 C   0  0  0  0  0  0  0  0  0  0  0  0
   27.5680   23.9197    0.0000 C   0  0  0  0  0  0  0  0  0  0  0  0
   28.2972   22.6089    0.0000 C   0  0  0  0  0  0  0  0  0  0  0  0
   28.9095   21.2396    0.0000 C   0  0  0  0  0  0  0  0  0  0  0  0
   29.4001   19.8221    0.0000 C   0  0  0  0  0  0  0  0  0  0  0  0
   29.7653   18.3672    0.0000 C   0  0  0  0  0  0  0  0  0  0  0  0
   30.0023   16.8861    0.0000 C   0  0  0  0  0  0  0  0  0  0  0  0
   30.1093   15.3899    0.0000 C   0  0  0  0  0  0  0  0  0  0  0  0
   30.0855   13.8901    0.0000 C   0  0  0  0  0  0  0  0  0  0  0  0
   29.9311   12.3980    0.0000 C   0  0  0  0  0  0  0  0  0  0  0  0
   29.6472   10.9251    0.0000 C   0  0  0  0  0  0  0  0  0  0  0  0
   29.2361    9.4826    0.0000 C   0  0  0  0  0  0  0  0  0  0  0  0
   28.7007    8.0814    0.0000 C   0  0  0  0  0  0  0  0  0  0  0  0
   28.0453    6.7321    0.0000 C   0  0  0  0  0  0  0  0  0  0  0  0
   27.2748    5.4452    0.0000 C   0  0  0  0  0  0  0  0  0  0  0  0
   26.3950    4.2302    0.0000 C   0  0  0  0  0  0  0  0  0  0  0  0
   25.4128    3.0966    0.0000 C   0  0  0  0  0  0  0  0  0  0  0  0
   24.3354    2.0529    0.0000 C   0  0  0  0  0  0  0  0  0  0  0  0
   23.1712    1.1071    0.0000 C   0  0  0  0  0  0  0  0  0  0  0  0
   21.9290    0.2663    0.0000 C   0  0  0  0  0  0  0  0  0  0  0  0
   20.6182   -0.4630    0.0000 C   0  0  0  0  0  0  0  0  0  0  0  0
   19.2488   -1.0752    0.0000 C   0  0  0  0  0  0  0  0  0  0  0  0
   17.8313   -1.5658    0.0000 C   0  0  0  0  0  0  0  0  0  0  0  0
   16.3765   -1.9310    0.0000 C   0  0  0  0  0  0  0  0  0  0  0  0
   14.8953   -2.1680    0.0000 C   0  0  0  0  0  0  0  0  0  0  0  0
   13.3991   -2.2750    0.0000 C   0  0  0  0  0  0  0  0  0  0  0  0
   11.8993   -2.2512    0.0000 C   0  0  0  0  0  0  0  0  0  0  0  0
   10.4073   -2.0968    0.0000 C   0  0  0  0  0  0  0  0  0  0  0  0
    8.9344   -1.8129    0.0000 C   0  0  0  0  0  0  0  0  0  0  0  0
    7.4919   -1.4018    0.0000 C   0  0  0  0  0  0  0  0  0  0  0  0
    6.0906   -0.8664    0.0000 C   0  0  0  0  0  0  0  0  0  0  0  0
    4.7414   -0.2110    0.0000 C   0  0  0  0  0  0  0  0  0  0  0  0
    3.4544    0.5595    0.0000 C   0  0  0  0  0  0  0  0  0  0  0  0
    2.2395    1.4392    0.0000 C   0  0  0  0  0  0  0  0  0  0  0  0
    2.6621    0.0000    0.0000 C   0  0  0  0  0  0  0  0  0  0  0  0
    2.2395   -1.4392    0.0000 C   0  0  0  0  0  0  0  0  0  0  0  0
    1.1059   -2.4215    0.0000 C   0  0  0  0  0  0  0  0  0  0  0  0
   -0.3789   -2.6350    0.0000 C   0  0  0  0  0  0  0  0  0  0  0  0
   -1.7433   -2.0119    0.0000 C   0  0  0  0  0  0  0  0  0  0  0  0
   -2.5543   -0.7500    0.0000 C   0  0  0  0  0  0  0  0  0  0  0  0
   -2.5543    0.7500    0.0000 C   0  0  0  0  0  0  0  0  0  0  0  0
   -1.7433    2.0119    0.0000 C   0  0  0  0  0  0  0  0  0  0  0  0
   -0.3789    2.6350    0.0000 C   0  0  0  0  0  0  0  0  0  0  0  0
    1.1059    2.4215    0.0000 C   0  0  0  0  0  0  0  0  0  0  0  0
    0.0622    3.4989    0.0000 C   0  0  0  0  0  0  0  0  0  0  0  0
    1.5433    3.7359    0.0000 C   0  0  0  0  0  0  0  0  0  0  0  0
    2.0787    5.1371    0.0000 C   0  0  0  0  0  0  0  0  0  0  0  0
    1.1328    6.3013    0.0000 C   0  0  0  0  0  0  0  0  0  0  0  0
   -0.3483    6.0643    0.0000 C   0  0  0  0  0  0  0  0  0  0  0  0
   -0.8837    4.6631    0.0000 C   0  0  0  0  0  0  0  0  0  0  0  0
   -1.7244    5.9053    0.0000 C   0  0  0  0  0  0  0  0  0  0  0  0
   -2.4949    4.6184    0.0000 C   0  0  0  0  0  0  0  0  0  0  0  0
   -3.9947    4.6422    0.0000 C   0  0  0  0  0  0  0  0  0  0  0  0
   -4.7240    5.9529    0.0000 C   0  0  0  0  0  0  0  0  0  0  0  0
   -3.9535    7.2399    0.0000 C   0  0  0  0  0  0  0  0  0  0  0  0
   -2.4537    7.2161    0.0000 C   0  0  0  0  0  0  0  0  0  0  0  0
  1  2  1  0
  2  3  1  0
  3  4  1  0
  4  5  1  0
  5  6  1  0
  6  7  1  0
  7  8  1  0
  8  9  1  0
  9 10  1  0
 10 11  1  0
 11 12  1  0
 12 13  1  0
 13 14  1  0
 14 15  1  0
 15 16  1  0
 16 17  1  0
 17 18  1  0
 18 19  1  0
 19 20  1  0
 20 21  1  0
 21 22  1  0
 22 23  1  0
 23 24  1  0
 24 25  1  0
 25 26  1  0
 26 27  1  0
 27 28  1  0
 28 29  1  0
 29 30  1  0
 30 31  1  0
 31 32  1  0
 32 33  1  0
 33 34  1  0
 34 35  1  0
 35 36  1  0
 36 37  1  0
 37 38  1  0
 38 39  1  0
 39 40  1  0
 40 41  1  0
 41 42  1  0
 42 43  1  0
 43 44  1  0
 44 45  1  0
 45 46  1  0
 46 47  1  0
 47 48  1  0
 48 49  1  0
 49 50  1  0
 50 51  1  0
 51 52  1  0
 52 53  1  0
 53 54  1  0
 54 55  1  0
 55 56  1  0
 56 57  1  0
 57 58  1  0
 58 59  1  0
 59 60  1  0
 60 61  1  0
 61 62  1  0
 62 63  1  0
 63 64  1  0
 64 65  1  0
 65 66  1  0
 66 67  1  0
 67 68  1  0
 68 69  1  0
 69 70  2  0
 70 71  1  0
 71 72  2  0
 72 73  1  0
 73 74  2  0
 74 75  1  0
 75 76  2  0
 76 77  1  0
 77 78  2  0
 78 79  1  0
 79 80  2  0
 80 81  1  0
 81 82  2  0
 82 83  1  0
 83 84  2  0
 84 85  1  0
 85 86  2  0
 86 87  1  0
 87 88  2  0
 88 89  1  0
 89 90  2  0
 90  2  1  0
 78 68  1  0
 84 79  1  0
 90 85  1  0
M  END
>  <Title>  (824) 
idABDTgen9

$$$$

     RDKit          2D

 28 31  0  0  0  0  0  0  0  0999 V2000
    9.6478    0.2453    0.0000 C   0  0  0  0  0  0  0  0  0  0  0  0
    8.6441   -0.8694    0.0000 C   0  0  0  0  0  0  0  0  0  0  0  0
    7.1523   -0.7126    0.0000 C   0  0  0  0  0  0  0  0  0  0  0  0
    6.5422   -2.0829    0.0000 C   0  0  0  0  0  0  0  0  0  0  0  0
    7.6569   -3.0866    0.0000 C   0  0  0  0  0  0  0  0  0  0  0  0
    7.5001   -4.5784    0.0000 C   0  0  0  0  0  0  0  0  0  0  0  0
    8.7136   -5.4601    0.0000 O   0  0  0  0  0  0  0  0  0  0  0  0
    6.1298   -5.1885    0.0000 N   0  0  0  0  0  0  0  0  0  0  0  0
    5.9730   -6.6803    0.0000 C   0  0  0  0  0  0  0  0  0  0  0  0
    7.0877   -7.6840    0.0000 N   0  0  0  0  0  0  0  0  0  0  0  0
    6.4776   -9.0543    0.0000 N   0  0  0  0  0  0  0  0  0  0  0  0
    4.9858   -8.8975    0.0000 N   0  0  0  0  0  0  0  0  0  0  0  0
    4.6740   -7.4303    0.0000 N   0  0  0  0  0  0  0  0  0  0  0  0
    3.3037   -6.8202    0.0000 N   0  0  0  0  0  0  0  0  0  0  0  0
    2.0046   -7.5702    0.0000 C   0  0  0  0  0  0  0  0  0  0  0  0
    0.8899   -6.5665    0.0000 C   0  0  0  0  0  0  0  0  0  0  0  0
    1.5000   -5.1962    0.0000 C   0  0  0  0  0  0  0  0  0  0  0  0
    0.7500   -3.8971    0.0000 C   0  0  0  0  0  0  0  0  0  0  0  0
   -0.7500   -3.8971    0.0000 O   0  0  0  0  0  0  0  0  0  0  0  0
    1.5000   -2.5981    0.0000 N   0  0  0  0  0  0  0  0  0  0  0  0
    0.7500   -1.2990    0.0000 C   0  0  0  0  0  0  0  0  0  0  0  0
    1.5000    0.0000    0.0000 N   0  0  0  0  0  0  0  0  0  0  0  0
    0.7500    1.2990    0.0000 N   0  0  0  0  0  0  0  0  0  0  0  0
   -0.7500    1.2990    0.0000 N   0  0  0  0  0  0  0  0  0  0  0  0
   -1.5000    0.0000    0.0000 N   0  0  0  0  0  0  0  0  0  0  0  0
   -0.7500   -1.2990    0.0000 N   0  0  0  0  0  0  0  0  0  0  0  0
    2.9918   -5.3529    0.0000 C   0  0  0  0  0  0  0  0  0  0  0  0
    8.9559   -2.3366    0.0000 C   0  0  0  0  0  0  0  0  0  0  0  0
  1  2  1  0
  2  3  2  0
  3  4  1  0
  4  5  2  0
  5  6  1  0
  6  7  2  0
  6  8  1  0
  8  9  1  0
  9 10  2  0
 10 11  1  0
 11 12  2  0
 12 13  1  0
 13 14  1  0
 14 15  1  0
 15 16  1  0
 16 17  1  0
 17 18  1  0
 18 19  2  0
 18 20  1  0
 20 21  1  0
 21 22  2  0
 22 23  1  0
 23 24  2  0
 24 25  1  0
 25 26  2  0
 17 27  1  0
  5 28  1  0
 28  2  1  0
 13  9  1  0
 27 14  1  0
 26 21  1  0
M  END
>  <Title>  (825) 
idABDUgen9

$$$$

     RDKit          2D

 55 63  0  0  0  0  0  0  0  0999 V2000
    5.2417   -6.1122    0.0000 C   0  0  0  0  0  0  0  0  0  0  0  0
    3.7705   -5.8195    0.0000 C   0  0  0  0  0  0  0  0  0  0  0  0
    3.7705   -4.3195    0.0000 C   0  0  0  0  0  0  0  0  0  0  0  0
    3.1965   -2.9337    0.0000 C   0  0  0  0  0  0  0  0  0  0  0  0
    2.1358   -1.8731    0.0000 C   0  0  0  0  0  0  0  0  0  0  0  0
    2.9692   -0.6259    0.0000 C   0  0  0  0  0  0  0  0  0  0  0  0
    2.3057    0.7195    0.0000 O   0  0  0  0  0  0  0  0  0  0  0  0
    4.4660   -0.7240    0.0000 N   0  0  0  0  0  0  0  0  0  0  0  0
    5.2993    0.5232    0.0000 C   0  0  0  0  0  0  0  0  0  0  0  0
    4.7801    1.9305    0.0000 N   0  0  0  0  0  0  0  0  0  0  0  0
    5.9581    2.8592    0.0000 N   0  0  0  0  0  0  0  0  0  0  0  0
    7.2053    2.0258    0.0000 N   0  0  0  0  0  0  0  0  0  0  0  0
    6.7982    0.5821    0.0000 N   0  0  0  0  0  0  0  0  0  0  0  0
    7.7268   -0.5958    0.0000 C   0  0  0  0  0  0  0  0  0  0  0  0
    7.1710   -1.9891    0.0000 C   0  0  0  0  0  0  0  0  0  0  0  0
    8.0996   -3.1670    0.0000 C   0  0  0  0  0  0  0  0  0  0  0  0
    9.5841   -2.9518    0.0000 C   0  0  0  0  0  0  0  0  0  0  0  0
   10.1399   -1.5586    0.0000 C   0  0  0  0  0  0  0  0  0  0  0  0
    9.2113   -0.3806    0.0000 C   0  0  0  0  0  0  0  0  0  0  0  0
    0.7500   -1.2990    0.0000 C   0  0  0  0  0  0  0  0  0  0  0  0
    1.5000    0.0000    0.0000 C   0  0  0  0  0  0  0  0  0  0  0  0
    0.7500    1.2990    0.0000 C   0  0  0  0  0  0  0  0  0  0  0  0
   -0.7500    1.2990    0.0000 C   0  0  0  0  0  0  0  0  0  0  0  0
   -1.5000    0.0000    0.0000 C   0  0  0  0  0  0  0  0  0  0  0  0
   -0.7500   -1.2990    0.0000 C   0  0  0  0  0  0  0  0  0  0  0  0
   -2.1358   -1.8731    0.0000 C   0  0  0  0  0  0  0  0  0  0  0  0
   -2.5240   -0.4242    0.0000 C   0  0  0  0  0  0  0  0  0  0  0  0
   -3.9729   -0.0359    0.0000 C   0  0  0  0  0  0  0  0  0  0  0  0
   -5.0336   -1.0966    0.0000 C   0  0  0  0  0  0  0  0  0  0  0  0
   -4.6454   -2.5455    0.0000 C   0  0  0  0  0  0  0  0  0  0  0  0
   -3.1965   -2.9337    0.0000 C   0  0  0  0  0  0  0  0  0  0  0  0
   -3.7705   -4.3195    0.0000 C   0  0  0  0  0  0  0  0  0  0  0  0
   -5.0695   -3.5695    0.0000 C   0  0  0  0  0  0  0  0  0  0  0  0
   -6.3686   -4.3195    0.0000 C   0  0  0  0  0  0  0  0  0  0  0  0
   -6.3686   -5.8195    0.0000 C   0  0  0  0  0  0  0  0  0  0  0  0
   -5.0695   -6.5695    0.0000 C   0  0  0  0  0  0  0  0  0  0  0  0
   -3.7705   -5.8195    0.0000 C   0  0  0  0  0  0  0  0  0  0  0  0
   -3.1965   -7.2054    0.0000 C   0  0  0  0  0  0  0  0  0  0  0  0
   -4.6454   -7.5936    0.0000 C   0  0  0  0  0  0  0  0  0  0  0  0
   -5.0336   -9.0425    0.0000 C   0  0  0  0  0  0  0  0  0  0  0  0
   -3.9729  -10.1031    0.0000 C   0  0  0  0  0  0  0  0  0  0  0  0
   -2.5240   -9.7149    0.0000 C   0  0  0  0  0  0  0  0  0  0  0  0
   -2.1358   -8.2660    0.0000 C   0  0  0  0  0  0  0  0  0  0  0  0
   -0.7500   -8.8400    0.0000 C   0  0  0  0  0  0  0  0  0  0  0  0
   -1.5000  -10.1391    0.0000 C   0  0  0  0  0  0  0  0  0  0  0  0
   -0.7500  -11.4381    0.0000 C   0  0  0  0  0  0  0  0  0  0  0  0
    0.7500  -11.4381    0.0000 C   0  0  0  0  0  0  0  0  0  0  0  0
    1.5000  -10.1391    0.0000 C   0  0  0  0  0  0  0  0  0  0  0  0
    0.7500   -8.8400    0.0000 C   0  0  0  0  0  0  0  0  0  0  0  0
    2.1358   -8.2660    0.0000 C   0  0  0  0  0  0  0  0  0  0  0  0
    2.5240   -9.7149    0.0000 C   0  0  0  0  0  0  0  0  0  0  0  0
    3.9729  -10.1031    0.0000 C   0  0  0  0  0  0  0  0  0  0  0  0
    5.0336   -9.0425    0.0000 C   0  0  0  0  0  0  0  0  0  0  0  0
    4.6454   -7.5936    0.0000 C   0  0  0  0  0  0  0  0  0  0  0  0
    3.1965   -7.2054    0.0000 C   0  0  0  0  0  0  0  0  0  0  0  0
  1  2  1  0
  2  3  2  0
  3  4  1  0
  4  5  2  0
  5  6  1  0
  6  7  2  0
  6  8  1  0
  8  9  1  0
  9 10  2  0
 10 11  1  0
 11 12  2  0
 12 13  1  0
 13 14  1  0
 14 15  2  0
 15 16  1  0
 16 17  2  0
 17 18  1  0
 18 19  2  0
  5 20  1  0
 20 21  2  0
 21 22  1  0
 22 23  2  0
 23 24  1  0
 24 25  2  0
 25 26  1  0
 26 27  2  0
 27 28  1  0
 28 29  2  0
 29 30  1  0
 30 31  2  0
 31 32  1  0
 32 33  2  0
 33 34  1  0
 34 35  2  0
 35 36  1  0
 36 37  2  0
 37 38  1  0
 38 39  2  0
 39 40  1  0
 40 41  2  0
 41 42  1  0
 42 43  2  0
 43 44  1  0
 44 45  2  0
 45 46  1  0
 46 47  2  0
 47 48  1  0
 48 49  2  0
 49 50  1  0
 50 51  2  0
 51 52  1  0
 52 53  2  0
 53 54  1  0
 54 55  2  0
 55  2  1  0
 13  9  1  0
 19 14  1  0
 25 20  1  0
 31 26  1  0
 37 32  1  0
 43 38  1  0
 49 44  1  0
 55 50  1  0
M  END
>  <Title>  (826) 
idABDVgen9

$$$$

     RDKit          2D

 47 53  0  0  0  0  0  0  0  0999 V2000
    2.1535   -8.4451    0.0000 C   0  0  0  0  0  0  0  0  0  0  0  0
    1.4564   -7.1169    0.0000 C   0  0  0  0  0  0  0  0  0  0  0  0
    2.5792   -6.1222    0.0000 C   0  0  0  0  0  0  0  0  0  0  0  0
    3.1111   -4.7197    0.0000 C   0  0  0  0  0  0  0  0  0  0  0  0
    2.9303   -3.2306    0.0000 C   0  0  0  0  0  0  0  0  0  0  0  0
    2.0782   -1.9961    0.0000 C   0  0  0  0  0  0  0  0  0  0  0  0
    3.0729   -0.8734    0.0000 C   0  0  0  0  0  0  0  0  0  0  0  0
    2.5979    0.5494    0.0000 O   0  0  0  0  0  0  0  0  0  0  0  0
    4.5426   -1.1734    0.0000 N   0  0  0  0  0  0  0  0  0  0  0  0
    5.5372   -0.0506    0.0000 C   0  0  0  0  0  0  0  0  0  0  0  0
    5.2136    1.4140    0.0000 N   0  0  0  0  0  0  0  0  0  0  0  0
    6.5065    2.1745    0.0000 N   0  0  0  0  0  0  0  0  0  0  0  0
    7.6293    1.1798    0.0000 N   0  0  0  0  0  0  0  0  0  0  0  0
    7.0302   -0.1954    0.0000 N   0  0  0  0  0  0  0  0  0  0  0  0
    7.7907   -1.4884    0.0000 N   0  0  0  0  0  0  0  0  0  0  0  0
    7.0512   -2.7934    0.0000 C   0  0  0  0  0  0  0  0  0  0  0  0
    7.8116   -4.0863    0.0000 C   0  0  0  0  0  0  0  0  0  0  0  0
    9.3116   -4.0743    0.0000 C   0  0  0  0  0  0  0  0  0  0  0  0
   10.0720   -5.3672    0.0000 C   0  0  0  0  0  0  0  0  0  0  0  0
   11.5719   -5.3551    0.0000 O   0  0  0  0  0  0  0  0  0  0  0  0
    9.3325   -6.6723    0.0000 O   0  0  0  0  0  0  0  0  0  0  0  0
   10.0511   -2.7692    0.0000 C   0  0  0  0  0  0  0  0  0  0  0  0
    9.2906   -1.4763    0.0000 C   0  0  0  0  0  0  0  0  0  0  0  0
    0.7500   -1.2990    0.0000 C   0  0  0  0  0  0  0  0  0  0  0  0
    1.5000    0.0000    0.0000 C   0  0  0  0  0  0  0  0  0  0  0  0
    0.7500    1.2990    0.0000 C   0  0  0  0  0  0  0  0  0  0  0  0
   -0.7500    1.2990    0.0000 C   0  0  0  0  0  0  0  0  0  0  0  0
   -1.5000    0.0000    0.0000 C   0  0  0  0  0  0  0  0  0  0  0  0
   -0.7500   -1.2990    0.0000 C   0  0  0  0  0  0  0  0  0  0  0  0
   -2.0782   -1.9961    0.0000 C   0  0  0  0  0  0  0  0  0  0  0  0
   -2.7212   -0.6409    0.0000 C   0  0  0  0  0  0  0  0  0  0  0  0
   -4.2164   -0.5202    0.0000 C   0  0  0  0  0  0  0  0  0  0  0  0
   -5.0685   -1.7547    0.0000 C   0  0  0  0  0  0  0  0  0  0  0  0
   -4.4254   -3.1099    0.0000 C   0  0  0  0  0  0  0  0  0  0  0  0
   -2.9303   -3.2306    0.0000 C   0  0  0  0  0  0  0  0  0  0  0  0
   -3.1111   -4.7197    0.0000 C   0  0  0  0  0  0  0  0  0  0  0  0
   -4.5917   -4.4790    0.0000 C   0  0  0  0  0  0  0  0  0  0  0  0
   -5.5403   -5.6410    0.0000 C   0  0  0  0  0  0  0  0  0  0  0  0
   -5.0084   -7.0435    0.0000 C   0  0  0  0  0  0  0  0  0  0  0  0
   -3.5278   -7.2841    0.0000 C   0  0  0  0  0  0  0  0  0  0  0  0
   -2.5792   -6.1222    0.0000 C   0  0  0  0  0  0  0  0  0  0  0  0
   -1.4564   -7.1169    0.0000 C   0  0  0  0  0  0  0  0  0  0  0  0
   -2.4955   -8.1987    0.0000 C   0  0  0  0  0  0  0  0  0  0  0  0
   -2.0782   -9.6395    0.0000 C   0  0  0  0  0  0  0  0  0  0  0  0
   -0.6218   -9.9984    0.0000 C   0  0  0  0  0  0  0  0  0  0  0  0
    0.4173   -8.9166    0.0000 C   0  0  0  0  0  0  0  0  0  0  0  0
   -0.0000   -7.4758    0.0000 C   0  0  0  0  0  0  0  0  0  0  0  0
  1  2  1  0
  2  3  2  0
  3  4  1  0
  4  5  1  0
  5  6  1  0
  6  7  1  0
  7  8  2  0
  7  9  1  0
  9 10  1  0
 10 11  2  0
 11 12  1  0
 12 13  2  0
 13 14  1  0
 14 15  1  0
 15 16  1  0
 16 17  2  0
 17 18  1  0
 18 19  1  0
 19 20  2  0
 19 21  1  0
 18 22  1  0
 22 23  1  0
  6 24  1  0
 24 25  2  0
 25 26  1  0
 26 27  2  0
 27 28  1  0
 28 29  2  0
 29 30  1  0
 30 31  2  0
 31 32  1  0
 32 33  2  0
 33 34  1  0
 34 35  2  0
 35 36  1  0
 36 37  2  0
 37 38  1  0
 38 39  2  0
 39 40  1  0
 40 41  2  0
 41 42  1  0
 42 43  2  0
 43 44  1  0
 44 45  2  0
 45 46  1  0
 46 47  2  0
 47  2  1  0
 14 10  1  0
 23 15  1  0
 29 24  1  0
 35 30  1  0
 41 36  1  0
 47 42  1  0
M  END
>  <Title>  (827) 
idABDWgen9

$$$$

     RDKit          2D

 18 18  0  0  0  0  0  0  0  0999 V2000
   12.4362  -13.7888    0.0000 C   0  0  0  0  0  0  0  0  0  0  0  0
   11.4720  -12.6397    0.0000 C   0  0  0  0  0  0  0  0  0  0  0  0
   10.5078  -11.4907    0.0000 C   0  0  0  0  0  0  0  0  0  0  0  0
    9.5437  -10.3416    0.0000 C   0  0  0  0  0  0  0  0  0  0  0  0
    8.5795   -9.1925    0.0000 C   0  0  0  0  0  0  0  0  0  0  0  0
    7.6153   -8.0435    0.0000 C   0  0  0  0  0  0  0  0  0  0  0  0
    6.6511   -6.8944    0.0000 C   0  0  0  0  0  0  0  0  0  0  0  0
    5.6869   -5.7453    0.0000 C   0  0  0  0  0  0  0  0  0  0  0  0
    4.7228   -4.5963    0.0000 C   0  0  0  0  0  0  0  0  0  0  0  0
    3.7586   -3.4472    0.0000 C   0  0  0  0  0  0  0  0  0  0  0  0
    2.7944   -2.2981    0.0000 C   0  0  0  0  0  0  0  0  0  0  0  0
    1.8302   -1.1491    0.0000 C   0  0  0  0  0  0  0  0  0  0  0  0
    0.8660    0.0000    0.0000 C   0  0  0  0  0  0  0  0  0  0  0  0
    1.8302    1.1491    0.0000 C   0  0  0  0  0  0  0  0  0  0  0  0
   -0.4330    0.7500    0.0000 C   0  0  0  0  0  0  0  0  0  0  0  0
   -1.1830    2.0490    0.0000 O   0  0  0  0  0  0  0  0  0  0  0  0
   -0.4330   -0.7500    0.0000 C   0  0  0  0  0  0  0  0  0  0  0  0
   -1.1830   -2.0490    0.0000 O   0  0  0  0  0  0  0  0  0  0  0  0
  1  2  3  0
  2  3  1  0
  3  4  3  0
  4  5  1  0
  5  6  3  0
  6  7  1  0
  7  8  3  0
  8  9  1  0
  9 10  3  0
 10 11  1  0
 11 12  3  0
 12 13  1  0
 13 14  1  0
 13 15  1  0
 15 16  1  0
 15 17  1  0
 17 18  1  0
 17 13  1  0
M  END
>  <Title>  (828) 
idABDXgen9

$$$$

     RDKit          2D

 44 50  0  0  0  0  0  0  0  0999 V2000
    3.7955   -8.2450    0.0000 C   0  0  0  0  0  0  0  0  0  0  0  0
    2.6807   -7.2413    0.0000 C   0  0  0  0  0  0  0  0  0  0  0  0
    3.4307   -5.9422    0.0000 C   0  0  0  0  0  0  0  0  0  0  0  0
    3.5875   -4.4504    0.0000 C   0  0  0  0  0  0  0  0  0  0  0  0
    3.1240   -3.0239    0.0000 C   0  0  0  0  0  0  0  0  0  0  0  0
    2.1203   -1.9091    0.0000 C   0  0  0  0  0  0  0  0  0  0  0  0
    3.0020   -0.6956    0.0000 C   0  0  0  0  0  0  0  0  0  0  0  0
    2.3919    0.6747    0.0000 O   0  0  0  0  0  0  0  0  0  0  0  0
    4.4938   -0.8524    0.0000 N   0  0  0  0  0  0  0  0  0  0  0  0
    5.3755    0.3611    0.0000 C   0  0  0  0  0  0  0  0  0  0  0  0
    4.9119    1.7877    0.0000 N   0  0  0  0  0  0  0  0  0  0  0  0
    6.1255    2.6694    0.0000 N   0  0  0  0  0  0  0  0  0  0  0  0
    7.3390    1.7877    0.0000 N   0  0  0  0  0  0  0  0  0  0  0  0
    6.8755    0.3611    0.0000 N   0  0  0  0  0  0  0  0  0  0  0  0
    0.7500   -1.2990    0.0000 C   0  0  0  0  0  0  0  0  0  0  0  0
    1.5000    0.0000    0.0000 C   0  0  0  0  0  0  0  0  0  0  0  0
    0.7500    1.2990    0.0000 C   0  0  0  0  0  0  0  0  0  0  0  0
   -0.7500    1.2990    0.0000 C   0  0  0  0  0  0  0  0  0  0  0  0
   -1.5000    0.0000    0.0000 C   0  0  0  0  0  0  0  0  0  0  0  0
   -0.7500   -1.2990    0.0000 C   0  0  0  0  0  0  0  0  0  0  0  0
   -2.1203   -1.9091    0.0000 C   0  0  0  0  0  0  0  0  0  0  0  0
   -2.5838   -0.4826    0.0000 C   0  0  0  0  0  0  0  0  0  0  0  0
   -4.0511   -0.1707    0.0000 C   0  0  0  0  0  0  0  0  0  0  0  0
   -5.0548   -1.2854    0.0000 C   0  0  0  0  0  0  0  0  0  0  0  0
   -4.5912   -2.7120    0.0000 C   0  0  0  0  0  0  0  0  0  0  0  0
   -3.1240   -3.0239    0.0000 C   0  0  0  0  0  0  0  0  0  0  0  0
   -3.5875   -4.4504    0.0000 C   0  0  0  0  0  0  0  0  0  0  0  0
   -4.9579   -3.8403    0.0000 C   0  0  0  0  0  0  0  0  0  0  0  0
   -6.1714   -4.7220    0.0000 C   0  0  0  0  0  0  0  0  0  0  0  0
   -6.0146   -6.2138    0.0000 C   0  0  0  0  0  0  0  0  0  0  0  0
   -4.6443   -6.8239    0.0000 C   0  0  0  0  0  0  0  0  0  0  0  0
   -3.4307   -5.9422    0.0000 C   0  0  0  0  0  0  0  0  0  0  0  0
   -2.6807   -7.2413    0.0000 C   0  0  0  0  0  0  0  0  0  0  0  0
   -4.0511   -7.8514    0.0000 C   0  0  0  0  0  0  0  0  0  0  0  0
   -4.2079   -9.3432    0.0000 C   0  0  0  0  0  0  0  0  0  0  0  0
   -2.9943  -10.2248    0.0000 C   0  0  0  0  0  0  0  0  0  0  0  0
   -1.6240   -9.6147    0.0000 C   0  0  0  0  0  0  0  0  0  0  0  0
   -1.4672   -8.1229    0.0000 C   0  0  0  0  0  0  0  0  0  0  0  0
   -0.0000   -8.4348    0.0000 C   0  0  0  0  0  0  0  0  0  0  0  0
   -0.4635   -9.8614    0.0000 C   0  0  0  0  0  0  0  0  0  0  0  0
    0.5402  -10.9761    0.0000 C   0  0  0  0  0  0  0  0  0  0  0  0
    2.0074  -10.6642    0.0000 C   0  0  0  0  0  0  0  0  0  0  0  0
    2.4709   -9.2377    0.0000 C   0  0  0  0  0  0  0  0  0  0  0  0
    1.4672   -8.1229    0.0000 C   0  0  0  0  0  0  0  0  0  0  0  0
  1  2  1  0
  2  3  2  0
  3  4  1  0
  4  5  1  0
  5  6  1  0
  6  7  1  0
  7  8  2  0
  7  9  1  0
  9 10  1  0
 10 11  2  0
 11 12  1  0
 12 13  2  0
 13 14  1  0
  6 15  1  0
 15 16  2  0
 16 17  1  0
 17 18  2  0
 18 19  1  0
 19 20  2  0
 20 21  1  0
 21 22  2  0
 22 23  1  0
 23 24  2  0
 24 25  1  0
 25 26  2  0
 26 27  1  0
 27 28  2  0
 28 29  1  0
 29 30  2  0
 30 31  1  0
 31 32  2  0
 32 33  1  0
 33 34  2  0
 34 35  1  0
 35 36  2  0
 36 37  1  0
 37 38  2  0
 38 39  1  0
 39 40  2  0
 40 41  1  0
 41 42  2  0
 42 43  1  0
 43 44  2  0
 44  2  1  0
 14 10  1  0
 20 15  1  0
 26 21  1  0
 32 27  1  0
 38 33  1  0
 44 39  1  0
M  END
>  <Title>  (829) 
idABDYgen9

$$$$

     RDKit          2D

 67 77  0  0  0  0  0  0  0  0999 V2000
    6.2168   -5.0497    0.0000 C   0  0  0  0  0  0  0  0  0  0  0  0
    4.7353   -5.2844    0.0000 C   0  0  0  0  0  0  0  0  0  0  0  0
    4.2718   -3.8578    0.0000 C   0  0  0  0  0  0  0  0  0  0  0  0
    3.3901   -2.6442    0.0000 C   0  0  0  0  0  0  0  0  0  0  0  0
    2.1766   -1.7626    0.0000 C   0  0  0  0  0  0  0  0  0  0  0  0
    2.8576   -0.4261    0.0000 C   0  0  0  0  0  0  0  0  0  0  0  0
    2.0406    0.8320    0.0000 O   0  0  0  0  0  0  0  0  0  0  0  0
    4.3555   -0.3475    0.0000 N   0  0  0  0  0  0  0  0  0  0  0  0
    5.0365    0.9890    0.0000 C   0  0  0  0  0  0  0  0  0  0  0  0
    4.3555    2.3255    0.0000 N   0  0  0  0  0  0  0  0  0  0  0  0
    5.4162    3.3861    0.0000 N   0  0  0  0  0  0  0  0  0  0  0  0
    6.7527    2.7051    0.0000 N   0  0  0  0  0  0  0  0  0  0  0  0
    6.5180    1.2236    0.0000 N   0  0  0  0  0  0  0  0  0  0  0  0
    7.5787    0.1630    0.0000 C   0  0  0  0  0  0  0  0  0  0  0  0
    7.1905   -1.2859    0.0000 N   0  0  0  0  0  0  0  0  0  0  0  0
    8.2511   -2.3466    0.0000 N   0  0  0  0  0  0  0  0  0  0  0  0
    9.7000   -1.9584    0.0000 N   0  0  0  0  0  0  0  0  0  0  0  0
   10.0882   -0.5095    0.0000 N   0  0  0  0  0  0  0  0  0  0  0  0
    9.0276    0.5512    0.0000 N   0  0  0  0  0  0  0  0  0  0  0  0
    0.7500   -1.2990    0.0000 C   0  0  0  0  0  0  0  0  0  0  0  0
    1.5000    0.0000    0.0000 C   0  0  0  0  0  0  0  0  0  0  0  0
    0.7500    1.2990    0.0000 C   0  0  0  0  0  0  0  0  0  0  0  0
   -0.7500    1.2990    0.0000 C   0  0  0  0  0  0  0  0  0  0  0  0
   -1.5000    0.0000    0.0000 C   0  0  0  0  0  0  0  0  0  0  0  0
   -0.7500   -1.2990    0.0000 C   0  0  0  0  0  0  0  0  0  0  0  0
   -2.1766   -1.7626    0.0000 C   0  0  0  0  0  0  0  0  0  0  0  0
   -2.3334   -0.2708    0.0000 C   0  0  0  0  0  0  0  0  0  0  0  0
   -3.7037    0.3393    0.0000 C   0  0  0  0  0  0  0  0  0  0  0  0
   -4.9172   -0.5424    0.0000 C   0  0  0  0  0  0  0  0  0  0  0  0
   -4.7604   -2.0341    0.0000 C   0  0  0  0  0  0  0  0  0  0  0  0
   -3.3901   -2.6442    0.0000 C   0  0  0  0  0  0  0  0  0  0  0  0
   -4.2718   -3.8578    0.0000 C   0  0  0  0  0  0  0  0  0  0  0  0
   -5.2755   -2.7430    0.0000 C   0  0  0  0  0  0  0  0  0  0  0  0
   -6.7427   -3.0549    0.0000 C   0  0  0  0  0  0  0  0  0  0  0  0
   -7.2062   -4.4815    0.0000 C   0  0  0  0  0  0  0  0  0  0  0  0
   -6.2025   -5.5962    0.0000 C   0  0  0  0  0  0  0  0  0  0  0  0
   -4.7353   -5.2844    0.0000 C   0  0  0  0  0  0  0  0  0  0  0  0
   -4.7353   -6.7844    0.0000 C   0  0  0  0  0  0  0  0  0  0  0  0
   -6.2025   -6.4725    0.0000 C   0  0  0  0  0  0  0  0  0  0  0  0
   -7.2062   -7.5872    0.0000 C   0  0  0  0  0  0  0  0  0  0  0  0
   -6.7427   -9.0138    0.0000 C   0  0  0  0  0  0  0  0  0  0  0  0
   -5.2755   -9.3257    0.0000 C   0  0  0  0  0  0  0  0  0  0  0  0
   -4.2718   -8.2109    0.0000 C   0  0  0  0  0  0  0  0  0  0  0  0
   -3.3901   -9.4245    0.0000 C   0  0  0  0  0  0  0  0  0  0  0  0
   -4.7604  -10.0346    0.0000 C   0  0  0  0  0  0  0  0  0  0  0  0
   -4.9172  -11.5263    0.0000 C   0  0  0  0  0  0  0  0  0  0  0  0
   -3.7037  -12.4080    0.0000 C   0  0  0  0  0  0  0  0  0  0  0  0
   -2.3334  -11.7979    0.0000 C   0  0  0  0  0  0  0  0  0  0  0  0
   -2.1766  -10.3061    0.0000 C   0  0  0  0  0  0  0  0  0  0  0  0
   -0.7500  -10.7697    0.0000 C   0  0  0  0  0  0  0  0  0  0  0  0
   -1.5000  -12.0687    0.0000 C   0  0  0  0  0  0  0  0  0  0  0  0
   -0.7500  -13.3677    0.0000 C   0  0  0  0  0  0  0  0  0  0  0  0
    0.7500  -13.3677    0.0000 C   0  0  0  0  0  0  0  0  0  0  0  0
    1.5000  -12.0687    0.0000 C   0  0  0  0  0  0  0  0  0  0  0  0
    0.7500  -10.7697    0.0000 C   0  0  0  0  0  0  0  0  0  0  0  0
    2.1766  -10.3061    0.0000 C   0  0  0  0  0  0  0  0  0  0  0  0
    2.3334  -11.7979    0.0000 C   0  0  0  0  0  0  0  0  0  0  0  0
    3.7037  -12.4080    0.0000 C   0  0  0  0  0  0  0  0  0  0  0  0
    4.9172  -11.5263    0.0000 C   0  0  0  0  0  0  0  0  0  0  0  0
    4.7604  -10.0346    0.0000 C   0  0  0  0  0  0  0  0  0  0  0  0
    3.3901   -9.4245    0.0000 C   0  0  0  0  0  0  0  0  0  0  0  0
    4.2718   -8.2109    0.0000 C   0  0  0  0  0  0  0  0  0  0  0  0
    5.2755   -9.3257    0.0000 C   0  0  0  0  0  0  0  0  0  0  0  0
    6.7427   -9.0138    0.0000 C   0  0  0  0  0  0  0  0  0  0  0  0
    7.2062   -7.5872    0.0000 C   0  0  0  0  0  0  0  0  0  0  0  0
    6.2025   -6.4725    0.0000 C   0  0  0  0  0  0  0  0  0  0  0  0
    4.7353   -6.7844    0.0000 C   0  0  0  0  0  0  0  0  0  0  0  0
  1  2  1  0
  2  3  1  0
  3  4  1  0
  4  5  1  0
  5  6  1  0
  6  7  2  0
  6  8  1  0
  8  9  1  0
  9 10  2  0
 10 11  1  0
 11 12  2  0
 12 13  1  0
 13 14  1  0
 14 15  2  0
 15 16  1  0
 16 17  2  0
 17 18  1  0
 18 19  2  0
  5 20  1  0
 20 21  2  0
 21 22  1  0
 22 23  2  0
 23 24  1  0
 24 25  2  0
 25 26  1  0
 26 27  2  0
 27 28  1  0
 28 29  2  0
 29 30  1  0
 30 31  2  0
 31 32  1  0
 32 33  2  0
 33 34  1  0
 34 35  2  0
 35 36  1  0
 36 37  2  0
 37 38  1  0
 38 39  2  0
 39 40  1  0
 40 41  2  0
 41 42  1  0
 42 43  2  0
 43 44  1  0
 44 45  2  0
 45 46  1  0
 46 47  2  0
 47 48  1  0
 48 49  2  0
 49 50  1  0
 50 51  2  0
 51 52  1  0
 52 53  2  0
 53 54  1  0
 54 55  2  0
 55 56  1  0
 56 57  2  0
 57 58  1  0
 58 59  2  0
 59 60  1  0
 60 61  2  0
 61 62  1  0
 62 63  2  0
 63 64  1  0
 64 65  2  0
 65 66  1  0
 66 67  2  0
 67  2  1  0
 13  9  1  0
 19 14  1  0
 25 20  1  0
 31 26  1  0
 37 32  1  0
 43 38  1  0
 49 44  1  0
 55 50  1  0
 61 56  1  0
 67 62  1  0
M  END
>  <Title>  (830) 
idABDZgen9

$$$$

     RDKit          2D

 62 71  0  0  0  0  0  0  0  0999 V2000
    6.2168   -5.0497    0.0000 C   0  0  0  0  0  0  0  0  0  0  0  0
    4.7353   -5.2844    0.0000 C   0  0  0  0  0  0  0  0  0  0  0  0
    4.2718   -3.8578    0.0000 C   0  0  0  0  0  0  0  0  0  0  0  0
    3.3901   -2.6442    0.0000 C   0  0  0  0  0  0  0  0  0  0  0  0
    2.1766   -1.7626    0.0000 C   0  0  0  0  0  0  0  0  0  0  0  0
    2.8576   -0.4261    0.0000 C   0  0  0  0  0  0  0  0  0  0  0  0
    2.0406    0.8320    0.0000 O   0  0  0  0  0  0  0  0  0  0  0  0
    4.3555   -0.3475    0.0000 N   0  0  0  0  0  0  0  0  0  0  0  0
    5.0365    0.9890    0.0000 C   0  0  0  0  0  0  0  0  0  0  0  0
    6.5344    1.0675    0.0000 N   0  0  0  0  0  0  0  0  0  0  0  0
    7.2154    2.4040    0.0000 N   0  0  0  0  0  0  0  0  0  0  0  0
    6.3985    3.6620    0.0000 N   0  0  0  0  0  0  0  0  0  0  0  0
    4.9005    3.5835    0.0000 N   0  0  0  0  0  0  0  0  0  0  0  0
    4.2195    2.2470    0.0000 N   0  0  0  0  0  0  0  0  0  0  0  0
    0.7500   -1.2990    0.0000 C   0  0  0  0  0  0  0  0  0  0  0  0
    1.5000    0.0000    0.0000 C   0  0  0  0  0  0  0  0  0  0  0  0
    0.7500    1.2990    0.0000 C   0  0  0  0  0  0  0  0  0  0  0  0
   -0.7500    1.2990    0.0000 C   0  0  0  0  0  0  0  0  0  0  0  0
   -1.5000    0.0000    0.0000 C   0  0  0  0  0  0  0  0  0  0  0  0
   -0.7500   -1.2990    0.0000 C   0  0  0  0  0  0  0  0  0  0  0  0
   -2.1766   -1.7626    0.0000 C   0  0  0  0  0  0  0  0  0  0  0  0
   -2.3334   -0.2708    0.0000 C   0  0  0  0  0  0  0  0  0  0  0  0
   -3.7037    0.3393    0.0000 C   0  0  0  0  0  0  0  0  0  0  0  0
   -4.9172   -0.5424    0.0000 C   0  0  0  0  0  0  0  0  0  0  0  0
   -4.7604   -2.0341    0.0000 C   0  0  0  0  0  0  0  0  0  0  0  0
   -3.3901   -2.6442    0.0000 C   0  0  0  0  0  0  0  0  0  0  0  0
   -4.2718   -3.8578    0.0000 C   0  0  0  0  0  0  0  0  0  0  0  0
   -5.2755   -2.7430    0.0000 C   0  0  0  0  0  0  0  0  0  0  0  0
   -6.7427   -3.0549    0.0000 C   0  0  0  0  0  0  0  0  0  0  0  0
   -7.2062   -4.4815    0.0000 C   0  0  0  0  0  0  0  0  0  0  0  0
   -6.2025   -5.5962    0.0000 C   0  0  0  0  0  0  0  0  0  0  0  0
   -4.7353   -5.2844    0.0000 C   0  0  0  0  0  0  0  0  0  0  0  0
   -4.7353   -6.7844    0.0000 C   0  0  0  0  0  0  0  0  0  0  0  0
   -6.2025   -6.4725    0.0000 C   0  0  0  0  0  0  0  0  0  0  0  0
   -7.2062   -7.5872    0.0000 C   0  0  0  0  0  0  0  0  0  0  0  0
   -6.7427   -9.0138    0.0000 C   0  0  0  0  0  0  0  0  0  0  0  0
   -5.2755   -9.3257    0.0000 C   0  0  0  0  0  0  0  0  0  0  0  0
   -4.2718   -8.2109    0.0000 C   0  0  0  0  0  0  0  0  0  0  0  0
   -3.3901   -9.4245    0.0000 C   0  0  0  0  0  0  0  0  0  0  0  0
   -4.7604  -10.0346    0.0000 C   0  0  0  0  0  0  0  0  0  0  0  0
   -4.9172  -11.5263    0.0000 C   0  0  0  0  0  0  0  0  0  0  0  0
   -3.7037  -12.4080    0.0000 C   0  0  0  0  0  0  0  0  0  0  0  0
   -2.3334  -11.7979    0.0000 C   0  0  0  0  0  0  0  0  0  0  0  0
   -2.1766  -10.3061    0.0000 C   0  0  0  0  0  0  0  0  0  0  0  0
   -0.7500  -10.7697    0.0000 C   0  0  0  0  0  0  0  0  0  0  0  0
   -1.5000  -12.0687    0.0000 C   0  0  0  0  0  0  0  0  0  0  0  0
   -0.7500  -13.3677    0.0000 C   0  0  0  0  0  0  0  0  0  0  0  0
    0.7500  -13.3677    0.0000 C   0  0  0  0  0  0  0  0  0  0  0  0
    1.5000  -12.0687    0.0000 C   0  0  0  0  0  0  0  0  0  0  0  0
    0.7500  -10.7697    0.0000 C   0  0  0  0  0  0  0  0  0  0  0  0
    2.1766  -10.3061    0.0000 C   0  0  0  0  0  0  0  0  0  0  0  0
    2.3334  -11.7979    0.0000 C   0  0  0  0  0  0  0  0  0  0  0  0
    3.7037  -12.4080    0.0000 C   0  0  0  0  0  0  0  0  0  0  0  0
    4.9172  -11.5263    0.0000 C   0  0  0  0  0  0  0  0  0  0  0  0
    4.7604  -10.0346    0.0000 C   0  0  0  0  0  0  0  0  0  0  0  0
    3.3901   -9.4245    0.0000 C   0  0  0  0  0  0  0  0  0  0  0  0
    4.2718   -8.2109    0.0000 C   0  0  0  0  0  0  0  0  0  0  0  0
    5.2755   -9.3257    0.0000 C   0  0  0  0  0  0  0  0  0  0  0  0
    6.7427   -9.0138    0.0000 C   0  0  0  0  0  0  0  0  0  0  0  0
    7.2062   -7.5872    0.0000 C   0  0  0  0  0  0  0  0  0  0  0  0
    6.2025   -6.4725    0.0000 C   0  0  0  0  0  0  0  0  0  0  0  0
    4.7353   -6.7844    0.0000 C   0  0  0  0  0  0  0  0  0  0  0  0
  1  2  1  0
  2  3  1  0
  3  4  1  0
  4  5  1  0
  5  6  1  0
  6  7  2  0
  6  8  1  0
  8  9  1  0
  9 10  2  0
 10 11  1  0
 11 12  2  0
 12 13  1  0
 13 14  2  0
  5 15  1  0
 15 16  2  0
 16 17  1  0
 17 18  2  0
 18 19  1  0
 19 20  2  0
 20 21  1  0
 21 22  2  0
 22 23  1  0
 23 24  2  0
 24 25  1  0
 25 26  2  0
 26 27  1  0
 27 28  2  0
 28 29  1  0
 29 30  2  0
 30 31  1  0
 31 32  2  0
 32 33  1  0
 33 34  2  0
 34 35  1  0
 35 36  2  0
 36 37  1  0
 37 38  2  0
 38 39  1  0
 39 40  2  0
 40 41  1  0
 41 42  2  0
 42 43  1  0
 43 44  2  0
 44 45  1  0
 45 46  2  0
 46 47  1  0
 47 48  2  0
 48 49  1  0
 49 50  2  0
 50 51  1  0
 51 52  2  0
 52 53  1  0
 53 54  2  0
 54 55  1  0
 55 56  2  0
 56 57  1  0
 57 58  2  0
 58 59  1  0
 59 60  2  0
 60 61  1  0
 61 62  2  0
 62  2  1  0
 14  9  1  0
 20 15  1  0
 26 21  1  0
 32 27  1  0
 38 33  1  0
 44 39  1  0
 50 45  1  0
 56 51  1  0
 62 57  1  0
M  END
>  <Title>  (831) 
idABEAgen9

$$$$

     RDKit          2D

 71 81  0  0  0  0  0  0  0  0999 V2000
   -5.4402   -4.3550    0.0000 C   0  0  0  0  0  0  0  0  0  0  0  0
   -4.2267   -5.2366    0.0000 C   0  0  0  0  0  0  0  0  0  0  0  0
   -4.3835   -6.7284    0.0000 C   0  0  0  0  0  0  0  0  0  0  0  0
   -3.1700   -7.6101    0.0000 C   0  0  0  0  0  0  0  0  0  0  0  0
   -1.7997   -7.0000    0.0000 C   0  0  0  0  0  0  0  0  0  0  0  0
   -1.6429   -5.5082    0.0000 C   0  0  0  0  0  0  0  0  0  0  0  0
   -2.8564   -4.6265    0.0000 C   0  0  0  0  0  0  0  0  0  0  0  0
   -2.6996   -3.1348    0.0000 C   0  0  0  0  0  0  0  0  0  0  0  0
   -1.3293   -2.5247    0.0000 C   0  0  0  0  0  0  0  0  0  0  0  0
   -0.1158   -3.4063    0.0000 O   0  0  0  0  0  0  0  0  0  0  0  0
   -1.1725   -1.0329    0.0000 N   0  0  0  0  0  0  0  0  0  0  0  0
    0.1978   -0.4228    0.0000 C   0  0  0  0  0  0  0  0  0  0  0  0
    1.4969   -1.1728    0.0000 N   0  0  0  0  0  0  0  0  0  0  0  0
    2.6116   -0.1691    0.0000 N   0  0  0  0  0  0  0  0  0  0  0  0
    2.0015    1.2012    0.0000 N   0  0  0  0  0  0  0  0  0  0  0  0
    0.5097    1.0445    0.0000 N   0  0  0  0  0  0  0  0  0  0  0  0
   -0.4940    2.1592    0.0000 C   0  0  0  0  0  0  0  0  0  0  0  0
   -1.9612    1.8473    0.0000 C   0  0  0  0  0  0  0  0  0  0  0  0
   -2.9649    2.9620    0.0000 C   0  0  0  0  0  0  0  0  0  0  0  0
   -2.5014    4.3886    0.0000 C   0  0  0  0  0  0  0  0  0  0  0  0
   -1.0342    4.7005    0.0000 C   0  0  0  0  0  0  0  0  0  0  0  0
   -0.0305    3.5858    0.0000 C   0  0  0  0  0  0  0  0  0  0  0  0
    1.4367    3.8976    0.0000 C   0  0  0  0  0  0  0  0  0  0  0  0
    2.4404    2.7829    0.0000 C   0  0  0  0  0  0  0  0  0  0  0  0
    3.9077    3.0948    0.0000 C   0  0  0  0  0  0  0  0  0  0  0  0
    4.3712    4.5214    0.0000 C   0  0  0  0  0  0  0  0  0  0  0  0
    3.3675    5.6361    0.0000 C   0  0  0  0  0  0  0  0  0  0  0  0
    1.9003    5.3242    0.0000 C   0  0  0  0  0  0  0  0  0  0  0  0
    0.8966    6.4389    0.0000 C   0  0  0  0  0  0  0  0  0  0  0  0
   -0.5706    6.1271    0.0000 C   0  0  0  0  0  0  0  0  0  0  0  0
   -1.5743    7.2418    0.0000 C   0  0  0  0  0  0  0  0  0  0  0  0
   -1.1108    8.6684    0.0000 C   0  0  0  0  0  0  0  0  0  0  0  0
    0.3564    8.9802    0.0000 C   0  0  0  0  0  0  0  0  0  0  0  0
    1.3601    7.8655    0.0000 C   0  0  0  0  0  0  0  0  0  0  0  0
    2.8273    8.1774    0.0000 C   0  0  0  0  0  0  0  0  0  0  0  0
    3.8310    7.0627    0.0000 C   0  0  0  0  0  0  0  0  0  0  0  0
    5.2982    7.3745    0.0000 C   0  0  0  0  0  0  0  0  0  0  0  0
    5.7618    8.8011    0.0000 C   0  0  0  0  0  0  0  0  0  0  0  0
    4.7581    9.9158    0.0000 C   0  0  0  0  0  0  0  0  0  0  0  0
    3.2909    9.6040    0.0000 C   0  0  0  0  0  0  0  0  0  0  0  0
    2.2872   10.7187    0.0000 C   0  0  0  0  0  0  0  0  0  0  0  0
    0.8199   10.4068    0.0000 C   0  0  0  0  0  0  0  0  0  0  0  0
   -0.1838   11.5215    0.0000 C   0  0  0  0  0  0  0  0  0  0  0  0
    0.2798   12.9481    0.0000 C   0  0  0  0  0  0  0  0  0  0  0  0
    1.7470   13.2600    0.0000 C   0  0  0  0  0  0  0  0  0  0  0  0
    2.7507   12.1453    0.0000 C   0  0  0  0  0  0  0  0  0  0  0  0
    4.2179   12.4571    0.0000 C   0  0  0  0  0  0  0  0  0  0  0  0
    5.2216   11.3424    0.0000 C   0  0  0  0  0  0  0  0  0  0  0  0
    6.6888   11.6543    0.0000 C   0  0  0  0  0  0  0  0  0  0  0  0
    7.1523   13.0809    0.0000 C   0  0  0  0  0  0  0  0  0  0  0  0
    6.1486   14.1956    0.0000 C   0  0  0  0  0  0  0  0  0  0  0  0
    4.6814   13.8837    0.0000 C   0  0  0  0  0  0  0  0  0  0  0  0
    3.6777   14.9984    0.0000 C   0  0  0  0  0  0  0  0  0  0  0  0
    2.2105   14.6866    0.0000 C   0  0  0  0  0  0  0  0  0  0  0  0
    1.2068   15.8013    0.0000 C   0  0  0  0  0  0  0  0  0  0  0  0
    1.6703   17.2279    0.0000 C   0  0  0  0  0  0  0  0  0  0  0  0
    3.1376   17.5397    0.0000 C   0  0  0  0  0  0  0  0  0  0  0  0
    4.1413   16.4250    0.0000 C   0  0  0  0  0  0  0  0  0  0  0  0
    5.6085   16.7369    0.0000 C   0  0  0  0  0  0  0  0  0  0  0  0
    6.6122   15.6222    0.0000 C   0  0  0  0  0  0  0  0  0  0  0  0
    8.0794   15.9340    0.0000 C   0  0  0  0  0  0  0  0  0  0  0  0
    8.5429   17.3606    0.0000 C   0  0  0  0  0  0  0  0  0  0  0  0
    7.5392   18.4753    0.0000 C   0  0  0  0  0  0  0  0  0  0  0  0
    6.0720   18.1635    0.0000 C   0  0  0  0  0  0  0  0  0  0  0  0
    5.0683   19.2782    0.0000 C   0  0  0  0  0  0  0  0  0  0  0  0
    3.6011   18.9663    0.0000 C   0  0  0  0  0  0  0  0  0  0  0  0
    2.5974   20.0810    0.0000 C   0  0  0  0  0  0  0  0  0  0  0  0
    3.0609   21.5076    0.0000 C   0  0  0  0  0  0  0  0  0  0  0  0
    4.5281   21.8195    0.0000 C   0  0  0  0  0  0  0  0  0  0  0  0
    5.5318   20.7048    0.0000 C   0  0  0  0  0  0  0  0  0  0  0  0
    6.9991   21.0166    0.0000 C   0  0  0  0  0  0  0  0  0  0  0  0
  1  2  1  0
  2  3  2  0
  3  4  1  0
  4  5  2  0
  5  6  1  0
  6  7  2  0
  7  8  1  0
  8  9  1  0
  9 10  2  0
  9 11  1  0
 11 12  1  0
 12 13  2  0
 13 14  1  0
 14 15  2  0
 15 16  1  0
 16 17  1  0
 17 18  2  0
 18 19  1  0
 19 20  2  0
 20 21  1  0
 21 22  2  0
 22 23  1  0
 23 24  2  0
 24 25  1  0
 25 26  2  0
 26 27  1  0
 27 28  2  0
 28 29  1  0
 29 30  2  0
 30 31  1  0
 31 32  2  0
 32 33  1  0
 33 34  2  0
 34 35  1  0
 35 36  2  0
 36 37  1  0
 37 38  2  0
 38 39  1  0
 39 40  2  0
 40 41  1  0
 41 42  2  0
 42 43  1  0
 43 44  2  0
 44 45  1  0
 45 46  2  0
 46 47  1  0
 47 48  2  0
 48 49  1  0
 49 50  2  0
 50 51  1  0
 51 52  2  0
 52 53  1  0
 53 54  2  0
 54 55  1  0
 55 56  2  0
 56 57  1  0
 57 58  2  0
 58 59  1  0
 59 60  2  0
 60 61  1  0
 61 62  2  0
 62 63  1  0
 63 64  2  0
 64 65  1  0
 65 66  2  0
 66 67  1  0
 67 68  2  0
 68 69  1  0
 69 70  2  0
 70 71  1  0
  7  2  1  0
 16 12  1  0
 22 17  1  0
 28 23  1  0
 34 29  1  0
 40 35  1  0
 46 41  1  0
 52 47  1  0
 58 53  1  0
 64 59  1  0
 70 65  1  0
M  END
>  <Title>  (832) 
idABEBgen9

$$$$

     RDKit          2D

 39 44  0  0  0  0  0  0  0  0999 V2000
   -0.0000   -6.0850    0.0000 C   0  0  0  0  0  0  0  0  0  0  0  0
   -0.0000   -4.5850    0.0000 C   0  0  0  0  0  0  0  0  0  0  0  0
    1.3515   -3.9342    0.0000 C   0  0  0  0  0  0  0  0  0  0  0  0
    1.6852   -2.4718    0.0000 C   0  0  0  0  0  0  0  0  0  0  0  0
    3.1476   -2.1380    0.0000 C   0  0  0  0  0  0  0  0  0  0  0  0
    3.5898   -0.7046    0.0000 O   0  0  0  0  0  0  0  0  0  0  0  0
    4.1679   -3.2376    0.0000 N   0  0  0  0  0  0  0  0  0  0  0  0
    5.6303   -2.9038    0.0000 C   0  0  0  0  0  0  0  0  0  0  0  0
    6.2198   -1.5245    0.0000 N   0  0  0  0  0  0  0  0  0  0  0  0
    7.7138   -1.6590    0.0000 N   0  0  0  0  0  0  0  0  0  0  0  0
    8.0476   -3.1214    0.0000 N   0  0  0  0  0  0  0  0  0  0  0  0
    6.7599   -3.8907    0.0000 N   0  0  0  0  0  0  0  0  0  0  0  0
    6.6254   -5.3847    0.0000 N   0  0  0  0  0  0  0  0  0  0  0  0
    7.9131   -6.1540    0.0000 C   0  0  0  0  0  0  0  0  0  0  0  0
    8.1144   -7.6404    0.0000 C   0  0  0  0  0  0  0  0  0  0  0  0
    7.0779   -8.7246    0.0000 C   0  0  0  0  0  0  0  0  0  0  0  0
    7.6049  -10.1290    0.0000 C   0  0  0  0  0  0  0  0  0  0  0  0
    8.1320  -11.5333    0.0000 N   0  0  0  0  0  0  0  0  0  0  0  0
    5.5839   -8.5902    0.0000 N   0  0  0  0  0  0  0  0  0  0  0  0
    4.8145   -9.8778    0.0000 C   0  0  0  0  0  0  0  0  0  0  0  0
    3.3147   -9.8554    0.0000 C   0  0  0  0  0  0  0  0  0  0  0  0
    2.5454  -11.1431    0.0000 C   0  0  0  0  0  0  0  0  0  0  0  0
    3.2758  -12.4532    0.0000 C   0  0  0  0  0  0  0  0  0  0  0  0
    4.7757  -12.4756    0.0000 C   0  0  0  0  0  0  0  0  0  0  0  0
    5.5450  -11.1880    0.0000 C   0  0  0  0  0  0  0  0  0  0  0  0
    4.7575   -7.3383    0.0000 C   0  0  0  0  0  0  0  0  0  0  0  0
    5.2211   -5.9117    0.0000 C   0  0  0  0  0  0  0  0  0  0  0  0
    0.7500   -1.2990    0.0000 C   0  0  0  0  0  0  0  0  0  0  0  0
    1.5000    0.0000    0.0000 C   0  0  0  0  0  0  0  0  0  0  0  0
    0.7500    1.2990    0.0000 C   0  0  0  0  0  0  0  0  0  0  0  0
   -0.7500    1.2990    0.0000 C   0  0  0  0  0  0  0  0  0  0  0  0
   -1.5000    0.0000    0.0000 C   0  0  0  0  0  0  0  0  0  0  0  0
   -0.7500   -1.2990    0.0000 C   0  0  0  0  0  0  0  0  0  0  0  0
   -1.6852   -2.4718    0.0000 C   0  0  0  0  0  0  0  0  0  0  0  0
   -3.1186   -2.0297    0.0000 C   0  0  0  0  0  0  0  0  0  0  0  0
   -4.2182   -3.0499    0.0000 C   0  0  0  0  0  0  0  0  0  0  0  0
   -3.8844   -4.5123    0.0000 C   0  0  0  0  0  0  0  0  0  0  0  0
   -2.4510   -4.9544    0.0000 C   0  0  0  0  0  0  0  0  0  0  0  0
   -1.3515   -3.9342    0.0000 C   0  0  0  0  0  0  0  0  0  0  0  0
  1  2  1  0
  2  3  2  0
  3  4  1  0
  4  5  1  0
  5  6  2  0
  5  7  1  0
  7  8  1  0
  8  9  2  0
  9 10  1  0
 10 11  2  0
 11 12  1  0
 12 13  1  0
 13 14  1  0
 14 15  2  0
 15 16  1  0
 16 17  1  0
 17 18  3  0
 16 19  1  0
 19 20  1  0
 20 21  2  0
 21 22  1  0
 22 23  2  0
 23 24  1  0
 24 25  2  0
 19 26  1  0
 26 27  1  0
  4 28  1  0
 28 29  2  0
 29 30  1  0
 30 31  2  0
 31 32  1  0
 32 33  2  0
 33 34  1  0
 34 35  2  0
 35 36  1  0
 36 37  2  0
 37 38  1  0
 38 39  2  0
 39  2  1  0
 12  8  1  0
 27 13  1  0
 33 28  1  0
 39 34  1  0
 25 20  1  0
M  END
>  <Title>  (833) 
idABECgen9

$$$$

     RDKit          2D

  8  8  0  0  0  0  0  0  0  0999 V2000
    4.0607    0.0000    0.0000 N   0  0  0  0  0  0  0  0  0  0  0  0
    2.5607    0.0000    0.0000 C   0  0  0  0  0  0  0  0  0  0  0  0
    1.0607    0.0000    0.0000 C   0  0  0  0  0  0  0  0  0  0  0  0
   -0.0000   -1.0607    0.0000 C   0  0  0  0  0  0  0  0  0  0  0  0
   -1.0607    0.0000    0.0000 C   0  0  0  0  0  0  0  0  0  0  0  0
   -2.5607    0.0000    0.0000 C   0  0  0  0  0  0  0  0  0  0  0  0
   -4.0607    0.0000    0.0000 N   0  0  0  0  0  0  0  0  0  0  0  0
    0.0000    1.0607    0.0000 C   0  0  0  0  0  0  0  0  0  0  0  0
  1  2  3  0
  2  3  1  0
  3  4  2  0
  4  5  1  0
  5  6  1  0
  6  7  3  0
  5  8  2  0
  8  3  1  0
M  END
>  <Title>  (834) 
idABEDgen9

$$$$

     RDKit          2D

 92 96  0  0  0  0  0  0  0  0999 V2000
   -8.6297   -1.7800    0.0000 C   0  0  0  0  0  0  0  0  0  0  0  0
   -7.9709   -3.1276    0.0000 C   0  0  0  0  0  0  0  0  0  0  0  0
   -9.2901   -3.8415    0.0000 C   0  0  0  0  0  0  0  0  0  0  0  0
  -10.5459   -4.6620    0.0000 C   0  0  0  0  0  0  0  0  0  0  0  0
  -11.7296   -5.5833    0.0000 C   0  0  0  0  0  0  0  0  0  0  0  0
  -12.8332   -6.5992    0.0000 C   0  0  0  0  0  0  0  0  0  0  0  0
  -13.8491   -7.7028    0.0000 C   0  0  0  0  0  0  0  0  0  0  0  0
  -14.7704   -8.8865    0.0000 C   0  0  0  0  0  0  0  0  0  0  0  0
  -15.5908  -10.1423    0.0000 C   0  0  0  0  0  0  0  0  0  0  0  0
  -16.3047  -11.4615    0.0000 C   0  0  0  0  0  0  0  0  0  0  0  0
  -16.9073  -12.8351    0.0000 C   0  0  0  0  0  0  0  0  0  0  0  0
  -17.3943  -14.2538    0.0000 C   0  0  0  0  0  0  0  0  0  0  0  0
  -17.7626  -15.7079    0.0000 C   0  0  0  0  0  0  0  0  0  0  0  0
  -18.0095  -17.1875    0.0000 C   0  0  0  0  0  0  0  0  0  0  0  0
  -18.1333  -18.6824    0.0000 C   0  0  0  0  0  0  0  0  0  0  0  0
  -18.1333  -20.1824    0.0000 C   0  0  0  0  0  0  0  0  0  0  0  0
  -18.0095  -21.6772    0.0000 C   0  0  0  0  0  0  0  0  0  0  0  0
  -17.7626  -23.1568    0.0000 C   0  0  0  0  0  0  0  0  0  0  0  0
  -17.3943  -24.6109    0.0000 C   0  0  0  0  0  0  0  0  0  0  0  0
  -16.9073  -26.0296    0.0000 C   0  0  0  0  0  0  0  0  0  0  0  0
  -16.3047  -27.4033    0.0000 C   0  0  0  0  0  0  0  0  0  0  0  0
  -15.5908  -28.7225    0.0000 C   0  0  0  0  0  0  0  0  0  0  0  0
  -14.7704  -29.9782    0.0000 C   0  0  0  0  0  0  0  0  0  0  0  0
  -13.8491  -31.1619    0.0000 C   0  0  0  0  0  0  0  0  0  0  0  0
  -12.8332  -32.2655    0.0000 C   0  0  0  0  0  0  0  0  0  0  0  0
  -11.7296  -33.2815    0.0000 C   0  0  0  0  0  0  0  0  0  0  0  0
  -10.5459  -34.2028    0.0000 C   0  0  0  0  0  0  0  0  0  0  0  0
   -9.2901  -35.0232    0.0000 C   0  0  0  0  0  0  0  0  0  0  0  0
   -7.9709  -35.7371    0.0000 C   0  0  0  0  0  0  0  0  0  0  0  0
   -6.5972  -36.3397    0.0000 C   0  0  0  0  0  0  0  0  0  0  0  0
   -5.1785  -36.8267    0.0000 C   0  0  0  0  0  0  0  0  0  0  0  0
   -3.7244  -37.1949    0.0000 C   0  0  0  0  0  0  0  0  0  0  0  0
   -2.2449  -37.4418    0.0000 C   0  0  0  0  0  0  0  0  0  0  0  0
   -0.7500  -37.5657    0.0000 C   0  0  0  0  0  0  0  0  0  0  0  0
    0.7500  -37.5657    0.0000 C   0  0  0  0  0  0  0  0  0  0  0  0
    2.2449  -37.4418    0.0000 C   0  0  0  0  0  0  0  0  0  0  0  0
    3.7244  -37.1949    0.0000 C   0  0  0  0  0  0  0  0  0  0  0  0
    5.1785  -36.8267    0.0000 C   0  0  0  0  0  0  0  0  0  0  0  0
    6.5972  -36.3397    0.0000 C   0  0  0  0  0  0  0  0  0  0  0  0
    7.9709  -35.7371    0.0000 C   0  0  0  0  0  0  0  0  0  0  0  0
    9.2901  -35.0232    0.0000 C   0  0  0  0  0  0  0  0  0  0  0  0
   10.5459  -34.2028    0.0000 C   0  0  0  0  0  0  0  0  0  0  0  0
   11.7296  -33.2815    0.0000 C   0  0  0  0  0  0  0  0  0  0  0  0
   12.8332  -32.2655    0.0000 C   0  0  0  0  0  0  0  0  0  0  0  0
   13.8491  -31.1619    0.0000 C   0  0  0  0  0  0  0  0  0  0  0  0
   14.7704  -29.9782    0.0000 C   0  0  0  0  0  0  0  0  0  0  0  0
   15.5908  -28.7225    0.0000 C   0  0  0  0  0  0  0  0  0  0  0  0
   16.3047  -27.4033    0.0000 C   0  0  0  0  0  0  0  0  0  0  0  0
   16.9073  -26.0296    0.0000 C   0  0  0  0  0  0  0  0  0  0  0  0
   17.3943  -24.6109    0.0000 C   0  0  0  0  0  0  0  0  0  0  0  0
   17.7626  -23.1568    0.0000 C   0  0  0  0  0  0  0  0  0  0  0  0
   18.0095  -21.6772    0.0000 C   0  0  0  0  0  0  0  0  0  0  0  0
   18.1333  -20.1824    0.0000 C   0  0  0  0  0  0  0  0  0  0  0  0
   18.1333  -18.6824    0.0000 C   0  0  0  0  0  0  0  0  0  0  0  0
   18.0095  -17.1875    0.0000 C   0  0  0  0  0  0  0  0  0  0  0  0
   17.7626  -15.7079    0.0000 C   0  0  0  0  0  0  0  0  0  0  0  0
   17.3943  -14.2538    0.0000 C   0  0  0  0  0  0  0  0  0  0  0  0
   16.9073  -12.8351    0.0000 C   0  0  0  0  0  0  0  0  0  0  0  0
   16.3047  -11.4615    0.0000 C   0  0  0  0  0  0  0  0  0  0  0  0
   15.5908  -10.1423    0.0000 C   0  0  0  0  0  0  0  0  0  0  0  0
   14.7704   -8.8865    0.0000 C   0  0  0  0  0  0  0  0  0  0  0  0
   13.8491   -7.7028    0.0000 C   0  0  0  0  0  0  0  0  0  0  0  0
   12.8332   -6.5992    0.0000 C   0  0  0  0  0  0  0  0  0  0  0  0
   11.7296   -5.5833    0.0000 C   0  0  0  0  0  0  0  0  0  0  0  0
   10.5459   -4.6620    0.0000 C   0  0  0  0  0  0  0  0  0  0  0  0
    9.2901   -3.8415    0.0000 C   0  0  0  0  0  0  0  0  0  0  0  0
    7.9709   -3.1276    0.0000 C   0  0  0  0  0  0  0  0  0  0  0  0
    6.5972   -2.5251    0.0000 C   0  0  0  0  0  0  0  0  0  0  0  0
    5.1785   -2.0380    0.0000 C   0  0  0  0  0  0  0  0  0  0  0  0
    3.7244   -1.6698    0.0000 C   0  0  0  0  0  0  0  0  0  0  0  0
    3.9468   -3.1532    0.0000 C   0  0  0  0  0  0  0  0  0  0  0  0
    2.6047   -3.8231    0.0000 C   0  0  0  0  0  0  0  0  0  0  0  0
    1.5529   -2.7537    0.0000 C   0  0  0  0  0  0  0  0  0  0  0  0
    2.2449   -1.4229    0.0000 C   0  0  0  0  0  0  0  0  0  0  0  0
    0.7500   -1.2990    0.0000 C   0  0  0  0  0  0  0  0  0  0  0  0
    1.5000    0.0000    0.0000 C   0  0  0  0  0  0  0  0  0  0  0  0
    0.7500    1.2990    0.0000 C   0  0  0  0  0  0  0  0  0  0  0  0
   -0.7500    1.2990    0.0000 C   0  0  0  0  0  0  0  0  0  0  0  0
   -1.5000    0.0000    0.0000 C   0  0  0  0  0  0  0  0  0  0  0  0
   -0.7500   -1.2990    0.0000 C   0  0  0  0  0  0  0  0  0  0  0  0
   -2.2449   -1.4229    0.0000 C   0  0  0  0  0  0  0  0  0  0  0  0
   -1.2913   -2.5808    0.0000 C   0  0  0  0  0  0  0  0  0  0  0  0
   -1.8172   -3.9855    0.0000 C   0  0  0  0  0  0  0  0  0  0  0  0
   -3.2968   -4.2324    0.0000 C   0  0  0  0  0  0  0  0  0  0  0  0
   -4.2504   -3.0746    0.0000 C   0  0  0  0  0  0  0  0  0  0  0  0
   -3.7244   -1.6698    0.0000 C   0  0  0  0  0  0  0  0  0  0  0  0
   -5.1785   -2.0380    0.0000 C   0  0  0  0  0  0  0  0  0  0  0  0
   -4.8910   -0.5659    0.0000 C   0  0  0  0  0  0  0  0  0  0  0  0
   -6.0221    0.4193    0.0000 C   0  0  0  0  0  0  0  0  0  0  0  0
   -7.4408   -0.0678    0.0000 C   0  0  0  0  0  0  0  0  0  0  0  0
   -7.7284   -1.5399    0.0000 C   0  0  0  0  0  0  0  0  0  0  0  0
   -6.5972   -2.5251    0.0000 C   0  0  0  0  0  0  0  0  0  0  0  0
  1  2  1  0
  2  3  1  0
  3  4  1  0
  4  5  1  0
  5  6  1  0
  6  7  1  0
  7  8  1  0
  8  9  1  0
  9 10  1  0
 10 11  1  0
 11 12  1  0
 12 13  1  0
 13 14  1  0
 14 15  1  0
 15 16  1  0
 16 17  1  0
 17 18  1  0
 18 19  1  0
 19 20  1  0
 20 21  1  0
 21 22  1  0
 22 23  1  0
 23 24  1  0
 24 25  1  0
 25 26  1  0
 26 27  1  0
 27 28  1  0
 28 29  1  0
 29 30  1  0
 30 31  1  0
 31 32  1  0
 32 33  1  0
 33 34  1  0
 34 35  1  0
 35 36  1  0
 36 37  1  0
 37 38  1  0
 38 39  1  0
 39 40  1  0
 40 41  1  0
 41 42  1  0
 42 43  1  0
 43 44  1  0
 44 45  1  0
 45 46  1  0
 46 47  1  0
 47 48  1  0
 48 49  1  0
 49 50  1  0
 50 51  1  0
 51 52  1  0
 52 53  1  0
 53 54  1  0
 54 55  1  0
 55 56  2  0
 56 57  1  0
 57 58  2  0
 58 59  1  0
 59 60  2  0
 60 61  1  0
 61 62  2  0
 62 63  1  0
 63 64  2  0
 64 65  1  0
 65 66  2  0
 66 67  1  0
 67 68  2  0
 68 69  1  0
 69 70  2  0
 70 71  1  0
 71 72  2  0
 72 73  1  0
 73 74  2  0
 74 75  1  0
 75 76  2  0
 76 77  1  0
 77 78  2  0
 78 79  1  0
 79 80  2  0
 80 81  1  0
 81 82  2  0
 82 83  1  0
 83 84  2  0
 84 85  1  0
 85 86  2  0
 86 87  1  0
 87 88  2  0
 88 89  1  0
 89 90  2  0
 90 91  1  0
 91 92  2  0
 92  2  1  0
 74 70  1  0
 80 75  1  0
 86 81  1  0
 92 87  1  0
M  END
>  <Title>  (835) 
idABEEgen9

$$$$

     RDKit          2D

 92 92  0  0  0  0  0  0  0  0999 V2000
   22.9903   -0.0000    0.0000 C   0  0  0  0  0  0  0  0  0  0  0  0
   21.4903    0.0000    0.0000 C   0  0  0  0  0  0  0  0  0  0  0  0
   21.4379   -1.4991    0.0000 C   0  0  0  0  0  0  0  0  0  0  0  0
   21.2811   -2.9909    0.0000 C   0  0  0  0  0  0  0  0  0  0  0  0
   21.0207   -4.4681    0.0000 C   0  0  0  0  0  0  0  0  0  0  0  0
   20.6578   -5.9235    0.0000 C   0  0  0  0  0  0  0  0  0  0  0  0
   20.1943   -7.3501    0.0000 C   0  0  0  0  0  0  0  0  0  0  0  0
   19.6323   -8.7409    0.0000 C   0  0  0  0  0  0  0  0  0  0  0  0
   18.9748  -10.0891    0.0000 C   0  0  0  0  0  0  0  0  0  0  0  0
   18.2248  -11.3881    0.0000 C   0  0  0  0  0  0  0  0  0  0  0  0
   17.3860  -12.6317    0.0000 C   0  0  0  0  0  0  0  0  0  0  0  0
   16.4625  -13.8137    0.0000 C   0  0  0  0  0  0  0  0  0  0  0  0
   15.4588  -14.9284    0.0000 C   0  0  0  0  0  0  0  0  0  0  0  0
   14.3798  -15.9704    0.0000 C   0  0  0  0  0  0  0  0  0  0  0  0
   13.2307  -16.9346    0.0000 C   0  0  0  0  0  0  0  0  0  0  0  0
   12.0172  -17.8163    0.0000 C   0  0  0  0  0  0  0  0  0  0  0  0
   10.7451  -18.6111    0.0000 C   0  0  0  0  0  0  0  0  0  0  0  0
    9.4207  -19.3153    0.0000 C   0  0  0  0  0  0  0  0  0  0  0  0
    8.0504  -19.9254    0.0000 C   0  0  0  0  0  0  0  0  0  0  0  0
    6.6409  -20.4385    0.0000 C   0  0  0  0  0  0  0  0  0  0  0  0
    5.1990  -20.8519    0.0000 C   0  0  0  0  0  0  0  0  0  0  0  0
    3.7317  -21.1638    0.0000 C   0  0  0  0  0  0  0  0  0  0  0  0
    2.2463  -21.3726    0.0000 C   0  0  0  0  0  0  0  0  0  0  0  0
    0.7500  -21.4772    0.0000 C   0  0  0  0  0  0  0  0  0  0  0  0
   -0.7500  -21.4772    0.0000 C   0  0  0  0  0  0  0  0  0  0  0  0
   -2.2463  -21.3726    0.0000 C   0  0  0  0  0  0  0  0  0  0  0  0
   -3.7317  -21.1638    0.0000 C   0  0  0  0  0  0  0  0  0  0  0  0
   -5.1990  -20.8519    0.0000 C   0  0  0  0  0  0  0  0  0  0  0  0
   -6.6409  -20.4385    0.0000 C   0  0  0  0  0  0  0  0  0  0  0  0
   -8.0504  -19.9254    0.0000 C   0  0  0  0  0  0  0  0  0  0  0  0
   -9.4207  -19.3153    0.0000 C   0  0  0  0  0  0  0  0  0  0  0  0
  -10.7451  -18.6111    0.0000 C   0  0  0  0  0  0  0  0  0  0  0  0
  -12.0172  -17.8163    0.0000 C   0  0  0  0  0  0  0  0  0  0  0  0
  -13.2307  -16.9346    0.0000 C   0  0  0  0  0  0  0  0  0  0  0  0
  -14.3798  -15.9704    0.0000 C   0  0  0  0  0  0  0  0  0  0  0  0
  -15.4588  -14.9284    0.0000 C   0  0  0  0  0  0  0  0  0  0  0  0
  -16.4625  -13.8137    0.0000 C   0  0  0  0  0  0  0  0  0  0  0  0
  -17.3860  -12.6317    0.0000 C   0  0  0  0  0  0  0  0  0  0  0  0
  -18.2248  -11.3881    0.0000 C   0  0  0  0  0  0  0  0  0  0  0  0
  -18.9748  -10.0891    0.0000 C   0  0  0  0  0  0  0  0  0  0  0  0
  -19.6323   -8.7409    0.0000 C   0  0  0  0  0  0  0  0  0  0  0  0
  -20.1943   -7.3501    0.0000 C   0  0  0  0  0  0  0  0  0  0  0  0
  -20.6578   -5.9235    0.0000 C   0  0  0  0  0  0  0  0  0  0  0  0
  -21.0207   -4.4681    0.0000 C   0  0  0  0  0  0  0  0  0  0  0  0
  -21.2811   -2.9909    0.0000 C   0  0  0  0  0  0  0  0  0  0  0  0
  -21.4379   -1.4991    0.0000 C   0  0  0  0  0  0  0  0  0  0  0  0
  -21.4903    0.0000    0.0000 C   0  0  0  0  0  0  0  0  0  0  0  0
  -21.4379    1.4991    0.0000 C   0  0  0  0  0  0  0  0  0  0  0  0
  -21.2811    2.9909    0.0000 C   0  0  0  0  0  0  0  0  0  0  0  0
  -21.0207    4.4681    0.0000 C   0  0  0  0  0  0  0  0  0  0  0  0
  -20.6578    5.9235    0.0000 C   0  0  0  0  0  0  0  0  0  0  0  0
  -20.1943    7.3501    0.0000 C   0  0  0  0  0  0  0  0  0  0  0  0
  -19.6323    8.7409    0.0000 C   0  0  0  0  0  0  0  0  0  0  0  0
  -18.9748   10.0891    0.0000 C   0  0  0  0  0  0  0  0  0  0  0  0
  -18.2248   11.3881    0.0000 C   0  0  0  0  0  0  0  0  0  0  0  0
  -17.3860   12.6317    0.0000 C   0  0  0  0  0  0  0  0  0  0  0  0
  -16.4625   13.8137    0.0000 C   0  0  0  0  0  0  0  0  0  0  0  0
  -15.4588   14.9284    0.0000 C   0  0  0  0  0  0  0  0  0  0  0  0
  -14.3798   15.9704    0.0000 C   0  0  0  0  0  0  0  0  0  0  0  0
  -13.2307   16.9346    0.0000 C   0  0  0  0  0  0  0  0  0  0  0  0
  -12.0172   17.8163    0.0000 C   0  0  0  0  0  0  0  0  0  0  0  0
  -10.7451   18.6111    0.0000 C   0  0  0  0  0  0  0  0  0  0  0  0
   -9.4207   19.3153    0.0000 C   0  0  0  0  0  0  0  0  0  0  0  0
   -8.0504   19.9254    0.0000 C   0  0  0  0  0  0  0  0  0  0  0  0
   -6.6409   20.4385    0.0000 C   0  0  0  0  0  0  0  0  0  0  0  0
   -5.1990   20.8519    0.0000 C   0  0  0  0  0  0  0  0  0  0  0  0
   -3.7317   21.1638    0.0000 C   0  0  0  0  0  0  0  0  0  0  0  0
   -2.2463   21.3726    0.0000 C   0  0  0  0  0  0  0  0  0  0  0  0
   -0.7500   21.4772    0.0000 C   0  0  0  0  0  0  0  0  0  0  0  0
    0.7500   21.4772    0.0000 C   0  0  0  0  0  0  0  0  0  0  0  0
    2.2463   21.3726    0.0000 C   0  0  0  0  0  0  0  0  0  0  0  0
    3.7317   21.1638    0.0000 C   0  0  0  0  0  0  0  0  0  0  0  0
    5.1990   20.8519    0.0000 C   0  0  0  0  0  0  0  0  0  0  0  0
    6.6409   20.4385    0.0000 C   0  0  0  0  0  0  0  0  0  0  0  0
    8.0504   19.9254    0.0000 C   0  0  0  0  0  0  0  0  0  0  0  0
    9.4207   19.3153    0.0000 C   0  0  0  0  0  0  0  0  0  0  0  0
   10.7451   18.6111    0.0000 C   0  0  0  0  0  0  0  0  0  0  0  0
   12.0172   17.8163    0.0000 C   0  0  0  0  0  0  0  0  0  0  0  0
   13.2307   16.9346    0.0000 C   0  0  0  0  0  0  0  0  0  0  0  0
   14.3798   15.9704    0.0000 C   0  0  0  0  0  0  0  0  0  0  0  0
   15.4588   14.9284    0.0000 C   0  0  0  0  0  0  0  0  0  0  0  0
   16.4625   13.8137    0.0000 C   0  0  0  0  0  0  0  0  0  0  0  0
   17.3860   12.6317    0.0000 C   0  0  0  0  0  0  0  0  0  0  0  0
   18.2248   11.3881    0.0000 C   0  0  0  0  0  0  0  0  0  0  0  0
   18.9748   10.0891    0.0000 C   0  0  0  0  0  0  0  0  0  0  0  0
   19.6323    8.7409    0.0000 C   0  0  0  0  0  0  0  0  0  0  0  0
   20.1943    7.3501    0.0000 C   0  0  0  0  0  0  0  0  0  0  0  0
   20.6578    5.9235    0.0000 C   0  0  0  0  0  0  0  0  0  0  0  0
   21.0207    4.4681    0.0000 C   0  0  0  0  0  0  0  0  0  0  0  0
   21.2811    2.9909    0.0000 C   0  0  0  0  0  0  0  0  0  0  0  0
   22.7665    3.1996    0.0000 C   0  0  0  0  0  0  0  0  0  0  0  0
   21.4379    1.4991    0.0000 C   0  0  0  0  0  0  0  0  0  0  0  0
  1  2  1  0
  2  3  1  0
  3  4  1  0
  4  5  1  0
  5  6  1  0
  6  7  1  0
  7  8  1  0
  8  9  1  0
  9 10  1  0
 10 11  1  0
 11 12  1  0
 12 13  1  0
 13 14  1  0
 14 15  1  0
 15 16  1  0
 16 17  1  0
 17 18  1  0
 18 19  1  0
 19 20  1  0
 20 21  1  0
 21 22  1  0
 22 23  1  0
 23 24  1  0
 24 25  1  0
 25 26  1  0
 26 27  1  0
 27 28  1  0
 28 29  1  0
 29 30  1  0
 30 31  1  0
 31 32  1  0
 32 33  1  0
 33 34  1  0
 34 35  1  0
 35 36  1  0
 36 37  1  0
 37 38  1  0
 38 39  1  0
 39 40  1  0
 40 41  1  0
 41 42  1  0
 42 43  1  0
 43 44  1  0
 44 45  1  0
 45 46  1  0
 46 47  1  0
 47 48  1  0
 48 49  1  0
 49 50  1  0
 50 51  1  0
 51 52  1  0
 52 53  1  0
 53 54  1  0
 54 55  1  0
 55 56  1  0
 56 57  1  0
 57 58  1  0
 58 59  1  0
 59 60  1  0
 60 61  1  0
 61 62  1  0
 62 63  1  0
 63 64  1  0
 64 65  1  0
 65 66  1  0
 66 67  1  0
 67 68  1  0
 68 69  1  0
 69 70  1  0
 70 71  1  0
 71 72  1  0
 72 73  1  0
 73 74  1  0
 74 75  1  0
 75 76  1  0
 76 77  1  0
 77 78  1  0
 78 79  1  0
 79 80  1  0
 80 81  1  0
 81 82  1  0
 82 83  1  0
 83 84  1  0
 84 85  1  0
 85 86  1  0
 86 87  1  0
 87 88  1  0
 88 89  1  0
 89 90  1  0
 90 91  1  0
 90 92  1  0
 92  2  1  0
M  END
>  <Title>  (836) 
idABEFgen9

$$$$

     RDKit          2D

  7  6  0  0  0  0  0  0  0  0999 V2000
    0.0000    0.0000    0.0000 C   0  0  0  0  0  0  0  0  0  0  0  0
   -0.0000   -1.5000    0.0000 C   0  0  0  0  0  0  0  0  0  0  0  0
   -0.0000   -3.0000    0.0000 C   0  0  0  0  0  0  0  0  0  0  0  0
   -0.0000   -4.5000    0.0000 C   0  0  0  0  0  0  0  0  0  0  0  0
   -0.0000   -6.0000    0.0000 C   0  0  0  0  0  0  0  0  0  0  0  0
    1.2990   -6.7500    0.0000 C   0  0  0  0  0  0  0  0  0  0  0  0
    1.2990   -8.2500    0.0000 C   0  0  0  0  0  0  0  0  0  0  0  0
  1  2  3  0
  2  3  1  0
  3  4  3  0
  4  5  1  0
  5  6  2  3
  6  7  1  0
M  END
>  <Title>  (837) 
idABEGgen9

$$$$

     RDKit          2D

 54 54  0  0  0  0  0  0  0  0999 V2000
   14.1602    0.0000    0.0000 C   0  0  0  0  0  0  0  0  0  0  0  0
   12.6602    0.0000    0.0000 C   0  0  0  0  0  0  0  0  0  0  0  0
   12.5714    1.4974    0.0000 C   0  0  0  0  0  0  0  0  0  0  0  0
   12.3060    2.9737    0.0000 C   0  0  0  0  0  0  0  0  0  0  0  0
   11.8679    4.4083    0.0000 C   0  0  0  0  0  0  0  0  0  0  0  0
   11.2633    5.7810    0.0000 C   0  0  0  0  0  0  0  0  0  0  0  0
   10.5005    7.0726    0.0000 C   0  0  0  0  0  0  0  0  0  0  0  0
    9.5903    8.2649    0.0000 C   0  0  0  0  0  0  0  0  0  0  0  0
    8.5454    9.3411    0.0000 C   0  0  0  0  0  0  0  0  0  0  0  0
    7.3807   10.2863    0.0000 C   0  0  0  0  0  0  0  0  0  0  0  0
    6.1123   11.0870    0.0000 C   0  0  0  0  0  0  0  0  0  0  0  0
    4.7581   11.7321    0.0000 C   0  0  0  0  0  0  0  0  0  0  0  0
    3.3371   12.2125    0.0000 C   0  0  0  0  0  0  0  0  0  0  0  0
    1.8692   12.5215    0.0000 C   0  0  0  0  0  0  0  0  0  0  0  0
    0.3752   12.6547    0.0000 C   0  0  0  0  0  0  0  0  0  0  0  0
   -1.1242   12.6102    0.0000 C   0  0  0  0  0  0  0  0  0  0  0  0
   -2.6077   12.3888    0.0000 C   0  0  0  0  0  0  0  0  0  0  0  0
   -4.0547   11.9934    0.0000 C   0  0  0  0  0  0  0  0  0  0  0  0
   -5.4447   11.4296    0.0000 C   0  0  0  0  0  0  0  0  0  0  0  0
   -6.7583   10.7054    0.0000 C   0  0  0  0  0  0  0  0  0  0  0  0
   -7.9771    9.8310    0.0000 C   0  0  0  0  0  0  0  0  0  0  0  0
   -9.0838    8.8185    0.0000 C   0  0  0  0  0  0  0  0  0  0  0  0
  -10.0630    7.6822    0.0000 C   0  0  0  0  0  0  0  0  0  0  0  0
  -10.9010    6.4381    0.0000 C   0  0  0  0  0  0  0  0  0  0  0  0
  -11.5860    5.1036    0.0000 C   0  0  0  0  0  0  0  0  0  0  0  0
  -12.1083    3.6975    0.0000 C   0  0  0  0  0  0  0  0  0  0  0  0
  -12.4606    2.2395    0.0000 C   0  0  0  0  0  0  0  0  0  0  0  0
  -12.6380    0.7500    0.0000 C   0  0  0  0  0  0  0  0  0  0  0  0
  -12.6380   -0.7500    0.0000 C   0  0  0  0  0  0  0  0  0  0  0  0
  -12.4606   -2.2395    0.0000 C   0  0  0  0  0  0  0  0  0  0  0  0
  -12.1083   -3.6975    0.0000 C   0  0  0  0  0  0  0  0  0  0  0  0
  -11.5860   -5.1036    0.0000 C   0  0  0  0  0  0  0  0  0  0  0  0
  -10.9010   -6.4381    0.0000 C   0  0  0  0  0  0  0  0  0  0  0  0
  -10.0630   -7.6822    0.0000 C   0  0  0  0  0  0  0  0  0  0  0  0
   -9.0838   -8.8185    0.0000 C   0  0  0  0  0  0  0  0  0  0  0  0
   -7.9771   -9.8310    0.0000 C   0  0  0  0  0  0  0  0  0  0  0  0
   -6.7583  -10.7054    0.0000 C   0  0  0  0  0  0  0  0  0  0  0  0
   -5.4447  -11.4296    0.0000 C   0  0  0  0  0  0  0  0  0  0  0  0
   -4.0547  -11.9934    0.0000 C   0  0  0  0  0  0  0  0  0  0  0  0
   -2.6077  -12.3888    0.0000 C   0  0  0  0  0  0  0  0  0  0  0  0
   -1.1242  -12.6102    0.0000 C   0  0  0  0  0  0  0  0  0  0  0  0
    0.3752  -12.6547    0.0000 C   0  0  0  0  0  0  0  0  0  0  0  0
    1.8692  -12.5215    0.0000 C   0  0  0  0  0  0  0  0  0  0  0  0
    3.3371  -12.2125    0.0000 C   0  0  0  0  0  0  0  0  0  0  0  0
    4.7581  -11.7321    0.0000 C   0  0  0  0  0  0  0  0  0  0  0  0
    6.1123  -11.0870    0.0000 C   0  0  0  0  0  0  0  0  0  0  0  0
    7.3807  -10.2863    0.0000 C   0  0  0  0  0  0  0  0  0  0  0  0
    8.5454   -9.3411    0.0000 C   0  0  0  0  0  0  0  0  0  0  0  0
    9.5903   -8.2649    0.0000 C   0  0  0  0  0  0  0  0  0  0  0  0
   10.5005   -7.0726    0.0000 C   0  0  0  0  0  0  0  0  0  0  0  0
   11.2633   -5.7810    0.0000 C   0  0  0  0  0  0  0  0  0  0  0  0
   11.8679   -4.4083    0.0000 C   0  0  0  0  0  0  0  0  0  0  0  0
   12.3060   -2.9737    0.0000 C   0  0  0  0  0  0  0  0  0  0  0  0
   12.5714   -1.4974    0.0000 C   0  0  0  0  0  0  0  0  0  0  0  0
  1  2  1  0
  2  3  1  0
  3  4  1  0
  4  5  1  0
  5  6  1  0
  6  7  1  0
  7  8  1  0
  8  9  1  0
  9 10  1  0
 10 11  1  0
 11 12  1  0
 12 13  1  0
 13 14  1  0
 14 15  1  0
 15 16  1  0
 16 17  1  0
 17 18  1  0
 18 19  1  0
 19 20  1  0
 20 21  1  0
 21 22  1  0
 22 23  1  0
 23 24  1  0
 24 25  1  0
 25 26  1  0
 26 27  1  0
 27 28  1  0
 28 29  1  0
 29 30  1  0
 30 31  1  0
 31 32  1  0
 32 33  1  0
 33 34  1  0
 34 35  1  0
 35 36  1  0
 36 37  1  0
 37 38  1  0
 38 39  1  0
 39 40  1  0
 40 41  1  0
 41 42  1  0
 42 43  1  0
 43 44  1  0
 44 45  1  0
 45 46  1  0
 46 47  1  0
 47 48  1  0
 48 49  1  0
 49 50  1  0
 50 51  1  0
 51 52  1  0
 52 53  1  0
 53 54  1  0
 54  2  1  0
M  END
>  <Title>  (838) 
idABEHgen9

$$$$

     RDKit          2D

 17 17  0  0  0  0  0  0  0  0999 V2000
   19.2760   -0.0000    0.0000 C   0  0  0  0  0  0  0  0  0  0  0  0
   17.7760   -0.0000    0.0000 C   0  0  0  0  0  0  0  0  0  0  0  0
   16.2760   -0.0000    0.0000 C   0  0  0  0  0  0  0  0  0  0  0  0
   14.7760   -0.0000    0.0000 C   0  0  0  0  0  0  0  0  0  0  0  0
   13.2760   -0.0000    0.0000 C   0  0  0  0  0  0  0  0  0  0  0  0
   11.7760   -0.0000    0.0000 C   0  0  0  0  0  0  0  0  0  0  0  0
   10.2760   -0.0000    0.0000 C   0  0  0  0  0  0  0  0  0  0  0  0
    8.7760   -0.0000    0.0000 C   0  0  0  0  0  0  0  0  0  0  0  0
    7.2760   -0.0000    0.0000 C   0  0  0  0  0  0  0  0  0  0  0  0
    5.7760   -0.0000    0.0000 C   0  0  0  0  0  0  0  0  0  0  0  0
    4.2760   -0.0000    0.0000 C   0  0  0  0  0  0  0  0  0  0  0  0
    2.7760    0.0000    0.0000 C   0  0  0  0  0  0  0  0  0  0  0  0
    1.2760    0.0000    0.0000 C   0  0  0  0  0  0  0  0  0  0  0  0
    0.3943    1.2135    0.0000 C   0  0  0  0  0  0  0  0  0  0  0  0
   -1.0323    0.7500    0.0000 C   0  0  0  0  0  0  0  0  0  0  0  0
   -1.0323   -0.7500    0.0000 C   0  0  0  0  0  0  0  0  0  0  0  0
    0.3943   -1.2135    0.0000 C   0  0  0  0  0  0  0  0  0  0  0  0
  1  2  3  0
  2  3  1  0
  3  4  3  0
  4  5  1  0
  5  6  3  0
  6  7  1  0
  7  8  3  0
  8  9  1  0
  9 10  3  0
 10 11  1  0
 11 12  3  0
 12 13  1  0
 13 14  2  0
 14 15  1  0
 15 16  2  0
 16 17  1  0
 17 13  1  0
M  END
>  <Title>  (839) 
idABEIgen9

$$$$

     RDKit          2D

 97 97  0  0  0  0  0  0  0  0999 V2000
   24.4224   -0.0000    0.0000 C   0  0  0  0  0  0  0  0  0  0  0  0
   22.9224    0.0000    0.0000 C   0  0  0  0  0  0  0  0  0  0  0  0
   22.8733   -1.4992    0.0000 C   0  0  0  0  0  0  0  0  0  0  0  0
   22.7263   -2.9920    0.0000 C   0  0  0  0  0  0  0  0  0  0  0  0
   22.4820   -4.4719    0.0000 C   0  0  0  0  0  0  0  0  0  0  0  0
   22.1413   -5.9328    0.0000 C   0  0  0  0  0  0  0  0  0  0  0  0
   21.7059   -7.3682    0.0000 C   0  0  0  0  0  0  0  0  0  0  0  0
   21.1775   -8.7720    0.0000 C   0  0  0  0  0  0  0  0  0  0  0  0
   20.5585  -10.1383    0.0000 C   0  0  0  0  0  0  0  0  0  0  0  0
   19.8514  -11.4612    0.0000 C   0  0  0  0  0  0  0  0  0  0  0  0
   19.0593  -12.7350    0.0000 C   0  0  0  0  0  0  0  0  0  0  0  0
   18.1856  -13.9543    0.0000 C   0  0  0  0  0  0  0  0  0  0  0  0
   17.2340  -15.1138    0.0000 C   0  0  0  0  0  0  0  0  0  0  0  0
   16.2086  -16.2086    0.0000 C   0  0  0  0  0  0  0  0  0  0  0  0
   15.1138  -17.2340    0.0000 C   0  0  0  0  0  0  0  0  0  0  0  0
   13.9543  -18.1856    0.0000 C   0  0  0  0  0  0  0  0  0  0  0  0
   12.7350  -19.0593    0.0000 C   0  0  0  0  0  0  0  0  0  0  0  0
   11.4612  -19.8514    0.0000 C   0  0  0  0  0  0  0  0  0  0  0  0
   10.1383  -20.5585    0.0000 C   0  0  0  0  0  0  0  0  0  0  0  0
    8.7720  -21.1775    0.0000 C   0  0  0  0  0  0  0  0  0  0  0  0
    7.3682  -21.7059    0.0000 C   0  0  0  0  0  0  0  0  0  0  0  0
    5.9328  -22.1413    0.0000 C   0  0  0  0  0  0  0  0  0  0  0  0
    4.4719  -22.4820    0.0000 C   0  0  0  0  0  0  0  0  0  0  0  0
    2.9920  -22.7263    0.0000 C   0  0  0  0  0  0  0  0  0  0  0  0
    1.4992  -22.8733    0.0000 C   0  0  0  0  0  0  0  0  0  0  0  0
   -0.0000  -22.9224    0.0000 C   0  0  0  0  0  0  0  0  0  0  0  0
   -1.4992  -22.8733    0.0000 C   0  0  0  0  0  0  0  0  0  0  0  0
   -2.9920  -22.7263    0.0000 C   0  0  0  0  0  0  0  0  0  0  0  0
   -4.4719  -22.4820    0.0000 C   0  0  0  0  0  0  0  0  0  0  0  0
   -5.9328  -22.1413    0.0000 C   0  0  0  0  0  0  0  0  0  0  0  0
   -7.3682  -21.7059    0.0000 C   0  0  0  0  0  0  0  0  0  0  0  0
   -8.7720  -21.1775    0.0000 C   0  0  0  0  0  0  0  0  0  0  0  0
  -10.1383  -20.5585    0.0000 C   0  0  0  0  0  0  0  0  0  0  0  0
  -11.4612  -19.8514    0.0000 C   0  0  0  0  0  0  0  0  0  0  0  0
  -12.7350  -19.0593    0.0000 C   0  0  0  0  0  0  0  0  0  0  0  0
  -13.9543  -18.1856    0.0000 C   0  0  0  0  0  0  0  0  0  0  0  0
  -15.1138  -17.2340    0.0000 C   0  0  0  0  0  0  0  0  0  0  0  0
  -16.2086  -16.2086    0.0000 C   0  0  0  0  0  0  0  0  0  0  0  0
  -17.2340  -15.1138    0.0000 C   0  0  0  0  0  0  0  0  0  0  0  0
  -18.1856  -13.9543    0.0000 C   0  0  0  0  0  0  0  0  0  0  0  0
  -19.0593  -12.7350    0.0000 C   0  0  0  0  0  0  0  0  0  0  0  0
  -19.8514  -11.4612    0.0000 C   0  0  0  0  0  0  0  0  0  0  0  0
  -20.5585  -10.1383    0.0000 C   0  0  0  0  0  0  0  0  0  0  0  0
  -21.1775   -8.7720    0.0000 C   0  0  0  0  0  0  0  0  0  0  0  0
  -21.7059   -7.3682    0.0000 C   0  0  0  0  0  0  0  0  0  0  0  0
  -22.1413   -5.9328    0.0000 C   0  0  0  0  0  0  0  0  0  0  0  0
  -22.4820   -4.4719    0.0000 C   0  0  0  0  0  0  0  0  0  0  0  0
  -22.7263   -2.9920    0.0000 C   0  0  0  0  0  0  0  0  0  0  0  0
  -22.8733   -1.4992    0.0000 C   0  0  0  0  0  0  0  0  0  0  0  0
  -22.9224    0.0000    0.0000 C   0  0  0  0  0  0  0  0  0  0  0  0
  -22.8733    1.4992    0.0000 C   0  0  0  0  0  0  0  0  0  0  0  0
  -22.7263    2.9920    0.0000 C   0  0  0  0  0  0  0  0  0  0  0  0
  -22.4820    4.4719    0.0000 C   0  0  0  0  0  0  0  0  0  0  0  0
  -22.1413    5.9328    0.0000 C   0  0  0  0  0  0  0  0  0  0  0  0
  -21.7059    7.3682    0.0000 C   0  0  0  0  0  0  0  0  0  0  0  0
  -21.1775    8.7720    0.0000 C   0  0  0  0  0  0  0  0  0  0  0  0
  -20.5585   10.1383    0.0000 C   0  0  0  0  0  0  0  0  0  0  0  0
  -19.8514   11.4612    0.0000 C   0  0  0  0  0  0  0  0  0  0  0  0
  -19.0593   12.7350    0.0000 C   0  0  0  0  0  0  0  0  0  0  0  0
  -18.1856   13.9543    0.0000 C   0  0  0  0  0  0  0  0  0  0  0  0
  -17.2340   15.1138    0.0000 C   0  0  0  0  0  0  0  0  0  0  0  0
  -16.2086   16.2086    0.0000 C   0  0  0  0  0  0  0  0  0  0  0  0
  -15.1138   17.2340    0.0000 C   0  0  0  0  0  0  0  0  0  0  0  0
  -13.9543   18.1856    0.0000 C   0  0  0  0  0  0  0  0  0  0  0  0
  -12.7350   19.0593    0.0000 C   0  0  0  0  0  0  0  0  0  0  0  0
  -11.4612   19.8514    0.0000 C   0  0  0  0  0  0  0  0  0  0  0  0
  -10.1383   20.5585    0.0000 C   0  0  0  0  0  0  0  0  0  0  0  0
   -8.7720   21.1775    0.0000 C   0  0  0  0  0  0  0  0  0  0  0  0
   -7.3682   21.7059    0.0000 C   0  0  0  0  0  0  0  0  0  0  0  0
   -5.9328   22.1413    0.0000 C   0  0  0  0  0  0  0  0  0  0  0  0
   -4.4719   22.4820    0.0000 C   0  0  0  0  0  0  0  0  0  0  0  0
   -2.9920   22.7263    0.0000 C   0  0  0  0  0  0  0  0  0  0  0  0
   -1.4992   22.8733    0.0000 C   0  0  0  0  0  0  0  0  0  0  0  0
    0.0000   22.9224    0.0000 C   0  0  0  0  0  0  0  0  0  0  0  0
    1.4992   22.8733    0.0000 C   0  0  0  0  0  0  0  0  0  0  0  0
    2.9920   22.7263    0.0000 C   0  0  0  0  0  0  0  0  0  0  0  0
    4.4719   22.4820    0.0000 C   0  0  0  0  0  0  0  0  0  0  0  0
    5.9328   22.1413    0.0000 C   0  0  0  0  0  0  0  0  0  0  0  0
    7.3682   21.7059    0.0000 C   0  0  0  0  0  0  0  0  0  0  0  0
    8.7720   21.1775    0.0000 C   0  0  0  0  0  0  0  0  0  0  0  0
   10.1383   20.5585    0.0000 C   0  0  0  0  0  0  0  0  0  0  0  0
   11.4612   19.8514    0.0000 C   0  0  0  0  0  0  0  0  0  0  0  0
   12.7350   19.0593    0.0000 C   0  0  0  0  0  0  0  0  0  0  0  0
   13.9543   18.1856    0.0000 C   0  0  0  0  0  0  0  0  0  0  0  0
   15.1138   17.2340    0.0000 C   0  0  0  0  0  0  0  0  0  0  0  0
   16.2086   16.2086    0.0000 C   0  0  0  0  0  0  0  0  0  0  0  0
   17.2340   15.1138    0.0000 C   0  0  0  0  0  0  0  0  0  0  0  0
   18.1856   13.9543    0.0000 C   0  0  0  0  0  0  0  0  0  0  0  0
   19.0593   12.7350    0.0000 C   0  0  0  0  0  0  0  0  0  0  0  0
   19.8514   11.4612    0.0000 C   0  0  0  0  0  0  0  0  0  0  0  0
   20.5585   10.1383    0.0000 C   0  0  0  0  0  0  0  0  0  0  0  0
   21.1775    8.7720    0.0000 C   0  0  0  0  0  0  0  0  0  0  0  0
   21.7059    7.3682    0.0000 C   0  0  0  0  0  0  0  0  0  0  0  0
   22.1413    5.9328    0.0000 C   0  0  0  0  0  0  0  0  0  0  0  0
   22.4820    4.4719    0.0000 C   0  0  0  0  0  0  0  0  0  0  0  0
   22.7263    2.9920    0.0000 C   0  0  0  0  0  0  0  0  0  0  0  0
   22.8733    1.4992    0.0000 C   0  0  0  0  0  0  0  0  0  0  0  0
  1  2  1  0
  2  3  1  0
  3  4  1  0
  4  5  1  0
  5  6  1  0
  6  7  1  0
  7  8  1  0
  8  9  1  0
  9 10  1  0
 10 11  1  0
 11 12  1  0
 12 13  1  0
 13 14  1  0
 14 15  1  0
 15 16  1  0
 16 17  1  0
 17 18  1  0
 18 19  1  0
 19 20  1  0
 20 21  1  0
 21 22  1  0
 22 23  1  0
 23 24  1  0
 24 25  1  0
 25 26  1  0
 26 27  1  0
 27 28  1  0
 28 29  1  0
 29 30  1  0
 30 31  1  0
 31 32  1  0
 32 33  1  0
 33 34  1  0
 34 35  1  0
 35 36  1  0
 36 37  1  0
 37 38  1  0
 38 39  1  0
 39 40  1  0
 40 41  1  0
 41 42  1  0
 42 43  1  0
 43 44  1  0
 44 45  1  0
 45 46  1  0
 46 47  1  0
 47 48  1  0
 48 49  1  0
 49 50  1  0
 50 51  1  0
 51 52  1  0
 52 53  1  0
 53 54  1  0
 54 55  1  0
 55 56  1  0
 56 57  1  0
 57 58  1  0
 58 59  1  0
 59 60  1  0
 60 61  1  0
 61 62  1  0
 62 63  1  0
 63 64  1  0
 64 65  1  0
 65 66  1  0
 66 67  1  0
 67 68  1  0
 68 69  1  0
 69 70  1  0
 70 71  1  0
 71 72  1  0
 72 73  1  0
 73 74  1  0
 74 75  1  0
 75 76  1  0
 76 77  1  0
 77 78  1  0
 78 79  1  0
 79 80  1  0
 80 81  1  0
 81 82  1  0
 82 83  1  0
 83 84  1  0
 84 85  1  0
 85 86  1  0
 86 87  1  0
 87 88  1  0
 88 89  1  0
 89 90  1  0
 90 91  1  0
 91 92  1  0
 92 93  1  0
 93 94  1  0
 94 95  1  0
 95 96  1  0
 96 97  1  0
 97  2  1  0
M  END
>  <Title>  (840) 
idABEJgen9

$$$$

     RDKit          2D

  8  8  0  0  0  0  0  0  0  0999 V2000
    4.5000    0.0000    0.0000 N   0  0  0  0  0  0  0  0  0  0  0  0
    3.0000    0.0000    0.0000 C   0  0  0  0  0  0  0  0  0  0  0  0
    1.5000    0.0000    0.0000 C   0  0  0  0  0  0  0  0  0  0  0  0
    0.7500   -1.2990    0.0000 C   0  0  0  0  0  0  0  0  0  0  0  0
   -0.7500   -1.2990    0.0000 C   0  0  0  0  0  0  0  0  0  0  0  0
   -1.5000    0.0000    0.0000 C   0  0  0  0  0  0  0  0  0  0  0  0
   -0.7500    1.2990    0.0000 C   0  0  0  0  0  0  0  0  0  0  0  0
    0.7500    1.2990    0.0000 C   0  0  0  0  0  0  0  0  0  0  0  0
  1  2  3  0
  2  3  1  0
  3  4  2  0
  4  5  1  0
  5  6  1  0
  6  7  1  0
  7  8  1  0
  8  3  1  0
M  END
>  <Title>  (841) 
idABEKgen9

$$$$

     RDKit          2D

 21 23  0  0  0  0  0  0  0  0999 V2000
   10.0355    0.6881    0.0000 C   0  0  0  0  0  0  0  0  0  0  0  0
    8.5683    0.3762    0.0000 C   0  0  0  0  0  0  0  0  0  0  0  0
    7.4536    1.3799    0.0000 C   0  0  0  0  0  0  0  0  0  0  0  0
    6.1545    0.6299    0.0000 C   0  0  0  0  0  0  0  0  0  0  0  0
    6.4664   -0.8373    0.0000 C   0  0  0  0  0  0  0  0  0  0  0  0
    5.4627   -1.9520    0.0000 C   0  0  0  0  0  0  0  0  0  0  0  0
    5.9262   -3.3786    0.0000 O   0  0  0  0  0  0  0  0  0  0  0  0
    3.9955   -1.6402    0.0000 N   0  0  0  0  0  0  0  0  0  0  0  0
    2.9918   -2.7549    0.0000 C   0  0  0  0  0  0  0  0  0  0  0  0
    3.3037   -4.2221    0.0000 N   0  0  0  0  0  0  0  0  0  0  0  0
    2.0046   -4.9721    0.0000 N   0  0  0  0  0  0  0  0  0  0  0  0
    0.8899   -3.9684    0.0000 N   0  0  0  0  0  0  0  0  0  0  0  0
    1.5000   -2.5981    0.0000 N   0  0  0  0  0  0  0  0  0  0  0  0
    0.7500   -1.2990    0.0000 C   0  0  0  0  0  0  0  0  0  0  0  0
    1.5000    0.0000    0.0000 C   0  0  0  0  0  0  0  0  0  0  0  0
    0.7500    1.2990    0.0000 C   0  0  0  0  0  0  0  0  0  0  0  0
   -0.7500    1.2990    0.0000 C   0  0  0  0  0  0  0  0  0  0  0  0
   -1.5000    0.0000    0.0000 C   0  0  0  0  0  0  0  0  0  0  0  0
   -0.7500   -1.2990    0.0000 C   0  0  0  0  0  0  0  0  0  0  0  0
    7.9582   -0.9941    0.0000 C   0  0  0  0  0  0  0  0  0  0  0  0
    8.7082   -2.2931    0.0000 O   0  0  0  0  0  0  0  0  0  0  0  0
  1  2  1  0
  2  3  1  0
  3  4  1  0
  4  5  1  0
  5  6  1  0
  6  7  2  0
  6  8  1  0
  8  9  1  0
  9 10  2  0
 10 11  1  0
 11 12  2  0
 12 13  1  0
 13 14  1  0
 14 15  2  0
 15 16  1  0
 16 17  2  0
 17 18  1  0
 18 19  2  0
  5 20  1  0
 20 21  2  0
 20  2  1  0
 13  9  1  0
 19 14  1  0
M  END
>  <Title>  (842) 
idABELgen9

$$$$

     RDKit          2D

  5  4  0  0  0  0  0  0  0  0999 V2000
    0.0000    0.0000    0.0000 C   0  0  0  0  0  0  0  0  0  0  0  0
    1.2990    0.7500    0.0000 C   0  0  0  0  0  0  0  0  0  0  0  0
    2.5981   -0.0000    0.0000 C   0  0  0  0  0  0  0  0  0  0  0  0
    3.8971    0.7500    0.0000 C   0  0  0  0  0  0  0  0  0  0  0  0
    5.1962   -0.0000    0.0000 C   0  0  0  0  0  0  0  0  0  0  0  0
  1  2  1  0
  2  3  2  3
  3  4  1  0
  4  5  1  0
M  END
>  <Title>  (843) 
idABEMgen9

$$$$
